REMARK SMILES CS(=O)(=O)c1ccc(C2=NN(c3ccc(C(=O)OCCOC(=O)c4ccc(-c5c6nc(c(-c7c(F)c(F)c(F)c(F)c7F)c7ccc([nH]7)c(-c7c(F)c(F)c(F)c(F)c7F)c7nc(c(-c8c(F)c(F)c(F)c(F)c8F)c8ccc5[nH]8)C=C7)C=C6)cc4)cc3)[C@H](c3cccs3)C2)cc1
REMARK SMILES IDX 19 1 18 2 16 3 17 4 15 5 12 6 13 7 88 8 14 9 87 10 11 11
REMARK SMILES IDX 9 12 10 13 95 14 89 15 8 16 5 17 6 18 97 19 7 20 96 21 2 22
REMARK SMILES IDX 1 23 3 24 4 25 90 26 91 27 94 28 92 29 93 30 20 31 21 32
REMARK SMILES IDX 22 33 23 34 24 35 25 36 86 37 26 38 85 39 27 40 28 41 29 42
REMARK SMILES IDX 79 43 30 44 84 45 78 46 80 47 31 48 83 49 77 50 76 51 32 53
REMARK SMILES IDX 64 54 44 55 63 56 45 57 48 58 62 59 81 60 46 61 47 62 61 64
REMARK SMILES IDX 82 65 49 66 33 67 34 68 42 69 35 70 36 71 40 72 43 73 37 74
REMARK SMILES IDX 38 75 41 76 39 77 65 78 66 79 74 80 67 81 68 82 72 83 75 84
REMARK SMILES IDX 69 85 70 86 73 87 71 88 50 89 51 90 59 91 52 92 53 93 57 94
REMARK SMILES IDX 60 95 54 96 55 97 58 98 56 99
REMARK H PARENT 80 52 48 63
REMARK Flexibility Score: inf
ROOT
ATOM      1  C   UNL     1       6.557 -14.239   1.735  1.00  0.00     0.275 C 
ENDROOT
BRANCH   1   2
ATOM      2  O   UNL     1       5.619 -13.173   1.982  1.00  0.00    -0.458 OA
BRANCH   2   3
ATOM      3  C   UNL     1       6.045 -12.196   2.818  1.00  0.00     0.338 C 
ATOM      4  O   UNL     1       7.119 -12.153   3.401  1.00  0.00    -0.246 OA
BRANCH   3   5
ATOM      5  C   UNL     1       5.060 -11.090   2.883  1.00  0.00     0.060 A 
ATOM      6  C   UNL     1       3.268  -8.938   3.120  1.00  0.00     0.060 A 
ATOM      7  C   UNL     1       4.641  -8.729   3.267  1.00  0.00     0.029 A 
ATOM      8  C   UNL     1       2.807 -10.227   2.815  1.00  0.00     0.029 A 
ATOM      9  C   UNL     1       5.526  -9.803   3.188  1.00  0.00     0.018 A 
ATOM     10  C   UNL     1       3.695 -11.299   2.682  1.00  0.00     0.018 A 
BRANCH   6  11
ATOM     11  N   UNL     1       2.355  -7.919   3.406  1.00  0.00    -0.257 N 
ATOM     12  C   UNL     1       1.929  -5.835   3.502  1.00  0.00     0.071 C 
ATOM     13  N   UNL     1       2.396  -6.752   2.712  1.00  0.00    -0.176 NA
ATOM     14  C   UNL     1       1.643  -6.261   4.915  1.00  0.00     0.091 C 
ATOM     15  C   UNL     1       1.962  -7.754   4.814  1.00  0.00     0.154 C 
BRANCH  12  16
ATOM     16  C   UNL     1       1.647  -4.463   3.053  1.00  0.00    -0.002 A 
ATOM     17  C   UNL     1       0.944  -1.916   2.189  1.00  0.00     0.067 A 
ATOM     18  C   UNL     1       0.593  -3.026   1.416  1.00  0.00     0.021 A 
ATOM     19  C   UNL     1       1.650  -2.071   3.388  1.00  0.00     0.021 A 
ATOM     20  C   UNL     1       0.963  -4.301   1.842  1.00  0.00     0.011 A 
ATOM     21  C   UNL     1       1.994  -3.353   3.827  1.00  0.00     0.011 A 
BRANCH  17  22
ATOM     22  S   UNL     1       0.428  -0.298   1.660  1.00  0.00     0.175 S 
ATOM     23  C   UNL     1       1.187  -0.087   0.072  1.00  0.00     0.163 C 
ATOM     24  O   UNL     1       1.024   0.668   2.563  1.00  0.00    -0.224 OA
ATOM     25  O   UNL     1      -1.009  -0.362   1.477  1.00  0.00    -0.224 OA
ENDBRANCH  17  22
ENDBRANCH  12  16
BRANCH  15  26
ATOM     26  C   UNL     1       0.881  -8.713   5.260  1.00  0.00     0.030 A 
ATOM     27  C   UNL     1       1.080  -9.948   5.857  1.00  0.00     0.017 A 
ATOM     28  S   UNL     1      -0.782  -8.450   4.936  1.00  0.00    -0.147 S 
ATOM     29  C   UNL     1      -0.130 -10.677   6.031  1.00  0.00     0.012 A 
ATOM     30  C   UNL     1      -1.222  -9.967   5.589  1.00  0.00     0.065 A 
ENDBRANCH  15  26
ENDBRANCH   6  11
ENDBRANCH   3   5
ENDBRANCH   2   3
ENDBRANCH   1   2
BRANCH   1  31
ATOM     31  C   UNL     1       7.258 -14.038   0.393  1.00  0.00     0.275 C 
BRANCH  31  32
ATOM     32  O   UNL     1       8.063 -12.845   0.440  1.00  0.00    -0.458 OA
BRANCH  32  33
ATOM     33  C   UNL     1       7.783 -11.905  -0.490  1.00  0.00     0.338 C 
ATOM     34  O   UNL     1       6.983 -11.974  -1.407  1.00  0.00    -0.246 OA
BRANCH  33  35
ATOM     35  C   UNL     1       8.603 -10.708  -0.240  1.00  0.00     0.060 A 
ATOM     36  C   UNL     1       8.412  -9.984   0.934  1.00  0.00     0.016 A 
ATOM     37  C   UNL     1       9.464 -10.226  -1.223  1.00  0.00     0.016 A 
ATOM     38  C   UNL     1       9.011  -8.738   1.099  1.00  0.00     0.010 A 
ATOM     39  C   UNL     1      10.139  -9.017  -1.016  1.00  0.00     0.010 A 
ATOM     40  C   UNL     1       9.893  -8.238   0.131  1.00  0.00    -0.014 A 
BRANCH  40  41
ATOM     41  C   UNL     1      10.510  -6.889   0.288  1.00  0.00     0.031 A 
ATOM     42  C   UNL     1      10.278  -5.826  -0.756  1.00  0.00     0.074 A 
ATOM     43  C   UNL     1      11.263  -6.595   1.368  1.00  0.00     0.049 A 
ATOM     44  N   UNL     1      10.868  -4.666  -0.908  1.00  0.00    -0.248 NA
ATOM     45  C   UNL     1       9.253  -6.112  -1.773  1.00  0.00     0.031 C 
ATOM     46  C   UNL     1      11.534  -7.499   2.486  1.00  0.00     0.029 A 
ATOM     47  N   UNL     1      11.938  -5.445   1.704  1.00  0.00    -0.354 N 
ATOM     48  C   UNL     1      10.331  -4.115  -2.065  1.00  0.00     0.074 A 
ATOM     49  C   UNL     1       9.368  -5.065  -2.578  1.00  0.00     0.031 C 
ATOM     50  C   UNL     1      12.283  -6.861   3.398  1.00  0.00     0.029 A 
ATOM     51  C   UNL     1      12.623  -5.536   2.892  1.00  0.00     0.049 A 
ATOM     52  H   UNL     1      11.931  -4.633   1.147  1.00  0.00     0.167 HD
ATOM     53  C   UNL     1      10.618  -2.925  -2.646  1.00  0.00     0.037 A 
ATOM     54  C   UNL     1      13.467  -4.672   3.488  1.00  0.00     0.037 A 
ATOM     55  C   UNL     1      11.528  -1.950  -2.102  1.00  0.00     0.049 A 
ATOM     56  C   UNL     1      13.788  -3.368   2.810  1.00  0.00     0.074 A 
ATOM     57  C   UNL     1      11.876  -0.712  -2.615  1.00  0.00     0.029 A 
ATOM     58  N   UNL     1      12.218  -2.096  -0.908  1.00  0.00    -0.354 N 
ATOM     59  N   UNL     1      13.327  -2.887   1.682  1.00  0.00    -0.248 NA
ATOM     60  C   UNL     1      14.766  -2.497   3.479  1.00  0.00     0.031 C 
ATOM     61  C   UNL     1      12.799  -0.120  -1.746  1.00  0.00     0.029 A 
ATOM     62  C   UNL     1      12.995  -0.972  -0.672  1.00  0.00     0.049 A 
ATOM     63  H   UNL     1      12.165  -2.881  -0.317  1.00  0.00     0.167 HD
ATOM     64  C   UNL     1      13.948  -1.657   1.510  1.00  0.00     0.074 A 
ATOM     65  C   UNL     1      14.800  -1.454   2.663  1.00  0.00     0.031 C 
ATOM     66  C   UNL     1      13.830  -0.780   0.484  1.00  0.00     0.037 A 
BRANCH  53  67
ATOM     67  C   UNL     1       9.960  -2.611  -3.958  1.00  0.00     0.064 A 
ATOM     68  C   UNL     1       8.605  -2.260  -4.044  1.00  0.00     0.173 A 
ATOM     69  C   UNL     1      10.716  -2.607  -5.141  1.00  0.00     0.173 A 
ATOM     70  F   UNL     1       7.837  -2.259  -2.945  1.00  0.00    -0.203 F 
ATOM     71  C   UNL     1       8.027  -1.934  -5.269  1.00  0.00     0.198 A 
ATOM     72  C   UNL     1      10.142  -2.256  -6.359  1.00  0.00     0.198 A 
ATOM     73  F   UNL     1      12.018  -2.928  -5.112  1.00  0.00    -0.203 F 
ATOM     74  F   UNL     1       6.723  -1.635  -5.333  1.00  0.00    -0.200 F 
ATOM     75  C   UNL     1       8.797  -1.924  -6.423  1.00  0.00     0.200 A 
ATOM     76  F   UNL     1      10.890  -2.232  -7.471  1.00  0.00    -0.200 F 
ATOM     77  F   UNL     1       8.241  -1.597  -7.598  1.00  0.00    -0.200 F 
ENDBRANCH  53  67
BRANCH  54  78
ATOM     78  C   UNL     1      14.110  -5.031   4.780  1.00  0.00     0.064 A 
ATOM     79  C   UNL     1      13.798  -4.339   5.958  1.00  0.00     0.173 A 
ATOM     80  C   UNL     1      15.055  -6.064   4.862  1.00  0.00     0.173 A 
ATOM     81  F   UNL     1      12.923  -3.323   5.927  1.00  0.00    -0.203 F 
ATOM     82  C   UNL     1      14.417  -4.659   7.165  1.00  0.00     0.198 A 
ATOM     83  C   UNL     1      15.649  -6.404   6.075  1.00  0.00     0.198 A 
ATOM     84  F   UNL     1      15.393  -6.754   3.762  1.00  0.00    -0.203 F 
ATOM     85  F   UNL     1      14.136  -3.950   8.268  1.00  0.00    -0.200 F 
ATOM     86  C   UNL     1      15.335  -5.696   7.224  1.00  0.00     0.200 A 
ATOM     87  F   UNL     1      16.525  -7.416   6.129  1.00  0.00    -0.200 F 
ATOM     88  F   UNL     1      15.925  -6.007   8.387  1.00  0.00    -0.200 F 
ENDBRANCH  54  78
BRANCH  66  89
ATOM     89  C   UNL     1      14.617   0.492   0.579  1.00  0.00     0.064 A 
ATOM     90  C   UNL     1      16.006   0.512   0.383  1.00  0.00     0.173 A 
ATOM     91  C   UNL     1      13.971   1.709   0.843  1.00  0.00     0.173 A 
ATOM     92  F   UNL     1      16.670  -0.629   0.145  1.00  0.00    -0.203 F 
ATOM     93  C   UNL     1      16.723   1.702   0.471  1.00  0.00     0.198 A 
ATOM     94  C   UNL     1      14.688   2.901   0.905  1.00  0.00     0.198 A 
ATOM     95  F   UNL     1      12.644   1.743   1.034  1.00  0.00    -0.203 F 
ATOM     96  F   UNL     1      18.055   1.692   0.325  1.00  0.00    -0.200 F 
ATOM     97  C   UNL     1      16.063   2.895   0.727  1.00  0.00     0.200 A 
ATOM     98  F   UNL     1      14.048   4.054   1.143  1.00  0.00    -0.200 F 
ATOM     99  F   UNL     1      16.755   4.040   0.809  1.00  0.00    -0.200 F 
ENDBRANCH  66  89
ENDBRANCH  40  41
ENDBRANCH  33  35
ENDBRANCH  32  33
ENDBRANCH  31  32
ENDBRANCH   1  31
TORSDOF 15
