REMARK SMILES COc1ccc(-n2c(C)nnc2SCC(=O)OCCOC(=O)c2ccc(-c3c4nc(c(-c5c(F)c(F)c(F)c(F)c5F)c5ccc([nH]5)c(-c5c(F)c(F)c(F)c(F)c5F)c5nc(c(-c6c(F)c(F)c(F)c(F)c6F)c6ccc3[nH]6)C=C5)C=C4)cc2)cc1F
REMARK SMILES IDX 18 1 17 2 15 3 16 4 14 5 13 6 12 7 7 8 8 9 9 10 10 11 11 12
REMARK SMILES IDX 6 13 3 14 4 15 87 16 5 17 86 18 88 19 2 20 1 21 19 22 20 23
REMARK SMILES IDX 21 24 22 25 23 26 24 27 85 28 25 29 84 30 26 31 27 32 28 33
REMARK SMILES IDX 78 34 29 35 83 36 77 37 79 38 30 39 82 40 76 41 75 42 31 44
REMARK SMILES IDX 63 45 43 46 62 47 44 48 47 49 61 50 80 51 45 52 46 53 60 55
REMARK SMILES IDX 81 56 48 57 32 58 33 59 41 60 34 61 35 62 39 63 42 64 36 65
REMARK SMILES IDX 37 66 40 67 38 68 64 69 65 70 73 71 66 72 67 73 71 74 74 75
REMARK SMILES IDX 68 76 69 77 72 78 70 79 49 80 50 81 58 82 51 83 52 84 56 85
REMARK SMILES IDX 59 86 53 87 54 88 57 89 55 90
REMARK H PARENT 79 43 47 54
REMARK Flexibility Score: inf
ROOT
ATOM      1  C   UNL     1       6.078   3.556  -1.578  1.00  0.00     0.274 C 
ENDROOT
BRANCH   1   2
ATOM      2  O   UNL     1       5.651   3.606  -2.960  1.00  0.00    -0.461 OA
BRANCH   2   3
ATOM      3  C   UNL     1       5.699   2.449  -3.680  1.00  0.00     0.316 C 
ATOM      4  O   UNL     1       6.028   1.368  -3.203  1.00  0.00    -0.251 OA
BRANCH   3   5
ATOM      5  C   UNL     1       5.250   2.589  -5.140  1.00  0.00     0.200 C 
BRANCH   5   6
ATOM      6  S   UNL     1       5.175   4.289  -5.666  1.00  0.00    -0.074 SA
BRANCH   6   7
ATOM      7  C   UNL     1       3.556   4.918  -5.804  1.00  0.00     0.196 A 
ATOM      8  N   UNL     1       2.544   5.144  -4.856  1.00  0.00    -0.274 N 
ATOM      9  C   UNL     1       2.084   6.422  -5.224  1.00  0.00     0.135 A 
ATOM     10  C   UNL     1       1.280   7.376  -4.441  1.00  0.00     0.090 C 
ATOM     11  N   UNL     1       2.514   6.726  -6.426  1.00  0.00    -0.134 NA
ATOM     12  N   UNL     1       3.405   5.780  -6.795  1.00  0.00    -0.123 NA
BRANCH   8  13
ATOM     13  C   UNL     1       1.965   4.298  -3.837  1.00  0.00     0.053 A 
ATOM     14  C   UNL     1       0.359   1.953  -1.376  1.00  0.00     0.154 A 
ATOM     15  C   UNL     1      -0.256   3.623  -1.473  1.00  0.00     0.052 A 
ATOM     16  C   UNL     1       1.692   1.533  -2.388  1.00  0.00     0.167 A 
ATOM     17  C   UNL     1       0.671   4.923  -2.734  1.00  0.00     0.031 A 
ATOM     18  C   UNL     1       2.439   2.628  -3.552  1.00  0.00     0.070 A 
ATOM     19  F   UNL     1       2.279   0.334  -2.252  1.00  0.00    -0.203 F 
BRANCH  14  20
ATOM     20  O   UNL     1      -0.293   1.074  -0.563  1.00  0.00    -0.494 OA
ATOM     21  C   UNL     1       0.578   0.252   0.212  1.00  0.00     0.278 C 
ENDBRANCH  14  20
ENDBRANCH   8  13
ENDBRANCH   6   7
ENDBRANCH   5   6
ENDBRANCH   3   5
ENDBRANCH   2   3
ENDBRANCH   1   2
BRANCH   1  22
ATOM     22  C   UNL     1       5.131   4.351  -0.693  1.00  0.00     0.275 C 
BRANCH  22  23
ATOM     23  O   UNL     1       3.859   3.683  -0.747  1.00  0.00    -0.458 OA
BRANCH  23  24
ATOM     24  C   UNL     1       3.086   4.286  -1.665  1.00  0.00     0.338 C 
ATOM     25  O   UNL     1       3.359   5.373  -2.172  1.00  0.00    -0.246 OA
BRANCH  24  26
ATOM     26  C   UNL     1       1.635   3.667  -1.719  1.00  0.00     0.060 A 
ATOM     27  C   UNL     1       0.310   3.159  -3.186  1.00  0.00     0.016 A 
ATOM     28  C   UNL     1       1.154   4.919  -0.540  1.00  0.00     0.016 A 
ATOM     29  C   UNL     1      -1.196   4.187  -3.297  1.00  0.00     0.010 A 
ATOM     30  C   UNL     1      -0.245   5.773  -0.764  1.00  0.00     0.010 A 
ATOM     31  C   UNL     1      -1.326   5.525  -2.102  1.00  0.00    -0.014 A 
BRANCH  31  32
ATOM     32  C   UNL     1      -2.251   6.662  -2.107  1.00  0.00     0.031 A 
ATOM     33  C   UNL     1      -3.541   5.968  -2.033  1.00  0.00     0.074 A 
ATOM     34  C   UNL     1      -1.897   7.986  -1.925  1.00  0.00     0.049 A 
ATOM     35  N   UNL     1      -4.341   5.737  -3.018  1.00  0.00    -0.248 NA
ATOM     36  C   UNL     1      -3.747   5.030  -0.893  1.00  0.00     0.031 C 
ATOM     37  C   UNL     1      -0.554   8.605  -1.776  1.00  0.00     0.029 A 
ATOM     38  N   UNL     1      -2.681   9.121  -1.759  1.00  0.00    -0.354 N 
ATOM     39  C   UNL     1      -5.361   5.008  -2.429  1.00  0.00     0.074 A 
ATOM     40  C   UNL     1      -4.761   4.289  -1.347  1.00  0.00     0.031 C 
ATOM     41  C   UNL     1      -0.618   9.879  -1.314  1.00  0.00     0.029 A 
ATOM     42  C   UNL     1      -1.998  10.271  -1.228  1.00  0.00     0.049 A 
ATOM     43  H   UNL     1      -3.638   9.137  -1.989  1.00  0.00     0.167 HD
ATOM     44  C   UNL     1      -6.622   5.511  -2.505  1.00  0.00     0.037 A 
ATOM     45  C   UNL     1      -2.558  11.456  -0.811  1.00  0.00     0.037 A 
ATOM     46  C   UNL     1      -6.682   6.502  -3.558  1.00  0.00     0.049 A 
ATOM     47  C   UNL     1      -3.923  11.450  -1.380  1.00  0.00     0.074 A 
ATOM     48  C   UNL     1      -6.511   6.437  -4.927  1.00  0.00     0.029 A 
ATOM     49  N   UNL     1      -6.306   7.767  -3.165  1.00  0.00    -0.354 N 
ATOM     50  N   UNL     1      -4.152  11.477  -2.663  1.00  0.00    -0.248 NA
ATOM     51  C   UNL     1      -4.932  10.824  -0.544  1.00  0.00     0.031 C 
ATOM     52  C   UNL     1      -5.814   7.622  -5.297  1.00  0.00     0.029 A 
ATOM     53  C   UNL     1      -5.737   8.470  -4.196  1.00  0.00     0.049 A 
ATOM     54  H   UNL     1      -6.430   8.122  -2.256  1.00  0.00     0.167 HD
ATOM     55  C   UNL     1      -5.075  10.459  -2.842  1.00  0.00     0.074 A 
ATOM     56  C   UNL     1      -5.566  10.137  -1.497  1.00  0.00     0.031 C 
ATOM     57  C   UNL     1      -5.083   9.745  -4.005  1.00  0.00     0.037 A 
BRANCH  44  58
ATOM     58  C   UNL     1      -7.606   5.460  -1.367  1.00  0.00     0.064 A 
ATOM     59  C   UNL     1      -7.272   5.412   0.009  1.00  0.00     0.173 A 
ATOM     60  C   UNL     1      -8.962   5.663  -1.651  1.00  0.00     0.173 A 
ATOM     61  F   UNL     1      -6.009   5.401   0.447  1.00  0.00    -0.203 F 
ATOM     62  C   UNL     1      -8.229   5.479   1.017  1.00  0.00     0.198 A 
ATOM     63  C   UNL     1      -9.915   5.787  -0.637  1.00  0.00     0.198 A 
ATOM     64  F   UNL     1      -9.374   5.790  -2.921  1.00  0.00    -0.203 F 
ATOM     65  F   UNL     1      -7.844   5.406   2.300  1.00  0.00    -0.200 F 
ATOM     66  C   UNL     1      -9.551   5.679   0.695  1.00  0.00     0.200 A 
ATOM     67  F   UNL     1     -11.189   6.047  -0.954  1.00  0.00    -0.200 F 
ATOM     68  F   UNL     1     -10.463   5.808   1.666  1.00  0.00    -0.200 F 
ENDBRANCH  44  58
BRANCH  45  69
ATOM     69  C   UNL     1      -2.234  12.427   0.294  1.00  0.00     0.064 A 
ATOM     70  C   UNL     1      -1.599  11.971   1.461  1.00  0.00     0.173 A 
ATOM     71  C   UNL     1      -2.861  13.695   0.406  1.00  0.00     0.173 A 
ATOM     72  F   UNL     1      -1.019  10.764   1.481  1.00  0.00    -0.203 F 
ATOM     73  C   UNL     1      -1.641  12.687   2.668  1.00  0.00     0.198 A 
ATOM     74  C   UNL     1      -2.891  14.419   1.614  1.00  0.00     0.198 A 
ATOM     75  F   UNL     1      -3.528  14.214  -0.636  1.00  0.00    -0.203 F 
ATOM     76  F   UNL     1      -1.103  12.151   3.773  1.00  0.00    -0.200 F 
ATOM     77  C   UNL     1      -2.301  13.900   2.752  1.00  0.00     0.200 A 
ATOM     78  F   UNL     1      -3.554  15.584   1.694  1.00  0.00    -0.200 F 
ATOM     79  F   UNL     1      -2.405  14.536   3.929  1.00  0.00    -0.200 F 
ENDBRANCH  45  69
BRANCH  57  80
ATOM     80  C   UNL     1      -4.313  10.289  -5.187  1.00  0.00     0.064 A 
ATOM     81  C   UNL     1      -5.080  10.715  -6.276  1.00  0.00     0.173 A 
ATOM     82  C   UNL     1      -2.917  10.227  -5.368  1.00  0.00     0.173 A 
ATOM     83  F   UNL     1      -6.417  10.757  -6.168  1.00  0.00    -0.203 F 
ATOM     84  C   UNL     1      -4.500  11.015  -7.503  1.00  0.00     0.198 A 
ATOM     85  C   UNL     1      -2.332  10.566  -6.595  1.00  0.00     0.198 A 
ATOM     86  F   UNL     1      -2.112   9.780  -4.395  1.00  0.00    -0.203 F 
ATOM     87  F   UNL     1      -5.284  11.327  -8.544  1.00  0.00    -0.200 F 
ATOM     88  C   UNL     1      -3.127  10.942  -7.665  1.00  0.00     0.200 A 
ATOM     89  F   UNL     1      -1.002  10.480  -6.756  1.00  0.00    -0.200 F 
ATOM     90  F   UNL     1      -2.579  11.207  -8.859  1.00  0.00    -0.200 F 
ENDBRANCH  57  80
ENDBRANCH  31  32
ENDBRANCH  24  26
ENDBRANCH  23  24
ENDBRANCH  22  23
ENDBRANCH   1  22
TORSDOF 15
