REMARK SMILES O=C(CC[NH+]1CCC(CC(=O)OCCOC(=O)c2ccc(-c3c4nc(c(-c5c(F)c(F)c(F)c(F)c5F)c5ccc([nH]5)c(-c5c(F)c(F)c(F)c(F)c5F)c5nc(c(-c6c(F)c(F)c(F)c(F)c6F)c6ccc3[nH]6)C=C5)C=C4)cc2)CC1)NC1CC1
REMARK SMILES IDX 12 1 10 2 11 3 9 4 8 5 5 6 6 7 82 8 7 10 81 11 4 12 3 13
REMARK SMILES IDX 2 14 1 15 83 16 84 18 85 19 86 20 13 21 14 22 15 23 16 24
REMARK SMILES IDX 17 25 18 26 19 27 80 28 20 29 79 30 21 31 22 32 23 33 73 34
REMARK SMILES IDX 24 35 78 36 72 37 74 38 25 39 77 40 71 41 70 42 26 44 58 45
REMARK SMILES IDX 38 46 57 47 39 48 42 49 56 50 75 51 40 52 41 53 55 55 76 56
REMARK SMILES IDX 43 57 27 58 28 59 36 60 29 61 30 62 34 63 37 64 31 65 32 66
REMARK SMILES IDX 35 67 33 68 59 69 60 70 68 71 61 72 62 73 66 74 69 75 63 76
REMARK SMILES IDX 64 77 67 78 65 79 44 80 45 81 53 82 46 83 47 84 51 85 54 86
REMARK SMILES IDX 48 87 49 88 52 89 50 90
REMARK H PARENT 5 9 83 17 74 43 42 54
REMARK Flexibility Score: inf
ROOT
ATOM      1  O   UNL     1       6.590  -4.768  -2.705  1.00  0.00    -0.462 OA
ENDROOT
BRANCH   1   2
ATOM      2  C   UNL     1       7.282  -3.749  -3.272  1.00  0.00     0.306 C 
ATOM      3  O   UNL     1       7.723  -3.761  -4.416  1.00  0.00    -0.252 OA
BRANCH   2   4
ATOM      4  C   UNL     1       7.544  -2.604  -2.311  1.00  0.00     0.126 C 
BRANCH   4   5
ATOM      5  C   UNL     1       6.335  -2.007  -1.571  1.00  0.00     0.011 C 
ATOM      6  N   UNL     1       4.905  -0.934   0.763  1.00  0.00    -0.334 N 
ATOM      7  C   UNL     1       4.636  -2.279   0.270  1.00  0.00     0.262 C 
ATOM      8  C   UNL     1       5.591  -0.012  -0.133  1.00  0.00     0.262 C 
ATOM      9  H   UNL     1       5.663  -1.076   1.430  1.00  0.00     0.348 HD
ATOM     10  C   UNL     1       5.836  -2.902  -0.435  1.00  0.00     0.066 C 
ATOM     11  C   UNL     1       6.718  -0.647  -0.957  1.00  0.00     0.066 C 
BRANCH   6  12
ATOM     12  C   UNL     1       3.805  -0.380   1.570  1.00  0.00     0.272 C 
BRANCH  12  13
ATOM     13  C   UNL     1       2.823   0.630   0.966  1.00  0.00     0.161 C 
BRANCH  13  14
ATOM     14  C   UNL     1       1.788   0.079   0.003  1.00  0.00     0.225 C 
ATOM     15  O   UNL     1       0.590   0.073   0.269  1.00  0.00    -0.275 OA
ATOM     16  N   UNL     1       2.302  -0.302  -1.214  1.00  0.00    -0.353 N 
ATOM     17  H   UNL     1       3.282  -0.342  -1.302  1.00  0.00     0.163 HD
BRANCH  16  18
ATOM     18  C   UNL     1       1.524  -0.642  -2.357  1.00  0.00     0.082 C 
ATOM     19  C   UNL     1       2.228  -0.817  -3.679  1.00  0.00     0.027 C 
ATOM     20  C   UNL     1       1.627  -2.002  -2.983  1.00  0.00     0.027 C 
ENDBRANCH  16  18
ENDBRANCH  13  14
ENDBRANCH  12  13
ENDBRANCH   6  12
ENDBRANCH   4   5
ENDBRANCH   2   4
ENDBRANCH   1   2
BRANCH   1  21
ATOM     21  C   UNL     1       6.356  -5.937  -3.517  1.00  0.00     0.274 C 
BRANCH  21  22
ATOM     22  C   UNL     1       4.979  -5.924  -4.193  1.00  0.00     0.275 C 
BRANCH  22  23
ATOM     23  O   UNL     1       4.924  -5.008  -5.303  1.00  0.00    -0.458 OA
BRANCH  23  24
ATOM     24  C   UNL     1       4.611  -3.739  -4.968  1.00  0.00     0.338 C 
ATOM     25  O   UNL     1       4.341  -3.325  -3.847  1.00  0.00    -0.246 OA
BRANCH  24  26
ATOM     26  C   UNL     1       4.762  -2.840  -6.120  1.00  0.00     0.060 A 
ATOM     27  C   UNL     1       5.568  -1.707  -5.963  1.00  0.00     0.016 A 
ATOM     28  C   UNL     1       4.075  -3.065  -7.314  1.00  0.00     0.016 A 
ATOM     29  C   UNL     1       5.694  -0.792  -7.005  1.00  0.00     0.010 A 
ATOM     30  C   UNL     1       4.203  -2.146  -8.359  1.00  0.00     0.010 A 
ATOM     31  C   UNL     1       5.010  -1.004  -8.209  1.00  0.00    -0.014 A 
BRANCH  31  32
ATOM     32  C   UNL     1       5.140  -0.030  -9.317  1.00  0.00     0.031 A 
ATOM     33  C   UNL     1       4.023   0.925  -9.616  1.00  0.00     0.074 A 
ATOM     34  C   UNL     1       6.264  -0.014 -10.055  1.00  0.00     0.049 A 
ATOM     35  N   UNL     1       3.909   1.784 -10.596  1.00  0.00    -0.248 NA
ATOM     36  C   UNL     1       2.882   0.911  -8.688  1.00  0.00     0.031 C 
ATOM     37  C   UNL     1       7.428  -0.871  -9.832  1.00  0.00     0.029 A 
ATOM     38  N   UNL     1       6.606   0.742 -11.147  1.00  0.00    -0.354 N 
ATOM     39  C   UNL     1       2.680   2.404 -10.414  1.00  0.00     0.074 A 
ATOM     40  C   UNL     1       2.079   1.812  -9.237  1.00  0.00     0.031 C 
ATOM     41  C   UNL     1       8.355  -0.599 -10.765  1.00  0.00     0.029 A 
ATOM     42  C   UNL     1       7.832   0.418 -11.674  1.00  0.00     0.049 A 
ATOM     43  H   UNL     1       6.029   1.448 -11.518  1.00  0.00     0.167 HD
ATOM     44  C   UNL     1       2.112   3.379 -11.163  1.00  0.00     0.037 A 
ATOM     45  C   UNL     1       8.448   0.869 -12.782  1.00  0.00     0.037 A 
ATOM     46  C   UNL     1       2.719   3.965 -12.330  1.00  0.00     0.049 A 
ATOM     47  C   UNL     1       7.767   1.908 -13.630  1.00  0.00     0.074 A 
ATOM     48  C   UNL     1       2.227   4.966 -13.150  1.00  0.00     0.029 A 
ATOM     49  N   UNL     1       3.953   3.597 -12.846  1.00  0.00    -0.354 N 
ATOM     50  N   UNL     1       6.607   2.491 -13.450  1.00  0.00    -0.248 NA
ATOM     51  C   UNL     1       8.479   2.348 -14.838  1.00  0.00     0.031 C 
ATOM     52  C   UNL     1       3.145   5.176 -14.185  1.00  0.00     0.029 A 
ATOM     53  C   UNL     1       4.230   4.338 -13.985  1.00  0.00     0.049 A 
ATOM     54  H   UNL     1       4.545   2.912 -12.461  1.00  0.00     0.167 HD
ATOM     55  C   UNL     1       6.461   3.382 -14.504  1.00  0.00     0.074 A 
ATOM     56  C   UNL     1       7.655   3.270 -15.315  1.00  0.00     0.031 C 
ATOM     57  C   UNL     1       5.429   4.218 -14.775  1.00  0.00     0.037 A 
BRANCH  44  58
ATOM     58  C   UNL     1       0.749   3.857 -10.758  1.00  0.00     0.064 A 
ATOM     59  C   UNL     1       0.556   4.665  -9.628  1.00  0.00     0.173 A 
ATOM     60  C   UNL     1      -0.375   3.534 -11.535  1.00  0.00     0.173 A 
ATOM     61  F   UNL     1       1.597   4.990  -8.846  1.00  0.00    -0.203 F 
ATOM     62  C   UNL     1      -0.714   5.115  -9.279  1.00  0.00     0.198 A 
ATOM     63  C   UNL     1      -1.640   4.007 -11.196  1.00  0.00     0.198 A 
ATOM     64  F   UNL     1      -0.244   2.768 -12.628  1.00  0.00    -0.203 F 
ATOM     65  F   UNL     1      -0.881   5.854  -8.173  1.00  0.00    -0.200 F 
ATOM     66  C   UNL     1      -1.810   4.792 -10.066  1.00  0.00     0.200 A 
ATOM     67  F   UNL     1      -2.695   3.701 -11.964  1.00  0.00    -0.200 F 
ATOM     68  F   UNL     1      -3.031   5.231  -9.732  1.00  0.00    -0.200 F 
ENDBRANCH  44  58
BRANCH  45  69
ATOM     69  C   UNL     1       9.776   0.324 -13.160  1.00  0.00     0.064 A 
ATOM     70  C   UNL     1      10.930   1.114 -13.075  1.00  0.00     0.173 A 
ATOM     71  C   UNL     1       9.919  -0.997 -13.611  1.00  0.00     0.173 A 
ATOM     72  F   UNL     1      10.840   2.390 -12.673  1.00  0.00    -0.203 F 
ATOM     73  C   UNL     1      12.176   0.606 -13.437  1.00  0.00     0.198 A 
ATOM     74  C   UNL     1      11.168  -1.511 -13.947  1.00  0.00     0.198 A 
ATOM     75  F   UNL     1       8.843  -1.792 -13.711  1.00  0.00    -0.203 F 
ATOM     76  F   UNL     1      13.259   1.393 -13.383  1.00  0.00    -0.200 F 
ATOM     77  C   UNL     1      12.296  -0.708 -13.866  1.00  0.00     0.200 A 
ATOM     78  F   UNL     1      11.280  -2.784 -14.350  1.00  0.00    -0.200 F 
ATOM     79  F   UNL     1      13.495  -1.197 -14.208  1.00  0.00    -0.200 F 
ENDBRANCH  45  69
BRANCH  57  80
ATOM     80  C   UNL     1       5.563   5.104 -15.978  1.00  0.00     0.064 A 
ATOM     81  C   UNL     1       5.436   4.600 -17.280  1.00  0.00     0.173 A 
ATOM     82  C   UNL     1       5.785   6.481 -15.822  1.00  0.00     0.173 A 
ATOM     83  F   UNL     1       5.240   3.288 -17.480  1.00  0.00    -0.203 F 
ATOM     84  C   UNL     1       5.548   5.440 -18.385  1.00  0.00     0.198 A 
ATOM     85  C   UNL     1       5.871   7.321 -16.928  1.00  0.00     0.198 A 
ATOM     86  F   UNL     1       5.909   7.012 -14.597  1.00  0.00    -0.203 F 
ATOM     87  F   UNL     1       5.466   4.931 -19.622  1.00  0.00    -0.200 F 
ATOM     88  C   UNL     1       5.758   6.800 -18.208  1.00  0.00     0.200 A 
ATOM     89  F   UNL     1       6.064   8.636 -16.756  1.00  0.00    -0.200 F 
ATOM     90  F   UNL     1       5.861   7.607 -19.273  1.00  0.00    -0.200 F 
ENDBRANCH  57  80
ENDBRANCH  31  32
ENDBRANCH  24  26
ENDBRANCH  23  24
ENDBRANCH  22  23
ENDBRANCH  21  22
ENDBRANCH   1  21
TORSDOF 16
