REMARK SMILES O=C(C[C@H]1CC[C@@H](C(=O)OCCOC(=O)c2ccc(-c3c4nc(c(-c5c(F)c(F)c(F)c(F)c5F)c5ccc([nH]5)c(-c5c(F)c(F)c(F)c(F)c5F)c5nc(c(-c6c(F)c(F)c(F)c(F)c6F)c6ccc3[nH]6)C=C5)C=C4)cc2)C1)c1ccc(Cl)cc1
REMARK SMILES IDX 11 1 10 2 8 3 9 4 7 5 4 6 5 7 79 8 6 9 3 10 2 11 1 12 80 13
REMARK SMILES IDX 81 14 86 15 82 16 85 17 83 18 84 19 12 20 13 21 14 22 15 23
REMARK SMILES IDX 16 24 17 25 78 26 18 27 77 28 19 29 20 30 21 31 71 32 22 33
REMARK SMILES IDX 76 34 70 35 72 36 23 37 75 38 69 39 68 40 24 42 56 43 36 44
REMARK SMILES IDX 55 45 37 46 40 47 54 48 73 49 38 50 39 51 53 53 74 54 41 55
REMARK SMILES IDX 25 56 26 57 34 58 27 59 28 60 32 61 35 62 29 63 30 64 33 65
REMARK SMILES IDX 31 66 57 67 58 68 66 69 59 70 60 71 64 72 67 73 61 74 62 75
REMARK SMILES IDX 65 76 63 77 42 78 43 79 51 80 44 81 45 82 49 83 52 84 46 85
REMARK SMILES IDX 47 86 50 87 48 88
REMARK H PARENT 72 41 40 52
REMARK Flexibility Score: inf
ROOT
ATOM      1  C   UNL     1       6.427  -5.666   2.445  1.00  0.00     0.274 C 
ENDROOT
BRANCH   1   2
ATOM      2  O   UNL     1       5.819  -4.861   1.407  1.00  0.00    -0.462 OA
BRANCH   2   3
ATOM      3  C   UNL     1       4.462  -4.800   1.402  1.00  0.00     0.309 C 
ATOM      4  O   UNL     1       3.739  -5.344   2.230  1.00  0.00    -0.252 OA
BRANCH   3   5
ATOM      5  C   UNL     1       3.890  -3.970   0.259  1.00  0.00     0.099 C 
ATOM      6  C   UNL     1       3.849  -1.509   0.365  1.00  0.00    -0.003 C 
ATOM      7  C   UNL     1       4.352  -1.962  -1.003  1.00  0.00     0.005 C 
ATOM      8  C   UNL     1       3.075  -2.769   0.786  1.00  0.00     0.019 C 
ATOM      9  C   UNL     1       4.880  -3.370  -0.748  1.00  0.00     0.015 C 
BRANCH   6  10
ATOM     10  C   UNL     1       4.945  -1.145   1.387  1.00  0.00     0.084 C 
BRANCH  10  11
ATOM     11  C   UNL     1       6.011  -0.207   0.849  1.00  0.00     0.163 C 
ATOM     12  O   UNL     1       5.802   0.972   0.590  1.00  0.00    -0.294 OA
BRANCH  11  13
ATOM     13  C   UNL     1       7.331  -0.810   0.557  1.00  0.00     0.018 A 
ATOM     14  C   UNL     1       7.719  -0.944  -0.779  1.00  0.00     0.013 A 
ATOM     15  C   UNL     1       8.109  -1.351   1.583  1.00  0.00     0.013 A 
ATOM     16  C   UNL     1       8.839  -1.711  -1.099  1.00  0.00     0.021 A 
ATOM     17  C   UNL     1       9.253  -2.086   1.259  1.00  0.00     0.021 A 
ATOM     18  C   UNL     1       9.594  -2.288  -0.080  1.00  0.00     0.041 A 
ATOM     19  Cl  UNL     1      10.945  -3.275  -0.478  1.00  0.00    -0.084 Cl
ENDBRANCH  11  13
ENDBRANCH  10  11
ENDBRANCH   6  10
ENDBRANCH   3   5
ENDBRANCH   2   3
ENDBRANCH   1   2
BRANCH   1  20
ATOM     20  C   UNL     1       6.978  -4.785   3.568  1.00  0.00     0.275 C 
BRANCH  20  21
ATOM     21  O   UNL     1       5.890  -4.060   4.158  1.00  0.00    -0.458 OA
BRANCH  21  22
ATOM     22  C   UNL     1       6.202  -2.905   4.791  1.00  0.00     0.338 C 
ATOM     23  O   UNL     1       7.324  -2.496   5.035  1.00  0.00    -0.246 OA
BRANCH  22  24
ATOM     24  C   UNL     1       4.959  -2.122   5.033  1.00  0.00     0.060 A 
ATOM     25  C   UNL     1       3.764  -2.471   4.402  1.00  0.00     0.016 A 
ATOM     26  C   UNL     1       5.000  -0.954   5.800  1.00  0.00     0.016 A 
ATOM     27  C   UNL     1       2.665  -1.614   4.438  1.00  0.00     0.010 A 
ATOM     28  C   UNL     1       3.853  -0.153   5.928  1.00  0.00     0.010 A 
ATOM     29  C   UNL     1       2.673  -0.458   5.227  1.00  0.00    -0.014 A 
BRANCH  29  30
ATOM     30  C   UNL     1       1.458   0.410   5.314  1.00  0.00     0.031 A 
ATOM     31  C   UNL     1       1.542   1.889   5.035  1.00  0.00     0.074 A 
ATOM     32  C   UNL     1       0.258  -0.119   5.636  1.00  0.00     0.049 A 
ATOM     33  N   UNL     1       0.667   2.831   5.297  1.00  0.00    -0.248 NA
ATOM     34  C   UNL     1       2.770   2.378   4.392  1.00  0.00     0.031 C 
ATOM     35  C   UNL     1      -0.010  -1.536   5.886  1.00  0.00     0.029 A 
ATOM     36  N   UNL     1      -0.971   0.477   5.801  1.00  0.00    -0.354 N 
ATOM     37  C   UNL     1       1.270   4.026   4.925  1.00  0.00     0.074 A 
ATOM     38  C   UNL     1       2.577   3.691   4.399  1.00  0.00     0.031 C 
ATOM     39  C   UNL     1      -1.319  -1.708   6.113  1.00  0.00     0.029 A 
ATOM     40  C   UNL     1      -1.967  -0.403   6.146  1.00  0.00     0.049 A 
ATOM     41  H   UNL     1      -1.122   1.443   5.682  1.00  0.00     0.167 HD
ATOM     42  C   UNL     1       0.780   5.286   5.024  1.00  0.00     0.037 A 
ATOM     43  C   UNL     1      -3.246  -0.195   6.511  1.00  0.00     0.037 A 
ATOM     44  C   UNL     1      -0.552   5.616   5.467  1.00  0.00     0.049 A 
ATOM     45  C   UNL     1      -3.764   1.208   6.623  1.00  0.00     0.074 A 
ATOM     46  C   UNL     1      -1.140   6.865   5.580  1.00  0.00     0.029 A 
ATOM     47  N   UNL     1      -1.513   4.690   5.841  1.00  0.00    -0.354 N 
ATOM     48  N   UNL     1      -3.149   2.337   6.376  1.00  0.00    -0.248 NA
ATOM     49  C   UNL     1      -5.146   1.366   7.099  1.00  0.00     0.031 C 
ATOM     50  C   UNL     1      -2.449   6.697   6.046  1.00  0.00     0.029 A 
ATOM     51  C   UNL     1      -2.688   5.341   6.189  1.00  0.00     0.049 A 
ATOM     52  H   UNL     1      -1.382   3.714   5.857  1.00  0.00     0.167 HD
ATOM     53  C   UNL     1      -4.062   3.338   6.670  1.00  0.00     0.074 A 
ATOM     54  C   UNL     1      -5.285   2.684   7.086  1.00  0.00     0.031 C 
ATOM     55  C   UNL     1      -3.895   4.681   6.611  1.00  0.00     0.037 A 
BRANCH  42  56
ATOM     56  C   UNL     1       1.697   6.424   4.684  1.00  0.00     0.064 A 
ATOM     57  C   UNL     1       2.015   6.755   3.361  1.00  0.00     0.173 A 
ATOM     58  C   UNL     1       2.204   7.242   5.707  1.00  0.00     0.173 A 
ATOM     59  F   UNL     1       1.562   6.002   2.349  1.00  0.00    -0.203 F 
ATOM     60  C   UNL     1       2.820   7.856   3.074  1.00  0.00     0.198 A 
ATOM     61  C   UNL     1       2.987   8.355   5.416  1.00  0.00     0.198 A 
ATOM     62  F   UNL     1       1.919   6.973   6.991  1.00  0.00    -0.203 F 
ATOM     63  F   UNL     1       3.135   8.142   1.802  1.00  0.00    -0.200 F 
ATOM     64  C   UNL     1       3.297   8.660   4.099  1.00  0.00     0.200 A 
ATOM     65  F   UNL     1       3.433   9.139   6.408  1.00  0.00    -0.200 F 
ATOM     66  F   UNL     1       4.056   9.728   3.820  1.00  0.00    -0.200 F 
ENDBRANCH  42  56
BRANCH  43  67
ATOM     67  C   UNL     1      -4.106  -1.355   6.864  1.00  0.00     0.064 A 
ATOM     68  C   UNL     1      -5.170  -1.739   6.038  1.00  0.00     0.173 A 
ATOM     69  C   UNL     1      -3.865  -2.115   8.018  1.00  0.00     0.173 A 
ATOM     70  F   UNL     1      -5.457  -1.025   4.940  1.00  0.00    -0.203 F 
ATOM     71  C   UNL     1      -5.960  -2.842   6.354  1.00  0.00     0.198 A 
ATOM     72  C   UNL     1      -4.635  -3.235   8.316  1.00  0.00     0.198 A 
ATOM     73  F   UNL     1      -2.859  -1.784   8.842  1.00  0.00    -0.203 F 
ATOM     74  F   UNL     1      -6.992  -3.171   5.565  1.00  0.00    -0.200 F 
ATOM     75  C   UNL     1      -5.685  -3.596   7.486  1.00  0.00     0.200 A 
ATOM     76  F   UNL     1      -4.355  -3.969   9.401  1.00  0.00    -0.200 F 
ATOM     77  F   UNL     1      -6.435  -4.667   7.778  1.00  0.00    -0.200 F 
ENDBRANCH  43  67
BRANCH  55  78
ATOM     78  C   UNL     1      -5.071   5.528   6.992  1.00  0.00     0.064 A 
ATOM     79  C   UNL     1      -5.455   5.684   8.332  1.00  0.00     0.173 A 
ATOM     80  C   UNL     1      -5.818   6.195   6.010  1.00  0.00     0.173 A 
ATOM     81  F   UNL     1      -4.782   5.049   9.305  1.00  0.00    -0.203 F 
ATOM     82  C   UNL     1      -6.561   6.456   8.673  1.00  0.00     0.198 A 
ATOM     83  C   UNL     1      -6.911   6.985   6.357  1.00  0.00     0.198 A 
ATOM     84  F   UNL     1      -5.489   6.078   4.715  1.00  0.00    -0.203 F 
ATOM     85  F   UNL     1      -6.940   6.553   9.956  1.00  0.00    -0.200 F 
ATOM     86  C   UNL     1      -7.286   7.109   7.686  1.00  0.00     0.200 A 
ATOM     87  F   UNL     1      -7.607   7.619   5.404  1.00  0.00    -0.200 F 
ATOM     88  F   UNL     1      -8.354   7.848   8.016  1.00  0.00    -0.200 F 
ENDBRANCH  55  78
ENDBRANCH  29  30
ENDBRANCH  22  24
ENDBRANCH  21  22
ENDBRANCH  20  21
ENDBRANCH   1  20
TORSDOF 14
