REMARK SMILES COc1ccc(C(=O)OCCOC(=O)c2ccc(-c3c4nc(c(-c5c(F)c(F)c(F)c(F)c5F)c5ccc([nH]5)c(-c5c(F)c(F)c(F)c(F)c5F)c5nc(c(-c6c(F)c(F)c(F)c(F)c6F)c6ccc3[nH]6)C=C5)C=C4)cc2)cc1C(F)(F)F
REMARK SMILES IDX 11 1 10 2 9 3 7 4 8 5 6 6 3 7 4 8 79 9 5 10 78 11 2 12 1 13
REMARK SMILES IDX 80 14 81 15 82 16 83 17 12 18 13 19 14 20 15 21 16 22 77 23
REMARK SMILES IDX 17 24 76 25 18 26 19 27 20 28 70 29 21 30 75 31 69 32 71 33
REMARK SMILES IDX 22 34 74 35 68 36 67 37 23 39 55 40 35 41 54 42 36 43 39 44
REMARK SMILES IDX 53 45 72 46 37 47 38 48 52 50 73 51 40 52 24 53 25 54 33 55
REMARK SMILES IDX 26 56 27 57 31 58 34 59 28 60 29 61 32 62 30 63 56 64 57 65
REMARK SMILES IDX 65 66 58 67 59 68 63 69 66 70 60 71 61 72 64 73 62 74 41 75
REMARK SMILES IDX 42 76 50 77 43 78 44 79 48 80 51 81 45 82 46 83 49 84 47 85
REMARK H PARENT 71 38 39 49
REMARK Flexibility Score: inf
ROOT
ATOM      1  C   UNL     1       3.369   2.935  -7.994  1.00  0.00     0.275 C 
ENDROOT
BRANCH   1   2
ATOM      2  C   UNL     1       3.653   3.647  -6.673  1.00  0.00     0.275 C 
BRANCH   2   3
ATOM      3  O   UNL     1       3.364   2.787  -5.552  1.00  0.00    -0.458 OA
BRANCH   3   4
ATOM      4  C   UNL     1       2.151   2.964  -4.974  1.00  0.00     0.338 C 
ATOM      5  O   UNL     1       1.295   3.768  -5.307  1.00  0.00    -0.246 OA
BRANCH   4   6
ATOM      6  C   UNL     1       1.936   1.980  -3.883  1.00  0.00     0.060 A 
ATOM      7  C   UNL     1       1.418   0.208  -1.786  1.00  0.00     0.131 A 
ATOM      8  C   UNL     1       0.359   0.756  -2.511  1.00  0.00     0.048 A 
ATOM      9  C   UNL     1       2.747   0.495  -2.120  1.00  0.00     0.098 A 
ATOM     10  C   UNL     1       0.617   1.663  -3.534  1.00  0.00     0.019 A 
ATOM     11  C   UNL     1       2.995   1.391  -3.181  1.00  0.00     0.032 A 
BRANCH   7  12
ATOM     12  O   UNL     1       1.130  -0.664  -0.773  1.00  0.00    -0.496 OA
ATOM     13  C   UNL     1       0.717   0.041   0.401  1.00  0.00     0.278 C 
ENDBRANCH   7  12
BRANCH   9  14
ATOM     14  C   UNL     1       3.900  -0.050  -1.318  1.00  0.00     0.419 C 
ATOM     15  F   UNL     1       5.053  -0.125  -2.044  1.00  0.00    -0.166 F 
ATOM     16  F   UNL     1       4.193   0.752  -0.254  1.00  0.00    -0.166 F 
ATOM     17  F   UNL     1       3.711  -1.296  -0.809  1.00  0.00    -0.166 F 
ENDBRANCH   9  14
ENDBRANCH   4   6
ENDBRANCH   3   4
ENDBRANCH   2   3
ENDBRANCH   1   2
BRANCH   1  18
ATOM     18  O   UNL     1       1.958   2.679  -8.112  1.00  0.00    -0.458 OA
BRANCH  18  19
ATOM     19  C   UNL     1       1.605   1.409  -8.400  1.00  0.00     0.338 C 
ATOM     20  O   UNL     1       2.340   0.460  -8.632  1.00  0.00    -0.246 OA
BRANCH  19  21
ATOM     21  C   UNL     1       0.139   1.301  -8.394  1.00  0.00     0.060 A 
ATOM     22  C   UNL     1      -0.554   1.447  -7.193  1.00  0.00     0.016 A 
ATOM     23  C   UNL     1      -0.539   0.946  -9.559  1.00  0.00     0.016 A 
ATOM     24  C   UNL     1      -1.923   1.192  -7.138  1.00  0.00     0.010 A 
ATOM     25  C   UNL     1      -1.924   0.748  -9.516  1.00  0.00     0.010 A 
ATOM     26  C   UNL     1      -2.625   0.839  -8.300  1.00  0.00    -0.014 A 
BRANCH  26  27
ATOM     27  C   UNL     1      -4.071   0.492  -8.230  1.00  0.00     0.031 A 
ATOM     28  C   UNL     1      -4.521  -0.907  -8.555  1.00  0.00     0.074 A 
ATOM     29  C   UNL     1      -4.983   1.407  -7.848  1.00  0.00     0.049 A 
ATOM     30  N   UNL     1      -5.734  -1.375  -8.712  1.00  0.00    -0.248 NA
ATOM     31  C   UNL     1      -3.462  -1.914  -8.735  1.00  0.00     0.031 C 
ATOM     32  C   UNL     1      -4.687   2.783  -7.449  1.00  0.00     0.029 A 
ATOM     33  N   UNL     1      -6.348   1.312  -7.726  1.00  0.00    -0.354 N 
ATOM     34  C   UNL     1      -5.583  -2.713  -9.054  1.00  0.00     0.074 A 
ATOM     35  C   UNL     1      -4.162  -2.985  -9.082  1.00  0.00     0.031 C 
ATOM     36  C   UNL     1      -5.830   3.394  -7.098  1.00  0.00     0.029 A 
ATOM     37  C   UNL     1      -6.946   2.478  -7.313  1.00  0.00     0.049 A 
ATOM     38  H   UNL     1      -6.850   0.487  -7.916  1.00  0.00     0.167 HD
ATOM     39  C   UNL     1      -6.543  -3.631  -9.321  1.00  0.00     0.037 A 
ATOM     40  C   UNL     1      -8.248   2.785  -7.159  1.00  0.00     0.037 A 
ATOM     41  C   UNL     1      -7.958  -3.377  -9.248  1.00  0.00     0.049 A 
ATOM     42  C   UNL     1      -9.296   1.755  -7.480  1.00  0.00     0.074 A 
ATOM     43  C   UNL     1      -9.007  -4.236  -9.526  1.00  0.00     0.029 A 
ATOM     44  N   UNL     1      -8.521  -2.176  -8.843  1.00  0.00    -0.354 N 
ATOM     45  N   UNL     1      -9.143   0.518  -7.884  1.00  0.00    -0.248 NA
ATOM     46  C   UNL     1     -10.700   2.171  -7.344  1.00  0.00     0.031 C 
ATOM     47  C   UNL     1     -10.207  -3.550  -9.304  1.00  0.00     0.029 A 
ATOM     48  C   UNL     1      -9.903  -2.274  -8.860  1.00  0.00     0.049 A 
ATOM     49  H   UNL     1      -8.014  -1.374  -8.582  1.00  0.00     0.167 HD
ATOM     50  C   UNL     1     -10.423   0.008  -8.046  1.00  0.00     0.074 A 
ATOM     51  C   UNL     1     -11.345   1.061  -7.672  1.00  0.00     0.031 C 
ATOM     52  C   UNL     1     -10.803  -1.218  -8.478  1.00  0.00     0.037 A 
BRANCH  39  53
ATOM     53  C   UNL     1      -6.095  -4.997  -9.745  1.00  0.00     0.064 A 
ATOM     54  C   UNL     1      -5.577  -5.921  -8.828  1.00  0.00     0.173 A 
ATOM     55  C   UNL     1      -6.223  -5.398 -11.084  1.00  0.00     0.173 A 
ATOM     56  F   UNL     1      -5.421  -5.578  -7.540  1.00  0.00    -0.203 F 
ATOM     57  C   UNL     1      -5.189  -7.194  -9.238  1.00  0.00     0.198 A 
ATOM     58  C   UNL     1      -5.855  -6.679 -11.486  1.00  0.00     0.198 A 
ATOM     59  F   UNL     1      -6.717  -4.551 -11.999  1.00  0.00    -0.203 F 
ATOM     60  F   UNL     1      -4.664  -8.051  -8.351  1.00  0.00    -0.200 F 
ATOM     61  C   UNL     1      -5.334  -7.574 -10.565  1.00  0.00     0.200 A 
ATOM     62  F   UNL     1      -6.006  -7.047 -12.766  1.00  0.00    -0.200 F 
ATOM     63  F   UNL     1      -4.967  -8.802 -10.956  1.00  0.00    -0.200 F 
ENDBRANCH  39  53
BRANCH  40  64
ATOM     64  C   UNL     1      -8.641   4.146  -6.708  1.00  0.00     0.064 A 
ATOM     65  C   UNL     1      -9.203   4.351  -5.441  1.00  0.00     0.173 A 
ATOM     66  C   UNL     1      -8.471   5.264  -7.538  1.00  0.00     0.173 A 
ATOM     67  F   UNL     1      -9.412   3.308  -4.625  1.00  0.00    -0.203 F 
ATOM     68  C   UNL     1      -9.591   5.622  -5.025  1.00  0.00     0.198 A 
ATOM     69  C   UNL     1      -8.834   6.538  -7.109  1.00  0.00     0.198 A 
ATOM     70  F   UNL     1      -7.942   5.118  -8.761  1.00  0.00    -0.203 F 
ATOM     71  F   UNL     1     -10.164   5.786  -3.825  1.00  0.00    -0.200 F 
ATOM     72  C   UNL     1      -9.399   6.716  -5.856  1.00  0.00     0.200 A 
ATOM     73  F   UNL     1      -8.638   7.593  -7.912  1.00  0.00    -0.200 F 
ATOM     74  F   UNL     1      -9.768   7.940  -5.453  1.00  0.00    -0.200 F 
ENDBRANCH  40  64
BRANCH  52  75
ATOM     75  C   UNL     1     -12.274  -1.492  -8.549  1.00  0.00     0.064 A 
ATOM     76  C   UNL     1     -13.065  -0.968  -9.581  1.00  0.00     0.173 A 
ATOM     77  C   UNL     1     -12.893  -2.311  -7.592  1.00  0.00     0.173 A 
ATOM     78  F   UNL     1     -12.519  -0.168 -10.509  1.00  0.00    -0.203 F 
ATOM     79  C   UNL     1     -14.429  -1.237  -9.642  1.00  0.00     0.198 A 
ATOM     80  C   UNL     1     -14.253  -2.594  -7.668  1.00  0.00     0.198 A 
ATOM     81  F   UNL     1     -12.176  -2.837  -6.588  1.00  0.00    -0.203 F 
ATOM     82  F   UNL     1     -15.174  -0.696 -10.615  1.00  0.00    -0.200 F 
ATOM     83  C   UNL     1     -15.021  -2.053  -8.689  1.00  0.00     0.200 A 
ATOM     84  F   UNL     1     -14.824  -3.386  -6.750  1.00  0.00    -0.200 F 
ATOM     85  F   UNL     1     -16.335  -2.311  -8.749  1.00  0.00    -0.200 F 
ENDBRANCH  52  75
ENDBRANCH  26  27
ENDBRANCH  19  21
ENDBRANCH  18  19
ENDBRANCH   1  18
TORSDOF 13
