REMARK SMILES O=C(OCCOC(=O)c1cc(-c2ccc(F)c(C(F)(F)F)c2)cnc1O)c1ccc(-c2c3nc(c(-c4c(F)c(F)c(F)c(F)c4F)c4ccc([nH]4)c(-c4c(F)c(F)c(F)c(F)c4F)c4nc(c(-c5c(F)c(F)c(F)c(F)c5F)c5ccc2[nH]5)C=C4)C=C3)cc1
REMARK SMILES IDX 4 1 3 2 2 3 1 4 27 5 28 6 89 7 29 8 88 9 30 10 31 11 32 12
REMARK SMILES IDX 82 13 33 14 87 15 81 16 83 17 34 18 86 19 80 20 79 21 35 23
REMARK SMILES IDX 67 24 47 25 66 26 48 27 51 28 65 29 84 30 49 31 50 32 64 34
REMARK SMILES IDX 85 35 52 36 36 37 37 38 45 39 38 40 39 41 43 42 46 43 40 44
REMARK SMILES IDX 41 45 44 46 42 47 68 48 69 49 77 50 70 51 71 52 75 53 78 54
REMARK SMILES IDX 72 55 73 56 76 57 74 58 53 59 54 60 62 61 55 62 56 63 60 64
REMARK SMILES IDX 63 65 57 66 58 67 61 68 59 69 5 70 6 71 7 72 8 73 9 74 10 75
REMARK SMILES IDX 25 76 11 77 24 78 23 79 26 80 12 82 13 83 22 84 14 85 17 86
REMARK SMILES IDX 15 87 16 88 18 89 19 90 20 91 21 92
REMARK H PARENT 83 22 51 33 26 81
REMARK Flexibility Score: inf
ROOT
ATOM      1  C   UNL     1       4.257  -0.306  -1.489  1.00  0.00     0.275 C 
ENDROOT
BRANCH   1   2
ATOM      2  O   UNL     1       3.398  -1.078  -0.635  1.00  0.00    -0.458 OA
BRANCH   2   3
ATOM      3  C   UNL     1       3.370  -1.152   0.714  1.00  0.00     0.338 C 
ATOM      4  O   UNL     1       2.706  -2.035   1.254  1.00  0.00    -0.246 OA
BRANCH   3   5
ATOM      5  C   UNL     1       3.952  -0.095   1.595  1.00  0.00     0.060 A 
ATOM      6  C   UNL     1       3.174   0.243   2.708  1.00  0.00     0.016 A 
ATOM      7  C   UNL     1       5.191   0.533   1.453  1.00  0.00     0.016 A 
ATOM      8  C   UNL     1       3.564   1.259   3.583  1.00  0.00     0.010 A 
ATOM      9  C   UNL     1       5.599   1.539   2.351  1.00  0.00     0.010 A 
ATOM     10  C   UNL     1       4.779   1.930   3.414  1.00  0.00    -0.014 A 
BRANCH  10  11
ATOM     11  C   UNL     1       5.184   2.947   4.423  1.00  0.00     0.031 A 
ATOM     12  C   UNL     1       5.274   4.410   4.088  1.00  0.00     0.074 A 
ATOM     13  C   UNL     1       5.385   2.547   5.694  1.00  0.00     0.049 A 
ATOM     14  N   UNL     1       5.403   5.434   4.897  1.00  0.00    -0.248 NA
ATOM     15  C   UNL     1       5.194   4.777   2.672  1.00  0.00     0.031 C 
ATOM     16  C   UNL     1       5.319   1.159   6.153  1.00  0.00     0.029 A 
ATOM     17  N   UNL     1       5.653   3.263   6.834  1.00  0.00    -0.354 N 
ATOM     18  C   UNL     1       5.345   6.563   4.089  1.00  0.00     0.074 A 
ATOM     19  C   UNL     1       5.224   6.101   2.725  1.00  0.00     0.031 C 
ATOM     20  C   UNL     1       5.489   1.128   7.481  1.00  0.00     0.029 A 
ATOM     21  C   UNL     1       5.737   2.484   7.961  1.00  0.00     0.049 A 
ATOM     22  H   UNL     1       5.772   4.240   6.842  1.00  0.00     0.167 HD
ATOM     23  C   UNL     1       5.380   7.867   4.455  1.00  0.00     0.037 A 
ATOM     24  C   UNL     1       6.002   2.816   9.240  1.00  0.00     0.037 A 
ATOM     25  C   UNL     1       5.593   8.326   5.801  1.00  0.00     0.049 A 
ATOM     26  C   UNL     1       6.229   4.256   9.590  1.00  0.00     0.074 A 
ATOM     27  C   UNL     1       5.654   9.626   6.272  1.00  0.00     0.029 A 
ATOM     28  N   UNL     1       5.830   7.495   6.886  1.00  0.00    -0.354 N 
ATOM     29  N   UNL     1       6.092   5.317   8.833  1.00  0.00    -0.248 NA
ATOM     30  C   UNL     1       6.668   4.548  10.961  1.00  0.00     0.031 C 
ATOM     31  C   UNL     1       6.008   9.582   7.625  1.00  0.00     0.029 A 
ATOM     32  C   UNL     1       6.115   8.254   8.009  1.00  0.00     0.049 A 
ATOM     33  H   UNL     1       5.799   6.511   6.861  1.00  0.00     0.167 HD
ATOM     34  C   UNL     1       6.434   6.401   9.627  1.00  0.00     0.074 A 
ATOM     35  C   UNL     1       6.762   5.872  10.936  1.00  0.00     0.031 C 
ATOM     36  C   UNL     1       6.475   7.714   9.296  1.00  0.00     0.037 A 
BRANCH  23  37
ATOM     37  C   UNL     1       5.219   8.898   3.377  1.00  0.00     0.064 A 
ATOM     38  C   UNL     1       3.962   9.183   2.824  1.00  0.00     0.173 A 
ATOM     39  C   UNL     1       6.317   9.654   2.942  1.00  0.00     0.173 A 
ATOM     40  F   UNL     1       2.879   8.494   3.215  1.00  0.00    -0.203 F 
ATOM     41  C   UNL     1       3.813  10.181   1.863  1.00  0.00     0.198 A 
ATOM     42  C   UNL     1       6.161  10.663   1.995  1.00  0.00     0.198 A 
ATOM     43  F   UNL     1       7.538   9.427   3.449  1.00  0.00    -0.203 F 
ATOM     44  F   UNL     1       2.606  10.428   1.334  1.00  0.00    -0.200 F 
ATOM     45  C   UNL     1       4.911  10.923   1.454  1.00  0.00     0.200 A 
ATOM     46  F   UNL     1       7.220  11.390   1.611  1.00  0.00    -0.200 F 
ATOM     47  F   UNL     1       4.765  11.892   0.539  1.00  0.00    -0.200 F 
ENDBRANCH  23  37
BRANCH  24  48
ATOM     48  C   UNL     1       6.082   1.737  10.257  1.00  0.00     0.064 A 
ATOM     49  C   UNL     1       5.093   1.589  11.236  1.00  0.00     0.173 A 
ATOM     50  C   UNL     1       7.104   0.775  10.209  1.00  0.00     0.173 A 
ATOM     51  F   UNL     1       4.110   2.496  11.337  1.00  0.00    -0.203 F 
ATOM     52  C   UNL     1       5.109   0.506  12.114  1.00  0.00     0.198 A 
ATOM     53  C   UNL     1       7.104  -0.321  11.067  1.00  0.00     0.198 A 
ATOM     54  F   UNL     1       8.076   0.875   9.289  1.00  0.00    -0.203 F 
ATOM     55  F   UNL     1       4.154   0.388  13.046  1.00  0.00    -0.200 F 
ATOM     56  C   UNL     1       6.105  -0.456  12.018  1.00  0.00     0.200 A 
ATOM     57  F   UNL     1       8.057  -1.256  10.956  1.00  0.00    -0.200 F 
ATOM     58  F   UNL     1       6.099  -1.515  12.838  1.00  0.00    -0.200 F 
ENDBRANCH  24  48
BRANCH  36  59
ATOM     59  C   UNL     1       6.936   8.680  10.344  1.00  0.00     0.064 A 
ATOM     60  C   UNL     1       8.294   8.785  10.678  1.00  0.00     0.173 A 
ATOM     61  C   UNL     1       6.037   9.569  10.950  1.00  0.00     0.173 A 
ATOM     62  F   UNL     1       9.190   7.948  10.134  1.00  0.00    -0.203 F 
ATOM     63  C   UNL     1       8.735   9.746  11.584  1.00  0.00     0.198 A 
ATOM     64  C   UNL     1       6.484  10.544  11.836  1.00  0.00     0.198 A 
ATOM     65  F   UNL     1       4.729   9.511  10.657  1.00  0.00    -0.203 F 
ATOM     66  F   UNL     1      10.034   9.817  11.904  1.00  0.00    -0.200 F 
ATOM     67  C   UNL     1       7.831  10.632  12.153  1.00  0.00     0.200 A 
ATOM     68  F   UNL     1       5.612  11.409  12.374  1.00  0.00    -0.200 F 
ATOM     69  F   UNL     1       8.260  11.571  13.007  1.00  0.00    -0.200 F 
ENDBRANCH  36  59
ENDBRANCH  10  11
ENDBRANCH   3   5
ENDBRANCH   2   3
ENDBRANCH   1   2
BRANCH   1  70
ATOM     70  C   UNL     1       3.676   1.042  -1.912  1.00  0.00     0.275 C 
BRANCH  70  71
ATOM     71  O   UNL     1       3.239   1.853  -0.807  1.00  0.00    -0.458 OA
BRANCH  71  72
ATOM     72  C   UNL     1       1.910   1.780  -0.512  1.00  0.00     0.343 C 
ATOM     73  O   UNL     1       1.077   1.094  -1.077  1.00  0.00    -0.246 OA
BRANCH  72  74
ATOM     74  C   UNL     1       1.622   2.613   0.667  1.00  0.00     0.122 A 
ATOM     75  C   UNL     1       0.712   2.143   1.630  1.00  0.00     0.031 A 
ATOM     76  C   UNL     1       2.243   3.836   0.885  1.00  0.00     0.225 A 
ATOM     77  C   UNL     1       0.494   2.871   2.808  1.00  0.00     0.001 A 
ATOM     78  N   UNL     1       2.027   4.582   1.982  1.00  0.00    -0.221 NA
ATOM     79  C   UNL     1       1.180   4.084   2.915  1.00  0.00     0.124 A 
BRANCH  76  80
ATOM     80  O   UNL     1       3.147   4.394   0.028  1.00  0.00    -0.493 OA
ATOM     81  H   UNL     1       3.370   3.955  -0.769  1.00  0.00     0.295 HD
ENDBRANCH  76  80
BRANCH  77  82
ATOM     82  C   UNL     1      -0.337   2.381   3.920  1.00  0.00    -0.016 A 
ATOM     83  C   UNL     1      -1.429   3.127   4.386  1.00  0.00     0.012 A 
ATOM     84  C   UNL     1      -0.006   1.206   4.620  1.00  0.00     0.025 A 
ATOM     85  C   UNL     1      -2.143   2.724   5.520  1.00  0.00     0.040 A 
ATOM     86  C   UNL     1      -0.685   0.814   5.788  1.00  0.00     0.092 A 
ATOM     87  C   UNL     1      -1.759   1.581   6.215  1.00  0.00     0.135 A 
ATOM     88  F   UNL     1      -2.433   1.236   7.319  1.00  0.00    -0.206 F 
BRANCH  86  89
ATOM     89  C   UNL     1      -0.256  -0.378   6.592  1.00  0.00     0.419 C 
ATOM     90  F   UNL     1       0.002  -0.078   7.895  1.00  0.00    -0.166 F 
ATOM     91  F   UNL     1      -1.177  -1.378   6.603  1.00  0.00    -0.166 F 
ATOM     92  F   UNL     1       0.895  -0.944   6.122  1.00  0.00    -0.166 F 
ENDBRANCH  86  89
ENDBRANCH  77  82
ENDBRANCH  72  74
ENDBRANCH  71  72
ENDBRANCH  70  71
ENDBRANCH   1  70
TORSDOF 14
