REMARK SMILES CC(C)(CC(=O)Nc1sc2c(c1C#N)CCCCCC2)CC(=O)OCCOC(=O)c1ccc(-c2c3nc(c(-c4c(F)c(F)c(F)c(F)c4F)c4ccc([nH]4)c(-c4c(F)c(F)c(F)c(F)c4F)c4nc(c(-c5c(F)c(F)c(F)c(F)c5F)c5ccc2[nH]5)C=C4)C=C3)cc1
REMARK SMILES IDX 22 1 23 2 21 3 2 4 1 5 3 6 4 7 5 8 6 9 7 10 8 12 9 13 12 14
REMARK SMILES IDX 10 15 11 16 13 17 14 18 20 19 19 20 18 21 15 23 16 24 17 25
REMARK SMILES IDX 24 27 25 28 26 29 27 30 28 31 29 32 30 33 31 34 92 35 32 36
REMARK SMILES IDX 91 37 33 38 34 39 35 40 85 41 36 42 90 43 84 44 86 45 37 46
REMARK SMILES IDX 89 47 83 48 82 49 38 51 70 52 50 53 69 54 51 55 54 56 68 57
REMARK SMILES IDX 87 58 52 59 53 60 67 62 88 63 55 64 39 65 40 66 48 67 41 68
REMARK SMILES IDX 42 69 46 70 49 71 43 72 44 73 47 74 45 75 71 76 72 77 80 78
REMARK SMILES IDX 73 79 74 80 78 81 81 82 75 83 76 84 79 85 77 86 56 87 57 88
REMARK SMILES IDX 65 89 58 90 59 91 63 92 66 93 60 94 61 95 64 96 62 97
REMARK H PARENT 7 11 86 50 54 61
REMARK Flexibility Score: 90.00
ROOT
ATOM      1  C   UNL     1       0.304  -1.124  -3.471  1.00  0.00     0.306 C 
ATOM      2  O   UNL     1       0.869  -1.190  -4.560  1.00  0.00    -0.252 OA
ENDROOT
BRANCH   1   3
ATOM      3  C   UNL     1       0.663  -2.040  -2.314  1.00  0.00     0.129 C 
BRANCH   3   4
ATOM      4  C   UNL     1       0.366  -1.791  -0.797  1.00  0.00    -0.016 C 
ATOM      5  C   UNL     1       1.473  -0.997  -0.133  1.00  0.00     0.012 C 
ATOM      6  C   UNL     1       0.557  -3.199  -0.135  1.00  0.00     0.012 C 
BRANCH   4   7
ATOM      7  C   UNL     1      -1.036  -1.246  -0.355  1.00  0.00     0.107 C 
BRANCH   7   8
ATOM      8  C   UNL     1      -1.701   0.124  -0.677  1.00  0.00     0.225 C 
ATOM      9  O   UNL     1      -2.666   0.130  -1.464  1.00  0.00    -0.275 OA
ATOM     10  N   UNL     1      -1.506   1.328  -0.051  1.00  0.00    -0.317 N 
ATOM     11  H   UNL     1      -2.094   2.054  -0.363  1.00  0.00     0.170 HD
BRANCH  10  12
ATOM     12  C   UNL     1      -0.628   1.688   0.937  1.00  0.00     0.114 A 
ATOM     13  S   UNL     1       0.954   2.027   0.421  1.00  0.00    -0.121 S 
ATOM     14  C   UNL     1      -0.709   2.492   2.068  1.00  0.00     0.090 A 
ATOM     15  C   UNL     1       1.506   1.802   2.028  1.00  0.00     0.011 A 
ATOM     16  C   UNL     1       0.543   2.417   2.821  1.00  0.00    -0.014 A 
BRANCH  14  17
ATOM     17  C   UNL     1      -1.878   3.224   2.426  1.00  0.00     0.103 C 
ATOM     18  N   UNL     1      -2.813   3.888   2.644  1.00  0.00    -0.192 NA
ENDBRANCH  14  17
BRANCH  15  19
ATOM     19  C   UNL     1       2.825   1.125   2.260  1.00  0.00     0.047 C 
BRANCH  19  20
ATOM     20  C   UNL     1       3.535   1.409   3.571  1.00  0.00     0.006 C 
BRANCH  20  21
ATOM     21  C   UNL     1       2.995   0.651   4.791  1.00  0.00     0.000 CG0
ATOM     22  G   UNL     1       1.482   0.471   4.931  1.00  0.00     0.000 G0
ENDBRANCH  20  21
ENDBRANCH  19  20
ENDBRANCH  15  19
BRANCH  16  23
ATOM     23  C   UNL     1       0.772   2.873   4.225  1.00  0.00     0.038 C 
BRANCH  23  24
ATOM     24  C   UNL     1       0.675   1.737   5.239  1.00  0.00     0.005 C 
BRANCH  24  25
ATOM     25  C   UNL     1       1.482   0.471   4.931  1.00  0.00     0.000 CG0
ATOM     26  G   UNL     1       2.995   0.651   4.791  1.00  0.00     0.000 G0
ENDBRANCH  24  25
ENDBRANCH  23  24
ENDBRANCH  16  23
ENDBRANCH  10  12
ENDBRANCH   7   8
ENDBRANCH   4   7
ENDBRANCH   3   4
ENDBRANCH   1   3
BRANCH   1  27
ATOM     27  O   UNL     1      -0.706  -0.284  -3.189  1.00  0.00    -0.462 OA
BRANCH  27  28
ATOM     28  C   UNL     1      -1.019   0.733  -4.158  1.00  0.00     0.274 C 
BRANCH  28  29
ATOM     29  C   UNL     1      -0.551   2.093  -3.653  1.00  0.00     0.275 C 
BRANCH  29  30
ATOM     30  O   UNL     1       0.831   2.395  -3.923  1.00  0.00    -0.458 OA
BRANCH  30  31
ATOM     31  C   UNL     1       1.742   1.834  -3.101  1.00  0.00     0.338 C 
ATOM     32  O   UNL     1       1.756   0.701  -2.666  1.00  0.00    -0.246 OA
BRANCH  31  33
ATOM     33  C   UNL     1       2.628   2.839  -2.513  1.00  0.00     0.060 A 
ATOM     34  C   UNL     1       3.508   2.409  -1.506  1.00  0.00     0.016 A 
ATOM     35  C   UNL     1       2.400   4.192  -2.758  1.00  0.00     0.016 A 
ATOM     36  C   UNL     1       4.008   3.340  -0.619  1.00  0.00     0.010 A 
ATOM     37  C   UNL     1       2.962   5.122  -1.917  1.00  0.00     0.010 A 
ATOM     38  C   UNL     1       3.675   4.688  -0.800  1.00  0.00    -0.014 A 
BRANCH  38  39
ATOM     39  C   UNL     1       4.381   5.689  -0.018  1.00  0.00     0.031 A 
ATOM     40  C   UNL     1       5.839   5.601  -0.314  1.00  0.00     0.074 A 
ATOM     41  C   UNL     1       3.749   6.659   0.678  1.00  0.00     0.049 A 
ATOM     42  N   UNL     1       6.790   5.287   0.502  1.00  0.00    -0.248 NA
ATOM     43  C   UNL     1       6.255   5.580  -1.735  1.00  0.00     0.031 C 
ATOM     44  C   UNL     1       2.309   6.893   0.819  1.00  0.00     0.029 A 
ATOM     45  N   UNL     1       4.288   7.746   1.307  1.00  0.00    -0.354 N 
ATOM     46  C   UNL     1       7.947   5.295  -0.271  1.00  0.00     0.074 A 
ATOM     47  C   UNL     1       7.528   5.200  -1.638  1.00  0.00     0.031 C 
ATOM     48  C   UNL     1       2.095   8.164   1.237  1.00  0.00     0.029 A 
ATOM     49  C   UNL     1       3.372   8.793   1.510  1.00  0.00     0.049 A 
ATOM     50  H   UNL     1       5.229   7.792   1.591  1.00  0.00     0.167 HD
ATOM     51  C   UNL     1       9.112   5.758   0.256  1.00  0.00     0.037 A 
ATOM     52  C   UNL     1       3.718  10.085   1.776  1.00  0.00     0.037 A 
ATOM     53  C   UNL     1       9.068   5.701   1.697  1.00  0.00     0.049 A 
ATOM     54  C   UNL     1       5.124  10.048   2.279  1.00  0.00     0.074 A 
ATOM     55  C   UNL     1       8.865   4.683   2.611  1.00  0.00     0.029 A 
ATOM     56  N   UNL     1       8.787   6.867   2.366  1.00  0.00    -0.354 N 
ATOM     57  N   UNL     1       5.458   9.479   3.407  1.00  0.00    -0.248 NA
ATOM     58  C   UNL     1       6.172  10.120   1.266  1.00  0.00     0.031 C 
ATOM     59  C   UNL     1       7.996   5.241   3.595  1.00  0.00     0.029 A 
ATOM     60  C   UNL     1       7.822   6.592   3.303  1.00  0.00     0.049 A 
ATOM     61  H   UNL     1       9.205   7.744   2.204  1.00  0.00     0.167 HD
ATOM     62  C   UNL     1       6.576   8.723   3.086  1.00  0.00     0.074 A 
ATOM     63  C   UNL     1       6.972   9.165   1.748  1.00  0.00     0.031 C 
ATOM     64  C   UNL     1       6.896   7.590   3.777  1.00  0.00     0.037 A 
BRANCH  51  65
ATOM     65  C   UNL     1      10.049   6.678  -0.496  1.00  0.00     0.064 A 
ATOM     66  C   UNL     1      11.258   7.050   0.119  1.00  0.00     0.173 A 
ATOM     67  C   UNL     1       9.689   7.444  -1.631  1.00  0.00     0.173 A 
ATOM     68  F   UNL     1      11.690   6.408   1.215  1.00  0.00    -0.203 F 
ATOM     69  C   UNL     1      12.000   8.152  -0.316  1.00  0.00     0.198 A 
ATOM     70  C   UNL     1      10.459   8.508  -2.093  1.00  0.00     0.198 A 
ATOM     71  F   UNL     1       8.532   7.286  -2.280  1.00  0.00    -0.203 F 
ATOM     72  F   UNL     1      13.072   8.546   0.384  1.00  0.00    -0.200 F 
ATOM     73  C   UNL     1      11.596   8.884  -1.417  1.00  0.00     0.200 A 
ATOM     74  F   UNL     1      10.033   9.216  -3.149  1.00  0.00    -0.200 F 
ATOM     75  F   UNL     1      12.270   9.977  -1.796  1.00  0.00    -0.200 F 
ENDBRANCH  51  65
BRANCH  52  76
ATOM     76  C   UNL     1       3.115  11.343   1.246  1.00  0.00     0.064 A 
ATOM     77  C   UNL     1       3.480  12.607   1.753  1.00  0.00     0.173 A 
ATOM     78  C   UNL     1       2.401  11.353   0.033  1.00  0.00     0.173 A 
ATOM     79  F   UNL     1       4.205  12.700   2.878  1.00  0.00    -0.203 F 
ATOM     80  C   UNL     1       3.175  13.796   1.073  1.00  0.00     0.198 A 
ATOM     81  C   UNL     1       2.098  12.538  -0.644  1.00  0.00     0.198 A 
ATOM     82  F   UNL     1       2.069  10.208  -0.578  1.00  0.00    -0.203 F 
ATOM     83  F   UNL     1       3.593  14.975   1.556  1.00  0.00    -0.200 F 
ATOM     84  C   UNL     1       2.496  13.758  -0.133  1.00  0.00     0.200 A 
ATOM     85  F   UNL     1       1.476  12.481  -1.831  1.00  0.00    -0.200 F 
ATOM     86  F   UNL     1       2.264  14.885  -0.821  1.00  0.00    -0.200 F 
ENDBRANCH  52  76
BRANCH  64  87
ATOM     87  C   UNL     1       6.130   7.270   5.029  1.00  0.00     0.064 A 
ATOM     88  C   UNL     1       4.746   7.019   5.082  1.00  0.00     0.173 A 
ATOM     89  C   UNL     1       6.865   7.057   6.201  1.00  0.00     0.173 A 
ATOM     90  F   UNL     1       3.989   7.088   3.979  1.00  0.00    -0.203 F 
ATOM     91  C   UNL     1       4.129   6.620   6.270  1.00  0.00     0.198 A 
ATOM     92  C   UNL     1       6.255   6.625   7.373  1.00  0.00     0.198 A 
ATOM     93  F   UNL     1       8.198   7.217   6.194  1.00  0.00    -0.203 F 
ATOM     94  F   UNL     1       2.808   6.388   6.298  1.00  0.00    -0.200 F 
ATOM     95  C   UNL     1       4.886   6.421   7.413  1.00  0.00     0.200 A 
ATOM     96  F   UNL     1       7.003   6.374   8.456  1.00  0.00    -0.200 F 
ATOM     97  F   UNL     1       4.302   6.003   8.544  1.00  0.00    -0.200 F 
ENDBRANCH  64  87
ENDBRANCH  38  39
ENDBRANCH  31  33
ENDBRANCH  30  31
ENDBRANCH  29  30
ENDBRANCH  28  29
ENDBRANCH  27  28
ENDBRANCH   1  27
TORSDOF 16
