REMARK SMILES Cc1cccc(-c2cc(C[C@]3(C(=O)OCCOC(=O)c4ccc(-c5c6nc(c(-c7c(F)c(F)c(F)c(F)c7F)c7ccc([nH]7)c(-c7c(F)c(F)c(F)c(F)c7F)c7nc(c(-c8c(F)c(F)c(F)c(F)c8F)c8ccc5[nH]8)C=C7)C=C6)cc4)CCCN(C(=O)C(C)C)C3)on2)c1
REMARK SMILES IDX 15 1 14 2 12 3 13 4 11 5 83 6 92 7 84 8 86 9 85 10 10 11
REMARK SMILES IDX 9 12 7 13 8 14 94 15 93 16 6 17 1 18 2 19 3 20 95 21 4 22
REMARK SMILES IDX 5 23 87 24 88 25 89 26 90 27 91 28 16 29 17 30 18 31 19 32
REMARK SMILES IDX 20 33 21 34 82 35 22 36 81 37 23 38 24 39 25 40 75 41 26 42
REMARK SMILES IDX 80 43 74 44 76 45 27 46 79 47 73 48 72 49 28 51 60 52 40 53
REMARK SMILES IDX 59 54 41 55 44 56 58 57 77 58 42 59 43 60 57 62 78 63 45 64
REMARK SMILES IDX 29 65 30 66 38 67 31 68 32 69 36 70 39 71 33 72 34 73 37 74
REMARK SMILES IDX 35 75 61 76 62 77 70 78 63 79 64 80 68 81 71 82 65 83 66 84
REMARK SMILES IDX 69 85 67 86 46 87 47 88 55 89 48 90 49 91 53 92 56 93 50 94
REMARK SMILES IDX 51 95 54 96 52 97
REMARK H PARENT 76 50 44 61
REMARK Flexibility Score: inf
ROOT
ATOM      1  C   UNL     1      -6.649   8.749  -1.502  1.00  0.00     0.274 C 
ENDROOT
BRANCH   1   2
ATOM      2  O   UNL     1      -5.732   7.783  -0.929  1.00  0.00    -0.462 OA
BRANCH   2   3
ATOM      3  C   UNL     1      -5.626   6.652  -1.700  1.00  0.00     0.314 C 
ATOM      4  O   UNL     1      -6.155   6.589  -2.807  1.00  0.00    -0.252 OA
BRANCH   3   5
ATOM      5  C   UNL     1      -4.973   5.412  -1.029  1.00  0.00     0.093 C 
ATOM      6  C   UNL     1      -5.782   5.226   0.281  1.00  0.00     0.023 C 
ATOM      7  C   UNL     1      -5.240   4.286  -2.076  1.00  0.00     0.138 C 
ATOM      8  C   UNL     1      -5.987   3.781   0.721  1.00  0.00     0.023 C 
ATOM      9  N   UNL     1      -5.366   2.980  -1.473  1.00  0.00    -0.341 N 
ATOM     10  C   UNL     1      -6.413   2.927  -0.464  1.00  0.00     0.119 C 
BRANCH   5  11
ATOM     11  C   UNL     1      -3.428   5.537  -0.789  1.00  0.00     0.099 C 
BRANCH  11  12
ATOM     12  C   UNL     1      -2.626   4.357  -0.261  1.00  0.00     0.138 A 
ATOM     13  C   UNL     1      -1.274   2.629   0.261  1.00  0.00     0.114 A 
ATOM     14  C   UNL     1      -1.751   3.437  -0.821  1.00  0.00     0.077 A 
ATOM     15  N   UNL     1      -1.794   3.088   1.413  1.00  0.00    -0.080 NA
ATOM     16  O   UNL     1      -2.608   4.166   1.089  1.00  0.00    -0.361 OA
BRANCH  13  17
ATOM     17  C   UNL     1      -0.453   1.398   0.216  1.00  0.00     0.004 A 
ATOM     18  C   UNL     1       3.156   0.139  -0.170  1.00  0.00     0.044 C 
ATOM     19  C   UNL     1       1.660   0.181  -0.038  1.00  0.00    -0.050 A 
ATOM     20  C   UNL     1       0.985  -1.042   0.064  1.00  0.00     0.003 A 
ATOM     21  C   UNL     1       0.935   1.399   0.013  1.00  0.00     0.014 A 
ATOM     22  C   UNL     1      -0.379  -1.058   0.290  1.00  0.00     0.001 A 
ATOM     23  C   UNL     1      -1.069   0.151   0.398  1.00  0.00     0.010 A 
ENDBRANCH  13  17
ENDBRANCH  11  12
ENDBRANCH   5  11
BRANCH   9  24
ATOM     24  C   UNL     1      -4.528   1.975  -1.904  1.00  0.00     0.225 C 
ATOM     25  O   UNL     1      -3.767   2.149  -2.864  1.00  0.00    -0.275 OA
BRANCH  24  26
ATOM     26  C   UNL     1      -4.535   0.611  -1.231  1.00  0.00     0.072 C 
ATOM     27  C   UNL     1      -4.472   0.632   0.289  1.00  0.00     0.018 C 
ATOM     28  C   UNL     1      -5.669  -0.246  -1.763  1.00  0.00     0.018 C 
ENDBRANCH  24  26
ENDBRANCH   9  24
ENDBRANCH   3   5
ENDBRANCH   2   3
ENDBRANCH   1   2
BRANCH   1  29
ATOM     29  C   UNL     1      -6.404  10.230  -1.164  1.00  0.00     0.275 C 
BRANCH  29  30
ATOM     30  O   UNL     1      -5.064  10.752  -0.999  1.00  0.00    -0.458 OA
BRANCH  30  31
ATOM     31  C   UNL     1      -3.912  10.136  -1.358  1.00  0.00     0.338 C 
ATOM     32  O   UNL     1      -2.929  10.117  -0.661  1.00  0.00    -0.246 OA
BRANCH  31  33
ATOM     33  C   UNL     1      -3.935   9.474  -2.675  1.00  0.00     0.060 A 
ATOM     34  C   UNL     1      -3.225   8.273  -2.800  1.00  0.00     0.016 A 
ATOM     35  C   UNL     1      -4.745   9.954  -3.700  1.00  0.00     0.016 A 
ATOM     36  C   UNL     1      -3.417   7.471  -3.915  1.00  0.00     0.010 A 
ATOM     37  C   UNL     1      -4.997   9.133  -4.773  1.00  0.00     0.010 A 
ATOM     38  C   UNL     1      -4.324   7.905  -4.878  1.00  0.00    -0.014 A 
BRANCH  38  39
ATOM     39  C   UNL     1      -4.340   7.338  -6.210  1.00  0.00     0.031 A 
ATOM     40  C   UNL     1      -5.187   6.198  -6.580  1.00  0.00     0.074 A 
ATOM     41  C   UNL     1      -3.556   8.070  -7.028  1.00  0.00     0.049 A 
ATOM     42  N   UNL     1      -4.888   5.365  -7.516  1.00  0.00    -0.248 NA
ATOM     43  C   UNL     1      -6.432   5.845  -5.897  1.00  0.00     0.031 C 
ATOM     44  C   UNL     1      -3.433   8.116  -8.468  1.00  0.00     0.029 A 
ATOM     45  N   UNL     1      -2.507   8.895  -6.569  1.00  0.00    -0.354 N 
ATOM     46  C   UNL     1      -6.033   4.643  -7.790  1.00  0.00     0.074 A 
ATOM     47  C   UNL     1      -6.889   4.834  -6.649  1.00  0.00     0.031 C 
ATOM     48  C   UNL     1      -2.224   8.637  -8.766  1.00  0.00     0.029 A 
ATOM     49  C   UNL     1      -1.490   8.769  -7.511  1.00  0.00     0.049 A 
ATOM     50  H   UNL     1      -2.497   9.445  -5.753  1.00  0.00     0.167 HD
ATOM     51  C   UNL     1      -6.230   4.187  -9.061  1.00  0.00     0.037 A 
ATOM     52  C   UNL     1      -0.373   8.065  -7.162  1.00  0.00     0.037 A 
ATOM     53  C   UNL     1      -5.104   4.591  -9.894  1.00  0.00     0.049 A 
ATOM     54  C   UNL     1      -0.200   6.863  -8.055  1.00  0.00     0.074 A 
ATOM     55  C   UNL     1      -4.921   5.707 -10.696  1.00  0.00     0.029 A 
ATOM     56  N   UNL     1      -3.841   4.075  -9.638  1.00  0.00    -0.354 N 
ATOM     57  N   UNL     1      -1.177   6.139  -8.531  1.00  0.00    -0.248 NA
ATOM     58  C   UNL     1       1.105   6.464  -8.551  1.00  0.00     0.031 C 
ATOM     59  C   UNL     1      -3.532   5.859 -10.928  1.00  0.00     0.029 A 
ATOM     60  C   UNL     1      -2.873   4.843 -10.257  1.00  0.00     0.049 A 
ATOM     61  H   UNL     1      -3.660   3.276  -9.093  1.00  0.00     0.167 HD
ATOM     62  C   UNL     1      -0.671   5.260  -9.463  1.00  0.00     0.074 A 
ATOM     63  C   UNL     1       0.761   5.506  -9.426  1.00  0.00     0.031 C 
ATOM     64  C   UNL     1      -1.476   4.443 -10.215  1.00  0.00     0.037 A 
BRANCH  51  65
ATOM     65  C   UNL     1      -7.561   3.740  -9.628  1.00  0.00     0.064 A 
ATOM     66  C   UNL     1      -7.892   3.998 -10.980  1.00  0.00     0.173 A 
ATOM     67  C   UNL     1      -8.558   3.071  -8.896  1.00  0.00     0.173 A 
ATOM     68  F   UNL     1      -7.018   4.557 -11.825  1.00  0.00    -0.203 F 
ATOM     69  C   UNL     1      -9.143   3.699 -11.524  1.00  0.00     0.198 A 
ATOM     70  C   UNL     1      -9.824   2.794  -9.435  1.00  0.00     0.198 A 
ATOM     71  F   UNL     1      -8.327   2.635  -7.650  1.00  0.00    -0.203 F 
ATOM     72  F   UNL     1      -9.396   3.992 -12.808  1.00  0.00    -0.200 F 
ATOM     73  C   UNL     1     -10.119   3.118 -10.745  1.00  0.00     0.200 A 
ATOM     74  F   UNL     1     -10.761   2.211  -8.673  1.00  0.00    -0.200 F 
ATOM     75  F   UNL     1     -11.328   2.856 -11.260  1.00  0.00    -0.200 F 
ENDBRANCH  51  65
BRANCH  52  76
ATOM     76  C   UNL     1       0.015   8.127  -5.711  1.00  0.00     0.064 A 
ATOM     77  C   UNL     1       0.079   9.383  -5.061  1.00  0.00     0.173 A 
ATOM     78  C   UNL     1       0.104   6.996  -4.888  1.00  0.00     0.173 A 
ATOM     79  F   UNL     1       0.018  10.516  -5.781  1.00  0.00    -0.203 F 
ATOM     80  C   UNL     1       0.123   9.500  -3.671  1.00  0.00     0.198 A 
ATOM     81  C   UNL     1       0.167   7.116  -3.492  1.00  0.00     0.198 A 
ATOM     82  F   UNL     1       0.057   5.766  -5.414  1.00  0.00    -0.203 F 
ATOM     83  F   UNL     1       0.065  10.711  -3.098  1.00  0.00    -0.200 F 
ATOM     84  C   UNL     1       0.157   8.363  -2.885  1.00  0.00     0.200 A 
ATOM     85  F   UNL     1       0.152   6.015  -2.726  1.00  0.00    -0.200 F 
ATOM     86  F   UNL     1       0.115   8.463  -1.549  1.00  0.00    -0.200 F 
ENDBRANCH  52  76
BRANCH  64  87
ATOM     87  C   UNL     1      -1.085   3.250 -11.081  1.00  0.00     0.064 A 
ATOM     88  C   UNL     1       0.186   2.663 -11.127  1.00  0.00     0.173 A 
ATOM     89  C   UNL     1      -2.076   2.553 -11.835  1.00  0.00     0.173 A 
ATOM     90  F   UNL     1       1.208   3.120 -10.400  1.00  0.00    -0.203 F 
ATOM     91  C   UNL     1       0.457   1.519 -11.887  1.00  0.00     0.198 A 
ATOM     92  C   UNL     1      -1.821   1.369 -12.524  1.00  0.00     0.198 A 
ATOM     93  F   UNL     1      -3.347   2.970 -11.919  1.00  0.00    -0.203 F 
ATOM     94  F   UNL     1       1.708   1.041 -11.927  1.00  0.00    -0.200 F 
ATOM     95  C   UNL     1      -0.547   0.860 -12.565  1.00  0.00     0.200 A 
ATOM     96  F   UNL     1      -2.828   0.723 -13.129  1.00  0.00    -0.200 F 
ATOM     97  F   UNL     1      -0.291  -0.269 -13.237  1.00  0.00    -0.200 F 
ENDBRANCH  64  87
ENDBRANCH  38  39
ENDBRANCH  31  33
ENDBRANCH  30  31
ENDBRANCH  29  30
ENDBRANCH   1  29
TORSDOF 16
