REMARK SMILES N#Cc1cccc(-c2ccnc(C(=O)OCCOC(=O)c3ccc(-c4c5nc(c(-c6c(F)c(F)c(F)c(F)c6F)c6ccc([nH]6)c(-c6c(F)c(F)c(F)c(F)c6F)c6nc(c(-c7c(F)c(F)c(F)c(F)c7F)c7ccc4[nH]7)C=C6)C=C5)cc3)c2)c1F
REMARK SMILES IDX 16 1 15 2 13 3 14 4 12 5 8 6 9 7 84 8 10 9 11 10 7 11 3 12
REMARK SMILES IDX 4 13 85 14 5 15 86 16 6 17 2 18 1 19 17 20 18 21 19 22 20 23
REMARK SMILES IDX 21 24 22 25 83 26 23 27 82 28 24 29 25 30 26 31 76 32 27 33
REMARK SMILES IDX 81 34 75 35 77 36 28 37 80 38 74 39 73 40 29 42 61 43 41 44
REMARK SMILES IDX 60 45 42 46 45 47 59 48 78 49 43 50 44 51 58 53 79 54 46 55
REMARK SMILES IDX 30 56 31 57 39 58 32 59 33 60 37 61 40 62 34 63 35 64 38 65
REMARK SMILES IDX 36 66 62 67 63 68 71 69 64 70 65 71 69 72 72 73 66 74 67 75
REMARK SMILES IDX 70 76 68 77 47 78 48 79 56 80 49 81 50 82 54 83 57 84 51 85
REMARK SMILES IDX 52 86 55 87 53 88
REMARK H PARENT 77 41 45 52
REMARK Flexibility Score: inf
ROOT
ATOM      1  C   UNL     1       1.103  -5.919  -4.186  1.00  0.00     0.275 C 
ENDROOT
BRANCH   1   2
ATOM      2  O   UNL     1       1.318  -4.962  -3.128  1.00  0.00    -0.457 OA
BRANCH   2   3
ATOM      3  C   UNL     1       1.369  -5.476  -1.868  1.00  0.00     0.357 C 
ATOM      4  O   UNL     1       1.190  -6.648  -1.575  1.00  0.00    -0.244 OA
BRANCH   3   5
ATOM      5  C   UNL     1       1.798  -4.428  -0.884  1.00  0.00     0.148 A 
ATOM      6  C   UNL     1       1.938  -2.175  -0.087  1.00  0.00    -0.011 A 
ATOM      7  C   UNL     1       2.745  -2.635   0.960  1.00  0.00     0.029 A 
ATOM      8  C   UNL     1       1.505  -3.089  -1.060  1.00  0.00     0.045 A 
ATOM      9  C   UNL     1       2.987  -3.988   1.059  1.00  0.00     0.112 A 
ATOM     10  N   UNL     1       2.487  -4.887   0.195  1.00  0.00    -0.249 NA
BRANCH   6  11
ATOM     11  C   UNL     1       1.448  -0.795  -0.094  1.00  0.00     0.019 A 
ATOM     12  C   UNL     1      -0.454   0.735  -0.021  1.00  0.00     0.088 A 
ATOM     13  C   UNL     1       0.421   1.822   0.007  1.00  0.00     0.022 A 
ATOM     14  C   UNL     1       0.063  -0.555  -0.069  1.00  0.00     0.148 A 
ATOM     15  C   UNL     1       1.802   1.608  -0.014  1.00  0.00     0.002 A 
ATOM     16  F   UNL     1      -0.784  -1.599  -0.069  1.00  0.00    -0.205 F 
ATOM     17  C   UNL     1       2.313   0.307  -0.062  1.00  0.00     0.012 A 
BRANCH  12  18
ATOM     18  C   UNL     1      -1.872   0.924   0.008  1.00  0.00     0.102 C 
ATOM     19  N   UNL     1      -3.018   1.088   0.029  1.00  0.00    -0.192 NA
ENDBRANCH  12  18
ENDBRANCH   6  11
ENDBRANCH   3   5
ENDBRANCH   2   3
ENDBRANCH   1   2
BRANCH   1  20
ATOM     20  C   UNL     1       2.412  -6.304  -4.888  1.00  0.00     0.275 C 
BRANCH  20  21
ATOM     21  O   UNL     1       3.291  -7.057  -4.028  1.00  0.00    -0.458 OA
BRANCH  21  22
ATOM     22  C   UNL     1       4.226  -6.316  -3.392  1.00  0.00     0.338 C 
ATOM     23  O   UNL     1       4.409  -5.112  -3.496  1.00  0.00    -0.246 OA
BRANCH  22  24
ATOM     24  C   UNL     1       4.952  -7.124  -2.401  1.00  0.00     0.060 A 
ATOM     25  C   UNL     1       4.630  -6.899  -1.070  1.00  0.00     0.016 A 
ATOM     26  C   UNL     1       6.034  -7.938  -2.719  1.00  0.00     0.016 A 
ATOM     27  C   UNL     1       5.417  -7.389  -0.042  1.00  0.00     0.010 A 
ATOM     28  C   UNL     1       6.788  -8.511  -1.679  1.00  0.00     0.010 A 
ATOM     29  C   UNL     1       6.504  -8.215  -0.330  1.00  0.00    -0.014 A 
BRANCH  29  30
ATOM     30  C   UNL     1       7.329  -8.720   0.802  1.00  0.00     0.031 A 
ATOM     31  C   UNL     1       8.777  -8.335   0.920  1.00  0.00     0.074 A 
ATOM     32  C   UNL     1       6.752  -9.465   1.766  1.00  0.00     0.049 A 
ATOM     33  N   UNL     1       9.666  -8.713   1.806  1.00  0.00    -0.248 NA
ATOM     34  C   UNL     1       9.302  -7.405  -0.092  1.00  0.00     0.031 C 
ATOM     35  C   UNL     1       5.341  -9.861   1.798  1.00  0.00     0.029 A 
ATOM     36  N   UNL     1       7.271 -10.011   2.915  1.00  0.00    -0.354 N 
ATOM     37  C   UNL     1      10.857  -8.101   1.437  1.00  0.00     0.074 A 
ATOM     38  C   UNL     1      10.585  -7.341   0.235  1.00  0.00     0.031 C 
ATOM     39  C   UNL     1       5.102 -10.556   2.919  1.00  0.00     0.029 A 
ATOM     40  C   UNL     1       6.355 -10.730   3.644  1.00  0.00     0.049 A 
ATOM     41  H   UNL     1       8.210  -9.897   3.189  1.00  0.00     0.167 HD
ATOM     42  C   UNL     1      12.065  -8.168   2.048  1.00  0.00     0.037 A 
ATOM     43  C   UNL     1       6.510 -11.480   4.750  1.00  0.00     0.037 A 
ATOM     44  C   UNL     1      12.320  -8.906   3.259  1.00  0.00     0.049 A 
ATOM     45  C   UNL     1       7.876 -11.584   5.371  1.00  0.00     0.074 A 
ATOM     46  C   UNL     1      13.504  -9.018   3.968  1.00  0.00     0.029 A 
ATOM     47  N   UNL     1      11.376  -9.662   3.941  1.00  0.00    -0.354 N 
ATOM     48  N   UNL     1       8.996 -11.006   5.011  1.00  0.00    -0.248 NA
ATOM     49  C   UNL     1       7.998 -12.447   6.553  1.00  0.00     0.031 C 
ATOM     50  C   UNL     1      13.295  -9.895   5.037  1.00  0.00     0.029 A 
ATOM     51  C   UNL     1      11.961 -10.270   5.043  1.00  0.00     0.049 A 
ATOM     52  H   UNL     1      10.431  -9.754   3.681  1.00  0.00     0.167 HD
ATOM     53  C   UNL     1       9.950 -11.416   5.933  1.00  0.00     0.074 A 
ATOM     54  C   UNL     1       9.268 -12.268   6.885  1.00  0.00     0.031 C 
ATOM     55  C   UNL     1      11.271 -11.116   5.984  1.00  0.00     0.037 A 
BRANCH  42  56
ATOM     56  C   UNL     1      13.219  -7.459   1.396  1.00  0.00     0.064 A 
ATOM     57  C   UNL     1      13.309  -6.060   1.349  1.00  0.00     0.173 A 
ATOM     58  C   UNL     1      14.278  -8.200   0.844  1.00  0.00     0.173 A 
ATOM     59  F   UNL     1      12.322  -5.302   1.850  1.00  0.00    -0.203 F 
ATOM     60  C   UNL     1      14.399  -5.430   0.750  1.00  0.00     0.198 A 
ATOM     61  C   UNL     1      15.382  -7.567   0.278  1.00  0.00     0.198 A 
ATOM     62  F   UNL     1      14.249  -9.541   0.866  1.00  0.00    -0.203 F 
ATOM     63  F   UNL     1      14.438  -4.093   0.671  1.00  0.00    -0.200 F 
ATOM     64  C   UNL     1      15.438  -6.184   0.224  1.00  0.00     0.200 A 
ATOM     65  F   UNL     1      16.391  -8.298  -0.214  1.00  0.00    -0.200 F 
ATOM     66  F   UNL     1      16.490  -5.576  -0.342  1.00  0.00    -0.200 F 
ENDBRANCH  42  56
BRANCH  43  67
ATOM     67  C   UNL     1       5.353 -12.227   5.314  1.00  0.00     0.064 A 
ATOM     68  C   UNL     1       4.845 -11.930   6.586  1.00  0.00     0.173 A 
ATOM     69  C   UNL     1       4.745 -13.272   4.600  1.00  0.00     0.173 A 
ATOM     70  F   UNL     1       5.405 -10.958   7.322  1.00  0.00    -0.203 F 
ATOM     71  C   UNL     1       3.793 -12.665   7.131  1.00  0.00     0.198 A 
ATOM     72  C   UNL     1       3.668 -13.978   5.129  1.00  0.00     0.198 A 
ATOM     73  F   UNL     1       5.191 -13.600   3.378  1.00  0.00    -0.203 F 
ATOM     74  F   UNL     1       3.369 -12.401   8.375  1.00  0.00    -0.200 F 
ATOM     75  C   UNL     1       3.201 -13.683   6.399  1.00  0.00     0.200 A 
ATOM     76  F   UNL     1       3.089 -14.950   4.410  1.00  0.00    -0.200 F 
ATOM     77  F   UNL     1       2.189 -14.388   6.924  1.00  0.00    -0.200 F 
ENDBRANCH  43  67
BRANCH  55  78
ATOM     78  C   UNL     1      12.056 -11.682   7.135  1.00  0.00     0.064 A 
ATOM     79  C   UNL     1      12.308 -13.057   7.256  1.00  0.00     0.173 A 
ATOM     80  C   UNL     1      12.567 -10.833   8.129  1.00  0.00     0.173 A 
ATOM     81  F   UNL     1      11.830 -13.916   6.342  1.00  0.00    -0.203 F 
ATOM     82  C   UNL     1      13.004 -13.564   8.351  1.00  0.00     0.198 A 
ATOM     83  C   UNL     1      13.298 -11.339   9.200  1.00  0.00     0.198 A 
ATOM     84  F   UNL     1      12.364  -9.509   8.059  1.00  0.00    -0.203 F 
ATOM     85  F   UNL     1      13.169 -14.888   8.483  1.00  0.00    -0.200 F 
ATOM     86  C   UNL     1      13.503 -12.705   9.318  1.00  0.00     0.200 A 
ATOM     87  F   UNL     1      13.796 -10.505  10.123  1.00  0.00    -0.200 F 
ATOM     88  F   UNL     1      14.173 -13.194  10.370  1.00  0.00    -0.200 F 
ENDBRANCH  55  78
ENDBRANCH  29  30
ENDBRANCH  22  24
ENDBRANCH  21  22
ENDBRANCH  20  21
ENDBRANCH   1  20
TORSDOF 13
