REMARK SMILES CCc1cc(OCC(=O)OCCOC(=O)c2ccc(-c3c4nc(c(-c5c(F)c(F)c(F)c(F)c5F)c5ccc([nH]5)c(-c5c(F)c(F)c(F)c(F)c5F)c5nc(c(-c6c(F)c(F)c(F)c(F)c6F)c6ccc3[nH]6)C=C5)C=C4)cc2)nc(Nc2ccc(C)c(F)c2)n1
REMARK SMILES IDX 11 1 10 2 8 3 9 4 7 5 6 6 5 7 3 8 4 9 90 10 80 11 79 12 2 13
REMARK SMILES IDX 1 14 81 15 82 17 83 18 89 19 84 20 87 21 85 22 88 23 86 24
REMARK SMILES IDX 12 25 13 26 14 27 15 28 16 29 17 30 78 31 18 32 77 33 19 34
REMARK SMILES IDX 20 35 21 36 71 37 22 38 76 39 70 40 72 41 23 42 75 43 69 44
REMARK SMILES IDX 68 45 24 47 56 48 36 49 55 50 37 51 40 52 54 53 73 54 38 55
REMARK SMILES IDX 39 56 53 58 74 59 41 60 25 61 26 62 34 63 27 64 28 65 32 66
REMARK SMILES IDX 35 67 29 68 30 69 33 70 31 71 57 72 58 73 66 74 59 75 60 76
REMARK SMILES IDX 64 77 67 78 61 79 62 80 65 81 63 82 42 83 43 84 51 85 44 86
REMARK SMILES IDX 45 87 49 88 52 89 46 90 47 91 50 92 48 93
REMARK H PARENT 81 16 72 46 40 57
REMARK Flexibility Score: inf
ROOT
ATOM      1  C   UNL     1       5.607  -0.102   2.816  1.00  0.00     0.274 C 
ENDROOT
BRANCH   1   2
ATOM      2  O   UNL     1       4.550  -0.965   3.279  1.00  0.00    -0.460 OA
BRANCH   2   3
ATOM      3  C   UNL     1       3.612  -0.389   4.075  1.00  0.00     0.344 C 
ATOM      4  O   UNL     1       3.563   0.807   4.345  1.00  0.00    -0.248 OA
BRANCH   3   5
ATOM      5  C   UNL     1       2.604  -1.386   4.637  1.00  0.00     0.353 C 
BRANCH   5   6
ATOM      6  O   UNL     1       2.721  -2.729   4.217  1.00  0.00    -0.466 OA
BRANCH   6   7
ATOM      7  C   UNL     1       1.879  -3.206   3.257  1.00  0.00     0.218 A 
ATOM      8  C   UNL     1       0.385  -3.116   1.456  1.00  0.00     0.050 A 
ATOM      9  C   UNL     1       1.143  -2.434   2.380  1.00  0.00     0.092 A 
ATOM     10  N   UNL     1       0.410  -4.451   1.390  1.00  0.00    -0.218 NA
ATOM     11  C   UNL     1       1.149  -5.134   2.274  1.00  0.00     0.230 A 
ATOM     12  N   UNL     1       1.858  -4.552   3.241  1.00  0.00    -0.177 NA
BRANCH   8  13
ATOM     13  C   UNL     1      -0.545  -2.453   0.479  1.00  0.00     0.053 C 
ATOM     14  C   UNL     1       0.166  -1.665  -0.602  1.00  0.00     0.011 C 
ENDBRANCH   8  13
BRANCH  11  15
ATOM     15  N   UNL     1       1.122  -6.526   2.198  1.00  0.00    -0.324 N 
ATOM     16  H   UNL     1       1.495  -7.041   2.949  1.00  0.00     0.170 HD
BRANCH  15  17
ATOM     17  C   UNL     1       0.593  -7.231   1.111  1.00  0.00     0.044 A 
ATOM     18  C   UNL     1      -0.583  -7.975   1.239  1.00  0.00     0.026 A 
ATOM     19  C   UNL     1       1.124  -7.024  -0.170  1.00  0.00     0.065 A 
ATOM     20  C   UNL     1      -1.242  -8.457   0.100  1.00  0.00     0.008 A 
ATOM     21  C   UNL     1       0.476  -7.518  -1.293  1.00  0.00     0.128 A 
ATOM     22  C   UNL     1      -0.720  -8.223  -1.179  1.00  0.00    -0.015 A 
ATOM     23  F   UNL     1       1.001  -7.268  -2.501  1.00  0.00    -0.207 F 
ATOM     24  C   UNL     1      -1.477  -8.640  -2.402  1.00  0.00     0.047 C 
ENDBRANCH  15  17
ENDBRANCH  11  15
ENDBRANCH   6   7
ENDBRANCH   5   6
ENDBRANCH   3   5
ENDBRANCH   2   3
ENDBRANCH   1   2
BRANCH   1  25
ATOM     25  C   UNL     1       5.367   0.402   1.393  1.00  0.00     0.275 C 
BRANCH  25  26
ATOM     26  O   UNL     1       4.174   1.205   1.314  1.00  0.00    -0.458 OA
BRANCH  26  27
ATOM     27  C   UNL     1       3.106   0.553   0.807  1.00  0.00     0.338 C 
ATOM     28  O   UNL     1       3.058  -0.602   0.423  1.00  0.00    -0.246 OA
BRANCH  27  29
ATOM     29  C   UNL     1       1.910   1.406   0.807  1.00  0.00     0.060 A 
ATOM     30  C   UNL     1       1.137   1.496   1.968  1.00  0.00     0.016 A 
ATOM     31  C   UNL     1       1.422   1.885  -0.412  1.00  0.00     0.016 A 
ATOM     32  C   UNL     1      -0.153   2.021   1.903  1.00  0.00     0.010 A 
ATOM     33  C   UNL     1       0.141   2.439  -0.469  1.00  0.00     0.010 A 
ATOM     34  C   UNL     1      -0.663   2.485   0.682  1.00  0.00    -0.014 A 
BRANCH  34  35
ATOM     35  C   UNL     1      -2.013   3.087   0.621  1.00  0.00     0.031 A 
ATOM     36  C   UNL     1      -3.188   2.324   0.086  1.00  0.00     0.074 A 
ATOM     37  C   UNL     1      -2.160   4.357   1.034  1.00  0.00     0.049 A 
ATOM     38  N   UNL     1      -4.416   2.734  -0.110  1.00  0.00    -0.248 NA
ATOM     39  C   UNL     1      -2.960   0.917  -0.269  1.00  0.00     0.031 C 
ATOM     40  C   UNL     1      -1.089   5.188   1.585  1.00  0.00     0.029 A 
ATOM     41  N   UNL     1      -3.257   5.178   1.026  1.00  0.00    -0.354 N 
ATOM     42  C   UNL     1      -5.109   1.638  -0.604  1.00  0.00     0.074 A 
ATOM     43  C   UNL     1      -4.162   0.546  -0.696  1.00  0.00     0.031 C 
ATOM     44  C   UNL     1      -1.572   6.415   1.827  1.00  0.00     0.029 A 
ATOM     45  C   UNL     1      -2.973   6.460   1.418  1.00  0.00     0.049 A 
ATOM     46  H   UNL     1      -4.157   4.877   0.766  1.00  0.00     0.167 HD
ATOM     47  C   UNL     1      -6.418   1.556  -0.942  1.00  0.00     0.037 A 
ATOM     48  C   UNL     1      -3.742   7.563   1.405  1.00  0.00     0.037 A 
ATOM     49  C   UNL     1      -7.356   2.645  -0.846  1.00  0.00     0.049 A 
ATOM     50  C   UNL     1      -5.164   7.467   0.946  1.00  0.00     0.074 A 
ATOM     51  C   UNL     1      -8.719   2.637  -1.093  1.00  0.00     0.029 A 
ATOM     52  N   UNL     1      -7.022   3.942  -0.489  1.00  0.00    -0.354 N 
ATOM     53  N   UNL     1      -5.820   6.419   0.515  1.00  0.00    -0.248 NA
ATOM     54  C   UNL     1      -5.952   8.706   0.970  1.00  0.00     0.031 C 
ATOM     55  C   UNL     1      -9.203   3.940  -0.919  1.00  0.00     0.029 A 
ATOM     56  C   UNL     1      -8.146   4.751  -0.541  1.00  0.00     0.049 A 
ATOM     57  H   UNL     1      -6.120   4.244  -0.237  1.00  0.00     0.167 HD
ATOM     58  C   UNL     1      -7.098   6.866   0.219  1.00  0.00     0.074 A 
ATOM     59  C   UNL     1      -7.129   8.281   0.528  1.00  0.00     0.031 C 
ATOM     60  C   UNL     1      -8.152   6.162  -0.258  1.00  0.00     0.037 A 
BRANCH  47  61
ATOM     61  C   UNL     1      -6.930   0.244  -1.450  1.00  0.00     0.064 A 
ATOM     62  C   UNL     1      -7.266  -0.794  -0.571  1.00  0.00     0.173 A 
ATOM     63  C   UNL     1      -7.174   0.058  -2.818  1.00  0.00     0.173 A 
ATOM     64  F   UNL     1      -7.046  -0.661   0.745  1.00  0.00    -0.203 F 
ATOM     65  C   UNL     1      -7.829  -1.976  -1.046  1.00  0.00     0.198 A 
ATOM     66  C   UNL     1      -7.747  -1.121  -3.288  1.00  0.00     0.198 A 
ATOM     67  F   UNL     1      -6.872   1.027  -3.696  1.00  0.00    -0.203 F 
ATOM     68  F   UNL     1      -8.139  -2.960  -0.190  1.00  0.00    -0.200 F 
ATOM     69  C   UNL     1      -8.075  -2.136  -2.402  1.00  0.00     0.200 A 
ATOM     70  F   UNL     1      -7.990  -1.272  -4.597  1.00  0.00    -0.200 F 
ATOM     71  F   UNL     1      -8.631  -3.268  -2.854  1.00  0.00    -0.200 F 
ENDBRANCH  47  61
BRANCH  48  72
ATOM     72  C   UNL     1      -3.139   8.855   1.801  1.00  0.00     0.064 A 
ATOM     73  C   UNL     1      -3.387   9.415   3.058  1.00  0.00     0.173 A 
ATOM     74  C   UNL     1      -2.247   9.518   0.945  1.00  0.00     0.173 A 
ATOM     75  F   UNL     1      -4.245   8.819   3.899  1.00  0.00    -0.203 F 
ATOM     76  C   UNL     1      -2.757  10.593   3.451  1.00  0.00     0.198 A 
ATOM     77  C   UNL     1      -1.605  10.685   1.345  1.00  0.00     0.198 A 
ATOM     78  F   UNL     1      -1.978   9.010  -0.267  1.00  0.00    -0.203 F 
ATOM     79  F   UNL     1      -3.014  11.118   4.656  1.00  0.00    -0.200 F 
ATOM     80  C   UNL     1      -1.860  11.222   2.598  1.00  0.00     0.200 A 
ATOM     81  F   UNL     1      -0.730  11.282   0.524  1.00  0.00    -0.200 F 
ATOM     82  F   UNL     1      -1.241  12.345   2.985  1.00  0.00    -0.200 F 
ENDBRANCH  48  72
BRANCH  60  83
ATOM     83  C   UNL     1      -9.423   6.920  -0.481  1.00  0.00     0.064 A 
ATOM     84  C   UNL     1      -9.599   7.717  -1.620  1.00  0.00     0.173 A 
ATOM     85  C   UNL     1     -10.475   6.838   0.442  1.00  0.00     0.173 A 
ATOM     86  F   UNL     1      -8.611   7.837  -2.519  1.00  0.00    -0.203 F 
ATOM     87  C   UNL     1     -10.783   8.421  -1.820  1.00  0.00     0.198 A 
ATOM     88  C   UNL     1     -11.662   7.532   0.232  1.00  0.00     0.198 A 
ATOM     89  F   UNL     1     -10.348   6.088   1.547  1.00  0.00    -0.203 F 
ATOM     90  F   UNL     1     -10.921   9.205  -2.898  1.00  0.00    -0.200 F 
ATOM     91  C   UNL     1     -11.814   8.325  -0.896  1.00  0.00     0.200 A 
ATOM     92  F   UNL     1     -12.658   7.439   1.124  1.00  0.00    -0.200 F 
ATOM     93  F   UNL     1     -12.951   9.008  -1.087  1.00  0.00    -0.200 F 
ENDBRANCH  60  83
ENDBRANCH  34  35
ENDBRANCH  27  29
ENDBRANCH  26  27
ENDBRANCH  25  26
ENDBRANCH   1  25
TORSDOF 16
