REMARK SMILES CC(=O)Nc1cnc(N(C)CCc2cn[nH]c2)c(C(=O)OCCOC(=O)c2ccc(-c3c4nc(c(-c5c(F)c(F)c(F)c(F)c5F)c5ccc([nH]5)c(-c5c(F)c(F)c(F)c(F)c5F)c5nc(c(-c6c(F)c(F)c(F)c(F)c6F)c6ccc3[nH]6)C=C5)C=C4)cc2)c1
REMARK SMILES IDX 22 1 21 2 19 3 20 4 18 5 5 6 6 7 90 8 7 9 8 10 4 11 1 12
REMARK SMILES IDX 2 13 3 14 9 16 10 17 11 18 12 19 13 20 14 21 17 22 15 23
REMARK SMILES IDX 16 24 23 26 24 27 25 28 26 29 27 30 28 31 89 32 29 33 88 34
REMARK SMILES IDX 30 35 31 36 32 37 82 38 33 39 87 40 81 41 83 42 34 43 86 44
REMARK SMILES IDX 80 45 79 46 35 48 67 49 47 50 66 51 48 52 51 53 65 54 84 55
REMARK SMILES IDX 49 56 50 57 64 59 85 60 52 61 36 62 37 63 45 64 38 65 39 66
REMARK SMILES IDX 43 67 46 68 40 69 41 70 44 71 42 72 68 73 69 74 77 75 70 76
REMARK SMILES IDX 71 77 75 78 78 79 72 80 73 81 76 82 74 83 53 84 54 85 62 86
REMARK SMILES IDX 55 87 56 88 60 89 63 90 57 91 58 92 61 93 59 94
REMARK H PARENT 4 15 16 25 83 47 51 58
REMARK Flexibility Score: inf
ROOT
ATOM      1  C   UNL     1       6.825  -0.964  -0.907  1.00  0.00     0.275 C 
ENDROOT
BRANCH   1   2
ATOM      2  O   UNL     1       5.598  -1.606  -0.486  1.00  0.00    -0.458 OA
BRANCH   2   3
ATOM      3  C   UNL     1       4.910  -2.153  -1.528  1.00  0.00     0.342 C 
ATOM      4  O   UNL     1       5.400  -2.187  -2.646  1.00  0.00    -0.246 OA
BRANCH   3   5
ATOM      5  C   UNL     1       3.576  -2.716  -1.149  1.00  0.00     0.104 A 
ATOM      6  C   UNL     1       1.805  -2.827   0.540  1.00  0.00     0.060 A 
ATOM      7  C   UNL     1       1.335  -3.927  -0.131  1.00  0.00     0.139 A 
ATOM      8  C   UNL     1       2.983  -2.257   0.061  1.00  0.00     0.047 A 
ATOM      9  N   UNL     1       1.818  -4.310  -1.324  1.00  0.00    -0.236 NA
ATOM     10  C   UNL     1       2.862  -3.658  -1.923  1.00  0.00     0.143 A 
BRANCH   6  11
ATOM     11  N   UNL     1       1.067  -2.355   1.635  1.00  0.00    -0.325 N 
ATOM     12  C   UNL     1       0.814  -0.041   0.778  1.00  0.00     0.114 C 
ATOM     13  C   UNL     1       0.559  -1.096   1.819  1.00  0.00     0.221 C 
ATOM     14  O   UNL     1      -0.173  -0.875   2.784  1.00  0.00    -0.275 OA
ATOM     15  H   UNL     1       0.893  -3.004   2.355  1.00  0.00     0.169 HD
ENDBRANCH   6  11
BRANCH  10  16
ATOM     16  N   UNL     1       3.013  -4.024  -3.251  1.00  0.00    -0.359 N 
ATOM     17  C   UNL     1       2.196  -5.174  -3.669  1.00  0.00     0.145 C 
BRANCH  16  18
ATOM     18  C   UNL     1       3.801  -3.392  -4.325  1.00  0.00     0.122 C 
BRANCH  18  19
ATOM     19  C   UNL     1       3.338  -2.025  -4.861  1.00  0.00     0.060 C 
BRANCH  19  20
ATOM     20  C   UNL     1       3.154  -0.882  -3.919  1.00  0.00    -0.008 A 
ATOM     21  C   UNL     1       4.009   0.232  -3.719  1.00  0.00     0.138 A 
ATOM     22  C   UNL     1       2.106  -0.642  -3.057  1.00  0.00     0.108 A 
ATOM     23  N   UNL     1       3.577   1.048  -2.755  1.00  0.00    -0.184 NA
ATOM     24  N   UNL     1       2.420   0.492  -2.371  1.00  0.00    -0.285 N 
ATOM     25  H   UNL     1       1.851   0.868  -1.661  1.00  0.00     0.189 HD
ENDBRANCH  19  20
ENDBRANCH  18  19
ENDBRANCH  16  18
ENDBRANCH  10  16
ENDBRANCH   3   5
ENDBRANCH   2   3
ENDBRANCH   1   2
BRANCH   1  26
ATOM     26  C   UNL     1       8.049  -1.898  -1.020  1.00  0.00     0.275 C 
BRANCH  26  27
ATOM     27  O   UNL     1       7.927  -2.971  -1.979  1.00  0.00    -0.458 OA
BRANCH  27  28
ATOM     28  C   UNL     1       7.426  -4.131  -1.487  1.00  0.00     0.338 C 
ATOM     29  O   UNL     1       7.100  -4.351  -0.331  1.00  0.00    -0.246 OA
BRANCH  28  30
ATOM     30  C   UNL     1       7.170  -5.101  -2.576  1.00  0.00     0.060 A 
ATOM     31  C   UNL     1       5.877  -5.619  -2.674  1.00  0.00     0.016 A 
ATOM     32  C   UNL     1       8.166  -5.562  -3.440  1.00  0.00     0.016 A 
ATOM     33  C   UNL     1       5.551  -6.539  -3.667  1.00  0.00     0.010 A 
ATOM     34  C   UNL     1       7.850  -6.532  -4.410  1.00  0.00     0.010 A 
ATOM     35  C   UNL     1       6.536  -7.017  -4.534  1.00  0.00    -0.014 A 
BRANCH  35  36
ATOM     36  C   UNL     1       6.195  -8.151  -5.430  1.00  0.00     0.031 A 
ATOM     37  C   UNL     1       6.350  -9.546  -4.902  1.00  0.00     0.074 A 
ATOM     38  C   UNL     1       5.633  -7.955  -6.636  1.00  0.00     0.049 A 
ATOM     39  N   UNL     1       6.207 -10.695  -5.511  1.00  0.00    -0.248 NA
ATOM     40  C   UNL     1       6.685  -9.656  -3.475  1.00  0.00     0.031 C 
ATOM     41  C   UNL     1       5.243  -6.659  -7.184  1.00  0.00     0.029 A 
ATOM     42  N   UNL     1       5.273  -8.854  -7.611  1.00  0.00    -0.354 N 
ATOM     43  C   UNL     1       6.464 -11.663  -4.550  1.00  0.00     0.074 A 
ATOM     44  C   UNL     1       6.749 -10.968  -3.313  1.00  0.00     0.031 C 
ATOM     45  C   UNL     1       4.696  -6.846  -8.399  1.00  0.00     0.029 A 
ATOM     46  C   UNL     1       4.766  -8.265  -8.744  1.00  0.00     0.049 A 
ATOM     47  H   UNL     1       5.370  -9.828  -7.507  1.00  0.00     0.167 HD
ATOM     48  C   UNL     1       6.486 -13.010  -4.695  1.00  0.00     0.037 A 
ATOM     49  C   UNL     1       4.442  -8.811  -9.934  1.00  0.00     0.037 A 
ATOM     50  C   UNL     1       6.225 -13.684  -5.939  1.00  0.00     0.049 A 
ATOM     51  C   UNL     1       4.641 -10.295 -10.132  1.00  0.00     0.074 A 
ATOM     52  C   UNL     1       6.302 -15.034  -6.229  1.00  0.00     0.029 A 
ATOM     53  N   UNL     1       5.844 -13.045  -7.112  1.00  0.00    -0.354 N 
ATOM     54  N   UNL     1       4.995 -11.208  -9.258  1.00  0.00    -0.248 NA
ATOM     55  C   UNL     1       4.423 -10.821 -11.487  1.00  0.00     0.031 C 
ATOM     56  C   UNL     1       6.035 -15.203  -7.592  1.00  0.00     0.029 A 
ATOM     57  C   UNL     1       5.714 -13.969  -8.137  1.00  0.00     0.049 A 
ATOM     58  H   UNL     1       5.688 -12.077  -7.203  1.00  0.00     0.167 HD
ATOM     59  C   UNL     1       5.013 -12.415  -9.946  1.00  0.00     0.074 A 
ATOM     60  C   UNL     1       4.628 -12.119 -11.311  1.00  0.00     0.031 C 
ATOM     61  C   UNL     1       5.319 -13.656  -9.489  1.00  0.00     0.037 A 
BRANCH  48  62
ATOM     62  C   UNL     1       6.934 -13.808  -3.503  1.00  0.00     0.064 A 
ATOM     63  C   UNL     1       6.165 -13.912  -2.333  1.00  0.00     0.173 A 
ATOM     64  C   UNL     1       8.198 -14.418  -3.510  1.00  0.00     0.173 A 
ATOM     65  F   UNL     1       4.959 -13.328  -2.264  1.00  0.00    -0.203 F 
ATOM     66  C   UNL     1       6.670 -14.543  -1.198  1.00  0.00     0.198 A 
ATOM     67  C   UNL     1       8.684 -15.081  -2.386  1.00  0.00     0.198 A 
ATOM     68  F   UNL     1       8.976 -14.352  -4.601  1.00  0.00    -0.203 F 
ATOM     69  F   UNL     1       5.957 -14.550  -0.063  1.00  0.00    -0.200 F 
ATOM     70  C   UNL     1       7.929 -15.127  -1.226  1.00  0.00     0.200 A 
ATOM     71  F   UNL     1       9.896 -15.652  -2.420  1.00  0.00    -0.200 F 
ATOM     72  F   UNL     1       8.422 -15.714  -0.127  1.00  0.00    -0.200 F 
ENDBRANCH  48  62
BRANCH  49  73
ATOM     73  C   UNL     1       3.954  -7.953 -11.051  1.00  0.00     0.064 A 
ATOM     74  C   UNL     1       2.663  -8.107 -11.577  1.00  0.00     0.173 A 
ATOM     75  C   UNL     1       4.776  -6.975 -11.633  1.00  0.00     0.173 A 
ATOM     76  F   UNL     1       1.847  -9.052 -11.085  1.00  0.00    -0.203 F 
ATOM     77  C   UNL     1       2.216  -7.320 -12.639  1.00  0.00     0.198 A 
ATOM     78  C   UNL     1       4.317  -6.168 -12.673  1.00  0.00     0.198 A 
ATOM     79  F   UNL     1       6.027  -6.795 -11.186  1.00  0.00    -0.203 F 
ATOM     80  F   UNL     1       0.992  -7.518 -13.148  1.00  0.00    -0.200 F 
ATOM     81  C   UNL     1       3.039  -6.345 -13.179  1.00  0.00     0.200 A 
ATOM     82  F   UNL     1       5.115  -5.221 -13.185  1.00  0.00    -0.200 F 
ATOM     83  F   UNL     1       2.606  -5.582 -14.192  1.00  0.00    -0.200 F 
ENDBRANCH  49  73
BRANCH  61  84
ATOM     84  C   UNL     1       5.199 -14.802 -10.455  1.00  0.00     0.064 A 
ATOM     85  C   UNL     1       6.102 -14.981 -11.513  1.00  0.00     0.173 A 
ATOM     86  C   UNL     1       4.196 -15.768 -10.279  1.00  0.00     0.173 A 
ATOM     87  F   UNL     1       7.071 -14.080 -11.735  1.00  0.00    -0.203 F 
ATOM     88  C   UNL     1       5.991 -16.073 -12.371  1.00  0.00     0.198 A 
ATOM     89  C   UNL     1       4.109 -16.876 -11.117  1.00  0.00     0.198 A 
ATOM     90  F   UNL     1       3.311 -15.649  -9.278  1.00  0.00    -0.203 F 
ATOM     91  F   UNL     1       6.837 -16.200 -13.404  1.00  0.00    -0.200 F 
ATOM     92  C   UNL     1       5.002 -17.024 -12.167  1.00  0.00     0.200 A 
ATOM     93  F   UNL     1       3.164 -17.802 -10.905  1.00  0.00    -0.200 F 
ATOM     94  F   UNL     1       4.906 -18.081 -12.985  1.00  0.00    -0.200 F 
ENDBRANCH  61  84
ENDBRANCH  35  36
ENDBRANCH  28  30
ENDBRANCH  27  28
ENDBRANCH  26  27
ENDBRANCH   1  26
TORSDOF 16
