REMARK SMILES Cc1ccc(-c2cc(C(=O)OCCOC(=O)c3ccc(-c4c5nc(c(-c6c(F)c(F)c(F)c(F)c6F)c6ccc([nH]6)c(-c6c(F)c(F)c(F)c(F)c6F)c6nc(c(-c7c(F)c(F)c(F)c(F)c7F)c7ccc4[nH]7)C=C6)C=C5)cc3)c3c(-c4cccc([N+](=O)[O-])c4)[nH]nc3n2)cc1
REMARK SMILES IDX 12 1 11 2 9 3 10 4 8 5 6 6 7 7 94 8 93 9 80 10 92 11 81 12
REMARK SMILES IDX 91 13 5 15 1 16 2 17 3 18 96 19 4 20 95 21 82 22 83 23 90 24
REMARK SMILES IDX 84 25 86 26 85 27 87 28 88 29 89 30 13 31 14 32 15 33 16 34
REMARK SMILES IDX 17 35 18 36 79 37 19 38 78 39 20 40 21 41 22 42 72 43 23 44
REMARK SMILES IDX 77 45 71 46 73 47 24 48 76 49 70 50 69 51 25 53 57 54 37 55
REMARK SMILES IDX 56 56 38 57 41 58 55 59 74 60 39 61 40 62 54 64 75 65 42 66
REMARK SMILES IDX 26 67 27 68 35 69 28 70 29 71 33 72 36 73 30 74 31 75 34 76
REMARK SMILES IDX 32 77 58 78 59 79 67 80 60 81 61 82 65 83 68 84 62 85 63 86
REMARK SMILES IDX 66 87 64 88 43 89 44 90 52 91 45 92 46 93 50 94 53 95 47 96
REMARK SMILES IDX 48 97 51 98 49 99
REMARK H PARENT 91 14 73 52 41 63
REMARK Flexibility Score: inf
ROOT
ATOM      1  C   UNL     1      -4.551   0.743  -4.874  1.00  0.00     0.275 C 
ENDROOT
BRANCH   1   2
ATOM      2  O   UNL     1      -4.809  -0.190  -3.785  1.00  0.00    -0.458 OA
BRANCH   2   3
ATOM      3  C   UNL     1      -4.768   0.358  -2.537  1.00  0.00     0.339 C 
ATOM      4  O   UNL     1      -4.443   1.521  -2.309  1.00  0.00    -0.246 OA
BRANCH   3   5
ATOM      5  C   UNL     1      -4.691  -0.612  -1.430  1.00  0.00     0.075 A 
ATOM      6  C   UNL     1      -2.811  -0.790   0.180  1.00  0.00     0.074 A 
ATOM      7  C   UNL     1      -3.310  -0.687  -1.125  1.00  0.00     0.045 A 
ATOM      8  N   UNL     1      -3.544  -0.993   1.283  1.00  0.00    -0.226 NA
ATOM      9  C   UNL     1      -4.872  -1.059   1.046  1.00  0.00     0.182 A 
ATOM     10  C   UNL     1      -5.511  -0.858  -0.268  1.00  0.00     0.061 A 
ATOM     11  N   UNL     1      -5.739  -1.289   2.016  1.00  0.00    -0.154 NA
ATOM     12  C   UNL     1      -6.891  -1.005   0.031  1.00  0.00     0.076 A 
ATOM     13  N   UNL     1      -6.895  -1.310   1.387  1.00  0.00    -0.275 N 
ATOM     14  H   UNL     1      -7.730  -1.534   1.859  1.00  0.00     0.190 HD
BRANCH   6  15
ATOM     15  C   UNL     1      -1.384  -0.555   0.376  1.00  0.00     0.000 A 
ATOM     16  C   UNL     1       2.855   0.082   0.022  1.00  0.00     0.044 C 
ATOM     17  C   UNL     1       1.385  -0.119   0.225  1.00  0.00    -0.051 A 
ATOM     18  C   UNL     1       0.872  -1.421   0.294  1.00  0.00     0.004 A 
ATOM     19  C   UNL     1       0.510   0.969   0.304  1.00  0.00     0.004 A 
ATOM     20  C   UNL     1      -0.501  -1.637   0.377  1.00  0.00     0.010 A 
ATOM     21  C   UNL     1      -0.867   0.752   0.382  1.00  0.00     0.010 A 
ENDBRANCH   6  15
BRANCH  12  22
ATOM     22  C   UNL     1      -8.269  -1.022  -0.550  1.00  0.00     0.007 A 
ATOM     23  C   UNL     1      -9.345  -0.527   0.246  1.00  0.00     0.011 A 
ATOM     24  C   UNL     1      -8.618  -1.547  -1.791  1.00  0.00     0.096 A 
ATOM     25  C   UNL     1     -10.677  -0.475  -0.190  1.00  0.00     0.008 A 
ATOM     26  C   UNL     1      -9.948  -1.407  -2.269  1.00  0.00     0.270 A 
ATOM     27  C   UNL     1     -10.979  -0.885  -1.474  1.00  0.00     0.085 A 
BRANCH  26  28
ATOM     28  N   UNL     1     -10.265  -1.703  -3.669  1.00  0.00     0.062 N 
ATOM     29  O   UNL     1     -11.096  -0.970  -4.231  1.00  0.00    -0.258 OA
ATOM     30  O   UNL     1      -9.727  -2.692  -4.183  1.00  0.00    -0.258 OA
ENDBRANCH  26  28
ENDBRANCH  12  22
ENDBRANCH   3   5
ENDBRANCH   2   3
ENDBRANCH   1   2
BRANCH   1  31
ATOM     31  C   UNL     1      -5.475   0.548  -6.099  1.00  0.00     0.275 C 
BRANCH  31  32
ATOM     32  O   UNL     1      -6.904   0.625  -5.924  1.00  0.00    -0.458 OA
BRANCH  32  33
ATOM     33  C   UNL     1      -7.357   0.486  -4.669  1.00  0.00     0.338 C 
ATOM     34  O   UNL     1      -7.599  -0.596  -4.151  1.00  0.00    -0.246 OA
BRANCH  33  35
ATOM     35  C   UNL     1      -7.333   1.773  -3.960  1.00  0.00     0.060 A 
ATOM     36  C   UNL     1      -7.243   1.778  -2.561  1.00  0.00     0.016 A 
ATOM     37  C   UNL     1      -7.150   2.939  -4.697  1.00  0.00     0.016 A 
ATOM     38  C   UNL     1      -6.888   2.923  -1.877  1.00  0.00     0.010 A 
ATOM     39  C   UNL     1      -6.758   4.067  -4.037  1.00  0.00     0.010 A 
ATOM     40  C   UNL     1      -6.669   4.050  -2.638  1.00  0.00    -0.014 A 
BRANCH  40  41
ATOM     41  C   UNL     1      -6.529   5.344  -2.033  1.00  0.00     0.031 A 
ATOM     42  C   UNL     1      -5.221   5.733  -1.492  1.00  0.00     0.074 A 
ATOM     43  C   UNL     1      -7.649   6.075  -2.216  1.00  0.00     0.049 A 
ATOM     44  N   UNL     1      -5.068   6.562  -0.522  1.00  0.00    -0.248 NA
ATOM     45  C   UNL     1      -3.949   5.136  -1.918  1.00  0.00     0.031 C 
ATOM     46  C   UNL     1      -7.851   7.504  -2.252  1.00  0.00     0.029 A 
ATOM     47  N   UNL     1      -8.944   5.551  -2.407  1.00  0.00    -0.354 N 
ATOM     48  C   UNL     1      -3.748   6.961  -0.577  1.00  0.00     0.074 A 
ATOM     49  C   UNL     1      -3.061   5.895  -1.259  1.00  0.00     0.031 C 
ATOM     50  C   UNL     1      -9.172   7.761  -2.173  1.00  0.00     0.029 A 
ATOM     51  C   UNL     1      -9.868   6.503  -1.956  1.00  0.00     0.049 A 
ATOM     52  H   UNL     1      -9.160   4.670  -2.791  1.00  0.00     0.167 HD
ATOM     53  C   UNL     1      -3.474   8.276  -0.328  1.00  0.00     0.037 A 
ATOM     54  C   UNL     1     -10.648   6.215  -0.867  1.00  0.00     0.037 A 
ATOM     55  C   UNL     1      -4.727   8.972  -0.031  1.00  0.00     0.049 A 
ATOM     56  C   UNL     1     -10.156   6.941   0.355  1.00  0.00     0.074 A 
ATOM     57  C   UNL     1      -5.570   9.706  -0.850  1.00  0.00     0.029 A 
ATOM     58  N   UNL     1      -5.476   8.607   1.081  1.00  0.00    -0.354 N 
ATOM     59  N   UNL     1      -8.945   7.403   0.493  1.00  0.00    -0.248 NA
ATOM     60  C   UNL     1     -11.010   7.216   1.499  1.00  0.00     0.031 C 
ATOM     61  C   UNL     1      -6.842   9.765  -0.231  1.00  0.00     0.029 A 
ATOM     62  C   UNL     1      -6.781   9.043   0.948  1.00  0.00     0.049 A 
ATOM     63  H   UNL     1      -5.126   8.109   1.855  1.00  0.00     0.167 HD
ATOM     64  C   UNL     1      -8.869   8.117   1.655  1.00  0.00     0.074 A 
ATOM     65  C   UNL     1     -10.186   7.963   2.251  1.00  0.00     0.031 C 
ATOM     66  C   UNL     1      -7.749   8.816   2.007  1.00  0.00     0.037 A 
BRANCH  53  67
ATOM     67  C   UNL     1      -2.211   9.014  -0.724  1.00  0.00     0.064 A 
ATOM     68  C   UNL     1      -2.251  10.407  -0.983  1.00  0.00     0.173 A 
ATOM     69  C   UNL     1      -0.940   8.430  -0.872  1.00  0.00     0.173 A 
ATOM     70  F   UNL     1      -3.367  11.126  -0.810  1.00  0.00    -0.203 F 
ATOM     71  C   UNL     1      -1.143  11.130  -1.427  1.00  0.00     0.198 A 
ATOM     72  C   UNL     1       0.169   9.154  -1.335  1.00  0.00     0.198 A 
ATOM     73  F   UNL     1      -0.715   7.155  -0.533  1.00  0.00    -0.203 F 
ATOM     74  F   UNL     1      -1.264  12.444  -1.667  1.00  0.00    -0.200 F 
ATOM     75  C   UNL     1       0.065  10.502  -1.619  1.00  0.00     0.200 A 
ATOM     76  F   UNL     1       1.347   8.535  -1.499  1.00  0.00    -0.200 F 
ATOM     77  F   UNL     1       1.127  11.195  -2.050  1.00  0.00    -0.200 F 
ENDBRANCH  53  67
BRANCH  54  78
ATOM     78  C   UNL     1     -11.107   4.794  -0.850  1.00  0.00     0.064 A 
ATOM     79  C   UNL     1     -11.855   4.371  -1.967  1.00  0.00     0.173 A 
ATOM     80  C   UNL     1     -10.299   3.862  -0.205  1.00  0.00     0.173 A 
ATOM     81  F   UNL     1     -12.723   5.211  -2.550  1.00  0.00    -0.203 F 
ATOM     82  C   UNL     1     -11.537   3.187  -2.615  1.00  0.00     0.198 A 
ATOM     83  C   UNL     1      -9.977   2.691  -0.863  1.00  0.00     0.198 A 
ATOM     84  F   UNL     1      -9.658   4.159   0.933  1.00  0.00    -0.203 F 
ATOM     85  F   UNL     1     -12.086   2.893  -3.802  1.00  0.00    -0.200 F 
ATOM     86  C   UNL     1     -10.534   2.393  -2.102  1.00  0.00     0.200 A 
ATOM     87  F   UNL     1      -9.009   1.934  -0.342  1.00  0.00    -0.200 F 
ATOM     88  F   UNL     1     -10.065   1.382  -2.841  1.00  0.00    -0.200 F 
ENDBRANCH  54  78
BRANCH  66  89
ATOM     89  C   UNL     1      -7.513   9.503   3.326  1.00  0.00     0.064 A 
ATOM     90  C   UNL     1      -8.159   9.155   4.518  1.00  0.00     0.173 A 
ATOM     91  C   UNL     1      -6.515  10.505   3.444  1.00  0.00     0.173 A 
ATOM     92  F   UNL     1      -8.982   8.101   4.590  1.00  0.00    -0.203 F 
ATOM     93  C   UNL     1      -7.931   9.849   5.705  1.00  0.00     0.198 A 
ATOM     94  C   UNL     1      -6.219  11.124   4.651  1.00  0.00     0.198 A 
ATOM     95  F   UNL     1      -5.775  10.907   2.401  1.00  0.00    -0.203 F 
ATOM     96  F   UNL     1      -8.652   9.548   6.792  1.00  0.00    -0.200 F 
ATOM     97  C   UNL     1      -6.956  10.826   5.774  1.00  0.00     0.200 A 
ATOM     98  F   UNL     1      -5.211  12.005   4.714  1.00  0.00    -0.200 F 
ATOM     99  F   UNL     1      -6.712  11.461   6.926  1.00  0.00    -0.200 F 
ENDBRANCH  66  89
ENDBRANCH  40  41
ENDBRANCH  33  35
ENDBRANCH  32  33
ENDBRANCH  31  32
ENDBRANCH   1  31
TORSDOF 14
