REMARK SMILES Cc1oc2c(C)c3oc(=O)c(CCC(=O)N[C@H](Cc4ccc(Cl)cc4)C(=O)OCCOC(=O)c4ccc(-c5c6nc(c(-c7c(F)c(F)c(F)c(F)c7F)c7ccc([nH]7)c(-c7c(F)c(F)c(F)c(F)c7F)c7nc(c(-c8c(F)c(F)c(F)c(F)c8F)c8ccc5[nH]8)C=C7)C=C6)cc4)c(C)c3cc2c1C
REMARK SMILES IDX 29 1 28 2 26 3 27 4 17 5 16 6 14 7 15 8 13 10 12 11 11 12
REMARK SMILES IDX 1 13 2 14 3 15 102 16 4 17 101 18 103 19 5 20 100 21 6 22
REMARK SMILES IDX 7 23 99 24 8 25 97 26 9 27 98 28 10 29 18 30 19 31 20 32
REMARK SMILES IDX 25 33 21 34 24 35 22 36 23 37 30 38 31 39 32 40 33 41 34 42
REMARK SMILES IDX 35 43 96 44 36 45 95 46 37 47 38 48 39 49 89 50 40 51 94 52
REMARK SMILES IDX 88 53 90 54 41 55 93 56 87 57 86 58 42 60 74 61 54 62 73 63
REMARK SMILES IDX 55 64 58 65 72 66 91 67 56 68 57 69 71 71 92 72 59 73 43 74
REMARK SMILES IDX 44 75 52 76 45 77 46 78 50 79 53 80 47 81 48 82 51 83 49 84
REMARK SMILES IDX 75 85 76 86 84 87 77 88 78 89 82 90 85 91 79 92 80 93 83 94
REMARK SMILES IDX 81 95 60 96 61 97 69 98 62 99 63 100 67 101 70 102 64 103
REMARK SMILES IDX 65 104 68 105 66 106
REMARK H PARENT 16 9 90 59 58 70
REMARK Flexibility Score: inf
ROOT
ATOM      1  C   UNL     1       1.817   4.997   5.842  1.00  0.00     0.274 C 
ENDROOT
BRANCH   1   2
ATOM      2  O   UNL     1       2.291   5.600   4.617  1.00  0.00    -0.461 OA
BRANCH   2   3
ATOM      3  C   UNL     1       1.400   6.378   3.954  1.00  0.00     0.329 C 
ATOM      4  O   UNL     1       0.276   6.615   4.406  1.00  0.00    -0.250 OA
BRANCH   3   5
ATOM      5  C   UNL     1       1.716   6.669   2.308  1.00  0.00     0.196 C 
BRANCH   5   6
ATOM      6  N   UNL     1       0.729   5.403   1.928  1.00  0.00    -0.342 N 
ATOM      7  C   UNL     1       0.859   4.056   1.768  1.00  0.00     0.221 C 
ATOM      8  O   UNL     1      -0.150   3.382   1.572  1.00  0.00    -0.275 OA
ATOM      9  H   UNL     1      -0.198   5.698   1.779  1.00  0.00     0.164 HD
BRANCH   7  10
ATOM     10  C   UNL     1       2.233   3.434   1.811  1.00  0.00     0.105 C 
BRANCH  10  11
ATOM     11  C   UNL     1       3.182   4.108   0.835  1.00  0.00     0.053 C 
BRANCH  11  12
ATOM     12  C   UNL     1       2.941   5.569   0.972  1.00  0.00     0.042 A 
ATOM     13  C   UNL     1      -0.963  13.684   0.813  1.00  0.00     0.088 C 
ATOM     14  C   UNL     1      -0.528  12.273   0.887  1.00  0.00     0.105 A 
ATOM     15  O   UNL     1       0.343  11.971   1.881  1.00  0.00    -0.461 OA
ATOM     16  C   UNL     1      -0.784  11.161   0.114  1.00  0.00    -0.002 A 
ATOM     17  C   UNL     1       0.728  10.665   1.749  1.00  0.00     0.141 A 
ATOM     18  C   UNL     1       0.082  10.120   0.605  1.00  0.00     0.025 A 
ATOM     19  C   UNL     1      -1.703  11.057  -1.048  1.00  0.00     0.049 C 
ATOM     20  C   UNL     1       1.661  10.072   2.641  1.00  0.00     0.036 A 
ATOM     21  C   UNL     1       0.347   8.817   0.060  1.00  0.00     0.024 A 
ATOM     22  C   UNL     1       2.465  10.740   3.682  1.00  0.00     0.052 C 
ATOM     23  C   UNL     1       1.903   8.816   2.170  1.00  0.00     0.145 A 
ATOM     24  C   UNL     1       1.319   8.094   0.699  1.00  0.00     0.022 A 
ATOM     25  O   UNL     1       3.088   7.779   3.095  1.00  0.00    -0.422 OA
ATOM     26  C   UNL     1       1.930   6.428   0.127  1.00  0.00    -0.030 A 
ATOM     27  C   UNL     1       3.712   6.144   2.642  1.00  0.00     0.339 A 
ATOM     28  C   UNL     1       1.273   5.976  -1.139  1.00  0.00     0.046 C 
ATOM     29  O   UNL     1       4.594   5.580   3.265  1.00  0.00    -0.246 OA
ENDBRANCH  11  12
ENDBRANCH  10  11
ENDBRANCH   7  10
ENDBRANCH   5   6
BRANCH   5  30
ATOM     30  C   UNL     1       3.364   7.619   1.207  1.00  0.00     0.072 C 
BRANCH  30  31
ATOM     31  C   UNL     1       3.799   9.168   0.620  1.00  0.00    -0.045 A 
ATOM     32  C   UNL     1       3.353   9.636  -0.630  1.00  0.00     0.005 A 
ATOM     33  C   UNL     1       4.622  10.011   1.397  1.00  0.00     0.005 A 
ATOM     34  C   UNL     1       3.506  10.983  -0.969  1.00  0.00     0.021 A 
ATOM     35  C   UNL     1       4.807  11.348   1.029  1.00  0.00     0.021 A 
ATOM     36  C   UNL     1       4.200  11.840  -0.122  1.00  0.00     0.041 A 
ATOM     37  Cl  UNL     1       4.288  13.518  -0.486  1.00  0.00    -0.084 Cl
ENDBRANCH  30  31
ENDBRANCH   5  30
ENDBRANCH   3   5
ENDBRANCH   2   3
ENDBRANCH   1   2
BRANCH   1  38
ATOM     38  C   UNL     1       1.946   5.889   7.080  1.00  0.00     0.275 C 
BRANCH  38  39
ATOM     39  O   UNL     1       1.153   7.088   6.984  1.00  0.00    -0.458 OA
BRANCH  39  40
ATOM     40  C   UNL     1       1.853   8.175   6.593  1.00  0.00     0.338 C 
ATOM     41  O   UNL     1       3.052   8.215   6.356  1.00  0.00    -0.246 OA
BRANCH  40  42
ATOM     42  C   UNL     1       1.019   9.390   6.492  1.00  0.00     0.060 A 
ATOM     43  C   UNL     1      -0.129   9.466   5.693  1.00  0.00     0.016 A 
ATOM     44  C   UNL     1       1.566  10.554   7.030  1.00  0.00     0.016 A 
ATOM     45  C   UNL     1      -0.682  10.717   5.363  1.00  0.00     0.010 A 
ATOM     46  C   UNL     1       1.007  11.790   6.715  1.00  0.00     0.010 A 
ATOM     47  C   UNL     1      -0.100  11.895   5.848  1.00  0.00    -0.014 A 
BRANCH  47  48
ATOM     48  C   UNL     1      -0.682  13.233   5.536  1.00  0.00     0.031 A 
ATOM     49  C   UNL     1      -1.056  13.931   6.795  1.00  0.00     0.074 A 
ATOM     50  C   UNL     1      -0.202  14.120   4.626  1.00  0.00     0.049 A 
ATOM     51  N   UNL     1      -0.153  14.630   7.417  1.00  0.00    -0.248 NA
ATOM     52  C   UNL     1      -2.204  13.561   7.613  1.00  0.00     0.031 C 
ATOM     53  C   UNL     1       1.152  14.079   4.073  1.00  0.00     0.029 A 
ATOM     54  N   UNL     1      -0.670  15.379   4.262  1.00  0.00    -0.354 N 
ATOM     55  C   UNL     1      -0.463  14.536   8.749  1.00  0.00     0.074 A 
ATOM     56  C   UNL     1      -1.806  13.997   8.818  1.00  0.00     0.031 C 
ATOM     57  C   UNL     1       1.472  15.287   3.581  1.00  0.00     0.029 A 
ATOM     58  C   UNL     1       0.316  16.161   3.676  1.00  0.00     0.049 A 
ATOM     59  H   UNL     1      -1.596  15.681   4.404  1.00  0.00     0.167 HD
ATOM     60  C   UNL     1       0.462  14.749   9.720  1.00  0.00     0.037 A 
ATOM     61  C   UNL     1       0.376  17.513   3.586  1.00  0.00     0.037 A 
ATOM     62  C   UNL     1       1.829  15.066   9.368  1.00  0.00     0.049 A 
ATOM     63  C   UNL     1       1.132  17.914   4.819  1.00  0.00     0.074 A 
ATOM     64  C   UNL     1       3.079  14.943   9.940  1.00  0.00     0.029 A 
ATOM     65  N   UNL     1       2.084  15.611   8.139  1.00  0.00    -0.354 N 
ATOM     66  N   UNL     1       2.430  17.884   4.986  1.00  0.00    -0.248 NA
ATOM     67  C   UNL     1       0.358  18.111   6.057  1.00  0.00     0.031 C 
ATOM     68  C   UNL     1       4.018  15.643   9.117  1.00  0.00     0.029 A 
ATOM     69  C   UNL     1       3.319  16.205   8.069  1.00  0.00     0.049 A 
ATOM     70  H   UNL     1       1.451  15.579   7.387  1.00  0.00     0.167 HD
ATOM     71  C   UNL     1       2.587  17.751   6.360  1.00  0.00     0.074 A 
ATOM     72  C   UNL     1       1.318  18.070   6.971  1.00  0.00     0.031 C 
ATOM     73  C   UNL     1       3.595  17.034   6.925  1.00  0.00     0.037 A 
BRANCH  60  74
ATOM     74  C   UNL     1       0.027  14.787  11.124  1.00  0.00     0.064 A 
ATOM     75  C   UNL     1      -0.293  16.037  11.667  1.00  0.00     0.173 A 
ATOM     76  C   UNL     1      -0.051  13.661  11.941  1.00  0.00     0.173 A 
ATOM     77  F   UNL     1      -0.242  17.136  10.899  1.00  0.00    -0.203 F 
ATOM     78  C   UNL     1      -0.674  16.161  12.994  1.00  0.00     0.198 A 
ATOM     79  C   UNL     1      -0.437  13.787  13.273  1.00  0.00     0.198 A 
ATOM     80  F   UNL     1       0.237  12.446  11.453  1.00  0.00    -0.203 F 
ATOM     81  F   UNL     1      -0.980  17.367  13.490  1.00  0.00    -0.200 F 
ATOM     82  C   UNL     1      -0.745  15.036  13.797  1.00  0.00     0.200 A 
ATOM     83  F   UNL     1      -0.518  12.700  14.052  1.00  0.00    -0.200 F 
ATOM     84  F   UNL     1      -1.119  15.153  15.078  1.00  0.00    -0.200 F 
ENDBRANCH  60  74
BRANCH  61  85
ATOM     85  C   UNL     1      -0.778  18.250   3.010  1.00  0.00     0.064 A 
ATOM     86  C   UNL     1      -1.250  17.844   1.742  1.00  0.00     0.173 A 
ATOM     87  C   UNL     1      -1.397  19.378   3.560  1.00  0.00     0.173 A 
ATOM     88  F   UNL     1      -0.644  16.843   1.085  1.00  0.00    -0.203 F 
ATOM     89  C   UNL     1      -2.326  18.467   1.113  1.00  0.00     0.198 A 
ATOM     90  C   UNL     1      -2.493  19.987   2.943  1.00  0.00     0.198 A 
ATOM     91  F   UNL     1      -0.959  19.927   4.699  1.00  0.00    -0.203 F 
ATOM     92  F   UNL     1      -2.743  18.038  -0.086  1.00  0.00    -0.200 F 
ATOM     93  C   UNL     1      -2.963  19.527   1.727  1.00  0.00     0.200 A 
ATOM     94  F   UNL     1      -3.093  21.025   3.540  1.00  0.00    -0.200 F 
ATOM     95  F   UNL     1      -4.017  20.112   1.143  1.00  0.00    -0.200 F 
ENDBRANCH  61  85
BRANCH  73  96
ATOM     96  C   UNL     1       4.892  17.039   6.213  1.00  0.00     0.064 A 
ATOM     97  C   UNL     1       5.588  18.249   6.058  1.00  0.00     0.173 A 
ATOM     98  C   UNL     1       5.479  15.873   5.714  1.00  0.00     0.173 A 
ATOM     99  F   UNL     1       5.083  19.390   6.554  1.00  0.00    -0.203 F 
ATOM    100  C   UNL     1       6.823  18.292   5.422  1.00  0.00     0.198 A 
ATOM    101  C   UNL     1       6.720  15.918   5.082  1.00  0.00     0.198 A 
ATOM    102  F   UNL     1       4.856  14.691   5.834  1.00  0.00    -0.203 F 
ATOM    103  F   UNL     1       7.473  19.458   5.296  1.00  0.00    -0.200 F 
ATOM    104  C   UNL     1       7.390  17.125   4.937  1.00  0.00     0.200 A 
ATOM    105  F   UNL     1       7.277  14.789   4.623  1.00  0.00    -0.200 F 
ATOM    106  F   UNL     1       8.590  17.162   4.340  1.00  0.00    -0.200 F 
ENDBRANCH  73  96
ENDBRANCH  47  48
ENDBRANCH  40  42
ENDBRANCH  39  40
ENDBRANCH  38  39
ENDBRANCH   1  38
TORSDOF 17
