REMARK SMILES O=C(OCCOC(=O)c1ccc(-c2c3nc(c(-c4c(F)c(F)c(F)c(F)c4F)c4ccc([nH]4)c(-c4c(F)c(F)c(F)c(F)c4F)c4nc(c(-c5c(F)c(F)c(F)c(F)c5F)c5ccc2[nH]5)C=C4)C=C3)cc1)C1=Cc2cc(Cl)cc(-c3ccc(Cl)cc3)c2O[C@@H]1C(F)(F)F
REMARK SMILES IDX 5 1 4 2 3 3 2 4 1 5 72 6 73 7 89 8 74 9 88 10 75 11 87 12
REMARK SMILES IDX 76 13 79 14 77 15 78 16 90 17 91 18 92 19 93 20 80 21 81 22
REMARK SMILES IDX 86 23 82 24 85 25 83 26 84 27 6 28 7 29 8 30 9 31 10 32
REMARK SMILES IDX 71 33 11 34 70 35 12 36 13 37 14 38 64 39 15 40 69 41 63 42
REMARK SMILES IDX 65 43 16 44 68 45 62 46 61 47 17 49 49 50 29 51 48 52 30 53
REMARK SMILES IDX 33 54 47 55 66 56 31 57 32 58 46 60 67 61 34 62 18 63 19 64
REMARK SMILES IDX 27 65 20 66 21 67 25 68 28 69 22 70 23 71 26 72 24 73 50 74
REMARK SMILES IDX 51 75 59 76 52 77 53 78 57 79 60 80 54 81 55 82 58 83 56 84
REMARK SMILES IDX 35 85 36 86 44 87 37 88 38 89 42 90 45 91 39 92 40 93 43 94
REMARK SMILES IDX 41 95
REMARK H PARENT 65 48 33 59
REMARK Flexibility Score: inf
ROOT
ATOM      1  C   UNL     1       4.702   0.344  -0.818  1.00  0.00     0.275 C 
ENDROOT
BRANCH   1   2
ATOM      2  C   UNL     1       3.896   0.017   1.170  1.00  0.00     0.275 C 
BRANCH   2   3
ATOM      3  O   UNL     1       2.973   0.982   1.971  1.00  0.00    -0.459 OA
BRANCH   3   4
ATOM      4  C   UNL     1       3.182   2.271   1.677  1.00  0.00     0.338 C 
ATOM      5  O   UNL     1       2.568   3.254   2.006  1.00  0.00    -0.246 OA
BRANCH   4   6
ATOM      6  C   UNL     1       4.049   1.998   0.556  1.00  0.00     0.087 C 
ATOM      7  C   UNL     1       5.405   1.707   0.935  1.00  0.00     0.027 C 
ATOM      8  C   UNL     1       2.842   0.813  -0.345  1.00  0.00     0.316 C 
ATOM      9  C   UNL     1       6.119   0.088   0.808  1.00  0.00     0.019 A 
ATOM     10  O   UNL     1       3.549  -1.006  -0.378  1.00  0.00    -0.475 OA
ATOM     11  C   UNL     1       7.388  -0.022   1.303  1.00  0.00     0.032 A 
ATOM     12  C   UNL     1       5.216  -1.323   0.337  1.00  0.00     0.135 A 
ATOM     13  C   UNL     1       7.858  -1.324   1.404  1.00  0.00     0.042 A 
ATOM     14  C   UNL     1       5.733  -2.579   0.571  1.00  0.00     0.026 A 
ATOM     15  Cl  UNL     1       9.453  -1.535   2.042  1.00  0.00    -0.084 Cl
ATOM     16  C   UNL     1       7.086  -2.503   1.077  1.00  0.00     0.033 A 
BRANCH   8  17
ATOM     17  C   UNL     1       2.667   2.048  -1.388  1.00  0.00     0.430 C 
ATOM     18  F   UNL     1       1.778   1.881  -2.332  1.00  0.00    -0.167 F 
ATOM     19  F   UNL     1       2.162   3.124  -0.709  1.00  0.00    -0.167 F 
ATOM     20  F   UNL     1       3.798   2.525  -1.967  1.00  0.00    -0.167 F 
ENDBRANCH   8  17
BRANCH  14  21
ATOM     21  C   UNL     1       5.119  -3.900   0.589  1.00  0.00    -0.015 A 
ATOM     22  C   UNL     1       5.019  -4.574   1.832  1.00  0.00     0.010 A 
ATOM     23  C   UNL     1       4.864  -4.624  -0.576  1.00  0.00     0.010 A 
ATOM     24  C   UNL     1       4.704  -5.931   1.906  1.00  0.00     0.021 A 
ATOM     25  C   UNL     1       4.543  -5.987  -0.503  1.00  0.00     0.021 A 
ATOM     26  C   UNL     1       4.472  -6.635   0.732  1.00  0.00     0.041 A 
ATOM     27  Cl  UNL     1       4.129  -8.319   0.807  1.00  0.00    -0.084 Cl
ENDBRANCH  14  21
ENDBRANCH   4   6
ENDBRANCH   3   4
ENDBRANCH   2   3
ENDBRANCH   1   2
BRANCH   1  28
ATOM     28  O   UNL     1       3.769   0.115  -2.303  1.00  0.00    -0.458 OA
BRANCH  28  29
ATOM     29  C   UNL     1       2.848  -0.760  -2.872  1.00  0.00     0.338 C 
ATOM     30  O   UNL     1       2.479  -1.848  -2.469  1.00  0.00    -0.246 OA
BRANCH  29  31
ATOM     31  C   UNL     1       2.082  -0.010  -3.939  1.00  0.00     0.060 A 
ATOM     32  C   UNL     1       0.742   0.385  -3.695  1.00  0.00     0.016 A 
ATOM     33  C   UNL     1       2.814   0.648  -4.921  1.00  0.00     0.016 A 
ATOM     34  C   UNL     1       0.285   1.638  -4.193  1.00  0.00     0.010 A 
ATOM     35  C   UNL     1       2.345   1.864  -5.432  1.00  0.00     0.010 A 
ATOM     36  C   UNL     1       1.139   2.436  -4.979  1.00  0.00    -0.014 A 
BRANCH  36  37
ATOM     37  C   UNL     1       0.769   3.791  -5.500  1.00  0.00     0.031 A 
ATOM     38  C   UNL     1       0.119   3.802  -6.848  1.00  0.00     0.074 A 
ATOM     39  C   UNL     1       1.112   4.970  -4.923  1.00  0.00     0.049 A 
ATOM     40  N   UNL     1      -0.108   4.797  -7.663  1.00  0.00    -0.248 NA
ATOM     41  C   UNL     1      -0.283   2.484  -7.364  1.00  0.00     0.031 C 
ATOM     42  C   UNL     1       1.747   5.142  -3.618  1.00  0.00     0.029 A 
ATOM     43  N   UNL     1       0.996   6.270  -5.389  1.00  0.00    -0.354 N 
ATOM     44  C   UNL     1      -0.653   4.217  -8.797  1.00  0.00     0.074 A 
ATOM     45  C   UNL     1      -0.683   2.788  -8.584  1.00  0.00     0.031 C 
ATOM     46  C   UNL     1       1.981   6.453  -3.397  1.00  0.00     0.029 A 
ATOM     47  C   UNL     1       1.546   7.229  -4.558  1.00  0.00     0.049 A 
ATOM     48  H   UNL     1       0.559   6.493  -6.243  1.00  0.00     0.167 HD
ATOM     49  C   UNL     1      -1.100   4.818  -9.919  1.00  0.00     0.037 A 
ATOM     50  C   UNL     1       1.698   8.565  -4.725  1.00  0.00     0.037 A 
ATOM     51  C   UNL     1      -1.083   6.232 -10.144  1.00  0.00     0.049 A 
ATOM     52  C   UNL     1       1.226   9.207  -6.019  1.00  0.00     0.074 A 
ATOM     53  C   UNL     1      -1.565   6.931 -11.234  1.00  0.00     0.029 A 
ATOM     54  N   UNL     1      -0.547   7.161  -9.267  1.00  0.00    -0.354 N 
ATOM     55  N   UNL     1       0.628   8.658  -7.049  1.00  0.00    -0.248 NA
ATOM     56  C   UNL     1       1.457  10.656  -6.180  1.00  0.00     0.031 C 
ATOM     57  C   UNL     1      -1.270   8.282 -11.044  1.00  0.00     0.029 A 
ATOM     58  C   UNL     1      -0.656   8.429  -9.810  1.00  0.00     0.049 A 
ATOM     59  H   UNL     1      -0.149   6.951  -8.392  1.00  0.00     0.167 HD
ATOM     60  C   UNL     1       0.384   9.689  -7.951  1.00  0.00     0.074 A 
ATOM     61  C   UNL     1       0.877  10.905  -7.345  1.00  0.00     0.031 C 
ATOM     62  C   UNL     1      -0.190   9.634  -9.178  1.00  0.00     0.037 A 
BRANCH  49  63
ATOM     63  C   UNL     1      -1.627   3.923 -10.994  1.00  0.00     0.064 A 
ATOM     64  C   UNL     1      -2.837   3.230 -10.842  1.00  0.00     0.173 A 
ATOM     65  C   UNL     1      -0.902   3.743 -12.180  1.00  0.00     0.173 A 
ATOM     66  F   UNL     1      -3.544   3.345  -9.707  1.00  0.00    -0.203 F 
ATOM     67  C   UNL     1      -3.289   2.363 -11.831  1.00  0.00     0.198 A 
ATOM     68  C   UNL     1      -1.375   2.902 -13.181  1.00  0.00     0.198 A 
ATOM     69  F   UNL     1       0.267   4.375 -12.362  1.00  0.00    -0.203 F 
ATOM     70  F   UNL     1      -4.413   1.660 -11.638  1.00  0.00    -0.200 F 
ATOM     71  C   UNL     1      -2.562   2.207 -13.002  1.00  0.00     0.200 A 
ATOM     72  F   UNL     1      -0.675   2.754 -14.314  1.00  0.00    -0.200 F 
ATOM     73  F   UNL     1      -3.001   1.375 -13.956  1.00  0.00    -0.200 F 
ENDBRANCH  49  63
BRANCH  50  74
ATOM     74  C   UNL     1       2.351   9.434  -3.690  1.00  0.00     0.064 A 
ATOM     75  C   UNL     1       1.645  10.483  -3.072  1.00  0.00     0.173 A 
ATOM     76  C   UNL     1       3.721   9.336  -3.402  1.00  0.00     0.173 A 
ATOM     77  F   UNL     1       0.343  10.662  -3.342  1.00  0.00    -0.203 F 
ATOM     78  C   UNL     1       2.288  11.418  -2.256  1.00  0.00     0.198 A 
ATOM     79  C   UNL     1       4.356  10.251  -2.557  1.00  0.00     0.198 A 
ATOM     80  F   UNL     1       4.460   8.374  -3.972  1.00  0.00    -0.203 F 
ATOM     81  F   UNL     1       1.603  12.461  -1.765  1.00  0.00    -0.200 F 
ATOM     82  C   UNL     1       3.644  11.301  -1.999  1.00  0.00     0.200 A 
ATOM     83  F   UNL     1       5.669  10.135  -2.312  1.00  0.00    -0.200 F 
ATOM     84  F   UNL     1       4.267  12.212  -1.239  1.00  0.00    -0.200 F 
ENDBRANCH  50  74
BRANCH  62  85
ATOM     85  C   UNL     1      -0.360  10.916  -9.942  1.00  0.00     0.064 A 
ATOM     86  C   UNL     1       0.731  11.578 -10.522  1.00  0.00     0.173 A 
ATOM     87  C   UNL     1      -1.645  11.426 -10.189  1.00  0.00     0.173 A 
ATOM     88  F   UNL     1       1.980  11.137 -10.309  1.00  0.00    -0.203 F 
ATOM     89  C   UNL     1       0.542  12.707 -11.316  1.00  0.00     0.198 A 
ATOM     90  C   UNL     1      -1.832  12.534 -11.009  1.00  0.00     0.198 A 
ATOM     91  F   UNL     1      -2.724  10.822  -9.667  1.00  0.00    -0.203 F 
ATOM     92  F   UNL     1       1.602  13.340 -11.838  1.00  0.00    -0.200 F 
ATOM     93  C   UNL     1      -0.739  13.175 -11.570  1.00  0.00     0.200 A 
ATOM     94  F   UNL     1      -3.072  12.970 -11.272  1.00  0.00    -0.200 F 
ATOM     95  F   UNL     1      -0.919  14.244 -12.358  1.00  0.00    -0.200 F 
ENDBRANCH  62  85
ENDBRANCH  36  37
ENDBRANCH  29  31
ENDBRANCH  28  29
ENDBRANCH   1  28
TORSDOF 13
