REMARK SMILES O=C(OCCOC(=O)c1cc(/C=C/c2cc(O)cc(O)c2)ccc1O)c1ccc(-c2c3nc(c(-c4c(F)c(F)c(F)c(F)c4F)c4ccc([nH]4)c(-c4c(F)c(F)c(F)c(F)c4F)c4nc(c(-c5c(F)c(F)c(F)c(F)c5F)c5ccc2[nH]5)C=C4)C=C3)cc1
REMARK SMILES IDX 5 1 4 2 3 3 2 4 1 5 26 6 27 7 88 8 28 9 87 10 29 11 30 12
REMARK SMILES IDX 31 13 81 14 32 15 86 16 80 17 82 18 33 19 85 20 79 21 78 22
REMARK SMILES IDX 34 24 66 25 46 26 65 27 47 28 50 29 64 30 83 31 48 32 49 33
REMARK SMILES IDX 63 35 84 36 51 37 35 38 36 39 44 40 37 41 38 42 42 43 45 44
REMARK SMILES IDX 39 45 40 46 43 47 41 48 67 49 68 50 76 51 69 52 70 53 74 54
REMARK SMILES IDX 77 55 71 56 72 57 75 58 73 59 52 60 53 61 61 62 54 63 55 64
REMARK SMILES IDX 59 65 62 66 56 67 57 68 60 69 58 70 6 71 7 72 8 73 9 74
REMARK SMILES IDX 10 75 24 76 11 77 23 78 22 79 25 80 12 82 13 83 14 84 15 85
REMARK SMILES IDX 21 86 16 87 19 88 18 89 17 90 20 92
REMARK H PARENT 82 23 50 34 25 81 17 91 20 93
REMARK Flexibility Score: inf
ROOT
ATOM      1  C   UNL     1       3.925   2.085  -0.812  1.00  0.00     0.275 C 
ENDROOT
BRANCH   1   2
ATOM      2  C   UNL     1       4.155   0.715  -1.449  1.00  0.00     0.275 C 
BRANCH   2   3
ATOM      3  O   UNL     1       3.123  -0.253  -1.182  1.00  0.00    -0.458 OA
BRANCH   3   4
ATOM      4  C   UNL     1       2.989  -1.132  -0.164  1.00  0.00     0.338 C 
ATOM      5  O   UNL     1       2.126  -2.007  -0.247  1.00  0.00    -0.246 OA
BRANCH   4   6
ATOM      6  C   UNL     1       3.738  -1.041   1.129  1.00  0.00     0.060 A 
ATOM      7  C   UNL     1       5.031  -0.546   1.307  1.00  0.00     0.016 A 
ATOM      8  C   UNL     1       3.066  -1.533   2.265  1.00  0.00     0.016 A 
ATOM      9  C   UNL     1       5.609  -0.478   2.579  1.00  0.00     0.010 A 
ATOM     10  C   UNL     1       3.629  -1.455   3.541  1.00  0.00     0.010 A 
ATOM     11  C   UNL     1       4.912  -0.929   3.702  1.00  0.00    -0.014 A 
BRANCH  11  12
ATOM     12  C   UNL     1       5.587  -0.978   5.017  1.00  0.00     0.031 A 
ATOM     13  C   UNL     1       6.122  -2.291   5.498  1.00  0.00     0.074 A 
ATOM     14  C   UNL     1       5.756   0.141   5.744  1.00  0.00     0.049 A 
ATOM     15  N   UNL     1       6.799  -2.560   6.583  1.00  0.00    -0.248 NA
ATOM     16  C   UNL     1       5.890  -3.454   4.625  1.00  0.00     0.031 C 
ATOM     17  C   UNL     1       5.341   1.480   5.335  1.00  0.00     0.029 A 
ATOM     18  N   UNL     1       6.312   0.330   6.983  1.00  0.00    -0.354 N 
ATOM     19  C   UNL     1       7.121  -3.905   6.494  1.00  0.00     0.074 A 
ATOM     20  C   UNL     1       6.496  -4.420   5.296  1.00  0.00     0.031 C 
ATOM     21  C   UNL     1       5.600   2.346   6.328  1.00  0.00     0.029 A 
ATOM     22  C   UNL     1       6.214   1.623   7.437  1.00  0.00     0.049 A 
ATOM     23  H   UNL     1       6.741  -0.391   7.497  1.00  0.00     0.167 HD
ATOM     24  C   UNL     1       7.908  -4.635   7.318  1.00  0.00     0.037 A 
ATOM     25  C   UNL     1       6.580   2.155   8.619  1.00  0.00     0.037 A 
ATOM     26  C   UNL     1       8.486  -4.126   8.531  1.00  0.00     0.049 A 
ATOM     27  C   UNL     1       7.313   1.281   9.601  1.00  0.00     0.074 A 
ATOM     28  C   UNL     1       9.272  -4.781   9.459  1.00  0.00     0.029 A 
ATOM     29  N   UNL     1       8.316  -2.826   8.991  1.00  0.00    -0.354 N 
ATOM     30  N   UNL     1       7.664   0.022   9.483  1.00  0.00    -0.248 NA
ATOM     31  C   UNL     1       7.733   1.905  10.862  1.00  0.00     0.031 C 
ATOM     32  C   UNL     1       9.542  -3.889  10.505  1.00  0.00     0.029 A 
ATOM     33  C   UNL     1       8.962  -2.666  10.205  1.00  0.00     0.049 A 
ATOM     34  H   UNL     1       7.810  -2.123   8.523  1.00  0.00     0.167 HD
ATOM     35  C   UNL     1       8.391  -0.281  10.625  1.00  0.00     0.074 A 
ATOM     36  C   UNL     1       8.424   0.925  11.428  1.00  0.00     0.031 C 
ATOM     37  C   UNL     1       8.990  -1.447  10.973  1.00  0.00     0.037 A 
BRANCH  24  38
ATOM     38  C   UNL     1       8.169  -6.054   6.915  1.00  0.00     0.064 A 
ATOM     39  C   UNL     1       8.992  -6.357   5.818  1.00  0.00     0.173 A 
ATOM     40  C   UNL     1       7.569  -7.119   7.601  1.00  0.00     0.173 A 
ATOM     41  F   UNL     1       9.570  -5.371   5.115  1.00  0.00    -0.203 F 
ATOM     42  C   UNL     1       9.175  -7.672   5.401  1.00  0.00     0.198 A 
ATOM     43  C   UNL     1       7.774  -8.435   7.195  1.00  0.00     0.198 A 
ATOM     44  F   UNL     1       6.771  -6.882   8.652  1.00  0.00    -0.203 F 
ATOM     45  F   UNL     1       9.916  -7.933   4.315  1.00  0.00    -0.200 F 
ATOM     46  C   UNL     1       8.568  -8.710   6.091  1.00  0.00     0.200 A 
ATOM     47  F   UNL     1       7.189  -9.439   7.864  1.00  0.00    -0.200 F 
ATOM     48  F   UNL     1       8.735  -9.976   5.682  1.00  0.00    -0.200 F 
ENDBRANCH  24  38
BRANCH  25  49
ATOM     49  C   UNL     1       6.279   3.577   8.928  1.00  0.00     0.064 A 
ATOM     50  C   UNL     1       7.297   4.534   9.039  1.00  0.00     0.173 A 
ATOM     51  C   UNL     1       4.960   4.004   9.143  1.00  0.00     0.173 A 
ATOM     52  F   UNL     1       8.575   4.174   8.854  1.00  0.00    -0.203 F 
ATOM     53  C   UNL     1       7.011   5.855   9.380  1.00  0.00     0.198 A 
ATOM     54  C   UNL     1       4.673   5.330   9.463  1.00  0.00     0.198 A 
ATOM     55  F   UNL     1       3.945   3.133   9.036  1.00  0.00    -0.203 F 
ATOM     56  F   UNL     1       8.008   6.739   9.522  1.00  0.00    -0.200 F 
ATOM     57  C   UNL     1       5.699   6.253   9.591  1.00  0.00     0.200 A 
ATOM     58  F   UNL     1       3.401   5.713   9.648  1.00  0.00    -0.200 F 
ATOM     59  F   UNL     1       5.425   7.522   9.920  1.00  0.00    -0.200 F 
ENDBRANCH  25  49
BRANCH  37  60
ATOM     60  C   UNL     1       9.775  -1.455  12.250  1.00  0.00     0.064 A 
ATOM     61  C   UNL     1       9.144  -1.444  13.502  1.00  0.00     0.173 A 
ATOM     62  C   UNL     1      11.176  -1.517  12.216  1.00  0.00     0.173 A 
ATOM     63  F   UNL     1       7.807  -1.366  13.583  1.00  0.00    -0.203 F 
ATOM     64  C   UNL     1       9.890  -1.473  14.676  1.00  0.00     0.198 A 
ATOM     65  C   UNL     1      11.917  -1.575  13.392  1.00  0.00     0.198 A 
ATOM     66  F   UNL     1      11.824  -1.532  11.042  1.00  0.00    -0.203 F 
ATOM     67  F   UNL     1       9.270  -1.416  15.863  1.00  0.00    -0.200 F 
ATOM     68  C   UNL     1      11.275  -1.547  14.620  1.00  0.00     0.200 A 
ATOM     69  F   UNL     1      13.254  -1.659  13.336  1.00  0.00    -0.200 F 
ATOM     70  F   UNL     1      11.991  -1.584  15.752  1.00  0.00    -0.200 F 
ENDBRANCH  37  60
ENDBRANCH  11  12
ENDBRANCH   4   6
ENDBRANCH   3   4
ENDBRANCH   2   3
ENDBRANCH   1   2
BRANCH   1  71
ATOM     71  O   UNL     1       3.498   2.002   0.552  1.00  0.00    -0.458 OA
BRANCH  71  72
ATOM     72  C   UNL     1       2.165   2.180   0.751  1.00  0.00     0.342 C 
ATOM     73  O   UNL     1       1.317   2.378  -0.104  1.00  0.00    -0.246 OA
BRANCH  72  74
ATOM     74  C   UNL     1       1.833   1.917   2.162  1.00  0.00     0.102 A 
ATOM     75  C   UNL     1       0.881   0.918   2.421  1.00  0.00     0.027 A 
ATOM     76  C   UNL     1       2.424   2.612   3.216  1.00  0.00     0.130 A 
ATOM     77  C   UNL     1       0.577   0.546   3.737  1.00  0.00    -0.025 A 
ATOM     78  C   UNL     1       2.087   2.290   4.529  1.00  0.00     0.048 A 
ATOM     79  C   UNL     1       1.186   1.252   4.785  1.00  0.00     0.012 A 
BRANCH  76  80
ATOM     80  O   UNL     1       3.323   3.611   2.971  1.00  0.00    -0.507 OA
ATOM     81  H   UNL     1       3.551   3.830   2.089  1.00  0.00     0.293 HD
ENDBRANCH  76  80
BRANCH  77  82
ATOM     82  C   UNL     1      -0.361  -0.537   4.077  1.00  0.00     0.009 C 
ATOM     83  C   UNL     1      -0.795  -1.497   3.242  1.00  0.00     0.009 C 
BRANCH  83  84
ATOM     84  C   UNL     1      -1.755  -2.540   3.641  1.00  0.00    -0.018 A 
ATOM     85  C   UNL     1      -2.846  -2.252   4.475  1.00  0.00     0.054 A 
ATOM     86  C   UNL     1      -1.622  -3.834   3.116  1.00  0.00     0.054 A 
ATOM     87  C   UNL     1      -3.764  -3.251   4.794  1.00  0.00     0.119 A 
ATOM     88  C   UNL     1      -2.553  -4.818   3.448  1.00  0.00     0.119 A 
ATOM     89  C   UNL     1      -3.622  -4.536   4.289  1.00  0.00     0.092 A 
BRANCH  87  90
ATOM     90  O   UNL     1      -4.834  -2.996   5.601  1.00  0.00    -0.508 OA
ATOM     91  H   UNL     1      -4.957  -2.138   5.958  1.00  0.00     0.293 HD
ENDBRANCH  87  90
BRANCH  88  92
ATOM     92  O   UNL     1      -2.452  -6.087   2.955  1.00  0.00    -0.508 OA
ATOM     93  H   UNL     1      -3.089  -6.733   3.191  1.00  0.00     0.293 HD
ENDBRANCH  88  92
ENDBRANCH  83  84
ENDBRANCH  77  82
ENDBRANCH  72  74
ENDBRANCH  71  72
ENDBRANCH   1  71
TORSDOF 16
