REMARK SMILES COc1ccccc1CCNC(=O)[C@@H]1[C@@H](C(=O)OCCOC(=O)c2ccc(-c3c4nc(c(-c5c(F)c(F)c(F)c(F)c5F)c5ccc([nH]5)c(-c5c(F)c(F)c(F)c(F)c5F)c5nc(c(-c6c(F)c(F)c(F)c(F)c6F)c6ccc3[nH]6)C=C5)C=C4)cc2)[C@H]2C=C[C@@H]1CC2
REMARK SMILES IDX 18 1 16 2 17 3 15 4 14 5 90 6 87 7 89 8 91 9 88 10 92 11
REMARK SMILES IDX 12 12 11 13 13 15 10 16 9 17 8 18 3 19 4 20 5 21 7 22 6 23
REMARK SMILES IDX 2 24 1 25 19 26 20 27 21 28 22 29 23 30 24 31 25 32 86 33
REMARK SMILES IDX 26 34 85 35 27 36 28 37 29 38 79 39 30 40 84 41 78 42 80 43
REMARK SMILES IDX 31 44 83 45 77 46 76 47 32 49 64 50 44 51 63 52 45 53 48 54
REMARK SMILES IDX 62 55 81 56 46 57 47 58 61 60 82 61 49 62 33 63 34 64 42 65
REMARK SMILES IDX 35 66 36 67 40 68 43 69 37 70 38 71 41 72 39 73 65 74 66 75
REMARK SMILES IDX 74 76 67 77 68 78 72 79 75 80 69 81 70 82 73 83 71 84 50 85
REMARK SMILES IDX 51 86 59 87 52 88 53 89 57 90 60 91 54 92 55 93 58 94 56 95
REMARK H PARENT 11 14 80 48 48 59
REMARK Flexibility Score: inf
ROOT
ATOM      1  O   UNL     1       6.229   2.051   0.819  1.00  0.00    -0.462 OA
ENDROOT
BRANCH   1   2
ATOM      2  C   UNL     1       6.969   1.152   0.111  1.00  0.00     0.310 C 
ATOM      3  O   UNL     1       8.128   1.344  -0.233  1.00  0.00    -0.252 OA
BRANCH   2   4
ATOM      4  C   UNL     1       6.173  -0.118  -0.195  1.00  0.00     0.119 C 
ATOM      5  C   UNL     1       6.764  -1.326   0.581  1.00  0.00     0.100 C 
ATOM      6  C   UNL     1       7.176  -2.440  -0.437  1.00  0.00     0.025 C 
ATOM      7  C   UNL     1       6.239  -0.396  -1.731  1.00  0.00     0.026 C 
ATOM      8  C   UNL     1       8.148  -1.825  -1.427  1.00  0.00    -0.027 C 
ATOM      9  C   UNL     1       5.930  -2.859  -1.250  1.00  0.00     0.009 C 
ATOM     10  C   UNL     1       7.654  -0.784  -2.114  1.00  0.00    -0.027 C 
ATOM     11  C   UNL     1       5.362  -1.638  -2.013  1.00  0.00     0.009 C 
BRANCH   5  12
ATOM     12  C   UNL     1       6.126  -1.983   1.812  1.00  0.00     0.224 C 
ATOM     13  N   UNL     1       5.019  -1.580   2.465  1.00  0.00    -0.355 N 
ATOM     14  H   UNL     1       4.930  -1.984   3.359  1.00  0.00     0.163 HD
ATOM     15  O   UNL     1       6.703  -2.952   2.328  1.00  0.00    -0.275 OA
BRANCH  13  16
ATOM     16  C   UNL     1       3.933  -0.679   2.137  1.00  0.00     0.120 C 
BRANCH  16  17
ATOM     17  C   UNL     1       2.991  -1.312   1.109  1.00  0.00     0.060 C 
BRANCH  17  18
ATOM     18  C   UNL     1       1.859  -2.067   1.765  1.00  0.00    -0.004 A 
ATOM     19  C   UNL     1       0.620  -1.460   2.014  1.00  0.00     0.122 A 
ATOM     20  C   UNL     1      -0.379  -2.133   2.718  1.00  0.00     0.047 A 
ATOM     21  C   UNL     1      -0.163  -3.439   3.157  1.00  0.00     0.004 A 
ATOM     22  C   UNL     1       2.060  -3.385   2.206  1.00  0.00     0.007 A 
ATOM     23  C   UNL     1       1.054  -4.066   2.896  1.00  0.00     0.001 A 
BRANCH  19  24
ATOM     24  O   UNL     1       0.383  -0.158   1.663  1.00  0.00    -0.496 OA
ATOM     25  C   UNL     1       0.049  -0.039   0.278  1.00  0.00     0.278 C 
ENDBRANCH  19  24
ENDBRANCH  17  18
ENDBRANCH  16  17
ENDBRANCH  13  16
ENDBRANCH   5  12
ENDBRANCH   2   4
ENDBRANCH   1   2
BRANCH   1  26
ATOM     26  C   UNL     1       6.890   3.311   1.077  1.00  0.00     0.274 C 
BRANCH  26  27
ATOM     27  C   UNL     1       7.504   3.354   2.475  1.00  0.00     0.275 C 
BRANCH  27  28
ATOM     28  O   UNL     1       8.488   2.314   2.625  1.00  0.00    -0.458 OA
BRANCH  28  29
ATOM     29  C   UNL     1       8.337   1.524   3.710  1.00  0.00     0.338 C 
ATOM     30  O   UNL     1       7.481   1.631   4.581  1.00  0.00    -0.246 OA
BRANCH  29  31
ATOM     31  C   UNL     1       9.335   0.437   3.732  1.00  0.00     0.060 A 
ATOM     32  C   UNL     1       9.611  -0.296   2.583  1.00  0.00     0.016 A 
ATOM     33  C   UNL     1       9.853   0.014   4.956  1.00  0.00     0.016 A 
ATOM     34  C   UNL     1      10.207  -1.554   2.689  1.00  0.00     0.010 A 
ATOM     35  C   UNL     1      10.596  -1.170   5.029  1.00  0.00     0.010 A 
ATOM     36  C   UNL     1      10.715  -2.017   3.913  1.00  0.00    -0.014 A 
BRANCH  36  37
ATOM     37  C   UNL     1      11.292  -3.392   4.060  1.00  0.00     0.031 A 
ATOM     38  C   UNL     1      10.813  -4.301   5.171  1.00  0.00     0.074 A 
ATOM     39  C   UNL     1      12.226  -3.869   3.212  1.00  0.00     0.049 A 
ATOM     40  N   UNL     1      11.365  -5.388   5.656  1.00  0.00    -0.248 NA
ATOM     41  C   UNL     1       9.563  -3.920   5.846  1.00  0.00     0.031 C 
ATOM     42  C   UNL     1      12.759  -3.168   2.045  1.00  0.00     0.029 A 
ATOM     43  N   UNL     1      12.880  -5.080   3.191  1.00  0.00    -0.354 N 
ATOM     44  C   UNL     1      10.592  -5.752   6.753  1.00  0.00     0.074 A 
ATOM     45  C   UNL     1       9.519  -4.785   6.849  1.00  0.00     0.031 C 
ATOM     46  C   UNL     1      13.585  -3.986   1.376  1.00  0.00     0.029 A 
ATOM     47  C   UNL     1      13.738  -5.226   2.129  1.00  0.00     0.049 A 
ATOM     48  H   UNL     1      12.745  -5.776   3.874  1.00  0.00     0.167 HD
ATOM     49  C   UNL     1      10.769  -6.790   7.606  1.00  0.00     0.037 A 
ATOM     50  C   UNL     1      14.588  -6.221   1.812  1.00  0.00     0.037 A 
ATOM     51  C   UNL     1      11.760  -7.822   7.439  1.00  0.00     0.049 A 
ATOM     52  C   UNL     1      14.749  -7.384   2.747  1.00  0.00     0.074 A 
ATOM     53  C   UNL     1      12.022  -8.914   8.250  1.00  0.00     0.029 A 
ATOM     54  N   UNL     1      12.622  -7.915   6.357  1.00  0.00    -0.354 N 
ATOM     55  N   UNL     1      14.123  -7.636   3.869  1.00  0.00    -0.248 NA
ATOM     56  C   UNL     1      15.769  -8.381   2.390  1.00  0.00     0.031 C 
ATOM     57  C   UNL     1      13.049  -9.663   7.662  1.00  0.00     0.029 A 
ATOM     58  C   UNL     1      13.407  -9.052   6.472  1.00  0.00     0.049 A 
ATOM     59  H   UNL     1      12.669  -7.269   5.616  1.00  0.00     0.167 HD
ATOM     60  C   UNL     1      14.671  -8.814   4.355  1.00  0.00     0.074 A 
ATOM     61  C   UNL     1      15.665  -9.243   3.393  1.00  0.00     0.031 C 
ATOM     62  C   UNL     1      14.386  -9.471   5.505  1.00  0.00     0.037 A 
BRANCH  49  63
ATOM     63  C   UNL     1       9.898  -6.841   8.828  1.00  0.00     0.064 A 
ATOM     64  C   UNL     1       8.546  -7.206   8.773  1.00  0.00     0.173 A 
ATOM     65  C   UNL     1      10.445  -6.542  10.087  1.00  0.00     0.173 A 
ATOM     66  F   UNL     1       7.972  -7.492   7.595  1.00  0.00    -0.203 F 
ATOM     67  C   UNL     1       7.766  -7.239   9.927  1.00  0.00     0.198 A 
ATOM     68  C   UNL     1       9.670  -6.602  11.242  1.00  0.00     0.198 A 
ATOM     69  F   UNL     1      11.737  -6.197  10.198  1.00  0.00    -0.203 F 
ATOM     70  F   UNL     1       6.464  -7.544   9.845  1.00  0.00    -0.200 F 
ATOM     71  C   UNL     1       8.329  -6.942  11.160  1.00  0.00     0.200 A 
ATOM     72  F   UNL     1      10.221  -6.329  12.433  1.00  0.00    -0.200 F 
ATOM     73  F   UNL     1       7.577  -6.979  12.269  1.00  0.00    -0.200 F 
ENDBRANCH  49  63
BRANCH  50  74
ATOM     74  C   UNL     1      15.378  -6.138   0.557  1.00  0.00     0.064 A 
ATOM     75  C   UNL     1      15.091  -6.986  -0.522  1.00  0.00     0.173 A 
ATOM     76  C   UNL     1      16.405  -5.198   0.396  1.00  0.00     0.173 A 
ATOM     77  F   UNL     1      14.137  -7.921  -0.404  1.00  0.00    -0.203 F 
ATOM     78  C   UNL     1      15.799  -6.890  -1.718  1.00  0.00     0.198 A 
ATOM     79  C   UNL     1      17.093  -5.085  -0.809  1.00  0.00     0.198 A 
ATOM     80  F   UNL     1      16.720  -4.369   1.402  1.00  0.00    -0.203 F 
ATOM     81  F   UNL     1      15.523  -7.728  -2.726  1.00  0.00    -0.200 F 
ATOM     82  C   UNL     1      16.791  -5.932  -1.865  1.00  0.00     0.200 A 
ATOM     83  F   UNL     1      18.041  -4.148  -0.952  1.00  0.00    -0.200 F 
ATOM     84  F   UNL     1      17.458  -5.827  -3.022  1.00  0.00    -0.200 F 
ENDBRANCH  50  74
BRANCH  62  85
ATOM     85  C   UNL     1      15.142 -10.736   5.770  1.00  0.00     0.064 A 
ATOM     86  C   UNL     1      16.472 -10.712   6.213  1.00  0.00     0.173 A 
ATOM     87  C   UNL     1      14.525 -11.983   5.596  1.00  0.00     0.173 A 
ATOM     88  F   UNL     1      17.108  -9.543   6.377  1.00  0.00    -0.203 F 
ATOM     89  C   UNL     1      17.165 -11.896   6.454  1.00  0.00     0.198 A 
ATOM     90  C   UNL     1      15.216 -13.164   5.855  1.00  0.00     0.198 A 
ATOM     91  F   UNL     1      13.254 -12.055   5.175  1.00  0.00    -0.203 F 
ATOM     92  F   UNL     1      18.448 -11.853   6.839  1.00  0.00    -0.200 F 
ATOM     93  C   UNL     1      16.536 -13.119   6.278  1.00  0.00     0.200 A 
ATOM     94  F   UNL     1      14.606 -14.346   5.689  1.00  0.00    -0.200 F 
ATOM     95  F   UNL     1      17.206 -14.257   6.507  1.00  0.00    -0.200 F 
ENDBRANCH  62  85
ENDBRANCH  36  37
ENDBRANCH  29  31
ENDBRANCH  28  29
ENDBRANCH  27  28
ENDBRANCH  26  27
ENDBRANCH   1  26
TORSDOF 16
