REMARK SMILES CCCc1nsc(Oc2csc(C(=O)OCCOC(=O)c3ccc(-c4c5nc(c(-c6c(F)c(F)c(F)c(F)c6F)c6ccc([nH]6)c(-c6c(F)c(F)c(F)c(F)c6F)c6nc(c(-c7c(F)c(F)c(F)c(F)c7F)c7ccc4[nH]7)C=C6)C=C5)cc3)c2)n1
REMARK SMILES IDX 16 1 15 2 13 3 14 4 12 5 9 6 10 7 84 8 11 9 8 10 7 11 4 12
REMARK SMILES IDX 5 13 85 14 6 15 3 16 2 17 1 18 17 19 18 20 19 21 20 22 21 23
REMARK SMILES IDX 22 24 83 25 23 26 82 27 24 28 25 29 26 30 76 31 27 32 81 33
REMARK SMILES IDX 75 34 77 35 28 36 80 37 74 38 73 39 29 41 61 42 41 43 60 44
REMARK SMILES IDX 42 45 45 46 59 47 78 48 43 49 44 50 58 52 79 53 46 54 30 55
REMARK SMILES IDX 31 56 39 57 32 58 33 59 37 60 40 61 34 62 35 63 38 64 36 65
REMARK SMILES IDX 62 66 63 67 71 68 64 69 65 70 69 71 72 72 66 73 67 74 70 75
REMARK SMILES IDX 68 76 47 77 48 78 56 79 49 80 50 81 54 82 57 83 51 84 52 85
REMARK SMILES IDX 55 86 53 87
REMARK H PARENT 77 40 45 51
REMARK Flexibility Score: inf
ROOT
ATOM      1  C   UNL     1       5.079  -5.768  -3.567  1.00  0.00     0.275 C 
ENDROOT
BRANCH   1   2
ATOM      2  O   UNL     1       4.016  -4.818  -3.777  1.00  0.00    -0.458 OA
BRANCH   2   3
ATOM      3  C   UNL     1       2.783  -5.178  -3.307  1.00  0.00     0.348 C 
ATOM      4  O   UNL     1       2.544  -6.244  -2.759  1.00  0.00    -0.245 OA
BRANCH   3   5
ATOM      5  C   UNL     1       1.835  -4.095  -3.512  1.00  0.00     0.116 A 
ATOM      6  C   UNL     1       0.827  -2.070  -4.079  1.00  0.00     0.141 A 
ATOM      7  C   UNL     1      -0.155  -2.635  -3.298  1.00  0.00     0.112 A 
ATOM      8  C   UNL     1       1.964  -2.914  -4.224  1.00  0.00     0.074 A 
ATOM      9  S   UNL     1       0.275  -4.207  -2.791  1.00  0.00    -0.133 S 
BRANCH   6  10
ATOM     10  O   UNL     1       0.684  -0.878  -4.704  1.00  0.00    -0.429 OA
BRANCH  10  11
ATOM     11  C   UNL     1       0.457   0.214  -3.973  1.00  0.00     0.298 A 
ATOM     12  C   UNL     1       0.503   1.673  -2.336  1.00  0.00     0.146 A 
ATOM     13  N   UNL     1      -0.205   2.444  -3.167  1.00  0.00    -0.172 NA
ATOM     14  N   UNL     1       0.892   0.402  -2.746  1.00  0.00    -0.186 NA
ATOM     15  S   UNL     1      -0.386   1.573  -4.583  1.00  0.00     0.025 S 
BRANCH  12  16
ATOM     16  C   UNL     1       0.943   2.197  -1.009  1.00  0.00     0.078 C 
BRANCH  16  17
ATOM     17  C   UNL     1       0.359   1.453   0.193  1.00  0.00     0.005 C 
ATOM     18  C   UNL     1       0.914   0.046   0.372  1.00  0.00     0.004 C 
ENDBRANCH  16  17
ENDBRANCH  12  16
ENDBRANCH  10  11
ENDBRANCH   6  10
ENDBRANCH   3   5
ENDBRANCH   2   3
ENDBRANCH   1   2
BRANCH   1  19
ATOM     19  C   UNL     1       5.943  -5.401  -2.356  1.00  0.00     0.275 C 
BRANCH  19  20
ATOM     20  O   UNL     1       5.239  -5.599  -1.115  1.00  0.00    -0.458 OA
BRANCH  20  21
ATOM     21  C   UNL     1       4.654  -4.491  -0.604  1.00  0.00     0.338 C 
ATOM     22  O   UNL     1       4.683  -3.362  -1.065  1.00  0.00    -0.246 OA
BRANCH  21  23
ATOM     23  C   UNL     1       3.823  -4.853   0.554  1.00  0.00     0.060 A 
ATOM     24  C   UNL     1       2.443  -4.699   0.424  1.00  0.00     0.016 A 
ATOM     25  C   UNL     1       4.378  -5.241   1.775  1.00  0.00     0.016 A 
ATOM     26  C   UNL     1       1.604  -4.921   1.510  1.00  0.00     0.010 A 
ATOM     27  C   UNL     1       3.532  -5.472   2.869  1.00  0.00     0.010 A 
ATOM     28  C   UNL     1       2.140  -5.300   2.747  1.00  0.00    -0.014 A 
BRANCH  28  29
ATOM     29  C   UNL     1       1.233  -5.455   3.912  1.00  0.00     0.031 A 
ATOM     30  C   UNL     1       1.244  -4.438   5.016  1.00  0.00     0.074 A 
ATOM     31  C   UNL     1       0.370  -6.487   3.959  1.00  0.00     0.049 A 
ATOM     32  N   UNL     1       0.567  -4.422   6.138  1.00  0.00    -0.248 NA
ATOM     33  C   UNL     1       2.140  -3.287   4.838  1.00  0.00     0.031 C 
ATOM     34  C   UNL     1       0.237  -7.520   2.933  1.00  0.00     0.029 A 
ATOM     35  N   UNL     1      -0.560  -6.834   4.908  1.00  0.00    -0.354 N 
ATOM     36  C   UNL     1       0.978  -3.280   6.811  1.00  0.00     0.074 A 
ATOM     37  C   UNL     1       1.972  -2.634   5.979  1.00  0.00     0.031 C 
ATOM     38  C   UNL     1      -0.720  -8.384   3.305  1.00  0.00     0.029 A 
ATOM     39  C   UNL     1      -1.234  -7.993   4.615  1.00  0.00     0.049 A 
ATOM     40  H   UNL     1      -0.727  -6.303   5.720  1.00  0.00     0.167 HD
ATOM     41  C   UNL     1       0.561  -2.813   8.013  1.00  0.00     0.037 A 
ATOM     42  C   UNL     1      -2.143  -8.680   5.333  1.00  0.00     0.037 A 
ATOM     43  C   UNL     1      -0.452  -3.441   8.823  1.00  0.00     0.049 A 
ATOM     44  C   UNL     1      -2.575  -8.153   6.674  1.00  0.00     0.074 A 
ATOM     45  C   UNL     1      -0.972  -3.019  10.035  1.00  0.00     0.029 A 
ATOM     46  N   UNL     1      -1.099  -4.625   8.502  1.00  0.00    -0.354 N 
ATOM     47  N   UNL     1      -2.187  -7.069   7.301  1.00  0.00    -0.248 NA
ATOM     48  C   UNL     1      -3.570  -8.947   7.410  1.00  0.00     0.031 C 
ATOM     49  C   UNL     1      -1.899  -3.974  10.470  1.00  0.00     0.029 A 
ATOM     50  C   UNL     1      -1.994  -4.965   9.506  1.00  0.00     0.049 A 
ATOM     51  H   UNL     1      -0.946  -5.148   7.682  1.00  0.00     0.167 HD
ATOM     52  C   UNL     1      -2.894  -7.043   8.495  1.00  0.00     0.074 A 
ATOM     53  C   UNL     1      -3.752  -8.210   8.497  1.00  0.00     0.031 C 
ATOM     54  C   UNL     1      -2.835  -6.135   9.500  1.00  0.00     0.037 A 
BRANCH  41  55
ATOM     55  C   UNL     1       1.232  -1.581   8.546  1.00  0.00     0.064 A 
ATOM     56  C   UNL     1       1.008  -0.312   7.993  1.00  0.00     0.173 A 
ATOM     57  C   UNL     1       2.103  -1.674   9.644  1.00  0.00     0.173 A 
ATOM     58  F   UNL     1       0.195  -0.171   6.935  1.00  0.00    -0.203 F 
ATOM     59  C   UNL     1       1.655   0.814   8.498  1.00  0.00     0.198 A 
ATOM     60  C   UNL     1       2.725  -0.542  10.164  1.00  0.00     0.198 A 
ATOM     61  F   UNL     1       2.347  -2.863  10.215  1.00  0.00    -0.203 F 
ATOM     62  F   UNL     1       1.466   2.008   7.920  1.00  0.00    -0.200 F 
ATOM     63  C   UNL     1       2.509   0.698   9.585  1.00  0.00     0.200 A 
ATOM     64  F   UNL     1       3.541  -0.655  11.222  1.00  0.00    -0.200 F 
ATOM     65  F   UNL     1       3.130   1.783  10.069  1.00  0.00    -0.200 F 
ENDBRANCH  41  55
BRANCH  42  66
ATOM     66  C   UNL     1      -2.680  -9.957   4.800  1.00  0.00     0.064 A 
ATOM     67  C   UNL     1      -4.008 -10.065   4.367  1.00  0.00     0.173 A 
ATOM     68  C   UNL     1      -1.864 -11.094   4.694  1.00  0.00     0.173 A 
ATOM     69  F   UNL     1      -4.834  -9.014   4.474  1.00  0.00    -0.203 F 
ATOM     70  C   UNL     1      -4.501 -11.263   3.853  1.00  0.00     0.198 A 
ATOM     71  C   UNL     1      -2.349 -12.282   4.154  1.00  0.00     0.198 A 
ATOM     72  F   UNL     1      -0.586 -11.043   5.098  1.00  0.00    -0.203 F 
ATOM     73  F   UNL     1      -5.784 -11.350   3.477  1.00  0.00    -0.200 F 
ATOM     74  C   UNL     1      -3.669 -12.367   3.737  1.00  0.00     0.200 A 
ATOM     75  F   UNL     1      -1.538 -13.341   4.033  1.00  0.00    -0.200 F 
ATOM     76  F   UNL     1      -4.141 -13.514   3.231  1.00  0.00    -0.200 F 
ENDBRANCH  42  66
BRANCH  54  77
ATOM     77  C   UNL     1      -3.732  -6.360  10.682  1.00  0.00     0.064 A 
ATOM     78  C   UNL     1      -3.475  -7.374  11.616  1.00  0.00     0.173 A 
ATOM     79  C   UNL     1      -4.842  -5.530  10.902  1.00  0.00     0.173 A 
ATOM     80  F   UNL     1      -2.435  -8.204  11.441  1.00  0.00    -0.203 F 
ATOM     81  C   UNL     1      -4.308  -7.563  12.715  1.00  0.00     0.198 A 
ATOM     82  C   UNL     1      -5.658  -5.705  12.016  1.00  0.00     0.198 A 
ATOM     83  F   UNL     1      -5.129  -4.542  10.041  1.00  0.00    -0.203 F 
ATOM     84  F   UNL     1      -4.068  -8.566  13.571  1.00  0.00    -0.200 F 
ATOM     85  C   UNL     1      -5.394  -6.724  12.918  1.00  0.00     0.200 A 
ATOM     86  F   UNL     1      -6.700  -4.886  12.217  1.00  0.00    -0.200 F 
ATOM     87  F   UNL     1      -6.192  -6.904  13.980  1.00  0.00    -0.200 F 
ENDBRANCH  54  77
ENDBRANCH  28  29
ENDBRANCH  21  23
ENDBRANCH  20  21
ENDBRANCH  19  20
ENDBRANCH   1  19
TORSDOF 15
