REMARK SMILES Cc1cccc([C@H]([NH3+])[C@H](O)C(=O)OCCOC(=O)c2ccc(-c3c4nc(c(-c5c(F)c(F)c(F)c(F)c5F)c5ccc([nH]5)c(-c5c(F)c(F)c(F)c(F)c5F)c5nc(c(-c6c(F)c(F)c(F)c(F)c6F)c6ccc3[nH]6)C=C5)C=C4)cc2)c1
REMARK SMILES IDX 14 1 13 2 11 3 12 4 9 5 7 6 6 7 1 8 2 9 3 10 82 11 4 12 5 13
REMARK SMILES IDX 8 14 10 18 15 20 16 21 17 22 18 23 19 24 20 25 81 26 21 27
REMARK SMILES IDX 80 28 22 29 23 30 24 31 74 32 25 33 79 34 73 35 75 36 26 37
REMARK SMILES IDX 78 38 72 39 71 40 27 42 59 43 39 44 58 45 40 46 43 47 57 48
REMARK SMILES IDX 76 49 41 50 42 51 56 53 77 54 44 55 28 56 29 57 37 58 30 59
REMARK SMILES IDX 31 60 35 61 38 62 32 63 33 64 36 65 34 66 60 67 61 68 69 69
REMARK SMILES IDX 62 70 63 71 67 72 70 73 64 74 65 75 68 76 66 77 45 78 46 79
REMARK SMILES IDX 54 80 47 81 48 82 52 83 55 84 49 85 50 86 53 87 51 88
REMARK H PARENT 8 15 8 16 8 17 10 19 75 41 43 52
REMARK Flexibility Score: inf
ROOT
ATOM      1  C   UNL     1      -2.801   5.960  -0.798  1.00  0.00     0.274 C 
ENDROOT
BRANCH   1   2
ATOM      2  O   UNL     1      -2.487   4.565  -0.763  1.00  0.00    -0.460 OA
BRANCH   2   3
ATOM      3  C   UNL     1      -1.686   4.227   0.300  1.00  0.00     0.341 C 
ATOM      4  O   UNL     1      -1.197   5.048   1.048  1.00  0.00    -0.249 OA
BRANCH   3   5
ATOM      5  C   UNL     1      -1.652   2.699   0.490  1.00  0.00     0.287 C 
BRANCH   5   6
ATOM      6  C   UNL     1      -0.982   2.293   1.847  1.00  0.00     0.252 C 
BRANCH   6   7
ATOM      7  C   UNL     1       0.540   2.340   1.781  1.00  0.00     0.013 A 
ATOM      8  C   UNL     1       3.458   0.066   0.842  1.00  0.00     0.044 C 
ATOM      9  C   UNL     1       2.681   1.280   1.254  1.00  0.00    -0.051 A 
ATOM     10  C   UNL     1       3.326   2.507   1.421  1.00  0.00     0.003 A 
ATOM     11  C   UNL     1       1.294   1.208   1.425  1.00  0.00     0.013 A 
ATOM     12  C   UNL     1       2.603   3.632   1.806  1.00  0.00     0.001 A 
ATOM     13  C   UNL     1       1.226   3.543   2.003  1.00  0.00     0.010 A 
ENDBRANCH   6   7
BRANCH   6  14
ATOM     14  N   UNL     1      -1.446   0.940   2.246  1.00  0.00    -0.349 N 
ATOM     15  H   UNL     1      -1.160   0.261   1.541  1.00  0.00     0.345 HD
ATOM     16  H   UNL     1      -2.462   0.939   2.326  1.00  0.00     0.345 HD
ATOM     17  H   UNL     1      -1.033   0.691   3.145  1.00  0.00     0.345 HD
ENDBRANCH   6  14
ENDBRANCH   5   6
BRANCH   5  18
ATOM     18  O   UNL     1      -1.127   1.980  -0.619  1.00  0.00    -0.376 OA
ATOM     19  H   UNL     1      -0.189   2.201  -0.733  1.00  0.00     0.212 HD
ENDBRANCH   5  18
ENDBRANCH   3   5
ENDBRANCH   2   3
ENDBRANCH   1   2
BRANCH   1  20
ATOM     20  C   UNL     1      -4.048   6.246  -1.637  1.00  0.00     0.275 C 
BRANCH  20  21
ATOM     21  O   UNL     1      -5.079   5.221  -1.740  1.00  0.00    -0.458 OA
BRANCH  21  22
ATOM     22  C   UNL     1      -5.536   4.329  -0.830  1.00  0.00     0.338 C 
ATOM     23  O   UNL     1      -6.149   3.323  -1.160  1.00  0.00    -0.246 OA
BRANCH  22  24
ATOM     24  C   UNL     1      -5.273   4.579   0.598  1.00  0.00     0.060 A 
ATOM     25  C   UNL     1      -4.924   3.502   1.432  1.00  0.00     0.016 A 
ATOM     26  C   UNL     1      -5.335   5.870   1.104  1.00  0.00     0.016 A 
ATOM     27  C   UNL     1      -4.486   3.737   2.738  1.00  0.00     0.010 A 
ATOM     28  C   UNL     1      -4.850   6.111   2.373  1.00  0.00     0.010 A 
ATOM     29  C   UNL     1      -4.419   5.053   3.194  1.00  0.00    -0.014 A 
BRANCH  29  30
ATOM     30  C   UNL     1      -4.102   5.433   4.569  1.00  0.00     0.031 A 
ATOM     31  C   UNL     1      -2.739   5.451   5.141  1.00  0.00     0.074 A 
ATOM     32  C   UNL     1      -5.161   5.884   5.267  1.00  0.00     0.049 A 
ATOM     33  N   UNL     1      -2.463   5.469   6.404  1.00  0.00    -0.248 NA
ATOM     34  C   UNL     1      -1.547   5.396   4.315  1.00  0.00     0.031 C 
ATOM     35  C   UNL     1      -5.201   6.632   6.510  1.00  0.00     0.029 A 
ATOM     36  N   UNL     1      -6.499   5.549   5.008  1.00  0.00    -0.354 N 
ATOM     37  C   UNL     1      -1.103   5.693   6.545  1.00  0.00     0.074 A 
ATOM     38  C   UNL     1      -0.569   5.510   5.220  1.00  0.00     0.031 C 
ATOM     39  C   UNL     1      -6.420   6.472   7.058  1.00  0.00     0.029 A 
ATOM     40  C   UNL     1      -7.103   5.453   6.268  1.00  0.00     0.049 A 
ATOM     41  H   UNL     1      -6.922   5.410   4.129  1.00  0.00     0.167 HD
ATOM     42  C   UNL     1      -0.620   6.162   7.736  1.00  0.00     0.037 A 
ATOM     43  C   UNL     1      -7.489   4.232   6.745  1.00  0.00     0.037 A 
ATOM     44  C   UNL     1      -1.700   6.228   8.716  1.00  0.00     0.049 A 
ATOM     45  C   UNL     1      -6.853   3.926   8.072  1.00  0.00     0.074 A 
ATOM     46  C   UNL     1      -2.541   7.265   9.084  1.00  0.00     0.029 A 
ATOM     47  N   UNL     1      -2.259   5.057   9.214  1.00  0.00    -0.354 N 
ATOM     48  N   UNL     1      -5.633   4.259   8.393  1.00  0.00    -0.248 NA
ATOM     49  C   UNL     1      -7.577   3.268   9.151  1.00  0.00     0.031 C 
ATOM     50  C   UNL     1      -3.669   6.697   9.724  1.00  0.00     0.029 A 
ATOM     51  C   UNL     1      -3.486   5.325   9.785  1.00  0.00     0.049 A 
ATOM     52  H   UNL     1      -1.840   4.168   9.167  1.00  0.00     0.167 HD
ATOM     53  C   UNL     1      -5.430   3.948   9.713  1.00  0.00     0.074 A 
ATOM     54  C   UNL     1      -6.664   3.308  10.135  1.00  0.00     0.031 C 
ATOM     55  C   UNL     1      -4.287   4.273  10.383  1.00  0.00     0.037 A 
BRANCH  42  56
ATOM     56  C   UNL     1       0.717   6.867   7.955  1.00  0.00     0.064 A 
ATOM     57  C   UNL     1       0.885   7.754   9.049  1.00  0.00     0.173 A 
ATOM     58  C   UNL     1       1.838   6.787   7.109  1.00  0.00     0.173 A 
ATOM     59  F   UNL     1      -0.037   7.858  10.015  1.00  0.00    -0.203 F 
ATOM     60  C   UNL     1       2.012   8.572   9.200  1.00  0.00     0.198 A 
ATOM     61  C   UNL     1       2.952   7.629   7.240  1.00  0.00     0.198 A 
ATOM     62  F   UNL     1       1.936   5.855   6.158  1.00  0.00    -0.203 F 
ATOM     63  F   UNL     1       2.092   9.408  10.246  1.00  0.00    -0.200 F 
ATOM     64  C   UNL     1       3.031   8.535   8.276  1.00  0.00     0.200 A 
ATOM     65  F   UNL     1       3.952   7.550   6.349  1.00  0.00    -0.200 F 
ATOM     66  F   UNL     1       4.093   9.343   8.396  1.00  0.00    -0.200 F 
ENDBRANCH  42  56
BRANCH  43  67
ATOM     67  C   UNL     1      -7.767   3.212   5.687  1.00  0.00     0.064 A 
ATOM     68  C   UNL     1      -8.726   3.499   4.693  1.00  0.00     0.173 A 
ATOM     69  C   UNL     1      -6.913   2.126   5.453  1.00  0.00     0.173 A 
ATOM     70  F   UNL     1      -9.572   4.530   4.855  1.00  0.00    -0.203 F 
ATOM     71  C   UNL     1      -8.759   2.804   3.484  1.00  0.00     0.198 A 
ATOM     72  C   UNL     1      -6.959   1.421   4.246  1.00  0.00     0.198 A 
ATOM     73  F   UNL     1      -5.976   1.788   6.349  1.00  0.00    -0.203 F 
ATOM     74  F   UNL     1      -9.618   3.172   2.523  1.00  0.00    -0.200 F 
ATOM     75  C   UNL     1      -7.862   1.776   3.254  1.00  0.00     0.200 A 
ATOM     76  F   UNL     1      -6.075   0.439   4.013  1.00  0.00    -0.200 F 
ATOM     77  F   UNL     1      -7.842   1.149   2.070  1.00  0.00    -0.200 F 
ENDBRANCH  43  67
BRANCH  55  78
ATOM     78  C   UNL     1      -3.891   3.735  11.732  1.00  0.00     0.064 A 
ATOM     79  C   UNL     1      -4.273   2.465  12.195  1.00  0.00     0.173 A 
ATOM     80  C   UNL     1      -2.964   4.429  12.546  1.00  0.00     0.173 A 
ATOM     81  F   UNL     1      -5.044   1.657  11.454  1.00  0.00    -0.203 F 
ATOM     82  C   UNL     1      -3.823   1.958  13.415  1.00  0.00     0.198 A 
ATOM     83  C   UNL     1      -2.471   3.895  13.734  1.00  0.00     0.198 A 
ATOM     84  F   UNL     1      -2.486   5.633  12.198  1.00  0.00    -0.203 F 
ATOM     85  F   UNL     1      -4.255   0.760  13.833  1.00  0.00    -0.200 F 
ATOM     86  C   UNL     1      -2.914   2.667  14.178  1.00  0.00     0.200 A 
ATOM     87  F   UNL     1      -1.546   4.568  14.433  1.00  0.00    -0.200 F 
ATOM     88  F   UNL     1      -2.449   2.155  15.325  1.00  0.00    -0.200 F 
ENDBRANCH  55  78
ENDBRANCH  29  30
ENDBRANCH  22  24
ENDBRANCH  21  22
ENDBRANCH  20  21
ENDBRANCH   1  20
TORSDOF 15
