REMARK SMILES CC1=Nc2c(c(C)nn2-c2ccc(F)cc2)[C@H](c2ccc(C(=O)OCCOC(=O)c3ccc(-c4c5nc(c(-c6c(F)c(F)c(F)c(F)c6F)c6ccc([nH]6)c(-c6c(F)c(F)c(F)c(F)c6F)c6nc(c(-c7c(F)c(F)c(F)c(F)c7F)c7ccc4[nH]7)C=C6)C=C5)cc3)cc2)S1
REMARK SMILES IDX 25 1 24 2 22 3 23 4 21 5 18 6 19 7 94 8 20 9 93 10 17 11
REMARK SMILES IDX 1 12 2 13 3 14 95 15 4 16 5 17 9 18 6 19 8 20 7 21 10 22
REMARK SMILES IDX 11 23 16 24 12 25 15 26 13 27 14 28 26 29 27 30 28 31 29 32
REMARK SMILES IDX 30 33 31 34 92 35 32 36 91 37 33 38 34 39 35 40 85 41 36 42
REMARK SMILES IDX 90 43 84 44 86 45 37 46 89 47 83 48 82 49 38 51 70 52 50 53
REMARK SMILES IDX 69 54 51 55 54 56 68 57 87 58 52 59 53 60 67 62 88 63 55 64
REMARK SMILES IDX 39 65 40 66 48 67 41 68 42 69 46 70 49 71 43 72 44 73 47 74
REMARK SMILES IDX 45 75 71 76 72 77 80 78 73 79 74 80 78 81 81 82 75 83 76 84
REMARK SMILES IDX 79 85 77 86 56 87 57 88 65 89 58 90 59 91 63 92 66 93 60 94
REMARK SMILES IDX 61 95 64 96 62 97
REMARK H PARENT 86 50 54 61
REMARK Flexibility Score: inf
ROOT
ATOM      1  C   UNL     1       7.864  -5.559   3.117  1.00  0.00     0.275 C 
ENDROOT
BRANCH   1   2
ATOM      2  O   UNL     1       6.582  -5.028   2.739  1.00  0.00    -0.458 OA
BRANCH   2   3
ATOM      3  C   UNL     1       5.510  -5.760   3.148  1.00  0.00     0.338 C 
ATOM      4  O   UNL     1       5.553  -6.866   3.648  1.00  0.00    -0.246 OA
BRANCH   3   5
ATOM      5  C   UNL     1       4.239  -4.998   2.988  1.00  0.00     0.060 A 
ATOM      6  C   UNL     1       1.725  -3.725   2.660  1.00  0.00    -0.030 A 
ATOM      7  C   UNL     1       1.852  -4.911   3.406  1.00  0.00     0.006 A 
ATOM      8  C   UNL     1       2.904  -3.153   2.145  1.00  0.00     0.006 A 
ATOM      9  C   UNL     1       3.091  -5.532   3.579  1.00  0.00     0.016 A 
ATOM     10  C   UNL     1       4.147  -3.790   2.293  1.00  0.00     0.016 A 
BRANCH   6  11
ATOM     11  C   UNL     1       0.327  -3.174   2.396  1.00  0.00     0.119 C 
ATOM     12  C   UNL     1       0.891   0.046  -0.117  1.00  0.00     0.075 C 
ATOM     13  C   UNL     1       0.382  -0.748   1.056  1.00  0.00     0.074 C 
ATOM     14  N   UNL     1       0.215  -0.129   2.181  1.00  0.00    -0.227 NA
ATOM     15  S   UNL     1       0.105  -2.455   0.734  1.00  0.00    -0.098 SA
ATOM     16  C   UNL     1      -0.117  -0.860   3.271  1.00  0.00     0.161 A 
ATOM     17  C   UNL     1      -0.024  -2.220   3.473  1.00  0.00     0.038 A 
ATOM     18  N   UNL     1      -0.557  -0.314   4.467  1.00  0.00    -0.215 N 
ATOM     19  C   UNL     1      -0.399  -2.409   4.830  1.00  0.00     0.067 A 
ATOM     20  N   UNL     1      -0.606  -1.243   5.456  1.00  0.00    -0.171 NA
ATOM     21  C   UNL     1      -0.570  -3.675   5.586  1.00  0.00     0.069 C 
BRANCH  18  22
ATOM     22  C   UNL     1      -0.974   1.019   4.705  1.00  0.00     0.067 A 
ATOM     23  C   UNL     1      -1.708   1.710   3.728  1.00  0.00     0.031 A 
ATOM     24  C   UNL     1      -0.652   1.637   5.920  1.00  0.00     0.031 A 
ATOM     25  C   UNL     1      -2.107   3.025   3.964  1.00  0.00     0.041 A 
ATOM     26  C   UNL     1      -1.008   2.971   6.125  1.00  0.00     0.041 A 
ATOM     27  C   UNL     1      -1.734   3.650   5.150  1.00  0.00     0.123 A 
ATOM     28  F   UNL     1      -2.082   4.927   5.355  1.00  0.00    -0.207 F 
ENDBRANCH  18  22
ENDBRANCH   6  11
ENDBRANCH   3   5
ENDBRANCH   2   3
ENDBRANCH   1   2
BRANCH   1  29
ATOM     29  C   UNL     1       8.314  -5.016   4.468  1.00  0.00     0.275 C 
BRANCH  29  30
ATOM     30  O   UNL     1       7.502  -5.502   5.538  1.00  0.00    -0.458 OA
BRANCH  30  31
ATOM     31  C   UNL     1       6.465  -4.704   5.872  1.00  0.00     0.338 C 
ATOM     32  O   UNL     1       5.998  -3.783   5.216  1.00  0.00    -0.246 OA
BRANCH  31  33
ATOM     33  C   UNL     1       6.107  -4.927   7.276  1.00  0.00     0.060 A 
ATOM     34  C   UNL     1       5.044  -4.175   7.789  1.00  0.00     0.016 A 
ATOM     35  C   UNL     1       6.989  -5.623   8.113  1.00  0.00     0.016 A 
ATOM     36  C   UNL     1       4.968  -3.975   9.152  1.00  0.00     0.010 A 
ATOM     37  C   UNL     1       6.918  -5.414   9.471  1.00  0.00     0.010 A 
ATOM     38  C   UNL     1       5.955  -4.534   9.967  1.00  0.00    -0.014 A 
BRANCH  38  39
ATOM     39  C   UNL     1       5.932  -4.231  11.386  1.00  0.00     0.031 A 
ATOM     40  C   UNL     1       4.859  -4.918  12.152  1.00  0.00     0.074 A 
ATOM     41  C   UNL     1       6.935  -3.537  11.958  1.00  0.00     0.049 A 
ATOM     42  N   UNL     1       4.044  -4.423  13.026  1.00  0.00    -0.248 NA
ATOM     43  C   UNL     1       4.621  -6.341  11.848  1.00  0.00     0.031 C 
ATOM     44  C   UNL     1       8.180  -3.079  11.332  1.00  0.00     0.029 A 
ATOM     45  N   UNL     1       7.114  -3.218  13.268  1.00  0.00    -0.354 N 
ATOM     46  C   UNL     1       3.288  -5.497  13.488  1.00  0.00     0.074 A 
ATOM     47  C   UNL     1       3.604  -6.626  12.656  1.00  0.00     0.031 C 
ATOM     48  C   UNL     1       9.069  -2.761  12.298  1.00  0.00     0.029 A 
ATOM     49  C   UNL     1       8.423  -2.892  13.593  1.00  0.00     0.049 A 
ATOM     50  H   UNL     1       6.382  -3.217  13.926  1.00  0.00     0.167 HD
ATOM     51  C   UNL     1       2.592  -5.444  14.654  1.00  0.00     0.037 A 
ATOM     52  C   UNL     1       8.950  -2.847  14.841  1.00  0.00     0.037 A 
ATOM     53  C   UNL     1       2.299  -4.096  15.044  1.00  0.00     0.049 A 
ATOM     54  C   UNL     1       7.819  -2.768  15.801  1.00  0.00     0.074 A 
ATOM     55  C   UNL     1       1.574  -3.070  14.469  1.00  0.00     0.029 A 
ATOM     56  N   UNL     1       3.055  -3.511  16.027  1.00  0.00    -0.354 N 
ATOM     57  N   UNL     1       7.036  -1.735  15.937  1.00  0.00    -0.248 NA
ATOM     58  C   UNL     1       7.301  -4.018  16.340  1.00  0.00     0.031 C 
ATOM     59  C   UNL     1       2.284  -1.881  14.802  1.00  0.00     0.029 A 
ATOM     60  C   UNL     1       3.377  -2.252  15.586  1.00  0.00     0.049 A 
ATOM     61  H   UNL     1       3.317  -3.917  16.885  1.00  0.00     0.167 HD
ATOM     62  C   UNL     1       5.784  -2.272  16.195  1.00  0.00     0.074 A 
ATOM     63  C   UNL     1       6.028  -3.669  16.535  1.00  0.00     0.031 C 
ATOM     64  C   UNL     1       4.646  -1.611  15.835  1.00  0.00     0.037 A 
BRANCH  51  65
ATOM     65  C   UNL     1       2.450  -6.621  15.578  1.00  0.00     0.064 A 
ATOM     66  C   UNL     1       3.387  -7.678  15.626  1.00  0.00     0.173 A 
ATOM     67  C   UNL     1       1.524  -6.576  16.635  1.00  0.00     0.173 A 
ATOM     68  F   UNL     1       4.398  -7.769  14.752  1.00  0.00    -0.203 F 
ATOM     69  C   UNL     1       3.389  -8.626  16.645  1.00  0.00     0.198 A 
ATOM     70  C   UNL     1       1.564  -7.496  17.686  1.00  0.00     0.198 A 
ATOM     71  F   UNL     1       0.618  -5.590  16.706  1.00  0.00    -0.203 F 
ATOM     72  F   UNL     1       4.314  -9.597  16.642  1.00  0.00    -0.200 F 
ATOM     73  C   UNL     1       2.495  -8.520  17.690  1.00  0.00     0.200 A 
ATOM     74  F   UNL     1       0.736  -7.351  18.728  1.00  0.00    -0.200 F 
ATOM     75  F   UNL     1       2.567  -9.371  18.721  1.00  0.00    -0.200 F 
ENDBRANCH  51  65
BRANCH  52  76
ATOM     76  C   UNL     1      10.329  -3.190  15.270  1.00  0.00     0.064 A 
ATOM     77  C   UNL     1      11.134  -4.091  14.544  1.00  0.00     0.173 A 
ATOM     78  C   UNL     1      10.788  -2.844  16.552  1.00  0.00     0.173 A 
ATOM     79  F   UNL     1      10.749  -4.556  13.348  1.00  0.00    -0.203 F 
ATOM     80  C   UNL     1      12.314  -4.619  15.070  1.00  0.00     0.198 A 
ATOM     81  C   UNL     1      11.962  -3.387  17.084  1.00  0.00     0.198 A 
ATOM     82  F   UNL     1      10.063  -2.027  17.330  1.00  0.00    -0.203 F 
ATOM     83  F   UNL     1      13.020  -5.507  14.355  1.00  0.00    -0.200 F 
ATOM     84  C   UNL     1      12.719  -4.280  16.346  1.00  0.00     0.200 A 
ATOM     85  F   UNL     1      12.328  -3.086  18.338  1.00  0.00    -0.200 F 
ATOM     86  F   UNL     1      13.812  -4.846  16.877  1.00  0.00    -0.200 F 
ENDBRANCH  52  76
BRANCH  64  87
ATOM     87  C   UNL     1       4.773  -0.181  15.393  1.00  0.00     0.064 A 
ATOM     88  C   UNL     1       4.021   0.795  16.059  1.00  0.00     0.173 A 
ATOM     89  C   UNL     1       5.476   0.218  14.243  1.00  0.00     0.173 A 
ATOM     90  F   UNL     1       3.282   0.460  17.129  1.00  0.00    -0.203 F 
ATOM     91  C   UNL     1       3.973   2.108  15.599  1.00  0.00     0.198 A 
ATOM     92  C   UNL     1       5.458   1.540  13.806  1.00  0.00     0.198 A 
ATOM     93  F   UNL     1       6.132  -0.675  13.492  1.00  0.00    -0.203 F 
ATOM     94  F   UNL     1       3.196   3.005  16.222  1.00  0.00    -0.200 F 
ATOM     95  C   UNL     1       4.699   2.482  14.479  1.00  0.00     0.200 A 
ATOM     96  F   UNL     1       6.144   1.896  12.709  1.00  0.00    -0.200 F 
ATOM     97  F   UNL     1       4.641   3.744  14.031  1.00  0.00    -0.200 F 
ENDBRANCH  64  87
ENDBRANCH  38  39
ENDBRANCH  31  33
ENDBRANCH  30  31
ENDBRANCH  29  30
ENDBRANCH   1  29
TORSDOF 13
