REMARK SMILES CN1C(=O)C[C@@H](C(=O)OCCOC(=O)c2ccc(-c3c4nc(c(-c5c(F)c(F)c(F)c(F)c5F)c5ccc([nH]5)c(-c5c(F)c(F)c(F)c(F)c5F)c5nc(c(-c6c(F)c(F)c(F)c(F)c6F)c6ccc3[nH]6)C=C5)C=C4)cc2)C12CCN(c1ccc(Cl)cn1)CC2
REMARK SMILES IDX 11 1 10 2 9 3 7 4 8 5 6 6 1 7 2 8 3 9 78 10 4 11 5 12 79 13
REMARK SMILES IDX 90 14 80 15 89 16 81 17 82 18 83 19 88 20 84 21 87 22 85 23
REMARK SMILES IDX 86 24 12 25 13 26 14 27 15 28 16 29 77 30 17 31 76 32 18 33
REMARK SMILES IDX 19 34 20 35 70 36 21 37 75 38 69 39 71 40 22 41 74 42 68 43
REMARK SMILES IDX 67 44 23 46 55 47 35 48 54 49 36 50 39 51 53 52 72 53 37 54
REMARK SMILES IDX 38 55 52 57 73 58 40 59 24 60 25 61 33 62 26 63 27 64 31 65
REMARK SMILES IDX 34 66 28 67 29 68 32 69 30 70 56 71 57 72 65 73 58 74 59 75
REMARK SMILES IDX 63 76 66 77 60 78 61 79 64 80 62 81 41 82 42 83 50 84 43 85
REMARK SMILES IDX 44 86 48 87 51 88 45 89 46 90 49 91 47 92
REMARK H PARENT 71 45 39 56
REMARK Flexibility Score: inf
ROOT
ATOM      1  C   UNL     1      -3.145  -2.242   4.759  1.00  0.00     0.275 C 
ENDROOT
BRANCH   1   2
ATOM      2  C   UNL     1      -3.205  -1.114   3.728  1.00  0.00     0.274 C 
BRANCH   2   3
ATOM      3  O   UNL     1      -1.898  -0.820   3.188  1.00  0.00    -0.462 OA
BRANCH   3   4
ATOM      4  C   UNL     1      -1.227   0.161   3.826  1.00  0.00     0.311 C 
ATOM      5  O   UNL     1      -1.678   0.787   4.784  1.00  0.00    -0.252 OA
BRANCH   4   6
ATOM      6  C   UNL     1       0.156   0.484   3.293  1.00  0.00     0.134 C 
ATOM      7  C   UNL     1       0.659  -0.072  -0.379  1.00  0.00     0.147 C 
ATOM      8  N   UNL     1       0.452   0.410   0.974  1.00  0.00    -0.339 N 
ATOM      9  C   UNL     1      -0.019   1.688   1.235  1.00  0.00     0.223 C 
ATOM     10  C   UNL     1       0.890  -0.313   2.180  1.00  0.00     0.060 C 
ATOM     11  O   UNL     1      -0.378   2.515   0.423  1.00  0.00    -0.275 OA
ATOM     12  C   UNL     1       0.042   1.910   2.720  1.00  0.00     0.118 C 
ATOM     13  C   UNL     1       0.613  -1.829   2.062  1.00  0.00     0.051 C 
ATOM     14  C   UNL     1       2.438  -0.102   2.363  1.00  0.00     0.051 C 
ATOM     15  C   UNL     1       1.260  -2.647   3.167  1.00  0.00     0.120 C 
ATOM     16  C   UNL     1       3.083  -1.015   3.419  1.00  0.00     0.120 C 
ATOM     17  N   UNL     1       2.692  -2.384   3.131  1.00  0.00    -0.356 N 
BRANCH  17  18
ATOM     18  C   UNL     1       3.524  -3.419   3.530  1.00  0.00     0.128 A 
ATOM     19  C   UNL     1       3.529  -4.611   2.796  1.00  0.00     0.048 A 
ATOM     20  N   UNL     1       4.327  -3.260   4.603  1.00  0.00    -0.238 NA
ATOM     21  C   UNL     1       4.335  -5.680   3.187  1.00  0.00     0.026 A 
ATOM     22  C   UNL     1       5.104  -4.314   4.966  1.00  0.00     0.134 A 
ATOM     23  C   UNL     1       5.130  -5.533   4.308  1.00  0.00     0.059 A 
ATOM     24  Cl  UNL     1       6.112  -6.822   4.870  1.00  0.00    -0.083 Cl
ENDBRANCH  17  18
ENDBRANCH   4   6
ENDBRANCH   3   4
ENDBRANCH   2   3
ENDBRANCH   1   2
BRANCH   1  25
ATOM     25  O   UNL     1      -2.172  -1.948   5.781  1.00  0.00    -0.458 OA
BRANCH  25  26
ATOM     26  C   UNL     1      -1.185  -2.860   5.928  1.00  0.00     0.338 C 
ATOM     27  O   UNL     1      -1.062  -3.915   5.328  1.00  0.00    -0.246 OA
BRANCH  26  28
ATOM     28  C   UNL     1      -0.190  -2.403   6.920  1.00  0.00     0.060 A 
ATOM     29  C   UNL     1       0.389  -1.135   6.829  1.00  0.00     0.016 A 
ATOM     30  C   UNL     1       0.271  -3.309   7.874  1.00  0.00     0.016 A 
ATOM     31  C   UNL     1       1.468  -0.794   7.645  1.00  0.00     0.010 A 
ATOM     32  C   UNL     1       1.292  -2.933   8.753  1.00  0.00     0.010 A 
ATOM     33  C   UNL     1       1.916  -1.680   8.635  1.00  0.00    -0.014 A 
BRANCH  33  34
ATOM     34  C   UNL     1       3.015  -1.302   9.564  1.00  0.00     0.031 A 
ATOM     35  C   UNL     1       4.283  -2.111   9.619  1.00  0.00     0.074 A 
ATOM     36  C   UNL     1       2.859  -0.256  10.398  1.00  0.00     0.049 A 
ATOM     37  N   UNL     1       5.260  -2.066  10.491  1.00  0.00    -0.248 NA
ATOM     38  C   UNL     1       4.472  -3.112   8.559  1.00  0.00     0.031 C 
ATOM     39  C   UNL     1       1.699   0.635  10.433  1.00  0.00     0.029 A 
ATOM     40  N   UNL     1       3.676   0.226  11.392  1.00  0.00    -0.354 N 
ATOM     41  C   UNL     1       6.163  -3.047  10.103  1.00  0.00     0.074 A 
ATOM     42  C   UNL     1       5.606  -3.690   8.931  1.00  0.00     0.031 C 
ATOM     43  C   UNL     1       1.881   1.559  11.388  1.00  0.00     0.029 A 
ATOM     44  C   UNL     1       3.132   1.279  12.085  1.00  0.00     0.049 A 
ATOM     45  H   UNL     1       4.566  -0.147  11.588  1.00  0.00     0.167 HD
ATOM     46  C   UNL     1       7.350  -3.377  10.668  1.00  0.00     0.037 A 
ATOM     47  C   UNL     1       3.562   1.919  13.187  1.00  0.00     0.037 A 
ATOM     48  C   UNL     1       7.911  -2.727  11.825  1.00  0.00     0.049 A 
ATOM     49  C   UNL     1       4.840   1.481  13.844  1.00  0.00     0.074 A 
ATOM     50  C   UNL     1       9.108  -2.990  12.469  1.00  0.00     0.029 A 
ATOM     51  N   UNL     1       7.313  -1.680  12.510  1.00  0.00    -0.354 N 
ATOM     52  N   UNL     1       5.674   0.537  13.484  1.00  0.00    -0.248 NA
ATOM     53  C   UNL     1       5.228   2.191  15.071  1.00  0.00     0.031 C 
ATOM     54  C   UNL     1       9.217  -2.128  13.566  1.00  0.00     0.029 A 
ATOM     55  C   UNL     1       8.108  -1.298  13.580  1.00  0.00     0.049 A 
ATOM     56  H   UNL     1       6.451  -1.269  12.272  1.00  0.00     0.167 HD
ATOM     57  C   UNL     1       6.695   0.553  14.424  1.00  0.00     0.074 A 
ATOM     58  C   UNL     1       6.383   1.611  15.363  1.00  0.00     0.031 C 
ATOM     59  C   UNL     1       7.791  -0.239  14.502  1.00  0.00     0.037 A 
BRANCH  46  60
ATOM     60  C   UNL     1       8.125  -4.506  10.053  1.00  0.00     0.064 A 
ATOM     61  C   UNL     1       8.797  -4.358   8.831  1.00  0.00     0.173 A 
ATOM     62  C   UNL     1       8.247  -5.732  10.725  1.00  0.00     0.173 A 
ATOM     63  F   UNL     1       8.700  -3.211   8.142  1.00  0.00    -0.203 F 
ATOM     64  C   UNL     1       9.550  -5.401   8.297  1.00  0.00     0.198 A 
ATOM     65  C   UNL     1       9.021  -6.764  10.200  1.00  0.00     0.198 A 
ATOM     66  F   UNL     1       7.629  -5.924  11.900  1.00  0.00    -0.203 F 
ATOM     67  F   UNL     1      10.158  -5.247   7.112  1.00  0.00    -0.200 F 
ATOM     68  C   UNL     1       9.669  -6.599   8.985  1.00  0.00     0.200 A 
ATOM     69  F   UNL     1       9.144  -7.917  10.873  1.00  0.00    -0.200 F 
ATOM     70  F   UNL     1      10.406  -7.596   8.476  1.00  0.00    -0.200 F 
ENDBRANCH  46  60
BRANCH  47  71
ATOM     71  C   UNL     1       2.754   3.026  13.760  1.00  0.00     0.064 A 
ATOM     72  C   UNL     1       3.212   4.349  13.712  1.00  0.00     0.173 A 
ATOM     73  C   UNL     1       1.512   2.785  14.365  1.00  0.00     0.173 A 
ATOM     74  F   UNL     1       4.406   4.624  13.167  1.00  0.00    -0.203 F 
ATOM     75  C   UNL     1       2.463   5.388  14.258  1.00  0.00     0.198 A 
ATOM     76  C   UNL     1       0.750   3.829  14.884  1.00  0.00     0.198 A 
ATOM     77  F   UNL     1       1.030   1.535  14.437  1.00  0.00    -0.203 F 
ATOM     78  F   UNL     1       2.943   6.639  14.237  1.00  0.00    -0.200 F 
ATOM     79  C   UNL     1       1.230   5.129  14.837  1.00  0.00     0.200 A 
ATOM     80  F   UNL     1      -0.447   3.575  15.430  1.00  0.00    -0.200 F 
ATOM     81  F   UNL     1       0.507   6.130  15.356  1.00  0.00    -0.200 F 
ENDBRANCH  47  71
BRANCH  59  82
ATOM     82  C   UNL     1       8.754   0.036  15.618  1.00  0.00     0.064 A 
ATOM     83  C   UNL     1       8.457  -0.303  16.946  1.00  0.00     0.173 A 
ATOM     84  C   UNL     1       9.996   0.631  15.352  1.00  0.00     0.173 A 
ATOM     85  F   UNL     1       7.274  -0.857  17.253  1.00  0.00    -0.203 F 
ATOM     86  C   UNL     1       9.358  -0.031  17.972  1.00  0.00     0.198 A 
ATOM     87  C   UNL     1      10.906   0.877  16.377  1.00  0.00     0.198 A 
ATOM     88  F   UNL     1      10.329   0.971  14.098  1.00  0.00    -0.203 F 
ATOM     89  F   UNL     1       9.034  -0.319  19.240  1.00  0.00    -0.200 F 
ATOM     90  C   UNL     1      10.583   0.553  17.686  1.00  0.00     0.200 A 
ATOM     91  F   UNL     1      12.093   1.434  16.098  1.00  0.00    -0.200 F 
ATOM     92  F   UNL     1      11.450   0.814  18.675  1.00  0.00    -0.200 F 
ENDBRANCH  59  82
ENDBRANCH  33  34
ENDBRANCH  26  28
ENDBRANCH  25  26
ENDBRANCH   1  25
TORSDOF 12
