REMARK SMILES Cc1ccccc1[C@@H]1[NH2+][C@H](C(=O)OCCOC(=O)c2ccc(-c3c4nc(c(-c5c(F)c(F)c(F)c(F)c5F)c5ccc([nH]5)c(-c5c(F)c(F)c(F)c(F)c5F)c5nc(c(-c6c(F)c(F)c(F)c(F)c6F)c6ccc3[nH]6)C=C5)C=C4)cc2)CC2=c3ccccc3=N[C@@H]21
REMARK SMILES IDX 15 1 14 2 13 3 11 4 12 5 10 6 8 7 9 8 91 9 83 12 90 13 82 14
REMARK SMILES IDX 84 15 89 16 85 17 88 18 86 19 87 20 7 21 1 22 2 23 3 24 4 25
REMARK SMILES IDX 6 26 5 27 16 28 17 29 18 30 19 31 20 32 81 33 21 34 80 35
REMARK SMILES IDX 22 36 23 37 24 38 74 39 25 40 79 41 73 42 75 43 26 44 78 45
REMARK SMILES IDX 72 46 71 47 27 49 59 50 39 51 58 52 40 53 43 54 57 55 76 56
REMARK SMILES IDX 41 57 42 58 56 60 77 61 44 62 28 63 29 64 37 65 30 66 31 67
REMARK SMILES IDX 35 68 38 69 32 70 33 71 36 72 34 73 60 74 61 75 69 76 62 77
REMARK SMILES IDX 63 78 67 79 70 80 64 81 65 82 68 83 66 84 45 85 46 86 54 87
REMARK SMILES IDX 47 88 48 89 52 90 55 91 49 92 50 93 53 94 51 95
REMARK H PARENT 9 10 9 11 75 48 43 59
REMARK Flexibility Score: inf
ROOT
ATOM      1  C   UNL     1      -0.807   4.051  -1.758  1.00  0.00     0.275 C 
ENDROOT
BRANCH   1   2
ATOM      2  C   UNL     1       0.658   4.528  -1.814  1.00  0.00     0.274 C 
BRANCH   2   3
ATOM      3  O   UNL     1       1.184   5.401  -0.771  1.00  0.00    -0.458 OA
BRANCH   3   4
ATOM      4  C   UNL     1       1.783   5.151   0.435  1.00  0.00     0.365 C 
ATOM      5  O   UNL     1       2.568   5.971   0.902  1.00  0.00    -0.245 OA
BRANCH   4   6
ATOM      6  C   UNL     1       1.370   3.864   1.167  1.00  0.00     0.298 C 
ATOM      7  C   UNL     1       1.637   1.486   0.478  1.00  0.00     0.243 C 
ATOM      8  N   UNL     1       1.405   2.872   0.122  1.00  0.00    -0.326 N 
ATOM      9  C   UNL     1       3.122   1.435   1.033  1.00  0.00     0.196 C 
ATOM     10  H   UNL     1       0.506   2.911  -0.358  1.00  0.00     0.347 HD
ATOM     11  H   UNL     1       2.226   3.124  -0.428  1.00  0.00     0.347 HD
ATOM     12  C   UNL     1       3.378   2.670   1.915  1.00  0.00    -0.024 C 
ATOM     13  N   UNL     1       4.191   1.570  -0.005  1.00  0.00    -0.270 NA
ATOM     14  C   UNL     1       2.203   3.468   2.404  1.00  0.00     0.111 C 
ATOM     15  C   UNL     1       4.544   3.255   1.649  1.00  0.00     0.002 A 
ATOM     16  C   UNL     1       4.932   2.556   0.413  1.00  0.00     0.066 A 
ATOM     17  C   UNL     1       5.067   4.545   1.985  1.00  0.00     0.010 A 
ATOM     18  C   UNL     1       6.064   3.162  -0.330  1.00  0.00     0.028 A 
ATOM     19  C   UNL     1       6.001   5.091   1.193  1.00  0.00     0.001 A 
ATOM     20  C   UNL     1       6.528   4.366   0.051  1.00  0.00     0.002 A 
BRANCH   7  21
ATOM     21  C   UNL     1       1.069   0.834  -0.800  1.00  0.00     0.015 A 
ATOM     22  C   UNL     1      -1.313   0.614   0.242  1.00  0.00     0.045 C 
ATOM     23  C   UNL     1      -0.338   0.605  -0.915  1.00  0.00    -0.042 A 
ATOM     24  C   UNL     1      -0.933   0.505  -2.193  1.00  0.00     0.004 A 
ATOM     25  C   UNL     1      -0.191   0.700  -3.354  1.00  0.00     0.000 A 
ATOM     26  C   UNL     1       1.804   0.951  -2.007  1.00  0.00     0.010 A 
ATOM     27  C   UNL     1       1.175   0.925  -3.260  1.00  0.00     0.001 A 
ENDBRANCH   7  21
ENDBRANCH   4   6
ENDBRANCH   3   4
ENDBRANCH   2   3
ENDBRANCH   1   2
BRANCH   1  28
ATOM     28  O   UNL     1      -1.423   3.719  -0.468  1.00  0.00    -0.458 OA
BRANCH  28  29
ATOM     29  C   UNL     1      -1.830   4.505   0.577  1.00  0.00     0.338 C 
ATOM     30  O   UNL     1      -2.214   4.039   1.644  1.00  0.00    -0.246 OA
BRANCH  29  31
ATOM     31  C   UNL     1      -1.687   5.956   0.398  1.00  0.00     0.060 A 
ATOM     32  C   UNL     1      -0.798   6.733   1.169  1.00  0.00     0.016 A 
ATOM     33  C   UNL     1      -2.088   6.367  -0.834  1.00  0.00     0.016 A 
ATOM     34  C   UNL     1      -0.084   7.780   0.551  1.00  0.00     0.010 A 
ATOM     35  C   UNL     1      -1.107   7.046  -1.481  1.00  0.00     0.010 A 
ATOM     36  C   UNL     1      -0.167   7.868  -0.835  1.00  0.00    -0.014 A 
BRANCH  36  37
ATOM     37  C   UNL     1       0.557   8.727  -1.791  1.00  0.00     0.031 A 
ATOM     38  C   UNL     1       2.032   8.922  -1.799  1.00  0.00     0.074 A 
ATOM     39  C   UNL     1      -0.277   9.251  -2.733  1.00  0.00     0.049 A 
ATOM     40  N   UNL     1       2.619  10.073  -1.872  1.00  0.00    -0.248 NA
ATOM     41  C   UNL     1       3.005   7.825  -1.768  1.00  0.00     0.031 C 
ATOM     42  C   UNL     1      -0.084  10.023  -3.939  1.00  0.00     0.029 A 
ATOM     43  N   UNL     1      -1.693   9.186  -2.669  1.00  0.00    -0.354 N 
ATOM     44  C   UNL     1       3.928   9.828  -2.271  1.00  0.00     0.074 A 
ATOM     45  C   UNL     1       4.178   8.448  -1.956  1.00  0.00     0.031 C 
ATOM     46  C   UNL     1      -1.242  10.676  -4.208  1.00  0.00     0.029 A 
ATOM     47  C   UNL     1      -2.190  10.379  -3.132  1.00  0.00     0.049 A 
ATOM     48  H   UNL     1      -2.224   8.421  -2.349  1.00  0.00     0.167 HD
ATOM     49  C   UNL     1       4.547  10.670  -3.156  1.00  0.00     0.037 A 
ATOM     50  C   UNL     1      -2.753  11.186  -2.189  1.00  0.00     0.037 A 
ATOM     51  C   UNL     1       3.554  11.594  -3.681  1.00  0.00     0.049 A 
ATOM     52  C   UNL     1      -1.926  12.423  -2.117  1.00  0.00     0.074 A 
ATOM     53  C   UNL     1       2.846  11.583  -4.871  1.00  0.00     0.029 A 
ATOM     54  N   UNL     1       2.902  12.471  -2.833  1.00  0.00    -0.354 N 
ATOM     55  N   UNL     1      -0.627  12.435  -2.232  1.00  0.00    -0.248 NA
ATOM     56  C   UNL     1      -2.531  13.742  -2.102  1.00  0.00     0.031 C 
ATOM     57  C   UNL     1       1.770  12.492  -4.742  1.00  0.00     0.029 A 
ATOM     58  C   UNL     1       1.806  13.017  -3.461  1.00  0.00     0.049 A 
ATOM     59  H   UNL     1       3.183  12.676  -1.911  1.00  0.00     0.167 HD
ATOM     60  C   UNL     1      -0.234  13.726  -2.457  1.00  0.00     0.074 A 
ATOM     61  C   UNL     1      -1.453  14.506  -2.334  1.00  0.00     0.031 C 
ATOM     62  C   UNL     1       1.042  14.059  -2.809  1.00  0.00     0.037 A 
BRANCH  49  63
ATOM     63  C   UNL     1       5.892  10.486  -3.851  1.00  0.00     0.064 A 
ATOM     64  C   UNL     1       6.172  11.143  -5.079  1.00  0.00     0.173 A 
ATOM     65  C   UNL     1       6.967   9.736  -3.340  1.00  0.00     0.173 A 
ATOM     66  F   UNL     1       5.298  11.983  -5.647  1.00  0.00    -0.203 F 
ATOM     67  C   UNL     1       7.373  10.989  -5.775  1.00  0.00     0.198 A 
ATOM     68  C   UNL     1       8.173   9.574  -4.045  1.00  0.00     0.198 A 
ATOM     69  F   UNL     1       6.904   9.176  -2.124  1.00  0.00    -0.203 F 
ATOM     70  F   UNL     1       7.553  11.628  -6.940  1.00  0.00    -0.200 F 
ATOM     71  C   UNL     1       8.371  10.191  -5.267  1.00  0.00     0.200 A 
ATOM     72  F   UNL     1       9.153   8.819  -3.527  1.00  0.00    -0.200 F 
ATOM     73  F   UNL     1       9.522  10.039  -5.936  1.00  0.00    -0.200 F 
ENDBRANCH  49  63
BRANCH  50  74
ATOM     74  C   UNL     1      -3.382  10.445  -1.028  1.00  0.00     0.064 A 
ATOM     75  C   UNL     1      -4.395   9.494  -1.304  1.00  0.00     0.173 A 
ATOM     76  C   UNL     1      -2.829  10.400   0.261  1.00  0.00     0.173 A 
ATOM     77  F   UNL     1      -4.956   9.448  -2.524  1.00  0.00    -0.203 F 
ATOM     78  C   UNL     1      -4.765   8.508  -0.384  1.00  0.00     0.198 A 
ATOM     79  C   UNL     1      -3.218   9.420   1.192  1.00  0.00     0.198 A 
ATOM     80  F   UNL     1      -1.855  11.251   0.612  1.00  0.00    -0.203 F 
ATOM     81  F   UNL     1      -5.635   7.550  -0.740  1.00  0.00    -0.200 F 
ATOM     82  C   UNL     1      -4.167   8.463   0.861  1.00  0.00     0.200 A 
ATOM     83  F   UNL     1      -2.619   9.356   2.391  1.00  0.00    -0.200 F 
ATOM     84  F   UNL     1      -4.458   7.467   1.712  1.00  0.00    -0.200 F 
ENDBRANCH  50  74
BRANCH  62  85
ATOM     85  C   UNL     1       1.683  15.418  -2.683  1.00  0.00     0.064 A 
ATOM     86  C   UNL     1       1.143  16.466  -1.927  1.00  0.00     0.173 A 
ATOM     87  C   UNL     1       2.991  15.650  -3.188  1.00  0.00     0.173 A 
ATOM     88  F   UNL     1      -0.012  16.341  -1.264  1.00  0.00    -0.203 F 
ATOM     89  C   UNL     1       1.813  17.676  -1.759  1.00  0.00     0.198 A 
ATOM     90  C   UNL     1       3.693  16.824  -2.940  1.00  0.00     0.198 A 
ATOM     91  F   UNL     1       3.660  14.737  -3.906  1.00  0.00    -0.203 F 
ATOM     92  F   UNL     1       1.218  18.665  -1.081  1.00  0.00    -0.200 F 
ATOM     93  C   UNL     1       3.093  17.848  -2.247  1.00  0.00     0.200 A 
ATOM     94  F   UNL     1       4.961  16.938  -3.358  1.00  0.00    -0.200 F 
ATOM     95  F   UNL     1       3.755  18.990  -2.026  1.00  0.00    -0.200 F 
ENDBRANCH  62  85
ENDBRANCH  36  37
ENDBRANCH  29  31
ENDBRANCH  28  29
ENDBRANCH   1  28
TORSDOF 12
