REMARK SMILES C[C@@H](Oc1ccc(N)cc1)C(=O)OCCOC(=O)c1ccc(-c2c3nc(c(-c4c(F)c(F)c(F)c(F)c4F)c4ccc([nH]4)c(-c4c(F)c(F)c(F)c(F)c4F)c4nc(c(-c5c(F)c(F)c(F)c(F)c5F)c5ccc2[nH]5)C=C4)C=C3)cc1
REMARK SMILES IDX 14 1 13 2 11 3 12 4 2 5 1 6 3 7 4 8 5 9 10 10 6 11 9 12 7 13
REMARK SMILES IDX 8 14 15 17 16 18 17 19 18 20 19 21 20 22 81 23 21 24 80 25
REMARK SMILES IDX 22 26 23 27 24 28 74 29 25 30 79 31 73 32 75 33 26 34 78 35
REMARK SMILES IDX 72 36 71 37 27 39 59 40 39 41 58 42 40 43 43 44 57 45 76 46
REMARK SMILES IDX 41 47 42 48 56 50 77 51 44 52 28 53 29 54 37 55 30 56 31 57
REMARK SMILES IDX 35 58 38 59 32 60 33 61 36 62 34 63 60 64 61 65 69 66 62 67
REMARK SMILES IDX 63 68 67 69 70 70 64 71 65 72 68 73 66 74 45 75 46 76 54 77
REMARK SMILES IDX 47 78 48 79 52 80 55 81 49 82 50 83 53 84 51 85
REMARK H PARENT 8 15 8 16 75 38 43 49
REMARK Flexibility Score: inf
ROOT
ATOM      1  C   UNL     1      -3.063   0.959  -1.219  1.00  0.00     0.274 C 
ENDROOT
BRANCH   1   2
ATOM      2  O   UNL     1      -1.668   0.604  -1.233  1.00  0.00    -0.459 OA
BRANCH   2   3
ATOM      3  C   UNL     1      -0.779   1.611  -1.007  1.00  0.00     0.347 C 
ATOM      4  O   UNL     1      -1.086   2.787  -0.835  1.00  0.00    -0.248 OA
BRANCH   3   5
ATOM      5  C   UNL     1       0.668   1.117  -0.978  1.00  0.00     0.279 C 
ATOM      6  C   UNL     1       0.788  -0.253  -0.315  1.00  0.00     0.066 C 
BRANCH   5   7
ATOM      7  O   UNL     1       1.175   1.069  -2.318  1.00  0.00    -0.479 OA
BRANCH   7   8
ATOM      8  C   UNL     1       2.486   1.460  -2.356  1.00  0.00     0.120 A 
ATOM      9  C   UNL     1       3.497   0.518  -2.192  1.00  0.00     0.048 A 
ATOM     10  C   UNL     1       2.800   2.795  -2.594  1.00  0.00     0.048 A 
ATOM     11  C   UNL     1       4.832   0.925  -2.213  1.00  0.00     0.029 A 
ATOM     12  C   UNL     1       4.140   3.192  -2.625  1.00  0.00     0.029 A 
ATOM     13  C   UNL     1       5.168   2.260  -2.452  1.00  0.00     0.032 A 
BRANCH  13  14
ATOM     14  N   UNL     1       6.490   2.669  -2.400  1.00  0.00    -0.399 N 
ATOM     15  H   UNL     1       7.207   2.005  -2.279  1.00  0.00     0.156 HD
ATOM     16  H   UNL     1       6.713   3.624  -2.485  1.00  0.00     0.156 HD
ENDBRANCH  13  14
ENDBRANCH   7   8
ENDBRANCH   5   7
ENDBRANCH   3   5
ENDBRANCH   2   3
ENDBRANCH   1   2
BRANCH   1  17
ATOM     17  C   UNL     1      -3.712   0.582   0.114  1.00  0.00     0.275 C 
BRANCH  17  18
ATOM     18  O   UNL     1      -3.199   1.397   1.185  1.00  0.00    -0.458 OA
BRANCH  18  19
ATOM     19  C   UNL     1      -2.317   0.785   2.007  1.00  0.00     0.338 C 
ATOM     20  O   UNL     1      -1.948  -0.375   1.975  1.00  0.00    -0.246 OA
BRANCH  19  21
ATOM     21  C   UNL     1      -1.745   1.768   2.939  1.00  0.00     0.060 A 
ATOM     22  C   UNL     1      -0.409   2.139   2.767  1.00  0.00     0.016 A 
ATOM     23  C   UNL     1      -2.473   2.213   4.043  1.00  0.00     0.016 A 
ATOM     24  C   UNL     1       0.218   2.939   3.719  1.00  0.00     0.010 A 
ATOM     25  C   UNL     1      -1.843   3.019   4.998  1.00  0.00     0.010 A 
ATOM     26  C   UNL     1      -0.487   3.361   4.854  1.00  0.00    -0.014 A 
BRANCH  26  27
ATOM     27  C   UNL     1       0.238   4.073   5.933  1.00  0.00     0.031 A 
ATOM     28  C   UNL     1       0.695   3.314   7.146  1.00  0.00     0.074 A 
ATOM     29  C   UNL     1       0.531   5.379   5.804  1.00  0.00     0.049 A 
ATOM     30  N   UNL     1       1.353   3.742   8.193  1.00  0.00    -0.248 NA
ATOM     31  C   UNL     1       0.368   1.880   7.184  1.00  0.00     0.031 C 
ATOM     32  C   UNL     1       0.170   6.216   4.662  1.00  0.00     0.029 A 
ATOM     33  N   UNL     1       1.209   6.226   6.644  1.00  0.00    -0.354 N 
ATOM     34  C   UNL     1       1.507   2.638   9.019  1.00  0.00     0.074 A 
ATOM     35  C   UNL     1       0.863   1.521   8.361  1.00  0.00     0.031 C 
ATOM     36  C   UNL     1       0.638   7.459   4.868  1.00  0.00     0.029 A 
ATOM     37  C   UNL     1       1.313   7.507   6.163  1.00  0.00     0.049 A 
ATOM     38  H   UNL     1       1.584   5.942   7.509  1.00  0.00     0.167 HD
ATOM     39  C   UNL     1       2.134   2.561  10.217  1.00  0.00     0.037 A 
ATOM     40  C   UNL     1       1.888   8.594   6.710  1.00  0.00     0.037 A 
ATOM     41  C   UNL     1       2.792   3.661  10.868  1.00  0.00     0.049 A 
ATOM     42  C   UNL     1       2.565   8.484   8.049  1.00  0.00     0.074 A 
ATOM     43  C   UNL     1       3.462   3.675  12.080  1.00  0.00     0.029 A 
ATOM     44  N   UNL     1       2.866   4.947  10.355  1.00  0.00    -0.354 N 
ATOM     45  N   UNL     1       2.712   7.433   8.818  1.00  0.00    -0.248 NA
ATOM     46  C   UNL     1       3.159   9.714   8.593  1.00  0.00     0.031 C 
ATOM     47  C   UNL     1       3.922   4.976  12.311  1.00  0.00     0.029 A 
ATOM     48  C   UNL     1       3.562   5.765  11.230  1.00  0.00     0.049 A 
ATOM     49  H   UNL     1       2.480   5.236   9.497  1.00  0.00     0.167 HD
ATOM     50  C   UNL     1       3.429   7.867   9.923  1.00  0.00     0.074 A 
ATOM     51  C   UNL     1       3.697   9.276   9.723  1.00  0.00     0.031 C 
ATOM     52  C   UNL     1       3.830   7.161  11.008  1.00  0.00     0.037 A 
BRANCH  39  53
ATOM     53  C   UNL     1       2.119   1.235  10.913  1.00  0.00     0.064 A 
ATOM     54  C   UNL     1       2.967   0.191  10.517  1.00  0.00     0.173 A 
ATOM     55  C   UNL     1       1.265   1.016  12.003  1.00  0.00     0.173 A 
ATOM     56  F   UNL     1       3.790   0.350   9.469  1.00  0.00    -0.203 F 
ATOM     57  C   UNL     1       2.949  -1.033  11.180  1.00  0.00     0.198 A 
ATOM     58  C   UNL     1       1.262  -0.203  12.674  1.00  0.00     0.198 A 
ATOM     59  F   UNL     1       0.436   1.986  12.417  1.00  0.00    -0.203 F 
ATOM     60  F   UNL     1       3.744  -2.030  10.767  1.00  0.00    -0.200 F 
ATOM     61  C   UNL     1       2.100  -1.227  12.260  1.00  0.00     0.200 A 
ATOM     62  F   UNL     1       0.444  -0.388  13.720  1.00  0.00    -0.200 F 
ATOM     63  F   UNL     1       2.084  -2.406  12.898  1.00  0.00    -0.200 F 
ENDBRANCH  39  53
BRANCH  40  64
ATOM     64  C   UNL     1       1.860   9.886   5.982  1.00  0.00     0.064 A 
ATOM     65  C   UNL     1       3.016  10.393   5.375  1.00  0.00     0.173 A 
ATOM     66  C   UNL     1       0.681  10.637   5.885  1.00  0.00     0.173 A 
ATOM     67  F   UNL     1       4.171   9.718   5.466  1.00  0.00    -0.203 F 
ATOM     68  C   UNL     1       2.997  11.613   4.704  1.00  0.00     0.198 A 
ATOM     69  C   UNL     1       0.659  11.849   5.198  1.00  0.00     0.198 A 
ATOM     70  F   UNL     1      -0.448  10.193   6.455  1.00  0.00    -0.203 F 
ATOM     71  F   UNL     1       4.123  12.095   4.161  1.00  0.00    -0.200 F 
ATOM     72  C   UNL     1       1.817  12.338   4.612  1.00  0.00     0.200 A 
ATOM     73  F   UNL     1      -0.483  12.544   5.107  1.00  0.00    -0.200 F 
ATOM     74  F   UNL     1       1.799  13.512   3.967  1.00  0.00    -0.200 F 
ENDBRANCH  40  64
BRANCH  52  75
ATOM     75  C   UNL     1       4.624   7.893  12.045  1.00  0.00     0.064 A 
ATOM     76  C   UNL     1       4.007   8.757  12.961  1.00  0.00     0.173 A 
ATOM     77  C   UNL     1       6.009   7.701  12.145  1.00  0.00     0.173 A 
ATOM     78  F   UNL     1       2.687   8.981  12.893  1.00  0.00    -0.203 F 
ATOM     79  C   UNL     1       4.755   9.417  13.932  1.00  0.00     0.198 A 
ATOM     80  C   UNL     1       6.751   8.350  13.128  1.00  0.00     0.198 A 
ATOM     81  F   UNL     1       6.642   6.882  11.292  1.00  0.00    -0.203 F 
ATOM     82  F   UNL     1       4.152  10.264  14.778  1.00  0.00    -0.200 F 
ATOM     83  C   UNL     1       6.124   9.210  14.018  1.00  0.00     0.200 A 
ATOM     84  F   UNL     1       8.073   8.146  13.213  1.00  0.00    -0.200 F 
ATOM     85  F   UNL     1       6.841   9.847  14.954  1.00  0.00    -0.200 F 
ENDBRANCH  52  75
ENDBRANCH  26  27
ENDBRANCH  19  21
ENDBRANCH  18  19
ENDBRANCH  17  18
ENDBRANCH   1  17
TORSDOF 14
