REMARK SMILES C[NH2+][C@]1(C(=O)OCCOC(=O)c2ccc(-c3c4nc(c(-c5c(F)c(F)c(F)c(F)c5F)c5ccc([nH]5)c(-c5c(F)c(F)c(F)c(F)c5F)c5nc(c(-c6c(F)c(F)c(F)c(F)c6F)c6ccc3[nH]6)C=C5)C=C4)cc2)CCC[C@@H]1CCOC[C@@H]1CCCO1
REMARK SMILES IDX 6 1 4 2 5 3 3 4 75 5 78 6 76 7 77 8 2 9 1 10 79 13 80 14
REMARK SMILES IDX 81 15 82 16 83 17 84 18 87 19 85 20 86 21 7 22 8 23 9 24
REMARK SMILES IDX 10 25 11 26 12 27 13 28 74 29 14 30 73 31 15 32 16 33 17 34
REMARK SMILES IDX 67 35 18 36 72 37 66 38 68 39 19 40 71 41 65 42 64 43 20 45
REMARK SMILES IDX 52 46 32 47 51 48 33 49 36 50 50 51 69 52 34 53 35 54 49 56
REMARK SMILES IDX 70 57 37 58 21 59 22 60 30 61 23 62 24 63 28 64 31 65 25 66
REMARK SMILES IDX 26 67 29 68 27 69 53 70 54 71 62 72 55 73 56 74 60 75 63 76
REMARK SMILES IDX 57 77 58 78 61 79 59 80 38 81 39 82 47 83 40 84 41 85 45 86
REMARK SMILES IDX 48 87 42 88 43 89 46 90 44 91
REMARK H PARENT 2 11 2 12 68 44 36 55
REMARK Flexibility Score: inf
ROOT
ATOM      1  O   UNL     1       0.943  -0.205   0.052  1.00  0.00    -0.457 OA
ENDROOT
BRANCH   1   2
ATOM      2  C   UNL     1       0.267  -1.038   0.893  1.00  0.00     0.368 C 
ATOM      3  O   UNL     1       0.797  -1.974   1.485  1.00  0.00    -0.245 OA
BRANCH   2   4
ATOM      4  C   UNL     1      -1.240  -0.653   1.065  1.00  0.00     0.197 C 
ATOM      5  C   UNL     1      -1.684   0.532   0.178  1.00  0.00     0.081 C 
ATOM      6  C   UNL     1      -2.091  -1.785   0.423  1.00  0.00     0.065 C 
ATOM      7  C   UNL     1      -3.186   0.347  -0.036  1.00  0.00     0.008 C 
ATOM      8  C   UNL     1      -3.469  -1.139   0.203  1.00  0.00     0.011 C 
BRANCH   4   9
ATOM      9  N   UNL     1      -1.429  -0.291   2.488  1.00  0.00    -0.334 N 
ATOM     10  C   UNL     1      -2.682  -0.518   3.168  1.00  0.00     0.331 C 
ATOM     11  H   UNL     1      -0.721  -0.806   3.011  1.00  0.00     0.347 HD
ATOM     12  H   UNL     1      -1.377   0.727   2.462  1.00  0.00     0.347 HD
ENDBRANCH   4   9
BRANCH   6  13
ATOM     13  C   UNL     1      -2.117  -3.136   1.155  1.00  0.00     0.039 C 
BRANCH  13  14
ATOM     14  C   UNL     1      -2.019  -4.372   0.250  1.00  0.00     0.161 C 
BRANCH  14  15
ATOM     15  O   UNL     1      -0.803  -4.462  -0.469  1.00  0.00    -0.379 OA
BRANCH  15  16
ATOM     16  C   UNL     1      -0.726  -4.118  -1.851  1.00  0.00     0.192 C 
BRANCH  16  17
ATOM     17  C   UNL     1      -1.895  -4.394  -2.813  1.00  0.00     0.144 C 
ATOM     18  C   UNL     1      -3.008  -3.364  -2.811  1.00  0.00     0.037 C 
ATOM     19  O   UNL     1      -2.516  -5.671  -2.605  1.00  0.00    -0.376 OA
ATOM     20  C   UNL     1      -4.165  -4.141  -3.381  1.00  0.00     0.031 C 
ATOM     21  C   UNL     1      -3.928  -5.530  -2.823  1.00  0.00     0.160 C 
ENDBRANCH  16  17
ENDBRANCH  15  16
ENDBRANCH  14  15
ENDBRANCH  13  14
ENDBRANCH   6  13
ENDBRANCH   2   4
ENDBRANCH   1   2
BRANCH   1  22
ATOM     22  C   UNL     1       2.352  -0.480  -0.087  1.00  0.00     0.274 C 
BRANCH  22  23
ATOM     23  C   UNL     1       3.174   0.485   0.764  1.00  0.00     0.275 C 
BRANCH  23  24
ATOM     24  O   UNL     1       2.817   0.344   2.151  1.00  0.00    -0.458 OA
BRANCH  24  25
ATOM     25  C   UNL     1       2.360   1.457   2.762  1.00  0.00     0.338 C 
ATOM     26  O   UNL     1       2.297   2.588   2.292  1.00  0.00    -0.246 OA
BRANCH  25  27
ATOM     27  C   UNL     1       1.883   1.149   4.123  1.00  0.00     0.060 A 
ATOM     28  C   UNL     1       1.049   0.058   4.345  1.00  0.00     0.016 A 
ATOM     29  C   UNL     1       2.134   2.047   5.161  1.00  0.00     0.016 A 
ATOM     30  C   UNL     1       0.352  -0.057   5.547  1.00  0.00     0.010 A 
ATOM     31  C   UNL     1       1.534   1.854   6.411  1.00  0.00     0.010 A 
ATOM     32  C   UNL     1       0.592   0.828   6.607  1.00  0.00    -0.014 A 
BRANCH  32  33
ATOM     33  C   UNL     1      -0.170   0.719   7.887  1.00  0.00     0.031 A 
ATOM     34  C   UNL     1      -0.915   1.913   8.430  1.00  0.00     0.074 A 
ATOM     35  C   UNL     1      -0.223  -0.443   8.569  1.00  0.00     0.049 A 
ATOM     36  N   UNL     1      -1.417   2.106   9.625  1.00  0.00    -0.248 NA
ATOM     37  C   UNL     1      -1.110   3.047   7.513  1.00  0.00     0.031 C 
ATOM     38  C   UNL     1       0.387  -1.705   8.151  1.00  0.00     0.029 A 
ATOM     39  N   UNL     1      -0.836  -0.754   9.760  1.00  0.00    -0.354 N 
ATOM     40  C   UNL     1      -1.902   3.408   9.629  1.00  0.00     0.074 A 
ATOM     41  C   UNL     1      -1.661   3.952   8.310  1.00  0.00     0.031 C 
ATOM     42  C   UNL     1       0.069  -2.664   9.032  1.00  0.00     0.029 A 
ATOM     43  C   UNL     1      -0.671  -2.065  10.136  1.00  0.00     0.049 A 
ATOM     44  H   UNL     1      -1.343  -0.100  10.292  1.00  0.00     0.167 HD
ATOM     45  C   UNL     1      -2.481   4.089  10.647  1.00  0.00     0.037 A 
ATOM     46  C   UNL     1      -1.028  -2.708  11.264  1.00  0.00     0.037 A 
ATOM     47  C   UNL     1      -2.800   3.519  11.930  1.00  0.00     0.049 A 
ATOM     48  C   UNL     1      -1.682  -1.940  12.375  1.00  0.00     0.074 A 
ATOM     49  C   UNL     1      -3.383   4.129  13.028  1.00  0.00     0.029 A 
ATOM     50  N   UNL     1      -2.594   2.192  12.274  1.00  0.00    -0.354 N 
ATOM     51  N   UNL     1      -2.019  -0.675  12.416  1.00  0.00    -0.248 NA
ATOM     52  C   UNL     1      -1.969  -2.680  13.612  1.00  0.00     0.031 C 
ATOM     53  C   UNL     1      -3.517   3.173  14.042  1.00  0.00     0.029 A 
ATOM     54  C   UNL     1      -3.042   1.962  13.564  1.00  0.00     0.049 A 
ATOM     55  H   UNL     1      -2.188   1.513  11.688  1.00  0.00     0.167 HD
ATOM     56  C   UNL     1      -2.546  -0.464  13.682  1.00  0.00     0.074 A 
ATOM     57  C   UNL     1      -2.515  -1.738  14.368  1.00  0.00     0.031 C 
ATOM     58  C   UNL     1      -3.000   0.689  14.231  1.00  0.00     0.037 A 
BRANCH  45  59
ATOM     59  C   UNL     1      -2.772   5.545  10.434  1.00  0.00     0.064 A 
ATOM     60  C   UNL     1      -3.853   5.983   9.658  1.00  0.00     0.173 A 
ATOM     61  C   UNL     1      -1.972   6.516  11.057  1.00  0.00     0.173 A 
ATOM     62  F   UNL     1      -4.637   5.095   9.030  1.00  0.00    -0.203 F 
ATOM     63  C   UNL     1      -4.113   7.343   9.499  1.00  0.00     0.198 A 
ATOM     64  C   UNL     1      -2.248   7.873  10.914  1.00  0.00     0.198 A 
ATOM     65  F   UNL     1      -0.928   6.147  11.814  1.00  0.00    -0.203 F 
ATOM     66  F   UNL     1      -5.131   7.743   8.723  1.00  0.00    -0.200 F 
ATOM     67  C   UNL     1      -3.315   8.285  10.131  1.00  0.00     0.200 A 
ATOM     68  F   UNL     1      -1.481   8.781  11.534  1.00  0.00    -0.200 F 
ATOM     69  F   UNL     1      -3.571   9.592   9.982  1.00  0.00    -0.200 F 
ENDBRANCH  45  59
BRANCH  46  70
ATOM     70  C   UNL     1      -0.718  -4.153  11.414  1.00  0.00     0.064 A 
ATOM     71  C   UNL     1      -1.739  -5.112  11.397  1.00  0.00     0.173 A 
ATOM     72  C   UNL     1       0.603  -4.605  11.553  1.00  0.00     0.173 A 
ATOM     73  F   UNL     1      -3.019  -4.725  11.297  1.00  0.00    -0.203 F 
ATOM     74  C   UNL     1      -1.450  -6.470  11.512  1.00  0.00     0.198 A 
ATOM     75  C   UNL     1       0.892  -5.964  11.639  1.00  0.00     0.198 A 
ATOM     76  F   UNL     1       1.614  -3.725  11.580  1.00  0.00    -0.203 F 
ATOM     77  F   UNL     1      -2.446  -7.366  11.523  1.00  0.00    -0.200 F 
ATOM     78  C   UNL     1      -0.134  -6.896  11.622  1.00  0.00     0.200 A 
ATOM     79  F   UNL     1       2.166  -6.371  11.733  1.00  0.00    -0.200 F 
ATOM     80  F   UNL     1       0.143  -8.203  11.718  1.00  0.00    -0.200 F 
ENDBRANCH  46  70
BRANCH  58  81
ATOM     81  C   UNL     1      -3.503   0.616  15.639  1.00  0.00     0.064 A 
ATOM     82  C   UNL     1      -2.617   0.554  16.724  1.00  0.00     0.173 A 
ATOM     83  C   UNL     1      -4.879   0.634  15.907  1.00  0.00     0.173 A 
ATOM     84  F   UNL     1      -1.293   0.518  16.513  1.00  0.00    -0.203 F 
ATOM     85  C   UNL     1      -3.094   0.495  18.031  1.00  0.00     0.198 A 
ATOM     86  C   UNL     1      -5.351   0.592  17.215  1.00  0.00     0.198 A 
ATOM     87  F   UNL     1      -5.763   0.694  14.900  1.00  0.00    -0.203 F 
ATOM     88  F   UNL     1      -2.232   0.400  19.053  1.00  0.00    -0.200 F 
ATOM     89  C   UNL     1      -4.459   0.518  18.275  1.00  0.00     0.200 A 
ATOM     90  F   UNL     1      -6.670   0.618  17.451  1.00  0.00    -0.200 F 
ATOM     91  F   UNL     1      -4.916   0.459  19.534  1.00  0.00    -0.200 F 
ENDBRANCH  58  81
ENDBRANCH  32  33
ENDBRANCH  25  27
ENDBRANCH  24  25
ENDBRANCH  23  24
ENDBRANCH  22  23
ENDBRANCH   1  22
TORSDOF 17
