REMARK SMILES Cc1ccc(-c2c(C(=O)OCCOC(=O)c3ccc(-c4c5nc(c(-c6c(F)c(F)c(F)c(F)c6F)c6ccc([nH]6)c(-c6c(F)c(F)c(F)c(F)c6F)c6nc(c(-c7c(F)c(F)c(F)c(F)c7F)c7ccc4[nH]7)C=C6)C=C5)cc3)nnn2Cc2c(F)cccc2Cl)cc1
REMARK SMILES IDX 11 1 10 2 8 3 9 4 7 5 6 6 81 7 79 8 80 9 5 10 1 11 2 12 3 13
REMARK SMILES IDX 92 14 4 15 91 16 82 17 83 18 84 19 89 20 85 21 86 22 88 23
REMARK SMILES IDX 90 24 87 25 12 26 13 27 14 28 15 29 16 30 17 31 78 32 18 33
REMARK SMILES IDX 77 34 19 35 20 36 21 37 71 38 22 39 76 40 70 41 72 42 23 43
REMARK SMILES IDX 75 44 69 45 68 46 24 48 56 49 36 50 55 51 37 52 40 53 54 54
REMARK SMILES IDX 73 55 38 56 39 57 53 59 74 60 41 61 25 62 26 63 34 64 27 65
REMARK SMILES IDX 28 66 32 67 35 68 29 69 30 70 33 71 31 72 57 73 58 74 66 75
REMARK SMILES IDX 59 76 60 77 64 78 67 79 61 80 62 81 65 82 63 83 42 84 43 85
REMARK SMILES IDX 51 86 44 87 45 88 49 89 52 90 46 91 47 92 50 93 48 94
REMARK H PARENT 72 47 40 58
REMARK Flexibility Score: inf
ROOT
ATOM      1  C   UNL     1      -2.399   0.513   4.584  1.00  0.00     0.275 C 
ENDROOT
BRANCH   1   2
ATOM      2  O   UNL     1      -2.963   0.992   3.365  1.00  0.00    -0.457 OA
BRANCH   2   3
ATOM      3  C   UNL     1      -2.464   0.391   2.249  1.00  0.00     0.361 C 
ATOM      4  O   UNL     1      -1.549  -0.432   2.269  1.00  0.00    -0.244 OA
BRANCH   3   5
ATOM      5  C   UNL     1      -3.130   0.815   1.034  1.00  0.00     0.198 A 
ATOM      6  C   UNL     1      -2.542   0.952  -0.215  1.00  0.00     0.104 A 
ATOM      7  N   UNL     1      -3.608   1.205  -1.040  1.00  0.00    -0.239 N 
ATOM      8  N   UNL     1      -4.460   1.123   0.949  1.00  0.00    -0.122 NA
ATOM      9  N   UNL     1      -4.743   1.363  -0.323  1.00  0.00    -0.066 NA
BRANCH   6  10
ATOM     10  C   UNL     1      -1.129   0.846  -0.531  1.00  0.00     0.002 A 
ATOM     11  C   UNL     1       3.121   0.317  -0.133  1.00  0.00     0.044 C 
ATOM     12  C   UNL     1       1.657   0.530  -0.377  1.00  0.00    -0.051 A 
ATOM     13  C   UNL     1       0.832  -0.574  -0.611  1.00  0.00     0.004 A 
ATOM     14  C   UNL     1       1.083   1.803  -0.285  1.00  0.00     0.004 A 
ATOM     15  C   UNL     1      -0.550  -0.415  -0.691  1.00  0.00     0.011 A 
ATOM     16  C   UNL     1      -0.303   1.962  -0.364  1.00  0.00     0.011 A 
ENDBRANCH   6  10
BRANCH   7  17
ATOM     17  C   UNL     1      -3.687   1.364  -2.486  1.00  0.00     0.187 C 
BRANCH  17  18
ATOM     18  C   UNL     1      -2.877   0.381  -3.289  1.00  0.00     0.028 A 
ATOM     19  C   UNL     1      -2.043   0.890  -4.293  1.00  0.00     0.129 A 
ATOM     20  C   UNL     1      -2.931  -1.014  -3.142  1.00  0.00     0.049 A 
ATOM     21  F   UNL     1      -2.014   2.210  -4.525  1.00  0.00    -0.207 F 
ATOM     22  C   UNL     1      -1.242   0.067  -5.080  1.00  0.00     0.040 A 
ATOM     23  C   UNL     1      -2.104  -1.847  -3.907  1.00  0.00     0.021 A 
ATOM     24  Cl  UNL     1      -4.002  -1.789  -2.028  1.00  0.00    -0.084 Cl
ATOM     25  C   UNL     1      -1.254  -1.307  -4.872  1.00  0.00     0.005 A 
ENDBRANCH  17  18
ENDBRANCH   7  17
ENDBRANCH   3   5
ENDBRANCH   2   3
ENDBRANCH   1   2
BRANCH   1  26
ATOM     26  C   UNL     1      -3.393   0.657   5.738  1.00  0.00     0.275 C 
BRANCH  26  27
ATOM     27  O   UNL     1      -4.820   0.686   5.425  1.00  0.00    -0.458 OA
BRANCH  27  28
ATOM     28  C   UNL     1      -5.561  -0.012   4.525  1.00  0.00     0.338 C 
ATOM     29  O   UNL     1      -6.686   0.346   4.204  1.00  0.00    -0.246 OA
BRANCH  28  30
ATOM     30  C   UNL     1      -4.992  -1.242   3.942  1.00  0.00     0.060 A 
ATOM     31  C   UNL     1      -5.267  -1.608   2.611  1.00  0.00     0.016 A 
ATOM     32  C   UNL     1      -4.144  -2.016   4.716  1.00  0.00     0.016 A 
ATOM     33  C   UNL     1      -4.617  -2.709   2.038  1.00  0.00     0.010 A 
ATOM     34  C   UNL     1      -3.373  -2.971   4.104  1.00  0.00     0.010 A 
ATOM     35  C   UNL     1      -3.650  -3.377   2.790  1.00  0.00    -0.014 A 
BRANCH  35  36
ATOM     36  C   UNL     1      -3.022  -4.646   2.427  1.00  0.00     0.031 A 
ATOM     37  C   UNL     1      -2.081  -4.822   1.313  1.00  0.00     0.074 A 
ATOM     38  C   UNL     1      -3.290  -5.660   3.280  1.00  0.00     0.049 A 
ATOM     39  N   UNL     1      -1.919  -5.924   0.661  1.00  0.00    -0.248 NA
ATOM     40  C   UNL     1      -1.208  -3.752   0.857  1.00  0.00     0.031 C 
ATOM     41  C   UNL     1      -2.708  -6.984   3.394  1.00  0.00     0.029 A 
ATOM     42  N   UNL     1      -4.356  -5.677   4.194  1.00  0.00    -0.354 N 
ATOM     43  C   UNL     1      -0.747  -5.811  -0.060  1.00  0.00     0.074 A 
ATOM     44  C   UNL     1      -0.414  -4.406  -0.001  1.00  0.00     0.031 C 
ATOM     45  C   UNL     1      -3.585  -7.770   4.050  1.00  0.00     0.029 A 
ATOM     46  C   UNL     1      -4.809  -6.994   4.224  1.00  0.00     0.049 A 
ATOM     47  H   UNL     1      -4.710  -4.915   4.708  1.00  0.00     0.167 HD
ATOM     48  C   UNL     1      -0.089  -6.946  -0.453  1.00  0.00     0.037 A 
ATOM     49  C   UNL     1      -6.030  -7.269   3.678  1.00  0.00     0.037 A 
ATOM     50  C   UNL     1      -0.810  -8.133   0.007  1.00  0.00     0.049 A 
ATOM     51  C   UNL     1      -5.908  -8.256   2.549  1.00  0.00     0.074 A 
ATOM     52  C   UNL     1      -0.621  -8.944   1.115  1.00  0.00     0.029 A 
ATOM     53  N   UNL     1      -2.080  -8.422  -0.482  1.00  0.00    -0.354 N 
ATOM     54  N   UNL     1      -4.862  -8.354   1.777  1.00  0.00    -0.248 NA
ATOM     55  C   UNL     1      -6.943  -9.230   2.238  1.00  0.00     0.031 C 
ATOM     56  C   UNL     1      -1.815  -9.671   1.336  1.00  0.00     0.029 A 
ATOM     57  C   UNL     1      -2.720  -9.325   0.346  1.00  0.00     0.049 A 
ATOM     58  H   UNL     1      -2.469  -8.037  -1.301  1.00  0.00     0.167 HD
ATOM     59  C   UNL     1      -5.031  -9.415   0.929  1.00  0.00     0.074 A 
ATOM     60  C   UNL     1      -6.354  -9.923   1.249  1.00  0.00     0.031 C 
ATOM     61  C   UNL     1      -4.061  -9.806   0.051  1.00  0.00     0.037 A 
BRANCH  48  62
ATOM     62  C   UNL     1       1.361  -6.996  -0.917  1.00  0.00     0.064 A 
ATOM     63  C   UNL     1       2.155  -8.151  -0.708  1.00  0.00     0.173 A 
ATOM     64  C   UNL     1       2.045  -5.932  -1.534  1.00  0.00     0.173 A 
ATOM     65  F   UNL     1       1.624  -9.298  -0.267  1.00  0.00    -0.203 F 
ATOM     66  C   UNL     1       3.532  -8.181  -0.954  1.00  0.00     0.198 A 
ATOM     67  C   UNL     1       3.432  -5.946  -1.743  1.00  0.00     0.198 A 
ATOM     68  F   UNL     1       1.387  -4.867  -2.010  1.00  0.00    -0.203 F 
ATOM     69  F   UNL     1       4.227  -9.302  -0.709  1.00  0.00    -0.200 F 
ATOM     70  C   UNL     1       4.178  -7.065  -1.434  1.00  0.00     0.200 A 
ATOM     71  F   UNL     1       4.038  -4.863  -2.251  1.00  0.00    -0.200 F 
ATOM     72  F   UNL     1       5.504  -7.077  -1.631  1.00  0.00    -0.200 F 
ENDBRANCH  48  62
BRANCH  49  73
ATOM     73  C   UNL     1      -6.999  -6.122   3.719  1.00  0.00     0.064 A 
ATOM     74  C   UNL     1      -7.243  -5.472   4.951  1.00  0.00     0.173 A 
ATOM     75  C   UNL     1      -7.461  -5.473   2.566  1.00  0.00     0.173 A 
ATOM     76  F   UNL     1      -6.826  -6.032   6.100  1.00  0.00    -0.203 F 
ATOM     77  C   UNL     1      -7.820  -4.204   5.016  1.00  0.00     0.198 A 
ATOM     78  C   UNL     1      -8.065  -4.211   2.637  1.00  0.00     0.198 A 
ATOM     79  F   UNL     1      -7.280  -6.025   1.358  1.00  0.00    -0.203 F 
ATOM     80  F   UNL     1      -7.935  -3.582   6.199  1.00  0.00    -0.200 F 
ATOM     81  C   UNL     1      -8.221  -3.568   3.856  1.00  0.00     0.200 A 
ATOM     82  F   UNL     1      -8.456  -3.595   1.512  1.00  0.00    -0.200 F 
ATOM     83  F   UNL     1      -8.744  -2.336   3.912  1.00  0.00    -0.200 F 
ENDBRANCH  49  73
BRANCH  61  84
ATOM     84  C   UNL     1      -4.242 -10.778  -1.087  1.00  0.00     0.064 A 
ATOM     85  C   UNL     1      -5.473 -11.018  -1.719  1.00  0.00     0.173 A 
ATOM     86  C   UNL     1      -3.119 -11.399  -1.689  1.00  0.00     0.173 A 
ATOM     87  F   UNL     1      -6.590 -10.385  -1.339  1.00  0.00    -0.203 F 
ATOM     88  C   UNL     1      -5.585 -11.872  -2.817  1.00  0.00     0.198 A 
ATOM     89  C   UNL     1      -3.226 -12.195  -2.826  1.00  0.00     0.198 A 
ATOM     90  F   UNL     1      -1.877 -11.226  -1.214  1.00  0.00    -0.203 F 
ATOM     91  F   UNL     1      -6.793 -12.108  -3.349  1.00  0.00    -0.200 F 
ATOM     92  C   UNL     1      -4.463 -12.449  -3.379  1.00  0.00     0.200 A 
ATOM     93  F   UNL     1      -2.119 -12.694  -3.395  1.00  0.00    -0.200 F 
ATOM     94  F   UNL     1      -4.570 -13.224  -4.465  1.00  0.00    -0.200 F 
ENDBRANCH  61  84
ENDBRANCH  35  36
ENDBRANCH  28  30
ENDBRANCH  27  28
ENDBRANCH  26  27
ENDBRANCH   1  26
TORSDOF 14
