REMARK SMILES O=C(CC1(NC(=O)C2(c3ccccc3)CC2)CCC1)OCCOC(=O)c1ccc(-c2c3nc(c(-c4c(F)c(F)c(F)c(F)c4F)c4ccc([nH]4)c(-c4c(F)c(F)c(F)c(F)c4F)c4nc(c(-c5c(F)c(F)c(F)c(F)c5F)c5ccc2[nH]5)C=C4)C=C3)cc1
REMARK SMILES IDX 21 1 20 2 2 3 1 4 3 5 4 6 17 7 19 8 18 9 5 10 6 11 7 13 8 14
REMARK SMILES IDX 15 15 16 16 9 17 10 18 14 19 11 20 13 21 12 22 22 23 23 24
REMARK SMILES IDX 24 25 25 26 26 27 27 28 88 29 28 30 87 31 29 32 30 33 31 34
REMARK SMILES IDX 81 35 32 36 86 37 80 38 82 39 33 40 85 41 79 42 78 43 34 45
REMARK SMILES IDX 66 46 46 47 65 48 47 49 50 50 64 51 83 52 48 53 49 54 63 56
REMARK SMILES IDX 84 57 51 58 35 59 36 60 44 61 37 62 38 63 42 64 45 65 39 66
REMARK SMILES IDX 40 67 43 68 41 69 67 70 68 71 76 72 69 73 70 74 74 75 77 76
REMARK SMILES IDX 71 77 72 78 75 79 73 80 52 81 53 82 61 83 54 84 55 85 59 86
REMARK SMILES IDX 62 87 56 88 57 89 60 90 58 91
REMARK H PARENT 5 12 82 44 50 55
REMARK Flexibility Score: inf
ROOT
ATOM      1  C   UNL     1       5.554   1.241   0.819  1.00  0.00     0.274 C 
ENDROOT
BRANCH   1   2
ATOM      2  O   UNL     1       4.609   0.183   0.627  1.00  0.00    -0.462 OA
BRANCH   2   3
ATOM      3  C   UNL     1       5.118  -1.062   0.771  1.00  0.00     0.308 C 
ATOM      4  O   UNL     1       5.085  -1.706   1.811  1.00  0.00    -0.252 OA
BRANCH   3   5
ATOM      5  C   UNL     1       5.736  -1.545  -0.489  1.00  0.00     0.151 C 
BRANCH   5   6
ATOM      6  C   UNL     1       4.868  -2.392  -1.419  1.00  0.00     0.051 C 
ATOM      7  C   UNL     1       5.913  -3.221  -2.281  1.00  0.00     0.029 C 
ATOM      8  C   UNL     1       4.309  -3.802  -1.020  1.00  0.00     0.029 C 
ATOM      9  C   UNL     1       5.709  -4.390  -1.300  1.00  0.00     0.005 C 
BRANCH   6  10
ATOM     10  N   UNL     1       3.998  -1.565  -2.348  1.00  0.00    -0.349 N 
ATOM     11  C   UNL     1       2.614  -1.449  -2.412  1.00  0.00     0.231 C 
ATOM     12  H   UNL     1       4.491  -1.027  -3.008  1.00  0.00     0.164 HD
ATOM     13  O   UNL     1       2.057  -1.839  -3.438  1.00  0.00    -0.274 OA
BRANCH  11  14
ATOM     14  C   UNL     1       1.813  -0.627  -1.404  1.00  0.00     0.074 C 
ATOM     15  C   UNL     1       1.868   0.897  -1.570  1.00  0.00     0.023 C 
ATOM     16  C   UNL     1       0.620   0.176  -1.953  1.00  0.00     0.023 C 
BRANCH  14  17
ATOM     17  C   UNL     1       1.552  -1.259  -0.052  1.00  0.00    -0.032 A 
ATOM     18  C   UNL     1       1.968  -0.645   1.126  1.00  0.00     0.005 A 
ATOM     19  C   UNL     1       0.986  -2.539   0.054  1.00  0.00     0.005 A 
ATOM     20  C   UNL     1       2.191  -1.413   2.255  1.00  0.00     0.000 A 
ATOM     21  C   UNL     1       1.111  -3.280   1.224  1.00  0.00     0.000 A 
ATOM     22  C   UNL     1       1.835  -2.747   2.271  1.00  0.00     0.000 A 
ENDBRANCH  14  17
ENDBRANCH  11  14
ENDBRANCH   6  10
ENDBRANCH   5   6
ENDBRANCH   3   5
ENDBRANCH   2   3
ENDBRANCH   1   2
BRANCH   1  23
ATOM     23  C   UNL     1       4.845   2.385   1.537  1.00  0.00     0.275 C 
BRANCH  23  24
ATOM     24  O   UNL     1       4.410   1.903   2.821  1.00  0.00    -0.458 OA
BRANCH  24  25
ATOM     25  C   UNL     1       3.225   2.414   3.254  1.00  0.00     0.338 C 
ATOM     26  O   UNL     1       2.656   3.386   2.821  1.00  0.00    -0.246 OA
BRANCH  25  27
ATOM     27  C   UNL     1       2.621   1.439   4.203  1.00  0.00     0.060 A 
ATOM     28  C   UNL     1       1.238   1.230   4.126  1.00  0.00     0.016 A 
ATOM     29  C   UNL     1       3.400   0.649   5.060  1.00  0.00     0.016 A 
ATOM     30  C   UNL     1       0.639   0.207   4.872  1.00  0.00     0.010 A 
ATOM     31  C   UNL     1       2.798  -0.364   5.820  1.00  0.00     0.010 A 
ATOM     32  C   UNL     1       1.412  -0.589   5.738  1.00  0.00    -0.014 A 
BRANCH  32  33
ATOM     33  C   UNL     1       0.727  -1.384   6.794  1.00  0.00     0.031 A 
ATOM     34  C   UNL     1       0.271  -0.611   7.989  1.00  0.00     0.074 A 
ATOM     35  C   UNL     1       0.500  -2.711   6.742  1.00  0.00     0.049 A 
ATOM     36  N   UNL     1      -0.426  -1.007   9.018  1.00  0.00    -0.248 NA
ATOM     37  C   UNL     1       0.653   0.812   8.019  1.00  0.00     0.031 C 
ATOM     38  C   UNL     1       0.896  -3.575   5.650  1.00  0.00     0.029 A 
ATOM     39  N   UNL     1      -0.114  -3.572   7.621  1.00  0.00    -0.354 N 
ATOM     40  C   UNL     1      -0.600   0.126   9.792  1.00  0.00     0.074 A 
ATOM     41  C   UNL     1       0.099   1.213   9.146  1.00  0.00     0.031 C 
ATOM     42  C   UNL     1       0.514  -4.840   5.892  1.00  0.00     0.029 A 
ATOM     43  C   UNL     1      -0.143  -4.882   7.192  1.00  0.00     0.049 A 
ATOM     44  H   UNL     1      -0.498  -3.279   8.479  1.00  0.00     0.167 HD
ATOM     45  C   UNL     1      -1.288   0.255  10.946  1.00  0.00     0.037 A 
ATOM     46  C   UNL     1      -0.640  -5.985   7.788  1.00  0.00     0.037 A 
ATOM     47  C   UNL     1      -1.893  -0.837  11.644  1.00  0.00     0.049 A 
ATOM     48  C   UNL     1      -1.298  -5.834   9.135  1.00  0.00     0.074 A 
ATOM     49  C   UNL     1      -2.551  -0.826  12.857  1.00  0.00     0.029 A 
ATOM     50  N   UNL     1      -1.875  -2.152  11.199  1.00  0.00    -0.354 N 
ATOM     51  N   UNL     1      -1.523  -4.743   9.826  1.00  0.00    -0.248 NA
ATOM     52  C   UNL     1      -1.771  -7.064   9.786  1.00  0.00     0.031 C 
ATOM     53  C   UNL     1      -2.892  -2.146  13.172  1.00  0.00     0.029 A 
ATOM     54  C   UNL     1      -2.490  -2.969  12.130  1.00  0.00     0.049 A 
ATOM     55  H   UNL     1      -1.484  -2.457  10.349  1.00  0.00     0.167 HD
ATOM     56  C   UNL     1      -2.199  -5.146  10.967  1.00  0.00     0.074 A 
ATOM     57  C   UNL     1      -2.352  -6.584  10.877  1.00  0.00     0.031 C 
ATOM     58  C   UNL     1      -2.655  -4.394  11.998  1.00  0.00     0.037 A 
BRANCH  45  59
ATOM     59  C   UNL     1      -1.331   1.636  11.512  1.00  0.00     0.064 A 
ATOM     60  C   UNL     1      -2.110   2.638  10.912  1.00  0.00     0.173 A 
ATOM     61  C   UNL     1      -0.482   1.992  12.566  1.00  0.00     0.173 A 
ATOM     62  F   UNL     1      -2.895   2.347   9.863  1.00  0.00    -0.203 F 
ATOM     63  C   UNL     1      -2.007   3.961  11.327  1.00  0.00     0.198 A 
ATOM     64  C   UNL     1      -0.399   3.313  12.993  1.00  0.00     0.198 A 
ATOM     65  F   UNL     1       0.305   1.072  13.143  1.00  0.00    -0.203 F 
ATOM     66  F   UNL     1      -2.694   4.918  10.689  1.00  0.00    -0.200 F 
ATOM     67  C   UNL     1      -1.151   4.297  12.366  1.00  0.00     0.200 A 
ATOM     68  F   UNL     1       0.439   3.642  13.986  1.00  0.00    -0.200 F 
ATOM     69  F   UNL     1      -1.028   5.577  12.745  1.00  0.00    -0.200 F 
ENDBRANCH  45  59
BRANCH  46  70
ATOM     70  C   UNL     1      -0.559  -7.326   7.142  1.00  0.00     0.064 A 
ATOM     71  C   UNL     1      -1.720  -7.992   6.718  1.00  0.00     0.173 A 
ATOM     72  C   UNL     1       0.660  -8.007   7.011  1.00  0.00     0.173 A 
ATOM     73  F   UNL     1      -2.916  -7.400   6.849  1.00  0.00    -0.203 F 
ATOM     74  C   UNL     1      -1.668  -9.294   6.220  1.00  0.00     0.198 A 
ATOM     75  C   UNL     1       0.714  -9.301   6.491  1.00  0.00     0.198 A 
ATOM     76  F   UNL     1       1.801  -7.425   7.409  1.00  0.00    -0.203 F 
ATOM     77  F   UNL     1      -2.800  -9.927   5.884  1.00  0.00    -0.200 F 
ATOM     78  C   UNL     1      -0.451  -9.948   6.107  1.00  0.00     0.200 A 
ATOM     79  F   UNL     1       1.892  -9.930   6.383  1.00  0.00    -0.200 F 
ATOM     80  F   UNL     1      -0.403 -11.206   5.648  1.00  0.00    -0.200 F 
ENDBRANCH  46  70
BRANCH  58  81
ATOM     81  C   UNL     1      -3.413  -5.097  13.079  1.00  0.00     0.064 A 
ATOM     82  C   UNL     1      -2.771  -5.913  14.020  1.00  0.00     0.173 A 
ATOM     83  C   UNL     1      -4.795  -4.892  13.212  1.00  0.00     0.173 A 
ATOM     84  F   UNL     1      -1.455  -6.151  13.923  1.00  0.00    -0.203 F 
ATOM     85  C   UNL     1      -3.490  -6.512  15.050  1.00  0.00     0.198 A 
ATOM     86  C   UNL     1      -5.504  -5.468  14.259  1.00  0.00     0.198 A 
ATOM     87  F   UNL     1      -5.450  -4.114  12.337  1.00  0.00    -0.203 F 
ATOM     88  F   UNL     1      -2.866  -7.318  15.920  1.00  0.00    -0.200 F 
ATOM     89  C   UNL     1      -4.853  -6.281  15.175  1.00  0.00     0.200 A 
ATOM     90  F   UNL     1      -6.817  -5.232  14.386  1.00  0.00    -0.200 F 
ATOM     91  F   UNL     1      -5.540  -6.845  16.177  1.00  0.00    -0.200 F 
ENDBRANCH  58  81
ENDBRANCH  32  33
ENDBRANCH  25  27
ENDBRANCH  24  25
ENDBRANCH  23  24
ENDBRANCH   1  23
TORSDOF 15
