REMARK SMILES Cc1cc(C(=O)OCCOC(=O)c2ccc(-c3c4nc(c(-c5c(F)c(F)c(F)c(F)c5F)c5ccc([nH]5)c(-c5c(F)c(F)c(F)c(F)c5F)c5nc(c(-c6c(F)c(F)c(F)c(F)c6F)c6ccc3[nH]6)C=C5)C=C4)cc2)ccc1NC(=O)c1ccc(=O)n(CCOc2ccccc2)n1
REMARK SMILES IDX 5 1 6 2 4 3 1 4 2 5 3 6 78 7 77 8 76 9 79 10 80 11 81 13
REMARK SMILES IDX 82 14 83 15 97 16 84 17 87 18 85 19 86 20 88 21 89 22 90 23
REMARK SMILES IDX 91 24 92 25 96 26 93 27 95 28 94 29 7 30 8 31 9 32 10 33
REMARK SMILES IDX 11 34 12 35 13 36 14 37 75 38 15 39 74 40 16 41 17 42 18 43
REMARK SMILES IDX 68 44 19 45 73 46 67 47 69 48 20 49 72 50 66 51 65 52 21 54
REMARK SMILES IDX 53 55 33 56 52 57 34 58 37 59 51 60 70 61 35 62 36 63 50 65
REMARK SMILES IDX 71 66 38 67 22 68 23 69 31 70 24 71 25 72 29 73 32 74 26 75
REMARK SMILES IDX 27 76 30 77 28 78 54 79 55 80 63 81 56 82 57 83 61 84 64 85
REMARK SMILES IDX 58 86 59 87 62 88 60 89 39 90 40 91 48 92 41 93 42 94 46 95
REMARK SMILES IDX 49 96 43 97 44 98 47 99 45 100
REMARK H PARENT 79 12 69 53 37 64
REMARK Flexibility Score: inf
ROOT
ATOM      1  C   UNL     1      -2.128  -1.593  -1.252  1.00  0.00     0.338 C 
ATOM      2  O   UNL     1      -2.735  -1.532  -0.187  1.00  0.00    -0.246 OA
ENDROOT
BRANCH   1   3
ATOM      3  C   UNL     1      -1.039  -0.633  -1.479  1.00  0.00     0.060 A 
ATOM      4  C   UNL     1       2.531   0.080  -0.279  1.00  0.00     0.046 C 
ATOM      5  C   UNL     1       1.091   0.317  -0.645  1.00  0.00    -0.027 A 
ATOM      6  C   UNL     1       0.317  -0.793  -1.129  1.00  0.00     0.021 A 
ATOM      7  C   UNL     1       0.425   1.513  -0.351  1.00  0.00     0.044 A 
ATOM      8  C   UNL     1      -0.927   1.500  -0.594  1.00  0.00     0.027 A 
ATOM      9  C   UNL     1      -1.612   0.600  -1.366  1.00  0.00     0.018 A 
BRANCH   7  10
ATOM     10  N   UNL     1       1.010   2.685   0.205  1.00  0.00    -0.320 N 
ATOM     11  C   UNL     1       0.448   3.959   0.435  1.00  0.00     0.276 C 
ATOM     12  H   UNL     1       1.953   2.593   0.471  1.00  0.00     0.170 HD
ATOM     13  O   UNL     1       1.133   4.906   0.807  1.00  0.00    -0.267 OA
BRANCH  11  14
ATOM     14  C   UNL     1      -1.041   4.207   0.154  1.00  0.00     0.149 A 
ATOM     15  C   UNL     1      -1.385   4.479  -1.261  1.00  0.00     0.042 A 
ATOM     16  N   UNL     1      -1.915   3.980   1.100  1.00  0.00    -0.164 NA
ATOM     17  C   UNL     1      -2.573   4.015  -1.655  1.00  0.00     0.076 A 
ATOM     18  N   UNL     1      -3.218   3.651   0.664  1.00  0.00    -0.226 N 
ATOM     19  C   UNL     1      -3.458   3.337  -0.679  1.00  0.00     0.266 A 
ATOM     20  O   UNL     1      -4.283   2.526  -1.092  1.00  0.00    -0.268 OA
BRANCH  18  21
ATOM     21  C   UNL     1      -4.146   3.154   1.693  1.00  0.00     0.190 C 
BRANCH  21  22
ATOM     22  C   UNL     1      -5.021   4.255   2.315  1.00  0.00     0.253 C 
BRANCH  22  23
ATOM     23  O   UNL     1      -6.259   4.488   1.606  1.00  0.00    -0.492 OA
BRANCH  23  24
ATOM     24  C   UNL     1      -6.117   5.421   0.619  1.00  0.00     0.119 A 
ATOM     25  C   UNL     1      -6.242   6.780   0.870  1.00  0.00     0.046 A 
ATOM     26  C   UNL     1      -5.909   4.985  -0.681  1.00  0.00     0.046 A 
ATOM     27  C   UNL     1      -5.992   7.694  -0.160  1.00  0.00     0.004 A 
ATOM     28  C   UNL     1      -5.556   5.883  -1.685  1.00  0.00     0.004 A 
ATOM     29  C   UNL     1      -5.586   7.245  -1.419  1.00  0.00     0.000 A 
ENDBRANCH  23  24
ENDBRANCH  22  23
ENDBRANCH  21  22
ENDBRANCH  18  21
ENDBRANCH  11  14
ENDBRANCH   7  10
ENDBRANCH   1   3
BRANCH   1  30
ATOM     30  O   UNL     1      -2.548  -2.238  -2.362  1.00  0.00    -0.458 OA
BRANCH  30  31
ATOM     31  C   UNL     1      -3.820  -2.877  -2.168  1.00  0.00     0.275 C 
BRANCH  31  32
ATOM     32  C   UNL     1      -3.871  -4.280  -2.776  1.00  0.00     0.275 C 
BRANCH  32  33
ATOM     33  O   UNL     1      -2.673  -5.111  -2.761  1.00  0.00    -0.458 OA
BRANCH  33  34
ATOM     34  C   UNL     1      -1.584  -4.922  -1.982  1.00  0.00     0.338 C 
ATOM     35  O   UNL     1      -0.436  -4.975  -2.417  1.00  0.00    -0.246 OA
BRANCH  34  36
ATOM     36  C   UNL     1      -1.835  -4.652  -0.558  1.00  0.00     0.060 A 
ATOM     37  C   UNL     1      -0.888  -3.900   0.164  1.00  0.00     0.016 A 
ATOM     38  C   UNL     1      -3.062  -5.000  -0.004  1.00  0.00     0.016 A 
ATOM     39  C   UNL     1      -1.210  -3.398   1.415  1.00  0.00     0.010 A 
ATOM     40  C   UNL     1      -3.444  -4.393   1.160  1.00  0.00     0.010 A 
ATOM     41  C   UNL     1      -2.496  -3.651   1.885  1.00  0.00    -0.014 A 
BRANCH  41  42
ATOM     42  C   UNL     1      -2.821  -3.596   3.292  1.00  0.00     0.031 A 
ATOM     43  C   UNL     1      -3.430  -2.404   3.888  1.00  0.00     0.074 A 
ATOM     44  C   UNL     1      -2.690  -4.842   3.804  1.00  0.00     0.049 A 
ATOM     45  N   UNL     1      -3.518  -2.219   5.154  1.00  0.00    -0.248 NA
ATOM     46  C   UNL     1      -3.966  -1.279   3.123  1.00  0.00     0.031 C 
ATOM     47  C   UNL     1      -3.187  -5.477   5.004  1.00  0.00     0.029 A 
ATOM     48  N   UNL     1      -1.864  -5.835   3.226  1.00  0.00    -0.354 N 
ATOM     49  C   UNL     1      -4.403  -1.181   5.372  1.00  0.00     0.074 A 
ATOM     50  C   UNL     1      -4.533  -0.539   4.088  1.00  0.00     0.031 C 
ATOM     51  C   UNL     1      -2.413  -6.557   5.255  1.00  0.00     0.029 A 
ATOM     52  C   UNL     1      -1.319  -6.553   4.284  1.00  0.00     0.049 A 
ATOM     53  H   UNL     1      -1.707  -5.988   2.266  1.00  0.00     0.167 HD
ATOM     54  C   UNL     1      -5.028  -1.142   6.588  1.00  0.00     0.037 A 
ATOM     55  C   UNL     1       0.000  -6.320   4.556  1.00  0.00     0.037 A 
ATOM     56  C   UNL     1      -4.476  -2.212   7.423  1.00  0.00     0.049 A 
ATOM     57  C   UNL     1       0.103  -5.595   5.875  1.00  0.00     0.074 A 
ATOM     58  C   UNL     1      -4.892  -3.518   7.628  1.00  0.00     0.029 A 
ATOM     59  N   UNL     1      -3.135  -2.158   7.791  1.00  0.00    -0.354 N 
ATOM     60  N   UNL     1      -0.729  -4.672   6.286  1.00  0.00    -0.248 NA
ATOM     61  C   UNL     1       1.073  -5.996   6.883  1.00  0.00     0.031 C 
ATOM     62  C   UNL     1      -3.749  -4.274   8.010  1.00  0.00     0.029 A 
ATOM     63  C   UNL     1      -2.649  -3.429   8.039  1.00  0.00     0.049 A 
ATOM     64  H   UNL     1      -2.607  -1.330   7.864  1.00  0.00     0.167 HD
ATOM     65  C   UNL     1      -0.492  -4.436   7.615  1.00  0.00     0.074 A 
ATOM     66  C   UNL     1       0.656  -5.271   7.933  1.00  0.00     0.031 C 
ATOM     67  C   UNL     1      -1.258  -3.631   8.412  1.00  0.00     0.037 A 
BRANCH  54  68
ATOM     68  C   UNL     1      -6.294  -0.391   6.966  1.00  0.00     0.064 A 
ATOM     69  C   UNL     1      -7.020  -0.776   8.123  1.00  0.00     0.173 A 
ATOM     70  C   UNL     1      -6.884   0.661   6.240  1.00  0.00     0.173 A 
ATOM     71  F   UNL     1      -6.561  -1.722   8.954  1.00  0.00    -0.203 F 
ATOM     72  C   UNL     1      -8.249  -0.209   8.477  1.00  0.00     0.198 A 
ATOM     73  C   UNL     1      -8.121   1.224   6.591  1.00  0.00     0.198 A 
ATOM     74  F   UNL     1      -6.281   1.215   5.185  1.00  0.00    -0.203 F 
ATOM     75  F   UNL     1      -8.889  -0.639   9.574  1.00  0.00    -0.200 F 
ATOM     76  C   UNL     1      -8.808   0.783   7.703  1.00  0.00     0.200 A 
ATOM     77  F   UNL     1      -8.642   2.204   5.838  1.00  0.00    -0.200 F 
ATOM     78  F   UNL     1      -9.989   1.322   8.035  1.00  0.00    -0.200 F 
ENDBRANCH  54  68
BRANCH  55  79
ATOM     79  C   UNL     1       0.869  -6.101   3.344  1.00  0.00     0.064 A 
ATOM     80  C   UNL     1       0.798  -7.037   2.282  1.00  0.00     0.173 A 
ATOM     81  C   UNL     1       1.572  -4.918   3.076  1.00  0.00     0.173 A 
ATOM     82  F   UNL     1       0.158  -8.205   2.461  1.00  0.00    -0.203 F 
ATOM     83  C   UNL     1       1.298  -6.764   1.007  1.00  0.00     0.198 A 
ATOM     84  C   UNL     1       2.098  -4.656   1.799  1.00  0.00     0.198 A 
ATOM     85  F   UNL     1       1.694  -3.970   4.015  1.00  0.00    -0.203 F 
ATOM     86  F   UNL     1       1.095  -7.634   0.006  1.00  0.00    -0.200 F 
ATOM     87  C   UNL     1       1.942  -5.567   0.763  1.00  0.00     0.200 A 
ATOM     88  F   UNL     1       2.677  -3.473   1.542  1.00  0.00    -0.200 F 
ATOM     89  F   UNL     1       2.351  -5.258  -0.476  1.00  0.00    -0.200 F 
ENDBRANCH  55  79
BRANCH  67  90
ATOM     90  C   UNL     1      -0.768  -3.037   9.708  1.00  0.00     0.064 A 
ATOM     91  C   UNL     1       0.593  -2.827   9.985  1.00  0.00     0.173 A 
ATOM     92  C   UNL     1      -1.673  -2.491  10.649  1.00  0.00     0.173 A 
ATOM     93  F   UNL     1       1.548  -3.146   9.100  1.00  0.00    -0.203 F 
ATOM     94  C   UNL     1       1.021  -2.219  11.162  1.00  0.00     0.198 A 
ATOM     95  C   UNL     1      -1.242  -1.803  11.779  1.00  0.00     0.198 A 
ATOM     96  F   UNL     1      -3.002  -2.572  10.487  1.00  0.00    -0.203 F 
ATOM     97  F   UNL     1       2.333  -2.118  11.411  1.00  0.00    -0.200 F 
ATOM     98  C   UNL     1       0.105  -1.695  12.052  1.00  0.00     0.200 A 
ATOM     99  F   UNL     1      -2.141  -1.226  12.588  1.00  0.00    -0.200 F 
ATOM    100  F   UNL     1       0.521  -1.063  13.156  1.00  0.00    -0.200 F 
ENDBRANCH  67  90
ENDBRANCH  41  42
ENDBRANCH  34  36
ENDBRANCH  33  34
ENDBRANCH  32  33
ENDBRANCH  31  32
ENDBRANCH  30  31
ENDBRANCH   1  30
TORSDOF 17
