REMARK SMILES CCc1cc(S(F)(F)(F)(F)F)cc2c1O[C@@H](C(F)(F)F)C(C(=O)OCCOC(=O)c1ccc(-c3c4nc(c(-c5c(F)c(F)c(F)c(F)c5F)c5ccc([nH]5)c(-c5c(F)c(F)c(F)c(F)c5F)c5nc(c(-c6c(F)c(F)c(F)c(F)c6F)c6ccc3[nH]6)C=C5)C=C4)cc1)=C2
REMARK SMILES IDX 26 1 25 2 24 3 22 4 23 5 21 6 3 7 4 8 14 9 5 10 13 11 15 12
REMARK SMILES IDX 12 13 93 14 16 15 2 16 1 17 6 18 7 19 8 20 9 21 10 22 11 23
REMARK SMILES IDX 17 24 18 25 19 26 20 27 27 28 28 29 29 30 30 31 31 32 92 33
REMARK SMILES IDX 32 34 91 35 33 36 34 37 35 38 85 39 36 40 90 41 84 42 86 43
REMARK SMILES IDX 37 44 89 45 83 46 82 47 38 49 70 50 50 51 69 52 51 53 54 54
REMARK SMILES IDX 68 55 87 56 52 57 53 58 67 60 88 61 55 62 39 63 40 64 48 65
REMARK SMILES IDX 41 66 42 67 46 68 49 69 43 70 44 71 47 72 45 73 71 74 72 75
REMARK SMILES IDX 80 76 73 77 74 78 78 79 81 80 75 81 76 82 79 83 77 84 56 85
REMARK SMILES IDX 57 86 65 87 58 88 59 89 63 90 66 91 60 92 61 93 64 94 62 95
REMARK H PARENT 86 48 54 59
REMARK Flexibility Score: inf
ROOT
ATOM      1  C   UNL     1       6.071  -2.284   7.005  1.00  0.00     0.275 C 
ENDROOT
BRANCH   1   2
ATOM      2  C   UNL     1       4.615  -2.671   7.205  1.00  0.00     0.275 C 
BRANCH   2   3
ATOM      3  O   UNL     1       4.002  -2.877   5.941  1.00  0.00    -0.459 OA
BRANCH   3   4
ATOM      4  C   UNL     1       3.948  -1.818   4.997  1.00  0.00     0.338 C 
ATOM      5  O   UNL     1       4.448  -0.686   5.283  1.00  0.00    -0.246 OA
BRANCH   4   6
ATOM      6  C   UNL     1       3.291  -2.039   3.644  1.00  0.00     0.087 C 
ATOM      7  C   UNL     1       1.075  -2.415   0.123  1.00  0.00    -0.004 A 
ATOM      8  C   UNL     1       0.686  -3.667  -0.317  1.00  0.00     0.032 A 
ATOM      9  C   UNL     1       1.757  -2.316   1.312  1.00  0.00     0.131 A 
ATOM     10  C   UNL     1       0.968  -4.790   0.415  1.00  0.00     0.108 A 
ATOM     11  C   UNL     1       2.075  -3.429   2.068  1.00  0.00     0.019 A 
ATOM     12  O   UNL     1       2.037  -1.059   1.791  1.00  0.00    -0.475 OA
ATOM     13  C   UNL     1       1.665  -4.672   1.599  1.00  0.00     0.036 A 
ATOM     14  C   UNL     1       2.764  -3.216   3.330  1.00  0.00     0.027 C 
ATOM     15  C   UNL     1       3.225  -0.914   2.619  1.00  0.00     0.316 C 
BRANCH   7  16
ATOM     16  C   UNL     1       0.569  -1.217  -0.663  1.00  0.00     0.036 C 
ATOM     17  C   UNL     1       1.075   0.063  -0.019  1.00  0.00     0.009 C 
ENDBRANCH   7  16
BRANCH  10  18
ATOM     18  S   UNL     1       0.429  -6.417  -0.167  1.00  0.00     0.310 S 
ATOM     19  F   UNL     1      -0.835  -6.530   0.784  1.00  0.00    -0.094 F 
ATOM     20  F   UNL     1       1.285  -7.009   1.016  1.00  0.00    -0.094 F 
ATOM     21  F   UNL     1       0.096  -7.847  -0.678  1.00  0.00    -0.094 F 
ATOM     22  F   UNL     1      -0.537  -5.810  -1.259  1.00  0.00    -0.094 F 
ATOM     23  F   UNL     1       0.667  -4.965   0.409  1.00  0.00    -0.094 F 
ENDBRANCH  10  18
BRANCH  15  24
ATOM     24  C   UNL     1       3.162   0.418   3.348  1.00  0.00     0.430 C 
ATOM     25  F   UNL     1       4.246   0.561   4.105  1.00  0.00    -0.167 F 
ATOM     26  F   UNL     1       3.107   1.407   2.460  1.00  0.00    -0.167 F 
ATOM     27  F   UNL     1       2.077   0.452   4.117  1.00  0.00    -0.167 F 
ENDBRANCH  15  24
ENDBRANCH   4   6
ENDBRANCH   3   4
ENDBRANCH   2   3
ENDBRANCH   1   2
BRANCH   1  28
ATOM     28  O   UNL     1       6.141  -1.087   6.244  1.00  0.00    -0.458 OA
BRANCH  28  29
ATOM     29  C   UNL     1       5.592  -1.044   4.935  1.00  0.00     0.338 C 
ATOM     30  O   UNL     1       5.037  -2.077   4.445  1.00  0.00    -0.246 OA
BRANCH  29  31
ATOM     31  C   UNL     1       5.668   0.237   4.120  1.00  0.00     0.060 A 
ATOM     32  C   UNL     1       4.566   0.722   3.436  1.00  0.00     0.016 A 
ATOM     33  C   UNL     1       6.827   0.884   4.107  1.00  0.00     0.016 A 
ATOM     34  C   UNL     1       4.869   1.759   2.522  1.00  0.00     0.010 A 
ATOM     35  C   UNL     1       7.011   1.973   3.289  1.00  0.00     0.010 A 
ATOM     36  C   UNL     1       5.981   2.471   2.540  1.00  0.00    -0.014 A 
BRANCH  36  37
ATOM     37  C   UNL     1       6.110   3.775   1.769  1.00  0.00     0.031 A 
ATOM     38  C   UNL     1       7.108   3.840   0.796  1.00  0.00     0.074 A 
ATOM     39  C   UNL     1       5.303   4.843   2.123  1.00  0.00     0.049 A 
ATOM     40  N   UNL     1       7.434   4.885   0.034  1.00  0.00    -0.248 NA
ATOM     41  C   UNL     1       7.989   2.717   0.442  1.00  0.00     0.031 C 
ATOM     42  C   UNL     1       4.288   4.782   3.098  1.00  0.00     0.029 A 
ATOM     43  N   UNL     1       5.326   6.124   1.618  1.00  0.00    -0.354 N 
ATOM     44  C   UNL     1       8.428   4.559  -0.795  1.00  0.00     0.074 A 
ATOM     45  C   UNL     1       8.803   3.162  -0.540  1.00  0.00     0.031 C 
ATOM     46  C   UNL     1       3.716   6.012   3.188  1.00  0.00     0.029 A 
ATOM     47  C   UNL     1       4.363   6.861   2.270  1.00  0.00     0.049 A 
ATOM     48  H   UNL     1       5.928   6.455   0.913  1.00  0.00     0.167 HD
ATOM     49  C   UNL     1       9.034   5.371  -1.755  1.00  0.00     0.037 A 
ATOM     50  C   UNL     1       4.052   8.200   2.091  1.00  0.00     0.037 A 
ATOM     51  C   UNL     1       8.694   6.698  -1.965  1.00  0.00     0.049 A 
ATOM     52  C   UNL     1       4.699   9.029   1.171  1.00  0.00     0.074 A 
ATOM     53  C   UNL     1       9.290   7.529  -2.933  1.00  0.00     0.029 A 
ATOM     54  N   UNL     1       7.747   7.442  -1.296  1.00  0.00    -0.354 N 
ATOM     55  N   UNL     1       5.665   8.692   0.315  1.00  0.00    -0.248 NA
ATOM     56  C   UNL     1       4.401  10.456   0.994  1.00  0.00     0.031 C 
ATOM     57  C   UNL     1       8.718   8.759  -2.843  1.00  0.00     0.029 A 
ATOM     58  C   UNL     1       7.755   8.717  -1.816  1.00  0.00     0.049 A 
ATOM     59  H   UNL     1       7.166   7.119  -0.570  1.00  0.00     0.167 HD
ATOM     60  C   UNL     1       6.019   9.749  -0.418  1.00  0.00     0.074 A 
ATOM     61  C   UNL     1       5.216  10.901   0.013  1.00  0.00     0.031 C 
ATOM     62  C   UNL     1       6.978   9.798  -1.432  1.00  0.00     0.037 A 
BRANCH  49  63
ATOM     63  C   UNL     1      10.129   4.766  -2.618  1.00  0.00     0.064 A 
ATOM     64  C   UNL     1       9.791   3.706  -3.443  1.00  0.00     0.173 A 
ATOM     65  C   UNL     1      11.358   5.271  -2.614  1.00  0.00     0.173 A 
ATOM     66  F   UNL     1       8.534   3.336  -3.669  1.00  0.00    -0.203 F 
ATOM     67  C   UNL     1      10.904   3.054  -4.024  1.00  0.00     0.198 A 
ATOM     68  C   UNL     1      12.368   4.658  -3.314  1.00  0.00     0.198 A 
ATOM     69  F   UNL     1      11.612   6.380  -1.925  1.00  0.00    -0.203 F 
ATOM     70  F   UNL     1      10.716   1.836  -4.524  1.00  0.00    -0.200 F 
ATOM     71  C   UNL     1      12.117   3.570  -4.103  1.00  0.00     0.200 A 
ATOM     72  F   UNL     1      13.609   5.129  -3.222  1.00  0.00    -0.200 F 
ATOM     73  F   UNL     1      13.045   3.059  -4.908  1.00  0.00    -0.200 F 
ENDBRANCH  49  63
BRANCH  50  74
ATOM     74  C   UNL     1       2.946   8.800   2.942  1.00  0.00     0.064 A 
ATOM     75  C   UNL     1       1.866   9.381   2.299  1.00  0.00     0.173 A 
ATOM     76  C   UNL     1       3.044   8.807   4.267  1.00  0.00     0.173 A 
ATOM     77  F   UNL     1       1.595   9.183   1.012  1.00  0.00    -0.203 F 
ATOM     78  C   UNL     1       1.076  10.206   3.135  1.00  0.00     0.198 A 
ATOM     79  C   UNL     1       2.156   9.525   5.030  1.00  0.00     0.198 A 
ATOM     80  F   UNL     1       4.011   8.112   4.859  1.00  0.00    -0.203 F 
ATOM     81  F   UNL     1       0.255  11.074   2.551  1.00  0.00    -0.200 F 
ATOM     82  C   UNL     1       1.099  10.174   4.455  1.00  0.00     0.200 A 
ATOM     83  F   UNL     1       2.328   9.591   6.348  1.00  0.00    -0.200 F 
ATOM     84  F   UNL     1       0.143  10.741   5.186  1.00  0.00    -0.200 F 
ENDBRANCH  50  74
BRANCH  62  85
ATOM     85  C   UNL     1       7.180  11.118  -2.159  1.00  0.00     0.064 A 
ATOM     86  C   UNL     1       7.638  12.263  -1.528  1.00  0.00     0.173 A 
ATOM     87  C   UNL     1       6.959  11.094  -3.468  1.00  0.00     0.173 A 
ATOM     88  F   UNL     1       8.110  12.267  -0.285  1.00  0.00    -0.203 F 
ATOM     89  C   UNL     1       7.558  13.428  -2.327  1.00  0.00     0.198 A 
ATOM     90  C   UNL     1       7.032  12.248  -4.211  1.00  0.00     0.198 A 
ATOM     91  F   UNL     1       6.666   9.943  -4.066  1.00  0.00    -0.203 F 
ATOM     92  F   UNL     1       7.627  14.605  -1.712  1.00  0.00    -0.200 F 
ATOM     93  C   UNL     1       7.420  13.428  -3.640  1.00  0.00     0.200 A 
ATOM     94  F   UNL     1       6.719  12.216  -5.503  1.00  0.00    -0.200 F 
ATOM     95  F   UNL     1       7.647  14.517  -4.369  1.00  0.00    -0.200 F 
ENDBRANCH  62  85
ENDBRANCH  36  37
ENDBRANCH  29  31
ENDBRANCH  28  29
ENDBRANCH   1  28
TORSDOF 14
