REMARK SMILES O=C(Cc1ccccc1Nc1c(Cl)cccc1C(F)(F)F)OCCOC(=O)c1ccc(-c2c3nc(c(-c4c(F)c(F)c(F)c(F)c4F)c4ccc([nH]4)c(-c4c(F)c(F)c(F)c(F)c4F)c4nc(c(-c5c(F)c(F)c(F)c(F)c5F)c5ccc2[nH]5)C=C4)C=C3)cc1
REMARK SMILES IDX 23 1 22 2 2 3 1 4 3 5 4 6 5 7 9 8 6 9 8 10 7 11 10 12 11 14
REMARK SMILES IDX 12 15 17 16 13 17 14 18 16 19 15 20 18 21 19 22 20 23 21 24
REMARK SMILES IDX 24 25 25 26 26 27 27 28 28 29 29 30 90 31 30 32 89 33 31 34
REMARK SMILES IDX 32 35 33 36 83 37 34 38 88 39 82 40 84 41 35 42 87 43 81 44
REMARK SMILES IDX 80 45 36 47 68 48 48 49 67 50 49 51 52 52 66 53 85 54 50 55
REMARK SMILES IDX 51 56 65 58 86 59 53 60 37 61 38 62 46 63 39 64 40 65 44 66
REMARK SMILES IDX 47 67 41 68 42 69 45 70 43 71 69 72 70 73 78 74 71 75 72 76
REMARK SMILES IDX 76 77 79 78 73 79 74 80 77 81 75 82 54 83 55 84 63 85 56 86
REMARK SMILES IDX 57 87 61 88 64 89 58 90 59 91 62 92 60 93
REMARK H PARENT 10 13 84 46 52 57
REMARK Flexibility Score: inf
ROOT
ATOM      1  C   UNL     1       4.375  -1.176  -0.455  1.00  0.00     0.274 C 
ENDROOT
BRANCH   1   2
ATOM      2  O   UNL     1       3.059  -1.196   0.141  1.00  0.00    -0.462 OA
BRANCH   2   3
ATOM      3  C   UNL     1       2.455  -0.141   0.736  1.00  0.00     0.310 C 
ATOM      4  O   UNL     1       1.407  -0.302   1.358  1.00  0.00    -0.252 OA
BRANCH   3   5
ATOM      5  C   UNL     1       3.084   1.226   0.612  1.00  0.00     0.160 C 
BRANCH   5   6
ATOM      6  C   UNL     1       3.903   1.715   1.785  1.00  0.00    -0.013 A 
ATOM      7  C   UNL     1       4.441   0.812   2.721  1.00  0.00     0.006 A 
ATOM      8  C   UNL     1       4.195   3.091   1.920  1.00  0.00     0.042 A 
ATOM      9  C   UNL     1       5.210   1.258   3.795  1.00  0.00     0.000 A 
ATOM     10  C   UNL     1       4.931   3.518   3.040  1.00  0.00     0.026 A 
ATOM     11  C   UNL     1       5.444   2.614   3.964  1.00  0.00     0.002 A 
BRANCH   8  12
ATOM     12  N   UNL     1       3.713   4.040   0.989  1.00  0.00    -0.354 N 
ATOM     13  H   UNL     1       3.186   3.700   0.231  1.00  0.00     0.167 HD
BRANCH  12  14
ATOM     14  C   UNL     1       3.925   5.431   1.056  1.00  0.00     0.070 A 
ATOM     15  C   UNL     1       3.057   6.246   1.811  1.00  0.00     0.065 A 
ATOM     16  C   UNL     1       5.037   6.018   0.420  1.00  0.00     0.080 A 
ATOM     17  Cl  UNL     1       1.643   5.597   2.572  1.00  0.00    -0.082 Cl
ATOM     18  C   UNL     1       3.313   7.607   1.973  1.00  0.00     0.023 A 
ATOM     19  C   UNL     1       5.272   7.394   0.585  1.00  0.00     0.015 A 
ATOM     20  C   UNL     1       4.426   8.177   1.365  1.00  0.00     0.002 A 
BRANCH  16  21
ATOM     21  C   UNL     1       6.060   5.193  -0.319  1.00  0.00     0.418 C 
ATOM     22  F   UNL     1       6.737   5.913  -1.261  1.00  0.00    -0.166 F 
ATOM     23  F   UNL     1       7.018   4.691   0.509  1.00  0.00    -0.166 F 
ATOM     24  F   UNL     1       5.540   4.128  -0.995  1.00  0.00    -0.166 F 
ENDBRANCH  16  21
ENDBRANCH  12  14
ENDBRANCH   8  12
ENDBRANCH   5   6
ENDBRANCH   3   5
ENDBRANCH   2   3
ENDBRANCH   1   2
BRANCH   1  25
ATOM     25  C   UNL     1       4.304  -1.091  -1.981  1.00  0.00     0.275 C 
BRANCH  25  26
ATOM     26  O   UNL     1       3.838   0.205  -2.411  1.00  0.00    -0.458 OA
BRANCH  26  27
ATOM     27  C   UNL     1       2.513   0.293  -2.687  1.00  0.00     0.338 C 
ATOM     28  O   UNL     1       1.706  -0.620  -2.669  1.00  0.00    -0.246 OA
BRANCH  27  29
ATOM     29  C   UNL     1       2.123   1.714  -2.867  1.00  0.00     0.060 A 
ATOM     30  C   UNL     1       0.868   2.116  -2.392  1.00  0.00     0.016 A 
ATOM     31  C   UNL     1       2.955   2.646  -3.496  1.00  0.00     0.016 A 
ATOM     32  C   UNL     1       0.433   3.435  -2.567  1.00  0.00     0.010 A 
ATOM     33  C   UNL     1       2.516   3.966  -3.671  1.00  0.00     0.010 A 
ATOM     34  C   UNL     1       1.243   4.369  -3.225  1.00  0.00    -0.014 A 
BRANCH  34  35
ATOM     35  C   UNL     1       0.744   5.741  -3.519  1.00  0.00     0.031 A 
ATOM     36  C   UNL     1       0.275   6.095  -4.903  1.00  0.00     0.074 A 
ATOM     37  C   UNL     1       0.673   6.685  -2.562  1.00  0.00     0.049 A 
ATOM     38  N   UNL     1      -0.148   7.247  -5.361  1.00  0.00    -0.248 NA
ATOM     39  C   UNL     1       0.244   5.005  -5.889  1.00  0.00     0.031 C 
ATOM     40  C   UNL     1       0.959   6.485  -1.146  1.00  0.00     0.029 A 
ATOM     41  N   UNL     1       0.347   8.020  -2.652  1.00  0.00    -0.354 N 
ATOM     42  C   UNL     1      -0.552   7.011  -6.666  1.00  0.00     0.074 A 
ATOM     43  C   UNL     1      -0.251   5.622  -6.954  1.00  0.00     0.031 C 
ATOM     44  C   UNL     1       0.857   7.667  -0.514  1.00  0.00     0.029 A 
ATOM     45  C   UNL     1       0.549   8.708  -1.482  1.00  0.00     0.049 A 
ATOM     46  H   UNL     1       0.003   8.439  -3.474  1.00  0.00     0.167 HD
ATOM     47  C   UNL     1      -1.158   7.860  -7.531  1.00  0.00     0.037 A 
ATOM     48  C   UNL     1       0.532  10.027  -1.221  1.00  0.00     0.037 A 
ATOM     49  C   UNL     1      -1.452   9.246  -7.269  1.00  0.00     0.049 A 
ATOM     50  C   UNL     1       0.109  10.999  -2.277  1.00  0.00     0.074 A 
ATOM     51  C   UNL     1      -2.118  10.154  -8.076  1.00  0.00     0.029 A 
ATOM     52  N   UNL     1      -1.077   9.935  -6.127  1.00  0.00    -0.354 N 
ATOM     53  N   UNL     1      -0.281  10.766  -3.502  1.00  0.00    -0.248 NA
ATOM     54  C   UNL     1       0.086  12.419  -1.894  1.00  0.00     0.031 C 
ATOM     55  C   UNL     1      -2.088  11.407  -7.452  1.00  0.00     0.029 A 
ATOM     56  C   UNL     1      -1.452  11.268  -6.232  1.00  0.00     0.049 A 
ATOM     57  H   UNL     1      -0.613   9.538  -5.355  1.00  0.00     0.167 HD
ATOM     58  C   UNL     1      -0.653  11.997  -4.018  1.00  0.00     0.074 A 
ATOM     59  C   UNL     1      -0.410  12.981  -2.986  1.00  0.00     0.031 C 
ATOM     60  C   UNL     1      -1.191  12.267  -5.230  1.00  0.00     0.037 A 
BRANCH  47  61
ATOM     61  C   UNL     1      -1.563   7.308  -8.863  1.00  0.00     0.064 A 
ATOM     62  C   UNL     1      -2.670   6.455  -8.992  1.00  0.00     0.173 A 
ATOM     63  C   UNL     1      -0.886   7.694 -10.028  1.00  0.00     0.173 A 
ATOM     64  F   UNL     1      -3.344   6.054  -7.903  1.00  0.00    -0.203 F 
ATOM     65  C   UNL     1      -3.075   5.997 -10.241  1.00  0.00     0.198 A 
ATOM     66  C   UNL     1      -1.308   7.252 -11.277  1.00  0.00     0.198 A 
ATOM     67  F   UNL     1       0.174   8.512  -9.953  1.00  0.00    -0.203 F 
ATOM     68  F   UNL     1      -4.119   5.162 -10.341  1.00  0.00    -0.200 F 
ATOM     69  C   UNL     1      -2.400   6.402 -11.383  1.00  0.00     0.200 A 
ATOM     70  F   UNL     1      -0.662   7.652 -12.381  1.00  0.00    -0.200 F 
ATOM     71  F   UNL     1      -2.800   5.971 -12.588  1.00  0.00    -0.200 F 
ENDBRANCH  47  61
BRANCH  48  72
ATOM     72  C   UNL     1       1.007  10.550   0.081  1.00  0.00     0.064 A 
ATOM     73  C   UNL     1       0.124  10.886   1.112  1.00  0.00     0.173 A 
ATOM     74  C   UNL     1       2.368  10.835   0.256  1.00  0.00     0.173 A 
ATOM     75  F   UNL     1      -1.191  10.678   0.961  1.00  0.00    -0.203 F 
ATOM     76  C   UNL     1       0.589  11.494   2.278  1.00  0.00     0.198 A 
ATOM     77  C   UNL     1       2.829  11.440   1.421  1.00  0.00     0.198 A 
ATOM     78  F   UNL     1       3.245  10.548  -0.717  1.00  0.00    -0.203 F 
ATOM     79  F   UNL     1      -0.276  11.844   3.240  1.00  0.00    -0.200 F 
ATOM     80  C   UNL     1       1.940  11.769   2.432  1.00  0.00     0.200 A 
ATOM     81  F   UNL     1       4.135  11.705   1.563  1.00  0.00    -0.200 F 
ATOM     82  F   UNL     1       2.386  12.362   3.547  1.00  0.00    -0.200 F 
ENDBRANCH  48  72
BRANCH  60  83
ATOM     83  C   UNL     1      -1.605  13.684  -5.489  1.00  0.00     0.064 A 
ATOM     84  C   UNL     1      -0.665  14.707  -5.682  1.00  0.00     0.173 A 
ATOM     85  C   UNL     1      -2.965  14.028  -5.516  1.00  0.00     0.173 A 
ATOM     86  F   UNL     1       0.648  14.435  -5.632  1.00  0.00    -0.203 F 
ATOM     87  C   UNL     1      -1.071  16.026  -5.865  1.00  0.00     0.198 A 
ATOM     88  C   UNL     1      -3.369  15.343  -5.729  1.00  0.00     0.198 A 
ATOM     89  F   UNL     1      -3.904  13.089  -5.327  1.00  0.00    -0.203 F 
ATOM     90  F   UNL     1      -0.155  16.997  -5.985  1.00  0.00    -0.200 F 
ATOM     91  C   UNL     1      -2.422  16.342  -5.893  1.00  0.00     0.200 A 
ATOM     92  F   UNL     1      -4.674  15.645  -5.760  1.00  0.00    -0.200 F 
ATOM     93  F   UNL     1      -2.811  17.613  -6.063  1.00  0.00    -0.200 F 
ENDBRANCH  60  83
ENDBRANCH  34  35
ENDBRANCH  27  29
ENDBRANCH  26  27
ENDBRANCH  25  26
ENDBRANCH   1  25
TORSDOF 15
