REMARK SMILES O=C(OCCOC(=O)[C@H]1[C@@H]2CC[C@@H](C2)[C@@H]1C(=O)Nc1ccc([N+](=O)[O-])cc1)c1ccc(-c2c3nc(c(-c4c(F)c(F)c(F)c(F)c4F)c4ccc([nH]4)c(-c4c(F)c(F)c(F)c(F)c4F)c4nc(c(-c5c(F)c(F)c(F)c(F)c5F)c5ccc2[nH]5)C=C4)C=C3)cc1
REMARK SMILES IDX 5 1 4 2 3 3 2 4 1 5 28 6 29 7 90 8 30 9 89 10 31 11 32 12
REMARK SMILES IDX 33 13 83 14 34 15 88 16 82 17 84 18 35 19 87 20 81 21 80 22
REMARK SMILES IDX 36 24 68 25 48 26 67 27 49 28 52 29 66 30 85 31 50 32 51 33
REMARK SMILES IDX 65 35 86 36 53 37 37 38 38 39 46 40 39 41 40 42 44 43 47 44
REMARK SMILES IDX 41 45 42 46 45 47 43 48 69 49 70 50 78 51 71 52 72 53 76 54
REMARK SMILES IDX 79 55 73 56 74 57 77 58 75 59 54 60 55 61 63 62 56 63 57 64
REMARK SMILES IDX 61 65 64 66 58 67 59 68 62 69 60 70 6 71 7 72 8 73 9 74
REMARK SMILES IDX 10 75 15 76 11 77 14 78 13 79 12 80 16 81 17 82 18 83 19 85
REMARK SMILES IDX 20 86 27 87 21 88 26 89 22 90 23 91 24 92 25 93
REMARK H PARENT 84 23 52 34 18 84
REMARK Flexibility Score: inf
ROOT
ATOM      1  C   UNL     1       4.051   0.489  -2.078  1.00  0.00     0.274 C 
ENDROOT
BRANCH   1   2
ATOM      2  C   UNL     1       4.316  -0.930  -1.569  1.00  0.00     0.275 C 
BRANCH   2   3
ATOM      3  O   UNL     1       3.325  -1.452  -0.672  1.00  0.00    -0.458 OA
BRANCH   3   4
ATOM      4  C   UNL     1       3.139  -1.233   0.648  1.00  0.00     0.338 C 
ATOM      5  O   UNL     1       2.256  -1.858   1.233  1.00  0.00    -0.246 OA
BRANCH   4   6
ATOM      6  C   UNL     1       3.893  -0.201   1.433  1.00  0.00     0.060 A 
ATOM      7  C   UNL     1       5.165   0.305   1.145  1.00  0.00     0.016 A 
ATOM      8  C   UNL     1       3.237   0.309   2.562  1.00  0.00     0.016 A 
ATOM      9  C   UNL     1       5.732   1.336   1.900  1.00  0.00     0.010 A 
ATOM     10  C   UNL     1       3.802   1.333   3.326  1.00  0.00     0.010 A 
ATOM     11  C   UNL     1       5.060   1.851   3.004  1.00  0.00    -0.014 A 
BRANCH  11  12
ATOM     12  C   UNL     1       5.781   2.736   3.945  1.00  0.00     0.031 A 
ATOM     13  C   UNL     1       6.191   2.147   5.265  1.00  0.00     0.074 A 
ATOM     14  C   UNL     1       6.097   4.005   3.624  1.00  0.00     0.049 A 
ATOM     15  N   UNL     1       6.852   2.693   6.250  1.00  0.00    -0.248 NA
ATOM     16  C   UNL     1       5.782   0.753   5.517  1.00  0.00     0.031 C 
ATOM     17  C   UNL     1       5.744   4.684   2.376  1.00  0.00     0.029 A 
ATOM     18  N   UNL     1       6.779   4.960   4.336  1.00  0.00    -0.354 N 
ATOM     19  C   UNL     1       6.954   1.702   7.216  1.00  0.00     0.074 A 
ATOM     20  C   UNL     1       6.183   0.571   6.761  1.00  0.00     0.031 C 
ATOM     21  C   UNL     1       6.206   5.947   2.413  1.00  0.00     0.029 A 
ATOM     22  C   UNL     1       6.891   6.165   3.683  1.00  0.00     0.049 A 
ATOM     23  H   UNL     1       7.153   4.797   5.232  1.00  0.00     0.167 HD
ATOM     24  C   UNL     1       7.684   1.703   8.354  1.00  0.00     0.037 A 
ATOM     25  C   UNL     1       7.486   7.307   4.080  1.00  0.00     0.037 A 
ATOM     26  C   UNL     1       8.460   2.826   8.792  1.00  0.00     0.049 A 
ATOM     27  C   UNL     1       8.204   7.326   5.404  1.00  0.00     0.074 A 
ATOM     28  C   UNL     1       9.265   2.940   9.908  1.00  0.00     0.029 A 
ATOM     29  N   UNL     1       8.515   4.042   8.124  1.00  0.00    -0.354 N 
ATOM     30  N   UNL     1       8.344   6.363   6.284  1.00  0.00    -0.248 NA
ATOM     31  C   UNL     1       8.864   8.583   5.777  1.00  0.00     0.031 C 
ATOM     32  C   UNL     1       9.763   4.247   9.947  1.00  0.00     0.029 A 
ATOM     33  C   UNL     1       9.323   4.924   8.819  1.00  0.00     0.049 A 
ATOM     34  H   UNL     1       8.049   4.247   7.282  1.00  0.00     0.167 HD
ATOM     35  C   UNL     1       9.154   6.878   7.287  1.00  0.00     0.074 A 
ATOM     36  C   UNL     1       9.459   8.245   6.912  1.00  0.00     0.031 C 
ATOM     37  C   UNL     1       9.621   6.272   8.407  1.00  0.00     0.037 A 
BRANCH  24  38
ATOM     38  C   UNL     1       7.662   0.446   9.172  1.00  0.00     0.064 A 
ATOM     39  C   UNL     1       8.228  -0.751   8.698  1.00  0.00     0.173 A 
ATOM     40  C   UNL     1       7.022   0.419  10.418  1.00  0.00     0.173 A 
ATOM     41  F   UNL     1       8.828  -0.786   7.498  1.00  0.00    -0.203 F 
ATOM     42  C   UNL     1       8.106  -1.937   9.417  1.00  0.00     0.198 A 
ATOM     43  C   UNL     1       6.936  -0.761  11.152  1.00  0.00     0.198 A 
ATOM     44  F   UNL     1       6.461   1.531  10.914  1.00  0.00    -0.203 F 
ATOM     45  F   UNL     1       8.578  -3.081   8.904  1.00  0.00    -0.200 F 
ATOM     46  C   UNL     1       7.464  -1.940  10.645  1.00  0.00     0.200 A 
ATOM     47  F   UNL     1       6.320  -0.762  12.342  1.00  0.00    -0.200 F 
ATOM     48  F   UNL     1       7.338  -3.083  11.333  1.00  0.00    -0.200 F 
ENDBRANCH  24  38
BRANCH  25  49
ATOM     49  C   UNL     1       7.432   8.529   3.236  1.00  0.00     0.064 A 
ATOM     50  C   UNL     1       8.562   9.016   2.564  1.00  0.00     0.173 A 
ATOM     51  C   UNL     1       6.249   9.274   3.143  1.00  0.00     0.173 A 
ATOM     52  F   UNL     1       9.726   8.356   2.648  1.00  0.00    -0.203 F 
ATOM     53  C   UNL     1       8.513  10.212   1.848  1.00  0.00     0.198 A 
ATOM     54  C   UNL     1       6.195  10.461   2.416  1.00  0.00     0.198 A 
ATOM     55  F   UNL     1       5.150   8.845   3.778  1.00  0.00    -0.203 F 
ATOM     56  F   UNL     1       9.619  10.680   1.253  1.00  0.00    -0.200 F 
ATOM     57  C   UNL     1       7.330  10.934   1.774  1.00  0.00     0.200 A 
ATOM     58  F   UNL     1       5.052  11.156   2.350  1.00  0.00    -0.200 F 
ATOM     59  F   UNL     1       7.289  12.089   1.097  1.00  0.00    -0.200 F 
ENDBRANCH  25  49
BRANCH  37  60
ATOM     60  C   UNL     1      10.579   7.052   9.258  1.00  0.00     0.064 A 
ATOM     61  C   UNL     1      10.171   8.146  10.032  1.00  0.00     0.173 A 
ATOM     62  C   UNL     1      11.927   6.664   9.322  1.00  0.00     0.173 A 
ATOM     63  F   UNL     1       8.896   8.564   9.992  1.00  0.00    -0.203 F 
ATOM     64  C   UNL     1      11.085   8.845  10.816  1.00  0.00     0.198 A 
ATOM     65  C   UNL     1      12.829   7.340  10.136  1.00  0.00     0.198 A 
ATOM     66  F   UNL     1      12.364   5.617   8.606  1.00  0.00    -0.203 F 
ATOM     67  F   UNL     1      10.687   9.924  11.503  1.00  0.00    -0.200 F 
ATOM     68  C   UNL     1      12.409   8.436  10.874  1.00  0.00     0.200 A 
ATOM     69  F   UNL     1      14.103   6.931  10.205  1.00  0.00    -0.200 F 
ATOM     70  F   UNL     1      13.285   9.105  11.636  1.00  0.00    -0.200 F 
ENDBRANCH  37  60
ENDBRANCH  11  12
ENDBRANCH   4   6
ENDBRANCH   3   4
ENDBRANCH   2   3
ENDBRANCH   1   2
BRANCH   1  71
ATOM     71  O   UNL     1       3.743   1.457  -1.056  1.00  0.00    -0.462 OA
BRANCH  71  72
ATOM     72  C   UNL     1       2.419   1.610  -0.741  1.00  0.00     0.310 C 
ATOM     73  O   UNL     1       1.516   0.943  -1.233  1.00  0.00    -0.252 OA
BRANCH  72  74
ATOM     74  C   UNL     1       2.227   2.814   0.182  1.00  0.00     0.115 C 
ATOM     75  C   UNL     1       2.140   4.013  -0.811  1.00  0.00     0.004 C 
ATOM     76  C   UNL     1       0.853   2.885   0.927  1.00  0.00     0.096 C 
ATOM     77  C   UNL     1       2.385   5.310  -0.060  1.00  0.00     0.005 C 
ATOM     78  C   UNL     1       0.632   4.096  -1.094  1.00  0.00     0.009 C 
ATOM     79  C   UNL     1       0.263   4.205   0.391  1.00  0.00     0.003 C 
ATOM     80  C   UNL     1       1.093   5.447   0.725  1.00  0.00     0.005 C 
BRANCH  76  81
ATOM     81  C   UNL     1       0.724   2.471   2.424  1.00  0.00     0.228 C 
ATOM     82  O   UNL     1       0.275   1.337   2.663  1.00  0.00    -0.274 OA
ATOM     83  N   UNL     1       1.140   3.125   3.544  1.00  0.00    -0.326 N 
ATOM     84  H   UNL     1       1.402   2.525   4.279  1.00  0.00     0.169 HD
BRANCH  83  85
ATOM     85  C   UNL     1       1.268   4.476   3.852  1.00  0.00     0.041 A 
ATOM     86  C   UNL     1       2.525   4.960   4.231  1.00  0.00     0.033 A 
ATOM     87  C   UNL     1       0.175   5.342   3.744  1.00  0.00     0.033 A 
ATOM     88  C   UNL     1       2.770   6.333   4.204  1.00  0.00     0.088 A 
ATOM     89  C   UNL     1       0.400   6.721   3.737  1.00  0.00     0.088 A 
ATOM     90  C   UNL     1       1.714   7.186   3.875  1.00  0.00     0.269 A 
BRANCH  90  91
ATOM     91  N   UNL     1       2.033   8.508   3.370  1.00  0.00     0.062 N 
ATOM     92  O   UNL     1       2.387   9.364   4.186  1.00  0.00    -0.258 OA
ATOM     93  O   UNL     1       1.942   8.661   2.142  1.00  0.00    -0.258 OA
ENDBRANCH  90  91
ENDBRANCH  83  85
ENDBRANCH  76  81
ENDBRANCH  72  74
ENDBRANCH  71  72
ENDBRANCH   1  71
TORSDOF 14
