REMARK SMILES O=C(OCCOC(=O)c1nnn(-c2cccc(C(F)(F)F)c2)c1[C@H]1COc2ccccc2O1)c1ccc(-c2c3nc(c(-c4c(F)c(F)c(F)c(F)c4F)c4ccc([nH]4)c(-c4c(F)c(F)c(F)c(F)c4F)c4nc(c(-c5c(F)c(F)c(F)c(F)c5F)c5ccc2[nH]5)C=C4)C=C3)cc1
REMARK SMILES IDX 4 1 3 2 2 3 1 4 34 5 35 6 96 7 36 8 95 9 37 10 38 11 39 12
REMARK SMILES IDX 89 13 40 14 94 15 88 16 90 17 41 18 93 19 87 20 86 21 42 23
REMARK SMILES IDX 74 24 54 25 73 26 55 27 58 28 72 29 91 30 56 31 57 32 71 34
REMARK SMILES IDX 92 35 59 36 43 37 44 38 52 39 45 40 46 41 50 42 53 43 47 44
REMARK SMILES IDX 48 45 51 46 49 47 75 48 76 49 84 50 77 51 78 52 82 53 85 54
REMARK SMILES IDX 79 55 80 56 83 57 81 58 60 59 61 60 69 61 62 62 63 63 67 64
REMARK SMILES IDX 70 65 64 66 65 67 68 68 66 69 5 70 6 71 7 72 8 73 9 74 10 75
REMARK SMILES IDX 23 76 11 77 12 78 24 79 25 80 33 81 26 82 32 83 27 84 31 85
REMARK SMILES IDX 28 86 30 87 29 88 13 89 14 90 22 91 15 92 17 93 16 94 18 95
REMARK SMILES IDX 19 96 20 97 21 98
REMARK H PARENT 90 22 58 33
REMARK Flexibility Score: inf
ROOT
ATOM      1  C   UNL     1       8.779   1.777  -4.304  1.00  0.00     0.275 C 
ENDROOT
BRANCH   1   2
ATOM      2  O   UNL     1       9.589   1.572  -3.129  1.00  0.00    -0.458 OA
BRANCH   2   3
ATOM      3  C   UNL     1       9.422   0.435  -2.417  1.00  0.00     0.338 C 
ATOM      4  O   UNL     1       9.861  -0.656  -2.732  1.00  0.00    -0.246 OA
BRANCH   3   5
ATOM      5  C   UNL     1       8.714   0.716  -1.147  1.00  0.00     0.060 A 
ATOM      6  C   UNL     1       7.936   1.869  -0.997  1.00  0.00     0.016 A 
ATOM      7  C   UNL     1       8.825  -0.201  -0.094  1.00  0.00     0.016 A 
ATOM      8  C   UNL     1       7.332   2.141   0.218  1.00  0.00     0.010 A 
ATOM      9  C   UNL     1       8.223   0.076   1.131  1.00  0.00     0.010 A 
ATOM     10  C   UNL     1       7.502   1.261   1.291  1.00  0.00    -0.014 A 
BRANCH  10  11
ATOM     11  C   UNL     1       6.878   1.645   2.551  1.00  0.00     0.031 A 
ATOM     12  C   UNL     1       5.391   1.616   2.609  1.00  0.00     0.074 A 
ATOM     13  C   UNL     1       7.578   1.986   3.649  1.00  0.00     0.049 A 
ATOM     14  N   UNL     1       4.582   2.602   2.836  1.00  0.00    -0.248 NA
ATOM     15  C   UNL     1       4.721   0.333   2.366  1.00  0.00     0.031 C 
ATOM     16  C   UNL     1       9.008   1.813   3.899  1.00  0.00     0.029 A 
ATOM     17  N   UNL     1       7.108   2.497   4.824  1.00  0.00    -0.354 N 
ATOM     18  C   UNL     1       3.304   2.050   2.908  1.00  0.00     0.074 A 
ATOM     19  C   UNL     1       3.440   0.662   2.542  1.00  0.00     0.031 C 
ATOM     20  C   UNL     1       9.254   2.026   5.211  1.00  0.00     0.029 A 
ATOM     21  C   UNL     1       8.030   2.475   5.856  1.00  0.00     0.049 A 
ATOM     22  H   UNL     1       6.195   2.850   4.928  1.00  0.00     0.167 HD
ATOM     23  C   UNL     1       2.245   2.740   3.417  1.00  0.00     0.037 A 
ATOM     24  C   UNL     1       7.788   2.748   7.160  1.00  0.00     0.037 A 
ATOM     25  C   UNL     1       2.483   4.157   3.442  1.00  0.00     0.049 A 
ATOM     26  C   UNL     1       6.543   3.548   7.246  1.00  0.00     0.074 A 
ATOM     27  C   UNL     1       2.757   5.117   2.486  1.00  0.00     0.029 A 
ATOM     28  N   UNL     1       2.729   4.767   4.646  1.00  0.00    -0.354 N 
ATOM     29  N   UNL     1       6.438   4.794   6.880  1.00  0.00    -0.248 NA
ATOM     30  C   UNL     1       5.283   2.844   7.430  1.00  0.00     0.031 C 
ATOM     31  C   UNL     1       3.612   6.056   3.133  1.00  0.00     0.029 A 
ATOM     32  C   UNL     1       3.786   5.614   4.445  1.00  0.00     0.049 A 
ATOM     33  H   UNL     1       2.241   4.623   5.489  1.00  0.00     0.167 HD
ATOM     34  C   UNL     1       5.150   4.906   6.383  1.00  0.00     0.074 A 
ATOM     35  C   UNL     1       4.451   3.721   6.864  1.00  0.00     0.031 C 
ATOM     36  C   UNL     1       4.850   5.802   5.399  1.00  0.00     0.037 A 
BRANCH  23  37
ATOM     37  C   UNL     1       1.091   2.118   4.160  1.00  0.00     0.064 A 
ATOM     38  C   UNL     1      -0.054   2.890   4.446  1.00  0.00     0.173 A 
ATOM     39  C   UNL     1       1.194   0.897   4.859  1.00  0.00     0.173 A 
ATOM     40  F   UNL     1      -0.241   4.080   3.855  1.00  0.00    -0.203 F 
ATOM     41  C   UNL     1      -0.986   2.502   5.413  1.00  0.00     0.198 A 
ATOM     42  C   UNL     1       0.234   0.488   5.785  1.00  0.00     0.198 A 
ATOM     43  F   UNL     1       2.274   0.113   4.752  1.00  0.00    -0.203 F 
ATOM     44  F   UNL     1      -1.991   3.326   5.737  1.00  0.00    -0.200 F 
ATOM     45  C   UNL     1      -0.838   1.303   6.085  1.00  0.00     0.200 A 
ATOM     46  F   UNL     1       0.401  -0.670   6.440  1.00  0.00    -0.200 F 
ATOM     47  F   UNL     1      -1.696   0.956   7.053  1.00  0.00    -0.200 F 
ENDBRANCH  23  37
BRANCH  24  48
ATOM     48  C   UNL     1       8.442   2.174   8.356  1.00  0.00     0.064 A 
ATOM     49  C   UNL     1       8.337   2.796   9.610  1.00  0.00     0.173 A 
ATOM     50  C   UNL     1       8.959   0.864   8.346  1.00  0.00     0.173 A 
ATOM     51  F   UNL     1       7.810   4.025   9.714  1.00  0.00    -0.203 F 
ATOM     52  C   UNL     1       8.707   2.138  10.786  1.00  0.00     0.198 A 
ATOM     53  C   UNL     1       9.341   0.213   9.518  1.00  0.00     0.198 A 
ATOM     54  F   UNL     1       9.016   0.155   7.209  1.00  0.00    -0.203 F 
ATOM     55  F   UNL     1       8.533   2.739  11.971  1.00  0.00    -0.200 F 
ATOM     56  C   UNL     1       9.202   0.845  10.739  1.00  0.00     0.200 A 
ATOM     57  F   UNL     1       9.785  -1.050   9.461  1.00  0.00    -0.200 F 
ATOM     58  F   UNL     1       9.503   0.193  11.871  1.00  0.00    -0.200 F 
ENDBRANCH  24  48
BRANCH  36  59
ATOM     59  C   UNL     1       5.849   6.881   5.102  1.00  0.00     0.064 A 
ATOM     60  C   UNL     1       7.156   6.633   4.648  1.00  0.00     0.173 A 
ATOM     61  C   UNL     1       5.423   8.216   5.153  1.00  0.00     0.173 A 
ATOM     62  F   UNL     1       7.597   5.381   4.463  1.00  0.00    -0.203 F 
ATOM     63  C   UNL     1       8.014   7.680   4.318  1.00  0.00     0.198 A 
ATOM     64  C   UNL     1       6.270   9.258   4.784  1.00  0.00     0.198 A 
ATOM     65  F   UNL     1       4.165   8.508   5.518  1.00  0.00    -0.203 F 
ATOM     66  F   UNL     1       9.263   7.421   3.906  1.00  0.00    -0.200 F 
ATOM     67  C   UNL     1       7.568   8.991   4.381  1.00  0.00     0.200 A 
ATOM     68  F   UNL     1       5.818  10.520   4.795  1.00  0.00    -0.200 F 
ATOM     69  F   UNL     1       8.380   9.995   4.025  1.00  0.00    -0.200 F 
ENDBRANCH  36  59
ENDBRANCH  10  11
ENDBRANCH   3   5
ENDBRANCH   2   3
ENDBRANCH   1   2
BRANCH   1  70
ATOM     70  C   UNL     1       8.066   0.560  -4.890  1.00  0.00     0.275 C 
BRANCH  70  71
ATOM     71  O   UNL     1       7.090   0.067  -3.956  1.00  0.00    -0.457 OA
BRANCH  71  72
ATOM     72  C   UNL     1       7.027  -1.300  -3.848  1.00  0.00     0.361 C 
ATOM     73  O   UNL     1       7.711  -2.091  -4.464  1.00  0.00    -0.244 OA
BRANCH  72  74
ATOM     74  C   UNL     1       5.908  -1.707  -3.016  1.00  0.00     0.198 A 
ATOM     75  N   UNL     1       5.972  -1.948  -1.668  1.00  0.00    -0.122 NA
ATOM     76  C   UNL     1       4.598  -1.844  -3.438  1.00  0.00     0.123 A 
ATOM     77  N   UNL     1       4.749  -2.269  -1.252  1.00  0.00    -0.061 NA
ATOM     78  N   UNL     1       3.969  -2.401  -2.347  1.00  0.00    -0.213 N 
BRANCH  76  79
ATOM     79  C   UNL     1       3.908  -1.381  -4.676  1.00  0.00     0.262 C 
ATOM     80  C   UNL     1       3.250  -0.015  -4.429  1.00  0.00     0.281 C 
ATOM     81  O   UNL     1       4.920  -1.310  -5.684  1.00  0.00    -0.477 OA
ATOM     82  O   UNL     1       2.656   0.494  -5.626  1.00  0.00    -0.485 OA
ATOM     83  C   UNL     1       4.663  -0.395  -6.664  1.00  0.00     0.162 A 
ATOM     84  C   UNL     1       3.569   0.472  -6.647  1.00  0.00     0.161 A 
ATOM     85  C   UNL     1       5.585  -0.338  -7.706  1.00  0.00     0.050 A 
ATOM     86  C   UNL     1       3.373   1.369  -7.693  1.00  0.00     0.050 A 
ATOM     87  C   UNL     1       5.409   0.581  -8.739  1.00  0.00     0.004 A 
ATOM     88  C   UNL     1       4.300   1.429  -8.736  1.00  0.00     0.004 A 
ENDBRANCH  76  79
BRANCH  78  89
ATOM     89  C   UNL     1       2.709  -3.027  -2.311  1.00  0.00     0.067 A 
ATOM     90  C   UNL     1       1.819  -2.765  -1.271  1.00  0.00     0.028 A 
ATOM     91  C   UNL     1       2.359  -3.900  -3.352  1.00  0.00     0.041 A 
ATOM     92  C   UNL     1       0.533  -3.305  -1.332  1.00  0.00     0.003 A 
ATOM     93  C   UNL     1       1.084  -4.476  -3.397  1.00  0.00     0.058 A 
ATOM     94  C   UNL     1       0.165  -4.146  -2.390  1.00  0.00     0.013 A 
BRANCH  93  95
ATOM     95  C   UNL     1       0.706  -5.419  -4.515  1.00  0.00     0.416 C 
ATOM     96  F   UNL     1       0.198  -6.595  -4.060  1.00  0.00    -0.166 F 
ATOM     97  F   UNL     1      -0.238  -4.889  -5.339  1.00  0.00    -0.166 F 
ATOM     98  F   UNL     1       1.757  -5.749  -5.316  1.00  0.00    -0.166 F 
ENDBRANCH  93  95
ENDBRANCH  78  89
ENDBRANCH  72  74
ENDBRANCH  71  72
ENDBRANCH  70  71
ENDBRANCH   1  70
TORSDOF 14
