REMARK SMILES O=C(COc1ccc(Br)cc1)NC(=S)Nc1ccc(Cl)cc1C(=O)OCCOC(=O)c1ccc(-c2c3nc(c(-c4c(F)c(F)c(F)c(F)c4F)c4ccc([nH]4)c(-c4c(F)c(F)c(F)c(F)c4F)c4nc(c(-c5c(F)c(F)c(F)c(F)c5F)c5ccc2[nH]5)C=C4)C=C3)cc1
REMARK SMILES IDX 23 1 24 2 22 3 16 4 17 5 18 6 21 7 19 8 20 9 15 10 13 12
REMARK SMILES IDX 14 13 12 14 1 15 2 16 3 18 4 19 5 20 6 21 11 22 7 23 10 24
REMARK SMILES IDX 8 25 9 26 25 27 26 28 27 29 28 30 29 31 30 32 31 33 32 34
REMARK SMILES IDX 93 35 33 36 92 37 34 38 35 39 36 40 86 41 37 42 91 43 85 44
REMARK SMILES IDX 87 45 38 46 90 47 84 48 83 49 39 51 71 52 51 53 70 54 52 55
REMARK SMILES IDX 55 56 69 57 88 58 53 59 54 60 68 62 89 63 56 64 40 65 41 66
REMARK SMILES IDX 49 67 42 68 43 69 47 70 50 71 44 72 45 73 48 74 46 75 72 76
REMARK SMILES IDX 73 77 81 78 74 79 75 80 79 81 82 82 76 83 77 84 80 85 78 86
REMARK SMILES IDX 57 87 58 88 66 89 59 90 60 91 64 92 67 93 61 94 62 95 65 96
REMARK SMILES IDX 63 97
REMARK H PARENT 15 11 12 17 87 50 55 61
REMARK Flexibility Score: inf
ROOT
ATOM      1  C   UNL     1      -1.698  -1.400   2.073  1.00  0.00     0.340 C 
ATOM      2  O   UNL     1      -2.904  -1.472   2.258  1.00  0.00    -0.246 OA
ENDROOT
BRANCH   1   3
ATOM      3  C   UNL     1      -1.125  -1.295   0.702  1.00  0.00     0.085 A 
ATOM      4  C   UNL     1       0.181  -1.664   0.337  1.00  0.00     0.055 A 
ATOM      5  C   UNL     1       0.556  -1.615  -1.019  1.00  0.00     0.028 A 
ATOM      6  C   UNL     1      -0.289  -1.052  -1.974  1.00  0.00     0.023 A 
ATOM      7  C   UNL     1      -1.974  -0.743  -0.277  1.00  0.00     0.038 A 
ATOM      8  C   UNL     1      -1.536  -0.580  -1.588  1.00  0.00     0.042 A 
ATOM      9  Cl  UNL     1      -2.541   0.219  -2.732  1.00  0.00    -0.084 Cl
BRANCH   4  10
ATOM     10  N   UNL     1       1.128  -2.061   1.301  1.00  0.00    -0.332 N 
ATOM     11  H   UNL     1       0.763  -2.525   2.089  1.00  0.00     0.169 HD
BRANCH  10  12
ATOM     12  C   UNL     1       2.472  -1.892   1.294  1.00  0.00     0.177 C 
ATOM     13  S   UNL     1       3.430  -2.923   2.197  1.00  0.00    -0.040 S 
BRANCH  12  14
ATOM     14  N   UNL     1       3.078  -0.839   0.658  1.00  0.00    -0.300 N 
ATOM     15  O   UNL     1       1.420   0.789   0.301  1.00  0.00    -0.271 OA
ATOM     16  C   UNL     1       2.579   0.394   0.212  1.00  0.00     0.264 C 
ATOM     17  H   UNL     1       4.038  -0.971   0.484  1.00  0.00     0.172 HD
BRANCH  16  18
ATOM     18  C   UNL     1       3.672   1.307  -0.332  1.00  0.00     0.329 C 
BRANCH  18  19
ATOM     19  O   UNL     1       4.542   1.774   0.702  1.00  0.00    -0.484 OA
BRANCH  19  20
ATOM     20  C   UNL     1       3.936   2.760   1.439  1.00  0.00     0.120 A 
ATOM     21  C   UNL     1       3.055   2.433   2.473  1.00  0.00     0.047 A 
ATOM     22  C   UNL     1       4.257   4.090   1.181  1.00  0.00     0.047 A 
ATOM     23  C   UNL     1       2.438   3.443   3.208  1.00  0.00     0.019 A 
ATOM     24  C   UNL     1       3.656   5.103   1.933  1.00  0.00     0.019 A 
ATOM     25  C   UNL     1       2.742   4.775   2.936  1.00  0.00     0.018 A 
ATOM     26  Br  UNL     1       1.918   6.145   3.944  1.00  0.00    -0.051 Br
ENDBRANCH  19  20
ENDBRANCH  18  19
ENDBRANCH  16  18
ENDBRANCH  12  14
ENDBRANCH  10  12
ENDBRANCH   4  10
ENDBRANCH   1   3
BRANCH   1  27
ATOM     27  O   UNL     1      -0.751  -1.371   3.046  1.00  0.00    -0.458 OA
BRANCH  27  28
ATOM     28  C   UNL     1      -1.237  -1.431   4.406  1.00  0.00     0.275 C 
BRANCH  28  29
ATOM     29  C   UNL     1      -1.299  -0.040   5.036  1.00  0.00     0.275 C 
BRANCH  29  30
ATOM     30  O   UNL     1      -2.247   0.761   4.313  1.00  0.00    -0.458 OA
BRANCH  30  31
ATOM     31  C   UNL     1      -1.881   2.039   4.065  1.00  0.00     0.338 C 
ATOM     32  O   UNL     1      -0.888   2.620   4.463  1.00  0.00    -0.246 OA
BRANCH  31  33
ATOM     33  C   UNL     1      -2.913   2.663   3.215  1.00  0.00     0.060 A 
ATOM     34  C   UNL     1      -3.271   2.061   2.009  1.00  0.00     0.016 A 
ATOM     35  C   UNL     1      -3.484   3.879   3.586  1.00  0.00     0.016 A 
ATOM     36  C   UNL     1      -4.179   2.682   1.154  1.00  0.00     0.010 A 
ATOM     37  C   UNL     1      -4.448   4.469   2.760  1.00  0.00     0.010 A 
ATOM     38  C   UNL     1      -4.796   3.884   1.527  1.00  0.00    -0.014 A 
BRANCH  38  39
ATOM     39  C   UNL     1      -5.780   4.540   0.621  1.00  0.00     0.031 A 
ATOM     40  C   UNL     1      -5.509   5.916   0.077  1.00  0.00     0.074 A 
ATOM     41  C   UNL     1      -6.916   3.903   0.274  1.00  0.00     0.049 A 
ATOM     42  N   UNL     1      -6.305   6.719  -0.585  1.00  0.00    -0.248 NA
ATOM     43  C   UNL     1      -4.167   6.468   0.317  1.00  0.00     0.031 C 
ATOM     44  C   UNL     1      -7.289   2.550   0.689  1.00  0.00     0.029 A 
ATOM     45  N   UNL     1      -7.967   4.307  -0.515  1.00  0.00    -0.354 N 
ATOM     46  C   UNL     1      -5.580   7.885  -0.795  1.00  0.00     0.074 A 
ATOM     47  C   UNL     1      -4.280   7.688  -0.189  1.00  0.00     0.031 C 
ATOM     48  C   UNL     1      -8.460   2.223   0.123  1.00  0.00     0.029 A 
ATOM     49  C   UNL     1      -8.966   3.370  -0.623  1.00  0.00     0.049 A 
ATOM     50  H   UNL     1      -8.000   5.184  -0.960  1.00  0.00     0.167 HD
ATOM     51  C   UNL     1      -5.965   9.016  -1.434  1.00  0.00     0.037 A 
ATOM     52  C   UNL     1     -10.172   3.437  -1.218  1.00  0.00     0.037 A 
ATOM     53  C   UNL     1      -7.239   9.190  -2.083  1.00  0.00     0.049 A 
ATOM     54  C   UNL     1     -10.592   4.716  -1.887  1.00  0.00     0.074 A 
ATOM     55  C   UNL     1      -7.712  10.291  -2.777  1.00  0.00     0.029 A 
ATOM     56  N   UNL     1      -8.240   8.231  -2.130  1.00  0.00    -0.354 N 
ATOM     57  N   UNL     1      -9.920   5.832  -2.034  1.00  0.00    -0.248 NA
ATOM     58  C   UNL     1     -11.949   4.755  -2.450  1.00  0.00     0.031 C 
ATOM     59  C   UNL     1      -9.012  10.012  -3.212  1.00  0.00     0.029 A 
ATOM     60  C   UNL     1      -9.334   8.722  -2.825  1.00  0.00     0.049 A 
ATOM     61  H   UNL     1      -8.181   7.333  -1.729  1.00  0.00     0.167 HD
ATOM     62  C   UNL     1     -10.768   6.702  -2.704  1.00  0.00     0.074 A 
ATOM     63  C   UNL     1     -11.995   5.978  -2.960  1.00  0.00     0.031 C 
ATOM     64  C   UNL     1     -10.551   7.990  -3.065  1.00  0.00     0.037 A 
BRANCH  51  65
ATOM     65  C   UNL     1      -5.011  10.174  -1.437  1.00  0.00     0.064 A 
ATOM     66  C   UNL     1      -3.854  10.182  -2.229  1.00  0.00     0.173 A 
ATOM     67  C   UNL     1      -5.286  11.314  -0.665  1.00  0.00     0.173 A 
ATOM     68  F   UNL     1      -3.540   9.113  -2.976  1.00  0.00    -0.203 F 
ATOM     69  C   UNL     1      -2.997  11.280  -2.232  1.00  0.00     0.198 A 
ATOM     70  C   UNL     1      -4.441  12.419  -0.690  1.00  0.00     0.198 A 
ATOM     71  F   UNL     1      -6.384  11.360   0.105  1.00  0.00    -0.203 F 
ATOM     72  F   UNL     1      -1.877  11.251  -2.967  1.00  0.00    -0.200 F 
ATOM     73  C   UNL     1      -3.294  12.399  -1.469  1.00  0.00     0.200 A 
ATOM     74  F   UNL     1      -4.737  13.505   0.037  1.00  0.00    -0.200 F 
ATOM     75  F   UNL     1      -2.472  13.458  -1.481  1.00  0.00    -0.200 F 
ENDBRANCH  51  65
BRANCH  52  76
ATOM     76  C   UNL     1     -11.088   2.268  -1.165  1.00  0.00     0.064 A 
ATOM     77  C   UNL     1     -11.397   1.539  -2.321  1.00  0.00     0.173 A 
ATOM     78  C   UNL     1     -11.667   1.851   0.044  1.00  0.00     0.173 A 
ATOM     79  F   UNL     1     -10.895   1.917  -3.506  1.00  0.00    -0.203 F 
ATOM     80  C   UNL     1     -12.251   0.439  -2.270  1.00  0.00     0.198 A 
ATOM     81  C   UNL     1     -12.495   0.734   0.099  1.00  0.00     0.198 A 
ATOM     82  F   UNL     1     -11.409   2.520   1.177  1.00  0.00    -0.203 F 
ATOM     83  F   UNL     1     -12.560  -0.220  -3.396  1.00  0.00    -0.200 F 
ATOM     84  C   UNL     1     -12.791   0.031  -1.059  1.00  0.00     0.200 A 
ATOM     85  F   UNL     1     -13.005   0.337   1.273  1.00  0.00    -0.200 F 
ATOM     86  F   UNL     1     -13.603  -1.034  -1.009  1.00  0.00    -0.200 F 
ENDBRANCH  52  76
BRANCH  64  87
ATOM     87  C   UNL     1     -11.664   8.693  -3.784  1.00  0.00     0.064 A 
ATOM     88  C   UNL     1     -12.814   9.122  -3.106  1.00  0.00     0.173 A 
ATOM     89  C   UNL     1     -11.566   8.965  -5.156  1.00  0.00     0.173 A 
ATOM     90  F   UNL     1     -12.960   8.869  -1.796  1.00  0.00    -0.203 F 
ATOM     91  C   UNL     1     -13.837   9.781  -3.781  1.00  0.00     0.198 A 
ATOM     92  C   UNL     1     -12.581   9.646  -5.823  1.00  0.00     0.198 A 
ATOM     93  F   UNL     1     -10.484   8.578  -5.848  1.00  0.00    -0.203 F 
ATOM     94  F   UNL     1     -14.946  10.146  -3.123  1.00  0.00    -0.200 F 
ATOM     95  C   UNL     1     -13.717  10.047  -5.138  1.00  0.00     0.200 A 
ATOM     96  F   UNL     1     -12.460   9.910  -7.132  1.00  0.00    -0.200 F 
ATOM     97  F   UNL     1     -14.702  10.684  -5.786  1.00  0.00    -0.200 F 
ENDBRANCH  64  87
ENDBRANCH  38  39
ENDBRANCH  31  33
ENDBRANCH  30  31
ENDBRANCH  29  30
ENDBRANCH  28  29
ENDBRANCH  27  28
ENDBRANCH   1  27
TORSDOF 17
