REMARK SMILES CCC1C[NH+]([C@H](CCOC)C(=O)OCCOC(=O)c2ccc(-c3c4nc(c(-c5c(F)c(F)c(F)c(F)c5F)c5ccc([nH]5)c(-c5c(F)c(F)c(F)c(F)c5F)c5nc(c(-c6c(F)c(F)c(F)c(F)c6F)c6ccc3[nH]6)C=C5)C=C4)cc2)C1
REMARK SMILES IDX 14 1 13 2 11 3 12 4 6 5 5 6 3 7 4 8 82 9 2 11 1 12 7 13 8 14
REMARK SMILES IDX 9 15 10 16 15 17 16 18 17 19 18 20 19 21 20 22 81 23 21 24
REMARK SMILES IDX 80 25 22 26 23 27 24 28 74 29 25 30 79 31 73 32 75 33 26 34
REMARK SMILES IDX 78 35 72 36 71 37 27 39 59 40 39 41 58 42 40 43 43 44 57 45
REMARK SMILES IDX 76 46 41 47 42 48 56 50 77 51 44 52 28 53 29 54 37 55 30 56
REMARK SMILES IDX 31 57 35 58 38 59 32 60 33 61 36 62 34 63 60 64 61 65 69 66
REMARK SMILES IDX 62 67 63 68 67 69 70 70 64 71 65 72 68 73 66 74 45 75 46 76
REMARK SMILES IDX 54 77 47 78 48 79 52 80 55 81 49 82 50 83 53 84 51 85
REMARK H PARENT 5 10 75 38 43 49
REMARK Flexibility Score: inf
ROOT
ATOM      1  C   UNL     1       3.777   5.841  -0.676  1.00  0.00     0.274 C 
ENDROOT
BRANCH   1   2
ATOM      2  O   UNL     1       3.101   4.861   0.138  1.00  0.00    -0.458 OA
BRANCH   2   3
ATOM      3  C   UNL     1       3.206   4.992   1.485  1.00  0.00     0.365 C 
ATOM      4  O   UNL     1       3.876   5.861   2.035  1.00  0.00    -0.245 OA
BRANCH   3   5
ATOM      5  C   UNL     1       2.418   3.913   2.262  1.00  0.00     0.297 C 
BRANCH   5   6
ATOM      6  N   UNL     1       3.342   2.807   2.584  1.00  0.00    -0.322 N 
ATOM      7  C   UNL     1       3.578   0.727   2.539  1.00  0.00     0.099 C 
ATOM      8  C   UNL     1       3.603   1.869   1.494  1.00  0.00     0.272 C 
ATOM      9  C   UNL     1       2.764   1.727   3.402  1.00  0.00     0.272 C 
ATOM     10  H   UNL     1       4.104   3.375   2.954  1.00  0.00     0.348 HD
BRANCH   7  11
ATOM     11  C   UNL     1       2.865  -0.553   2.130  1.00  0.00     0.012 C 
ATOM     12  C   UNL     1       3.570  -1.198   0.948  1.00  0.00     0.004 C 
ENDBRANCH   7  11
ENDBRANCH   5   6
BRANCH   5  13
ATOM     13  C   UNL     1       0.934   3.725   1.832  1.00  0.00     0.106 C 
BRANCH  13  14
ATOM     14  C   UNL     1       0.518   3.623   0.365  1.00  0.00     0.166 C 
BRANCH  14  15
ATOM     15  O   UNL     1       0.929   2.413  -0.253  1.00  0.00    -0.384 OA
ATOM     16  C   UNL     1       1.547   2.628  -1.518  1.00  0.00     0.194 C 
ENDBRANCH  14  15
ENDBRANCH  13  14
ENDBRANCH   5  13
ENDBRANCH   3   5
ENDBRANCH   2   3
ENDBRANCH   1   2
BRANCH   1  17
ATOM     17  C   UNL     1       2.833   6.967  -1.109  1.00  0.00     0.275 C 
BRANCH  17  18
ATOM     18  O   UNL     1       2.563   7.864  -0.017  1.00  0.00    -0.458 OA
BRANCH  18  19
ATOM     19  C   UNL     1       1.440   7.610   0.686  1.00  0.00     0.338 C 
ATOM     20  O   UNL     1       0.577   6.777   0.442  1.00  0.00    -0.246 OA
BRANCH  19  21
ATOM     21  C   UNL     1       1.459   8.379   1.932  1.00  0.00     0.060 A 
ATOM     22  C   UNL     1       1.447   7.668   3.136  1.00  0.00     0.016 A 
ATOM     23  C   UNL     1       1.443   9.773   1.921  1.00  0.00     0.016 A 
ATOM     24  C   UNL     1       1.432   8.348   4.345  1.00  0.00     0.010 A 
ATOM     25  C   UNL     1       1.416  10.458   3.136  1.00  0.00     0.010 A 
ATOM     26  C   UNL     1       1.406   9.746   4.348  1.00  0.00    -0.014 A 
BRANCH  26  27
ATOM     27  C   UNL     1       1.313  10.459   5.636  1.00  0.00     0.031 A 
ATOM     28  C   UNL     1      -0.012  10.994   6.083  1.00  0.00     0.074 A 
ATOM     29  C   UNL     1       2.413  10.591   6.396  1.00  0.00     0.049 A 
ATOM     30  N   UNL     1      -0.305  11.699   7.144  1.00  0.00    -0.248 NA
ATOM     31  C   UNL     1      -1.163  10.695   5.217  1.00  0.00     0.031 C 
ATOM     32  C   UNL     1       3.734  10.057   6.064  1.00  0.00     0.029 A 
ATOM     33  N   UNL     1       2.594  11.216   7.601  1.00  0.00    -0.354 N 
ATOM     34  C   UNL     1      -1.669  11.941   7.068  1.00  0.00     0.074 A 
ATOM     35  C   UNL     1      -2.144  11.324   5.848  1.00  0.00     0.031 C 
ATOM     36  C   UNL     1       4.594  10.385   7.041  1.00  0.00     0.029 A 
ATOM     37  C   UNL     1       3.892  11.180   8.044  1.00  0.00     0.049 A 
ATOM     38  H   UNL     1       1.864  11.648   8.101  1.00  0.00     0.167 HD
ATOM     39  C   UNL     1      -2.447  12.619   7.943  1.00  0.00     0.037 A 
ATOM     40  C   UNL     1       4.448  11.749   9.129  1.00  0.00     0.037 A 
ATOM     41  C   UNL     1      -1.952  13.227   9.150  1.00  0.00     0.049 A 
ATOM     42  C   UNL     1       3.568  12.536  10.062  1.00  0.00     0.074 A 
ATOM     43  C   UNL     1      -2.645  13.949  10.105  1.00  0.00     0.029 A 
ATOM     44  N   UNL     1      -0.627  13.183   9.566  1.00  0.00    -0.354 N 
ATOM     45  N   UNL     1       2.279  12.769   9.983  1.00  0.00    -0.248 NA
ATOM     46  C   UNL     1       4.217  13.134  11.234  1.00  0.00     0.031 C 
ATOM     47  C   UNL     1      -1.733  14.374  11.078  1.00  0.00     0.029 A 
ATOM     48  C   UNL     1      -0.480  13.875  10.757  1.00  0.00     0.049 A 
ATOM     49  H   UNL     1       0.101  12.726   9.085  1.00  0.00     0.167 HD
ATOM     50  C   UNL     1       1.957  13.517  11.107  1.00  0.00     0.074 A 
ATOM     51  C   UNL     1       3.185  13.687  11.857  1.00  0.00     0.031 C 
ATOM     52  C   UNL     1       0.755  14.018  11.485  1.00  0.00     0.037 A 
BRANCH  39  53
ATOM     53  C   UNL     1      -3.901  12.767   7.604  1.00  0.00     0.064 A 
ATOM     54  C   UNL     1      -4.789  11.682   7.669  1.00  0.00     0.173 A 
ATOM     55  C   UNL     1      -4.416  14.013   7.219  1.00  0.00     0.173 A 
ATOM     56  F   UNL     1      -4.343  10.464   8.013  1.00  0.00    -0.203 F 
ATOM     57  C   UNL     1      -6.133  11.836   7.337  1.00  0.00     0.198 A 
ATOM     58  C   UNL     1      -5.765  14.169   6.913  1.00  0.00     0.198 A 
ATOM     59  F   UNL     1      -3.609  15.083   7.139  1.00  0.00    -0.203 F 
ATOM     60  F   UNL     1      -6.953  10.776   7.360  1.00  0.00    -0.200 F 
ATOM     61  C   UNL     1      -6.621  13.080   6.966  1.00  0.00     0.200 A 
ATOM     62  F   UNL     1      -6.236  15.374   6.562  1.00  0.00    -0.200 F 
ATOM     63  F   UNL     1      -7.915  13.226   6.649  1.00  0.00    -0.200 F 
ENDBRANCH  39  53
BRANCH  40  64
ATOM     64  C   UNL     1       5.903  11.594   9.383  1.00  0.00     0.064 A 
ATOM     65  C   UNL     1       6.372  10.829  10.459  1.00  0.00     0.173 A 
ATOM     66  C   UNL     1       6.855  12.204   8.552  1.00  0.00     0.173 A 
ATOM     67  F   UNL     1       5.500  10.245  11.295  1.00  0.00    -0.203 F 
ATOM     68  C   UNL     1       7.737  10.691  10.703  1.00  0.00     0.198 A 
ATOM     69  C   UNL     1       8.219  12.042   8.780  1.00  0.00     0.198 A 
ATOM     70  F   UNL     1       6.458  12.947   7.508  1.00  0.00    -0.203 F 
ATOM     71  F   UNL     1       8.158   9.988  11.763  1.00  0.00    -0.200 F 
ATOM     72  C   UNL     1       8.659  11.292   9.860  1.00  0.00     0.200 A 
ATOM     73  F   UNL     1       9.107  12.615   7.956  1.00  0.00    -0.200 F 
ATOM     74  F   UNL     1       9.972  11.155  10.092  1.00  0.00    -0.200 F 
ENDBRANCH  40  64
BRANCH  52  75
ATOM     75  C   UNL     1       0.709  14.757  12.790  1.00  0.00     0.064 A 
ATOM     76  C   UNL     1       1.262  16.037  12.931  1.00  0.00     0.173 A 
ATOM     77  C   UNL     1       0.077  14.184  13.904  1.00  0.00     0.173 A 
ATOM     78  F   UNL     1       1.890  16.619  11.898  1.00  0.00    -0.203 F 
ATOM     79  C   UNL     1       1.210  16.706  14.151  1.00  0.00     0.198 A 
ATOM     80  C   UNL     1       0.002  14.867  15.113  1.00  0.00     0.198 A 
ATOM     81  F   UNL     1      -0.474  12.963  13.816  1.00  0.00    -0.203 F 
ATOM     82  F   UNL     1       1.790  17.907  14.279  1.00  0.00    -0.200 F 
ATOM     83  C   UNL     1       0.576  16.123  15.238  1.00  0.00     0.200 A 
ATOM     84  F   UNL     1      -0.623  14.308  16.159  1.00  0.00    -0.200 F 
ATOM     85  F   UNL     1       0.525  16.770  16.411  1.00  0.00    -0.200 F 
ENDBRANCH  52  75
ENDBRANCH  26  27
ENDBRANCH  19  21
ENDBRANCH  18  19
ENDBRANCH  17  18
ENDBRANCH   1  17
TORSDOF 16
