REMARK SMILES O=C(NC1CCCCCC1)N[C@@H]1C=C[C@H](C(=O)OCCOC(=O)c2ccc(-c3c4nc(c(-c5c(F)c(F)c(F)c(F)c5F)c5ccc([nH]5)c(-c5c(F)c(F)c(F)c(F)c5F)c5nc(c(-c6c(F)c(F)c(F)c(F)c6F)c6ccc3[nH]6)C=C5)C=C4)cc2)C1
REMARK SMILES IDX 18 1 16 2 17 3 15 4 12 5 13 6 87 7 14 8 11 9 1 10 2 11 3 12
REMARK SMILES IDX 4 15 5 16 6 17 7 18 10 20 9 21 8 22 19 24 20 25 21 26 22 27
REMARK SMILES IDX 23 28 24 29 25 30 86 31 26 32 85 33 27 34 28 35 29 36 79 37
REMARK SMILES IDX 30 38 84 39 78 40 80 41 31 42 83 43 77 44 76 45 32 47 64 48
REMARK SMILES IDX 44 49 63 50 45 51 48 52 62 53 81 54 46 55 47 56 61 58 82 59
REMARK SMILES IDX 49 60 33 61 34 62 42 63 35 64 36 65 40 66 43 67 37 68 38 69
REMARK SMILES IDX 41 70 39 71 65 72 66 73 74 74 67 75 68 76 72 77 75 78 69 79
REMARK SMILES IDX 70 80 73 81 71 82 50 83 51 84 59 85 52 86 53 87 57 88 60 89
REMARK SMILES IDX 54 90 55 91 58 92 56 93
REMARK H PARENT 3 13 11 14 80 46 48 57
REMARK Flexibility Score: 90.00
ROOT
ATOM      1  O   UNL     1       1.208   4.380   4.258  1.00  0.00    -0.462 OA
ENDROOT
BRANCH   1   2
ATOM      2  C   UNL     1       2.271   3.610   4.607  1.00  0.00     0.312 C 
ATOM      3  O   UNL     1       2.602   3.379   5.766  1.00  0.00    -0.252 OA
BRANCH   2   4
ATOM      4  C   UNL     1       3.068   3.115   3.400  1.00  0.00     0.124 C 
ATOM      5  C   UNL     1       2.206   1.518   1.713  1.00  0.00     0.107 C 
ATOM      6  C   UNL     1       3.000   0.838   2.772  1.00  0.00    -0.006 C 
ATOM      7  C   UNL     1       2.318   3.011   2.061  1.00  0.00     0.048 C 
ATOM      8  C   UNL     1       3.514   1.702   3.652  1.00  0.00    -0.014 C 
BRANCH   5   9
ATOM      9  N   UNL     1       0.849   1.037   1.734  1.00  0.00    -0.332 N 
ATOM     10  O   UNL     1       0.498   1.564  -0.454  1.00  0.00    -0.249 OA
ATOM     11  C   UNL     1       0.099   1.081   0.603  1.00  0.00     0.315 C 
ATOM     12  N   UNL     1      -1.140   0.543   0.650  1.00  0.00    -0.335 N 
ATOM     13  H   UNL     1      -1.682   0.703  -0.157  1.00  0.00     0.165 HD
ATOM     14  H   UNL     1       0.467   0.677   2.567  1.00  0.00     0.165 HD
BRANCH  12  15
ATOM     15  C   UNL     1      -1.819  -0.235   1.686  1.00  0.00     0.083 C 
BRANCH  15  16
ATOM     16  C   UNL     1      -3.219   0.346   1.928  1.00  0.00     0.025 C 
BRANCH  16  17
ATOM     17  C   UNL     1      -4.299  -0.140   0.962  1.00  0.00     0.002 C 
BRANCH  17  18
ATOM     18  C   UNL     1      -4.970  -1.431   1.430  1.00  0.00     0.000 CG0
ATOM     19  G   UNL     1      -4.110  -2.687   1.335  1.00  0.00     0.000 G0
ENDBRANCH  17  18
ENDBRANCH  16  17
ENDBRANCH  15  16
BRANCH  15  20
ATOM     20  C   UNL     1      -1.759  -1.722   1.310  1.00  0.00     0.025 C 
BRANCH  20  21
ATOM     21  C   UNL     1      -2.758  -2.613   2.044  1.00  0.00     0.002 C 
BRANCH  21  22
ATOM     22  C   UNL     1      -4.110  -2.687   1.335  1.00  0.00     0.000 CG0
ATOM     23  G   UNL     1      -4.970  -1.431   1.430  1.00  0.00     0.000 G0
ENDBRANCH  21  22
ENDBRANCH  20  21
ENDBRANCH  15  20
ENDBRANCH  12  15
ENDBRANCH   5   9
ENDBRANCH   2   4
ENDBRANCH   1   2
BRANCH   1  24
ATOM     24  C   UNL     1       0.424   4.910   5.344  1.00  0.00     0.274 C 
BRANCH  24  25
ATOM     25  C   UNL     1      -0.808   4.047   5.611  1.00  0.00     0.275 C 
BRANCH  25  26
ATOM     26  O   UNL     1      -0.426   2.756   6.123  1.00  0.00    -0.458 OA
BRANCH  26  27
ATOM     27  C   UNL     1      -0.676   1.708   5.310  1.00  0.00     0.338 C 
ATOM     28  O   UNL     1      -1.191   1.726   4.205  1.00  0.00    -0.246 OA
BRANCH  27  29
ATOM     29  C   UNL     1      -0.205   0.461   5.926  1.00  0.00     0.060 A 
ATOM     30  C   UNL     1       1.163   0.210   5.987  1.00  0.00     0.016 A 
ATOM     31  C   UNL     1      -1.122  -0.520   6.309  1.00  0.00     0.016 A 
ATOM     32  C   UNL     1       1.625  -1.041   6.389  1.00  0.00     0.010 A 
ATOM     33  C   UNL     1      -0.655  -1.754   6.775  1.00  0.00     0.010 A 
ATOM     34  C   UNL     1       0.722  -2.033   6.799  1.00  0.00    -0.014 A 
BRANCH  34  35
ATOM     35  C   UNL     1       1.228  -3.361   7.235  1.00  0.00     0.031 A 
ATOM     36  C   UNL     1       0.937  -4.592   6.424  1.00  0.00     0.074 A 
ATOM     37  C   UNL     1       1.981  -3.459   8.347  1.00  0.00     0.049 A 
ATOM     38  N   UNL     1       1.197  -5.846   6.703  1.00  0.00    -0.248 NA
ATOM     39  C   UNL     1       0.264  -4.392   5.131  1.00  0.00     0.031 C 
ATOM     40  C   UNL     1       2.371  -2.341   9.206  1.00  0.00     0.029 A 
ATOM     41  N   UNL     1       2.569  -4.551   8.936  1.00  0.00    -0.354 N 
ATOM     42  C   UNL     1       0.683  -6.584   5.646  1.00  0.00     0.074 A 
ATOM     43  C   UNL     1       0.104  -5.641   4.712  1.00  0.00     0.031 C 
ATOM     44  C   UNL     1       3.167  -2.796  10.186  1.00  0.00     0.029 A 
ATOM     45  C   UNL     1       3.297  -4.245  10.059  1.00  0.00     0.049 A 
ATOM     46  H   UNL     1       2.477  -5.467   8.586  1.00  0.00     0.167 HD
ATOM     47  C   UNL     1       0.688  -7.928   5.476  1.00  0.00     0.037 A 
ATOM     48  C   UNL     1       3.978  -5.042  10.902  1.00  0.00     0.037 A 
ATOM     49  C   UNL     1       1.297  -8.868   6.380  1.00  0.00     0.049 A 
ATOM     50  C   UNL     1       3.984  -6.526  10.679  1.00  0.00     0.074 A 
ATOM     51  C   UNL     1       1.316 -10.251   6.308  1.00  0.00     0.029 A 
ATOM     52  N   UNL     1       2.019  -8.517   7.509  1.00  0.00    -0.354 N 
ATOM     53  N   UNL     1       3.415  -7.218   9.724  1.00  0.00    -0.248 NA
ATOM     54  C   UNL     1       4.707  -7.341  11.666  1.00  0.00     0.031 C 
ATOM     55  C   UNL     1       2.047 -10.737   7.398  1.00  0.00     0.029 A 
ATOM     56  C   UNL     1       2.497  -9.656   8.137  1.00  0.00     0.049 A 
ATOM     57  H   UNL     1       2.171  -7.595   7.819  1.00  0.00     0.167 HD
ATOM     58  C   UNL     1       3.701  -8.548   9.998  1.00  0.00     0.074 A 
ATOM     59  C   UNL     1       4.518  -8.566  11.193  1.00  0.00     0.031 C 
ATOM     60  C   UNL     1       3.305  -9.655   9.326  1.00  0.00     0.037 A 
BRANCH  47  61
ATOM     61  C   UNL     1      -0.014  -8.472   4.272  1.00  0.00     0.064 A 
ATOM     62  C   UNL     1       0.594  -8.477   3.010  1.00  0.00     0.173 A 
ATOM     63  C   UNL     1      -1.291  -9.038   4.394  1.00  0.00     0.173 A 
ATOM     64  F   UNL     1       1.809  -7.933   2.844  1.00  0.00    -0.203 F 
ATOM     65  C   UNL     1      -0.057  -9.025   1.908  1.00  0.00     0.198 A 
ATOM     66  C   UNL     1      -1.933  -9.597   3.294  1.00  0.00     0.198 A 
ATOM     67  F   UNL     1      -1.911  -9.054   5.584  1.00  0.00    -0.203 F 
ATOM     68  F   UNL     1       0.530  -9.002   0.704  1.00  0.00    -0.200 F 
ATOM     69  C   UNL     1      -1.317  -9.589   2.052  1.00  0.00     0.200 A 
ATOM     70  F   UNL     1      -3.149 -10.145   3.435  1.00  0.00    -0.200 F 
ATOM     71  F   UNL     1      -1.940 -10.121   0.991  1.00  0.00    -0.200 F 
ENDBRANCH  47  61
BRANCH  48  72
ATOM     72  C   UNL     1       4.702  -4.447  12.051  1.00  0.00     0.064 A 
ATOM     73  C   UNL     1       6.099  -4.347  12.043  1.00  0.00     0.173 A 
ATOM     74  C   UNL     1       4.013  -3.959  13.169  1.00  0.00     0.173 A 
ATOM     75  F   UNL     1       6.798  -4.824  11.003  1.00  0.00    -0.203 F 
ATOM     76  C   UNL     1       6.783  -3.784  13.117  1.00  0.00     0.198 A 
ATOM     77  C   UNL     1       4.697  -3.379  14.235  1.00  0.00     0.198 A 
ATOM     78  F   UNL     1       2.675  -4.037  13.220  1.00  0.00    -0.203 F 
ATOM     79  F   UNL     1       8.121  -3.725  13.100  1.00  0.00    -0.200 F 
ATOM     80  C   UNL     1       6.081  -3.295  14.210  1.00  0.00     0.200 A 
ATOM     81  F   UNL     1       4.015  -2.902  15.286  1.00  0.00    -0.200 F 
ATOM     82  F   UNL     1       6.739  -2.749  15.241  1.00  0.00    -0.200 F 
ENDBRANCH  48  72
BRANCH  60  83
ATOM     83  C   UNL     1       3.749 -10.974   9.874  1.00  0.00     0.064 A 
ATOM     84  C   UNL     1       3.084 -11.566  10.957  1.00  0.00     0.173 A 
ATOM     85  C   UNL     1       4.825 -11.663   9.299  1.00  0.00     0.173 A 
ATOM     86  F   UNL     1       2.059 -10.932  11.547  1.00  0.00    -0.203 F 
ATOM     87  C   UNL     1       3.491 -12.800  11.455  1.00  0.00     0.198 A 
ATOM     88  C   UNL     1       5.221 -12.903   9.792  1.00  0.00     0.198 A 
ATOM     89  F   UNL     1       5.490 -11.133   8.262  1.00  0.00    -0.203 F 
ATOM     90  F   UNL     1       2.860 -13.337  12.508  1.00  0.00    -0.200 F 
ATOM     91  C   UNL     1       4.556 -13.469  10.870  1.00  0.00     0.200 A 
ATOM     92  F   UNL     1       6.251 -13.549   9.227  1.00  0.00    -0.200 F 
ATOM     93  F   UNL     1       4.949 -14.656  11.353  1.00  0.00    -0.200 F 
ENDBRANCH  60  83
ENDBRANCH  34  35
ENDBRANCH  27  29
ENDBRANCH  26  27
ENDBRANCH  25  26
ENDBRANCH  24  25
ENDBRANCH   1  24
TORSDOF 13
