REMARK SMILES CC1(C)CCN(c2ncccc2C(=O)OCCOC(=O)c2ccc(-c3c4nc(c(-c5c(F)c(F)c(F)c(F)c5F)c5ccc([nH]5)c(-c5c(F)c(F)c(F)c(F)c5F)c5nc(c(-c6c(F)c(F)c(F)c(F)c6F)c6ccc3[nH]6)C=C5)C=C4)cc2)C1
REMARK SMILES IDX 17 1 16 2 15 3 13 4 14 5 12 6 7 7 8 8 9 9 11 10 10 11 6 12
REMARK SMILES IDX 1 13 2 14 3 15 4 16 84 17 5 18 18 19 19 20 20 21 21 22 22 23
REMARK SMILES IDX 83 24 23 25 82 26 24 27 25 28 26 29 76 30 27 31 81 32 75 33
REMARK SMILES IDX 77 34 28 35 80 36 74 37 73 38 29 40 61 41 41 42 60 43 42 44
REMARK SMILES IDX 45 45 59 46 78 47 43 48 44 49 58 51 79 52 46 53 30 54 31 55
REMARK SMILES IDX 39 56 32 57 33 58 37 59 40 60 34 61 35 62 38 63 36 64 62 65
REMARK SMILES IDX 63 66 71 67 64 68 65 69 69 70 72 71 66 72 67 73 70 74 68 75
REMARK SMILES IDX 47 76 48 77 56 78 49 79 50 80 54 81 57 82 51 83 52 84 55 85
REMARK SMILES IDX 53 86
REMARK H PARENT 77 39 45 50
REMARK Flexibility Score: inf
ROOT
ATOM      1  C   UNL     1       1.289   4.118   4.056  1.00  0.00     0.275 C 
ENDROOT
BRANCH   1   2
ATOM      2  C   UNL     1       2.747   3.718   3.822  1.00  0.00     0.275 C 
BRANCH   2   3
ATOM      3  O   UNL     1       3.048   3.598   2.404  1.00  0.00    -0.458 OA
BRANCH   3   4
ATOM      4  C   UNL     1       3.501   2.387   1.960  1.00  0.00     0.342 C 
ATOM      5  O   UNL     1       3.664   1.399   2.658  1.00  0.00    -0.246 OA
BRANCH   4   6
ATOM      6  C   UNL     1       3.826   2.425   0.509  1.00  0.00     0.102 A 
ATOM      7  C   UNL     1       3.419   1.473  -0.459  1.00  0.00     0.143 A 
ATOM      8  N   UNL     1       3.881   1.559  -1.734  1.00  0.00    -0.238 NA
ATOM      9  C   UNL     1       4.707   2.570  -2.073  1.00  0.00     0.113 A 
ATOM     10  C   UNL     1       4.662   3.479   0.112  1.00  0.00     0.021 A 
ATOM     11  C   UNL     1       5.105   3.559  -1.199  1.00  0.00     0.021 A 
BRANCH   7  12
ATOM     12  N   UNL     1       2.309   0.646  -0.361  1.00  0.00    -0.355 N 
ATOM     13  C   UNL     1      -1.139   1.366  -1.299  1.00  0.00     0.013 C 
ATOM     14  C   UNL     1      -0.757   0.640   0.487  1.00  0.00    -0.016 C 
ATOM     15  C   UNL     1      -1.601   0.038   2.101  1.00  0.00     0.013 C 
ATOM     16  C   UNL     1       0.369  -0.996   1.335  1.00  0.00     0.030 C 
ATOM     17  C   UNL     1       0.820   1.659  -0.499  1.00  0.00     0.124 C 
ATOM     18  C   UNL     1       2.191  -0.801   0.637  1.00  0.00     0.119 C 
ENDBRANCH   7  12
ENDBRANCH   4   6
ENDBRANCH   3   4
ENDBRANCH   2   3
ENDBRANCH   1   2
BRANCH   1  19
ATOM     19  O   UNL     1       0.455   3.084   3.529  1.00  0.00    -0.458 OA
BRANCH  19  20
ATOM     20  C   UNL     1       0.048   3.344   2.278  1.00  0.00     0.338 C 
ATOM     21  O   UNL     1       0.113   4.378   1.637  1.00  0.00    -0.246 OA
BRANCH  20  22
ATOM     22  C   UNL     1      -0.413   2.116   1.676  1.00  0.00     0.060 A 
ATOM     23  C   UNL     1       0.798   0.837   1.153  1.00  0.00     0.016 A 
ATOM     24  C   UNL     1      -2.091   2.051   1.060  1.00  0.00     0.016 A 
ATOM     25  C   UNL     1       0.242  -0.402  -0.406  1.00  0.00     0.010 A 
ATOM     26  C   UNL     1      -2.722   0.617   0.145  1.00  0.00     0.010 A 
ATOM     27  C   UNL     1      -1.622  -0.667  -0.586  1.00  0.00    -0.014 A 
BRANCH  27  28
ATOM     28  C   UNL     1      -2.452  -1.717  -1.264  1.00  0.00     0.031 A 
ATOM     29  C   UNL     1      -3.571  -1.325  -2.241  1.00  0.00     0.074 A 
ATOM     30  C   UNL     1      -2.402  -2.980  -0.788  1.00  0.00     0.049 A 
ATOM     31  N   UNL     1      -4.390  -2.109  -2.903  1.00  0.00    -0.248 NA
ATOM     32  C   UNL     1      -3.884   0.100  -2.492  1.00  0.00     0.031 C 
ATOM     33  C   UNL     1      -1.680  -3.384   0.406  1.00  0.00     0.029 A 
ATOM     34  N   UNL     1      -2.970  -4.163  -1.179  1.00  0.00    -0.354 N 
ATOM     35  C   UNL     1      -5.191  -1.268  -3.675  1.00  0.00     0.074 A 
ATOM     36  C   UNL     1      -4.859   0.080  -3.370  1.00  0.00     0.031 C 
ATOM     37  C   UNL     1      -1.608  -4.711   0.516  1.00  0.00     0.029 A 
ATOM     38  C   UNL     1      -2.524  -5.256  -0.456  1.00  0.00     0.049 A 
ATOM     39  H   UNL     1      -3.631  -4.230  -1.906  1.00  0.00     0.167 HD
ATOM     40  C   UNL     1      -6.151  -1.576  -4.569  1.00  0.00     0.037 A 
ATOM     41  C   UNL     1      -2.891  -6.547  -0.497  1.00  0.00     0.037 A 
ATOM     42  C   UNL     1      -6.614  -2.912  -4.722  1.00  0.00     0.049 A 
ATOM     43  C   UNL     1      -4.008  -6.857  -1.442  1.00  0.00     0.074 A 
ATOM     44  C   UNL     1      -7.614  -3.393  -5.533  1.00  0.00     0.029 A 
ATOM     45  N   UNL     1      -6.114  -3.976  -3.982  1.00  0.00    -0.354 N 
ATOM     46  N   UNL     1      -4.663  -6.036  -2.229  1.00  0.00    -0.248 NA
ATOM     47  C   UNL     1      -4.466  -8.245  -1.491  1.00  0.00     0.031 C 
ATOM     48  C   UNL     1      -7.760  -4.749  -5.243  1.00  0.00     0.029 A 
ATOM     49  C   UNL     1      -6.788  -5.125  -4.322  1.00  0.00     0.049 A 
ATOM     50  H   UNL     1      -5.391  -3.917  -3.317  1.00  0.00     0.167 HD
ATOM     51  C   UNL     1      -5.583  -6.811  -2.903  1.00  0.00     0.074 A 
ATOM     52  C   UNL     1      -5.392  -8.172  -2.435  1.00  0.00     0.031 C 
ATOM     53  C   UNL     1      -6.503  -6.445  -3.825  1.00  0.00     0.037 A 
BRANCH  40  54
ATOM     54  C   UNL     1      -6.736  -0.446  -5.370  1.00  0.00     0.064 A 
ATOM     55  C   UNL     1      -5.941   0.278  -6.280  1.00  0.00     0.173 A 
ATOM     56  C   UNL     1      -8.062  -0.030  -5.193  1.00  0.00     0.173 A 
ATOM     57  F   UNL     1      -4.647  -0.038  -6.445  1.00  0.00    -0.203 F 
ATOM     58  C   UNL     1      -6.448   1.378  -6.966  1.00  0.00     0.198 A 
ATOM     59  C   UNL     1      -8.576   1.050  -5.909  1.00  0.00     0.198 A 
ATOM     60  F   UNL     1      -8.852  -0.648  -4.303  1.00  0.00    -0.203 F 
ATOM     61  F   UNL     1      -5.648   2.091  -7.771  1.00  0.00    -0.200 F 
ATOM     62  C   UNL     1      -7.769   1.755  -6.790  1.00  0.00     0.200 A 
ATOM     63  F   UNL     1      -9.851   1.423  -5.731  1.00  0.00    -0.200 F 
ATOM     64  F   UNL     1      -8.259   2.811  -7.454  1.00  0.00    -0.200 F 
ENDBRANCH  40  54
BRANCH  41  65
ATOM     65  C   UNL     1      -2.263  -7.586   0.374  1.00  0.00     0.064 A 
ATOM     66  C   UNL     1      -1.590  -8.680  -0.194  1.00  0.00     0.173 A 
ATOM     67  C   UNL     1      -2.327  -7.539   1.777  1.00  0.00     0.173 A 
ATOM     68  F   UNL     1      -1.486  -8.781  -1.527  1.00  0.00    -0.203 F 
ATOM     69  C   UNL     1      -1.065  -9.703   0.597  1.00  0.00     0.198 A 
ATOM     70  C   UNL     1      -1.752  -8.534   2.569  1.00  0.00     0.198 A 
ATOM     71  F   UNL     1      -2.939  -6.516   2.393  1.00  0.00    -0.203 F 
ATOM     72  F   UNL     1      -0.507 -10.774   0.016  1.00  0.00    -0.200 F 
ATOM     73  C   UNL     1      -1.144  -9.628   1.978  1.00  0.00     0.200 A 
ATOM     74  F   UNL     1      -1.798  -8.435   3.905  1.00  0.00    -0.200 F 
ATOM     75  F   UNL     1      -0.649 -10.616   2.736  1.00  0.00    -0.200 F 
ENDBRANCH  41  65
BRANCH  53  76
ATOM     76  C   UNL     1      -7.276  -7.550  -4.453  1.00  0.00     0.064 A 
ATOM     77  C   UNL     1      -8.263  -8.250  -3.754  1.00  0.00     0.173 A 
ATOM     78  C   UNL     1      -7.066  -7.839  -5.809  1.00  0.00     0.173 A 
ATOM     79  F   UNL     1      -8.478  -8.003  -2.453  1.00  0.00    -0.203 F 
ATOM     80  C   UNL     1      -9.000  -9.237  -4.390  1.00  0.00     0.198 A 
ATOM     81  C   UNL     1      -7.844  -8.784  -6.454  1.00  0.00     0.198 A 
ATOM     82  F   UNL     1      -6.136  -7.171  -6.509  1.00  0.00    -0.203 F 
ATOM     83  F   UNL     1      -9.899  -9.947  -3.696  1.00  0.00    -0.200 F 
ATOM     84  C   UNL     1      -8.802  -9.490  -5.742  1.00  0.00     0.200 A 
ATOM     85  F   UNL     1      -7.677  -9.001  -7.765  1.00  0.00    -0.200 F 
ATOM     86  F   UNL     1      -9.538 -10.422  -6.360  1.00  0.00    -0.200 F 
ENDBRANCH  53  76
ENDBRANCH  27  28
ENDBRANCH  20  22
ENDBRANCH  19  20
ENDBRANCH   1  19
TORSDOF 12
