REMARK SMILES CC(C)C[C@@H]([NH2+][C@H]1CCOC2(CCOCC2)C1)C(=O)OCCOC(=O)c1ccc(-c2c3nc(c(-c4c(F)c(F)c(F)c(F)c4F)c4ccc([nH]4)c(-c4c(F)c(F)c(F)c(F)c4F)c4nc(c(-c5c(F)c(F)c(F)c(F)c5F)c5ccc2[nH]5)C=C4)C=C3)cc1
REMARK SMILES IDX 21 1 20 2 18 3 19 4 5 5 4 6 2 7 1 8 3 9 6 10 7 13 8 14 17 15
REMARK SMILES IDX 9 16 11 17 10 18 12 19 16 20 13 21 15 22 14 23 22 24 23 25
REMARK SMILES IDX 24 26 25 27 26 28 27 29 88 30 28 31 87 32 29 33 30 34 31 35
REMARK SMILES IDX 81 36 32 37 86 38 80 39 82 40 33 41 85 42 79 43 78 44 34 46
REMARK SMILES IDX 66 47 46 48 65 49 47 50 50 51 64 52 83 53 48 54 49 55 63 57
REMARK SMILES IDX 84 58 51 59 35 60 36 61 44 62 37 63 38 64 42 65 45 66 39 67
REMARK SMILES IDX 40 68 43 69 41 70 67 71 68 72 76 73 69 74 70 75 74 76 77 77
REMARK SMILES IDX 71 78 72 79 75 80 73 81 52 82 53 83 61 84 54 85 55 86 59 87
REMARK SMILES IDX 62 88 56 89 57 90 60 91 58 92
REMARK H PARENT 6 11 6 12 82 45 50 56
REMARK Flexibility Score: inf
ROOT
ATOM      1  C   UNL     1      -2.493  -2.113   0.296  1.00  0.00     0.274 C 
ENDROOT
BRANCH   1   2
ATOM      2  O   UNL     1      -3.214  -1.227   1.174  1.00  0.00    -0.458 OA
BRANCH   2   3
ATOM      3  C   UNL     1      -2.574  -0.067   1.475  1.00  0.00     0.364 C 
ATOM      4  O   UNL     1      -1.465   0.238   1.038  1.00  0.00    -0.245 OA
BRANCH   3   5
ATOM      5  C   UNL     1      -3.365   0.864   2.422  1.00  0.00     0.293 C 
BRANCH   5   6
ATOM      6  C   UNL     1      -4.889   0.656   2.365  1.00  0.00     0.080 C 
BRANCH   6   7
ATOM      7  C   UNL     1      -5.737   1.797   2.980  1.00  0.00    -0.011 C 
ATOM      8  C   UNL     1      -5.404   3.177   2.403  1.00  0.00     0.007 C 
ATOM      9  C   UNL     1      -7.226   1.510   2.760  1.00  0.00     0.007 C 
ENDBRANCH   6   7
ENDBRANCH   5   6
BRANCH   5  10
ATOM     10  N   UNL     1      -2.833   0.827   3.811  1.00  0.00    -0.332 N 
ATOM     11  H   UNL     1      -2.865  -0.134   4.153  1.00  0.00     0.347 HD
ATOM     12  H   UNL     1      -3.409   1.437   4.391  1.00  0.00     0.347 HD
BRANCH  10  13
ATOM     13  C   UNL     1      -1.440   1.311   3.867  1.00  0.00     0.188 C 
ATOM     14  C   UNL     1      -1.235   2.367   4.954  1.00  0.00     0.093 C 
ATOM     15  C   UNL     1      -0.493   0.140   4.142  1.00  0.00     0.100 C 
ATOM     16  C   UNL     1       0.229   2.792   4.962  1.00  0.00     0.167 C 
ATOM     17  C   UNL     1       0.974   0.609   4.191  1.00  0.00     0.078 C 
ATOM     18  O   UNL     1       1.106   1.682   5.144  1.00  0.00    -0.374 OA
ATOM     19  C   UNL     1       1.497   1.018   2.798  1.00  0.00     0.064 C 
ATOM     20  C   UNL     1       1.846  -0.548   4.715  1.00  0.00     0.064 C 
ATOM     21  C   UNL     1       2.997   1.274   2.825  1.00  0.00     0.163 C 
ATOM     22  C   UNL     1       3.328  -0.202   4.635  1.00  0.00     0.163 C 
ATOM     23  O   UNL     1       3.695   0.123   3.295  1.00  0.00    -0.381 OA
ENDBRANCH  10  13
ENDBRANCH   5  10
ENDBRANCH   3   5
ENDBRANCH   2   3
ENDBRANCH   1   2
BRANCH   1  24
ATOM     24  C   UNL     1      -2.848  -1.903  -1.182  1.00  0.00     0.275 C 
BRANCH  24  25
ATOM     25  O   UNL     1      -2.441  -0.611  -1.679  1.00  0.00    -0.458 OA
BRANCH  25  26
ATOM     26  C   UNL     1      -3.392   0.349  -1.616  1.00  0.00     0.338 C 
ATOM     27  O   UNL     1      -4.538   0.229  -1.216  1.00  0.00    -0.246 OA
BRANCH  26  28
ATOM     28  C   UNL     1      -2.823   1.663  -1.960  1.00  0.00     0.060 A 
ATOM     29  C   UNL     1      -2.836   2.648  -0.970  1.00  0.00     0.016 A 
ATOM     30  C   UNL     1      -2.390   1.969  -3.251  1.00  0.00     0.016 A 
ATOM     31  C   UNL     1      -2.415   3.942  -1.252  1.00  0.00     0.010 A 
ATOM     32  C   UNL     1      -1.977   3.276  -3.541  1.00  0.00     0.010 A 
ATOM     33  C   UNL     1      -1.997   4.270  -2.545  1.00  0.00    -0.014 A 
BRANCH  33  34
ATOM     34  C   UNL     1      -1.649   5.678  -2.850  1.00  0.00     0.031 A 
ATOM     35  C   UNL     1      -2.634   6.550  -3.571  1.00  0.00     0.074 A 
ATOM     36  C   UNL     1      -0.479   6.185  -2.423  1.00  0.00     0.049 A 
ATOM     37  N   UNL     1      -2.502   7.788  -3.976  1.00  0.00    -0.248 NA
ATOM     38  C   UNL     1      -3.944   5.953  -3.871  1.00  0.00     0.031 C 
ATOM     39  C   UNL     1       0.527   5.453  -1.655  1.00  0.00     0.029 A 
ATOM     40  N   UNL     1       0.057   7.439  -2.570  1.00  0.00    -0.354 N 
ATOM     41  C   UNL     1      -3.702   8.112  -4.594  1.00  0.00     0.074 A 
ATOM     42  C   UNL     1      -4.549   6.940  -4.518  1.00  0.00     0.031 C 
ATOM     43  C   UNL     1       1.562   6.270  -1.400  1.00  0.00     0.029 A 
ATOM     44  C   UNL     1       1.309   7.568  -2.022  1.00  0.00     0.049 A 
ATOM     45  H   UNL     1      -0.411   8.176  -3.026  1.00  0.00     0.167 HD
ATOM     46  C   UNL     1      -4.062   9.283  -5.171  1.00  0.00     0.037 A 
ATOM     47  C   UNL     1       2.165   8.607  -2.046  1.00  0.00     0.037 A 
ATOM     48  C   UNL     1      -3.223  10.452  -5.232  1.00  0.00     0.049 A 
ATOM     49  C   UNL     1       1.763   9.875  -2.748  1.00  0.00     0.074 A 
ATOM     50  C   UNL     1      -3.498  11.684  -5.798  1.00  0.00     0.029 A 
ATOM     51  N   UNL     1      -1.944  10.531  -4.703  1.00  0.00    -0.354 N 
ATOM     52  N   UNL     1       0.637  10.166  -3.352  1.00  0.00    -0.248 NA
ATOM     53  C   UNL     1       2.757  10.958  -2.779  1.00  0.00     0.031 C 
ATOM     54  C   UNL     1      -2.371  12.500  -5.641  1.00  0.00     0.029 A 
ATOM     55  C   UNL     1      -1.409  11.787  -4.944  1.00  0.00     0.049 A 
ATOM     56  H   UNL     1      -1.483   9.803  -4.227  1.00  0.00     0.167 HD
ATOM     57  C   UNL     1       0.780  11.463  -3.823  1.00  0.00     0.074 A 
ATOM     58  C   UNL     1       2.095  11.913  -3.418  1.00  0.00     0.031 C 
ATOM     59  C   UNL     1      -0.098  12.214  -4.532  1.00  0.00     0.037 A 
BRANCH  46  60
ATOM     60  C   UNL     1      -5.414   9.351  -5.813  1.00  0.00     0.064 A 
ATOM     61  C   UNL     1      -6.587   9.453  -5.052  1.00  0.00     0.173 A 
ATOM     62  C   UNL     1      -5.533   9.353  -7.211  1.00  0.00     0.173 A 
ATOM     63  F   UNL     1      -6.525   9.439  -3.712  1.00  0.00    -0.203 F 
ATOM     64  C   UNL     1      -7.833   9.540  -5.668  1.00  0.00     0.198 A 
ATOM     65  C   UNL     1      -6.779   9.462  -7.823  1.00  0.00     0.198 A 
ATOM     66  F   UNL     1      -4.440   9.259  -7.983  1.00  0.00    -0.203 F 
ATOM     67  F   UNL     1      -8.944   9.604  -4.922  1.00  0.00    -0.200 F 
ATOM     68  C   UNL     1      -7.927   9.551  -7.052  1.00  0.00     0.200 A 
ATOM     69  F   UNL     1      -6.867   9.480  -9.161  1.00  0.00    -0.200 F 
ATOM     70  F   UNL     1      -9.127   9.642  -7.642  1.00  0.00    -0.200 F 
ENDBRANCH  46  60
BRANCH  47  71
ATOM     71  C   UNL     1       3.501   8.480  -1.411  1.00  0.00     0.064 A 
ATOM     72  C   UNL     1       3.822   9.197  -0.251  1.00  0.00     0.173 A 
ATOM     73  C   UNL     1       4.487   7.648  -1.961  1.00  0.00     0.173 A 
ATOM     74  F   UNL     1       2.920  10.025   0.295  1.00  0.00    -0.203 F 
ATOM     75  C   UNL     1       5.085   9.095   0.329  1.00  0.00     0.198 A 
ATOM     76  C   UNL     1       5.741   7.528  -1.366  1.00  0.00     0.198 A 
ATOM     77  F   UNL     1       4.229   6.945  -3.074  1.00  0.00    -0.203 F 
ATOM     78  F   UNL     1       5.381   9.823   1.415  1.00  0.00    -0.200 F 
ATOM     79  C   UNL     1       6.041   8.257  -0.225  1.00  0.00     0.200 A 
ATOM     80  F   UNL     1       6.658   6.710  -1.900  1.00  0.00    -0.200 F 
ATOM     81  F   UNL     1       7.254   8.159   0.335  1.00  0.00    -0.200 F 
ENDBRANCH  47  71
BRANCH  59  82
ATOM     82  C   UNL     1       0.331  13.604  -4.894  1.00  0.00     0.064 A 
ATOM     83  C   UNL     1       1.269  13.838  -5.910  1.00  0.00     0.173 A 
ATOM     84  C   UNL     1      -0.223  14.714  -4.240  1.00  0.00     0.173 A 
ATOM     85  F   UNL     1       1.839  12.807  -6.552  1.00  0.00    -0.203 F 
ATOM     86  C   UNL     1       1.654  15.134  -6.243  1.00  0.00     0.198 A 
ATOM     87  C   UNL     1       0.146  16.009  -4.591  1.00  0.00     0.198 A 
ATOM     88  F   UNL     1      -1.128  14.541  -3.264  1.00  0.00    -0.203 F 
ATOM     89  F   UNL     1       2.583  15.333  -7.188  1.00  0.00    -0.200 F 
ATOM     90  C   UNL     1       1.088  16.218  -5.587  1.00  0.00     0.200 A 
ATOM     91  F   UNL     1      -0.407  17.056  -3.963  1.00  0.00    -0.200 F 
ATOM     92  F   UNL     1       1.458  17.465  -5.910  1.00  0.00    -0.200 F 
ENDBRANCH  59  82
ENDBRANCH  33  34
ENDBRANCH  26  28
ENDBRANCH  25  26
ENDBRANCH  24  25
ENDBRANCH   1  24
TORSDOF 15
