REMARK SMILES CN(CC(C)(C)C)C(=O)N1CCO[C@@H](CC(=O)OCCOC(=O)c2ccc(-c3c4nc(c(-c5c(F)c(F)c(F)c(F)c5F)c5ccc([nH]5)c(-c5c(F)c(F)c(F)c(F)c5F)c5nc(c(-c6c(F)c(F)c(F)c(F)c6F)c6ccc3[nH]6)C=C5)C=C4)cc2)C1
REMARK SMILES IDX 18 1 16 2 17 3 15 4 14 5 10 6 11 7 87 8 12 9 13 10 8 11 9 12
REMARK SMILES IDX 2 13 1 14 3 15 4 16 5 17 6 18 7 19 19 20 20 21 21 22 22 23
REMARK SMILES IDX 23 24 24 25 25 26 86 27 26 28 85 29 27 30 28 31 29 32 79 33
REMARK SMILES IDX 30 34 84 35 78 36 80 37 31 38 83 39 77 40 76 41 32 43 64 44
REMARK SMILES IDX 44 45 63 46 45 47 48 48 62 49 81 50 46 51 47 52 61 54 82 55
REMARK SMILES IDX 49 56 33 57 34 58 42 59 35 60 36 61 40 62 43 63 37 64 38 65
REMARK SMILES IDX 41 66 39 67 65 68 66 69 74 70 67 71 68 72 72 73 75 74 69 75
REMARK SMILES IDX 70 76 73 77 71 78 50 79 51 80 59 81 52 82 53 83 57 84 60 85
REMARK SMILES IDX 54 86 55 87 58 88 56 89
REMARK H PARENT 80 42 48 53
REMARK Flexibility Score: inf
ROOT
ATOM      1  O   UNL     1       3.768  -5.274  -3.867  1.00  0.00    -0.462 OA
ENDROOT
BRANCH   1   2
ATOM      2  C   UNL     1       3.334  -6.558  -3.837  1.00  0.00     0.308 C 
ATOM      3  O   UNL     1       4.047  -7.548  -3.919  1.00  0.00    -0.252 OA
BRANCH   2   4
ATOM      4  C   UNL     1       1.836  -6.622  -3.695  1.00  0.00     0.156 C 
BRANCH   4   5
ATOM      5  C   UNL     1       1.339  -5.961  -2.410  1.00  0.00     0.149 C 
ATOM      6  N   UNL     1       0.504  -3.776  -1.440  1.00  0.00    -0.320 N 
ATOM      7  C   UNL     1      -0.697  -4.516  -1.040  1.00  0.00     0.150 C 
ATOM      8  C   UNL     1       1.202  -4.435  -2.558  1.00  0.00     0.154 C 
ATOM      9  C   UNL     1      -0.422  -6.009  -0.854  1.00  0.00     0.182 C 
ATOM     10  O   UNL     1       0.079  -6.573  -2.071  1.00  0.00    -0.374 OA
BRANCH   6  11
ATOM     11  C   UNL     1       0.895  -2.469  -1.212  1.00  0.00     0.319 C 
ATOM     12  O   UNL     1       1.794  -1.988  -1.919  1.00  0.00    -0.248 OA
BRANCH  11  13
ATOM     13  N   UNL     1       0.320  -1.650  -0.260  1.00  0.00    -0.327 N 
ATOM     14  C   UNL     1       0.819  -0.274  -0.268  1.00  0.00     0.148 C 
BRANCH  13  15
ATOM     15  C   UNL     1      -0.694  -1.930   0.754  1.00  0.00     0.127 C 
BRANCH  15  16
ATOM     16  C   UNL     1      -2.162  -1.546   0.377  1.00  0.00    -0.020 C 
ATOM     17  C   UNL     1      -2.559  -1.855  -1.084  1.00  0.00     0.012 C 
ATOM     18  C   UNL     1      -3.108  -2.322   1.317  1.00  0.00     0.012 C 
ATOM     19  C   UNL     1      -2.397  -0.041   0.624  1.00  0.00     0.012 C 
ENDBRANCH  15  16
ENDBRANCH  13  15
ENDBRANCH  11  13
ENDBRANCH   6  11
ENDBRANCH   4   5
ENDBRANCH   2   4
ENDBRANCH   1   2
BRANCH   1  20
ATOM     20  C   UNL     1       5.191  -5.059  -3.881  1.00  0.00     0.274 C 
BRANCH  20  21
ATOM     21  C   UNL     1       5.733  -4.890  -2.459  1.00  0.00     0.275 C 
BRANCH  21  22
ATOM     22  O   UNL     1       5.741  -6.154  -1.768  1.00  0.00    -0.458 OA
BRANCH  22  23
ATOM     23  C   UNL     1       4.806  -6.305  -0.803  1.00  0.00     0.338 C 
ATOM     24  O   UNL     1       4.009  -5.478  -0.400  1.00  0.00    -0.246 OA
BRANCH  23  25
ATOM     25  C   UNL     1       4.790  -7.704  -0.352  1.00  0.00     0.060 A 
ATOM     26  C   UNL     1       3.691  -8.502  -0.682  1.00  0.00     0.016 A 
ATOM     27  C   UNL     1       5.808  -8.198   0.464  1.00  0.00     0.016 A 
ATOM     28  C   UNL     1       3.592  -9.796  -0.183  1.00  0.00     0.010 A 
ATOM     29  C   UNL     1       5.717  -9.505   0.950  1.00  0.00     0.010 A 
ATOM     30  C   UNL     1       4.603 -10.306   0.640  1.00  0.00    -0.014 A 
BRANCH  30  31
ATOM     31  C   UNL     1       4.470 -11.668   1.203  1.00  0.00     0.031 A 
ATOM     32  C   UNL     1       4.142 -11.848   2.655  1.00  0.00     0.074 A 
ATOM     33  C   UNL     1       4.626 -12.737   0.403  1.00  0.00     0.049 A 
ATOM     34  N   UNL     1       4.056 -12.950   3.355  1.00  0.00    -0.248 NA
ATOM     35  C   UNL     1       3.878 -10.622   3.422  1.00  0.00     0.031 C 
ATOM     36  C   UNL     1       4.896 -12.683  -1.033  1.00  0.00     0.029 A 
ATOM     37  N   UNL     1       4.580 -14.078   0.687  1.00  0.00    -0.354 N 
ATOM     38  C   UNL     1       3.750 -12.552   4.649  1.00  0.00     0.074 A 
ATOM     39  C   UNL     1       3.682 -11.105   4.641  1.00  0.00     0.031 C 
ATOM     40  C   UNL     1       4.985 -13.935  -1.508  1.00  0.00     0.029 A 
ATOM     41  C   UNL     1       4.828 -14.875  -0.401  1.00  0.00     0.049 A 
ATOM     42  H   UNL     1       4.388 -14.434   1.585  1.00  0.00     0.167 HD
ATOM     43  C   UNL     1       3.544 -13.326   5.741  1.00  0.00     0.037 A 
ATOM     44  C   UNL     1       4.940 -16.214  -0.489  1.00  0.00     0.037 A 
ATOM     45  C   UNL     1       3.600 -14.765   5.737  1.00  0.00     0.049 A 
ATOM     46  C   UNL     1       4.776 -17.047   0.752  1.00  0.00     0.074 A 
ATOM     47  C   UNL     1       3.381 -15.642   6.784  1.00  0.00     0.029 A 
ATOM     48  N   UNL     1       3.904 -15.538   4.625  1.00  0.00    -0.354 N 
ATOM     49  N   UNL     1       4.487 -16.666   1.972  1.00  0.00    -0.248 NA
ATOM     50  C   UNL     1       4.962 -18.496   0.603  1.00  0.00     0.031 C 
ATOM     51  C   UNL     1       3.596 -16.944   6.317  1.00  0.00     0.029 A 
ATOM     52  C   UNL     1       3.905 -16.882   4.967  1.00  0.00     0.049 A 
ATOM     53  H   UNL     1       4.091 -15.185   3.725  1.00  0.00     0.167 HD
ATOM     54  C   UNL     1       4.439 -17.825   2.733  1.00  0.00     0.074 A 
ATOM     55  C   UNL     1       4.716 -18.926   1.833  1.00  0.00     0.031 C 
ATOM     56  C   UNL     1       4.186 -17.964   4.058  1.00  0.00     0.037 A 
BRANCH  43  57
ATOM     57  C   UNL     1       3.278 -12.623   7.039  1.00  0.00     0.064 A 
ATOM     58  C   UNL     1       2.065 -11.966   7.291  1.00  0.00     0.173 A 
ATOM     59  C   UNL     1       4.253 -12.613   8.049  1.00  0.00     0.173 A 
ATOM     60  F   UNL     1       1.107 -11.934   6.353  1.00  0.00    -0.203 F 
ATOM     61  C   UNL     1       1.850 -11.297   8.494  1.00  0.00     0.198 A 
ATOM     62  C   UNL     1       4.024 -11.965   9.260  1.00  0.00     0.198 A 
ATOM     63  F   UNL     1       5.429 -13.229   7.860  1.00  0.00    -0.203 F 
ATOM     64  F   UNL     1       0.704 -10.630   8.692  1.00  0.00    -0.200 F 
ATOM     65  C   UNL     1       2.827 -11.300   9.478  1.00  0.00     0.200 A 
ATOM     66  F   UNL     1       4.966 -11.977  10.213  1.00  0.00    -0.200 F 
ATOM     67  F   UNL     1       2.620 -10.653  10.633  1.00  0.00    -0.200 F 
ENDBRANCH  43  57
BRANCH  44  68
ATOM     68  C   UNL     1       5.230 -16.841  -1.802  1.00  0.00     0.064 A 
ATOM     69  C   UNL     1       4.251 -17.584  -2.474  1.00  0.00     0.173 A 
ATOM     70  C   UNL     1       6.481 -16.695  -2.419  1.00  0.00     0.173 A 
ATOM     71  F   UNL     1       3.049 -17.772  -1.910  1.00  0.00    -0.203 F 
ATOM     72  C   UNL     1       4.514 -18.162  -3.714  1.00  0.00     0.198 A 
ATOM     73  C   UNL     1       6.735 -17.253  -3.670  1.00  0.00     0.198 A 
ATOM     74  F   UNL     1       7.452 -15.996  -1.813  1.00  0.00    -0.203 F 
ATOM     75  F   UNL     1       3.571 -18.894  -4.323  1.00  0.00    -0.200 F 
ATOM     76  C   UNL     1       5.752 -17.989  -4.314  1.00  0.00     0.200 A 
ATOM     77  F   UNL     1       7.929 -17.076  -4.250  1.00  0.00    -0.200 F 
ATOM     78  F   UNL     1       6.001 -18.537  -5.511  1.00  0.00    -0.200 F 
ENDBRANCH  44  68
BRANCH  56  79
ATOM     79  C   UNL     1       4.174 -19.360   4.608  1.00  0.00     0.064 A 
ATOM     80  C   UNL     1       5.359 -20.085   4.795  1.00  0.00     0.173 A 
ATOM     81  C   UNL     1       2.965 -19.966   4.981  1.00  0.00     0.173 A 
ATOM     82  F   UNL     1       6.539 -19.555   4.437  1.00  0.00    -0.203 F 
ATOM     83  C   UNL     1       5.332 -21.376   5.316  1.00  0.00     0.198 A 
ATOM     84  C   UNL     1       2.944 -21.247   5.526  1.00  0.00     0.198 A 
ATOM     85  F   UNL     1       1.804 -19.312   4.825  1.00  0.00    -0.203 F 
ATOM     86  F   UNL     1       6.473 -22.068   5.447  1.00  0.00    -0.200 F 
ATOM     87  C   UNL     1       4.127 -21.953   5.688  1.00  0.00     0.200 A 
ATOM     88  F   UNL     1       1.780 -21.798   5.894  1.00  0.00    -0.200 F 
ATOM     89  F   UNL     1       4.103 -23.193   6.194  1.00  0.00    -0.200 F 
ENDBRANCH  56  79
ENDBRANCH  30  31
ENDBRANCH  23  25
ENDBRANCH  22  23
ENDBRANCH  21  22
ENDBRANCH  20  21
ENDBRANCH   1  20
TORSDOF 16
