REMARK SMILES Cn1cc(-c2ccn(Cc3ccc(C(=O)OCCOC(=O)c4ccc(-c5c6nc(c(-c7c(F)c(F)c(F)c(F)c7F)c7ccc([nH]7)c(-c7c(F)c(F)c(F)c(F)c7F)c7nc(c(-c8c(F)c(F)c(F)c(F)c8F)c8ccc5[nH]8)C=C7)C=C6)cc4)cc3)n2)cn1
REMARK SMILES IDX 17 1 16 2 14 3 15 4 13 5 10 6 11 7 86 8 12 9 85 10 9 11 8 12
REMARK SMILES IDX 5 13 6 14 87 15 7 16 4 17 1 18 2 19 3 20 89 21 88 22 18 23
REMARK SMILES IDX 19 24 20 25 21 26 22 27 23 28 84 29 24 30 83 31 25 32 26 33
REMARK SMILES IDX 27 34 77 35 28 36 82 37 76 38 78 39 29 40 81 41 75 42 74 43
REMARK SMILES IDX 30 45 62 46 42 47 61 48 43 49 46 50 60 51 79 52 44 53 45 54
REMARK SMILES IDX 59 56 80 57 47 58 31 59 32 60 40 61 33 62 34 63 38 64 41 65
REMARK SMILES IDX 35 66 36 67 39 68 37 69 63 70 64 71 72 72 65 73 66 74 70 75
REMARK SMILES IDX 73 76 67 77 68 78 71 79 69 80 48 81 49 82 57 83 50 84 51 85
REMARK SMILES IDX 55 86 58 87 52 88 53 89 56 90 54 91
REMARK H PARENT 78 44 46 55
REMARK Flexibility Score: inf
ROOT
ATOM      1  C   UNL     1       8.701   4.263   3.232  1.00  0.00     0.275 C 
ENDROOT
BRANCH   1   2
ATOM      2  O   UNL     1       7.934   3.107   2.866  1.00  0.00    -0.458 OA
BRANCH   2   3
ATOM      3  C   UNL     1       8.501   2.287   1.946  1.00  0.00     0.338 C 
ATOM      4  O   UNL     1       9.521   2.514   1.309  1.00  0.00    -0.246 OA
BRANCH   3   5
ATOM      5  C   UNL     1       7.762   1.002   1.863  1.00  0.00     0.060 A 
ATOM      6  C   UNL     1       6.388  -1.433   1.552  1.00  0.00    -0.026 A 
ATOM      7  C   UNL     1       7.691  -1.290   1.058  1.00  0.00     0.006 A 
ATOM      8  C   UNL     1       5.818  -0.370   2.272  1.00  0.00     0.006 A 
ATOM      9  C   UNL     1       8.373  -0.080   1.214  1.00  0.00     0.016 A 
ATOM     10  C   UNL     1       6.490   0.843   2.418  1.00  0.00     0.016 A 
BRANCH   6  11
ATOM     11  C   UNL     1       5.594  -2.695   1.299  1.00  0.00     0.179 C 
BRANCH  11  12
ATOM     12  N   UNL     1       4.434  -2.452   0.442  1.00  0.00    -0.268 N 
ATOM     13  C   UNL     1       2.561  -1.654  -0.137  1.00  0.00     0.095 A 
ATOM     14  C   UNL     1       2.965  -2.498  -1.190  1.00  0.00     0.050 A 
ATOM     15  N   UNL     1       3.428  -1.662   0.875  1.00  0.00    -0.172 NA
ATOM     16  C   UNL     1       4.185  -2.998  -0.789  1.00  0.00     0.110 A 
BRANCH  13  17
ATOM     17  C   UNL     1       1.353  -0.857  -0.117  1.00  0.00     0.040 A 
ATOM     18  C   UNL     1      -2.136  -0.014  -0.062  1.00  0.00     0.173 C 
ATOM     19  N   UNL     1      -0.697  -0.116  -0.085  1.00  0.00    -0.275 N 
ATOM     20  C   UNL     1       0.041  -1.259  -0.195  1.00  0.00     0.118 A 
ATOM     21  N   UNL     1       0.047   1.003   0.018  1.00  0.00    -0.181 NA
ATOM     22  C   UNL     1       1.303   0.541   0.025  1.00  0.00     0.145 A 
ENDBRANCH  13  17
ENDBRANCH  11  12
ENDBRANCH   6  11
ENDBRANCH   3   5
ENDBRANCH   2   3
ENDBRANCH   1   2
BRANCH   1  23
ATOM     23  C   UNL     1       9.617   3.964   4.410  1.00  0.00     0.275 C 
BRANCH  23  24
ATOM     24  O   UNL     1      10.692   3.093   4.055  1.00  0.00    -0.458 OA
BRANCH  24  25
ATOM     25  C   UNL     1      10.467   1.784   4.308  1.00  0.00     0.338 C 
ATOM     26  O   UNL     1       9.396   1.230   4.485  1.00  0.00    -0.246 OA
BRANCH  25  27
ATOM     27  C   UNL     1      11.744   1.123   4.591  1.00  0.00     0.060 A 
ATOM     28  C   UNL     1      11.761  -0.274   4.639  1.00  0.00     0.016 A 
ATOM     29  C   UNL     1      12.825   1.889   5.051  1.00  0.00     0.016 A 
ATOM     30  C   UNL     1      12.826  -0.903   5.254  1.00  0.00     0.010 A 
ATOM     31  C   UNL     1      13.879   1.262   5.676  1.00  0.00     0.010 A 
ATOM     32  C   UNL     1      13.847  -0.124   5.816  1.00  0.00    -0.014 A 
BRANCH  32  33
ATOM     33  C   UNL     1      14.990  -0.805   6.398  1.00  0.00     0.031 A 
ATOM     34  C   UNL     1      15.818  -1.496   5.378  1.00  0.00     0.074 A 
ATOM     35  C   UNL     1      15.330  -0.683   7.697  1.00  0.00     0.049 A 
ATOM     36  N   UNL     1      16.097  -2.753   5.306  1.00  0.00    -0.248 NA
ATOM     37  C   UNL     1      16.269  -0.717   4.210  1.00  0.00     0.031 C 
ATOM     38  C   UNL     1      14.727   0.214   8.688  1.00  0.00     0.029 A 
ATOM     39  N   UNL     1      16.363  -1.250   8.385  1.00  0.00    -0.354 N 
ATOM     40  C   UNL     1      16.919  -2.895   4.189  1.00  0.00     0.074 A 
ATOM     41  C   UNL     1      16.850  -1.657   3.466  1.00  0.00     0.031 C 
ATOM     42  C   UNL     1      15.537   0.298   9.767  1.00  0.00     0.029 A 
ATOM     43  C   UNL     1      16.643  -0.630   9.598  1.00  0.00     0.049 A 
ATOM     44  H   UNL     1      16.866  -2.028   8.052  1.00  0.00     0.167 HD
ATOM     45  C   UNL     1      17.808  -3.921   4.121  1.00  0.00     0.037 A 
ATOM     46  C   UNL     1      17.733  -0.830  10.380  1.00  0.00     0.037 A 
ATOM     47  C   UNL     1      17.454  -4.957   5.057  1.00  0.00     0.049 A 
ATOM     48  C   UNL     1      18.345  -2.116   9.980  1.00  0.00     0.074 A 
ATOM     49  C   UNL     1      16.476  -5.920   5.156  1.00  0.00     0.029 A 
ATOM     50  N   UNL     1      17.998  -4.795   6.302  1.00  0.00    -0.354 N 
ATOM     51  N   UNL     1      17.811  -3.279  10.223  1.00  0.00    -0.248 NA
ATOM     52  C   UNL     1      19.425  -2.117   9.000  1.00  0.00     0.031 C 
ATOM     53  C   UNL     1      16.311  -6.170   6.551  1.00  0.00     0.029 A 
ATOM     54  C   UNL     1      17.217  -5.380   7.257  1.00  0.00     0.049 A 
ATOM     55  H   UNL     1      18.841  -4.319   6.485  1.00  0.00     0.167 HD
ATOM     56  C   UNL     1      18.164  -4.047   9.132  1.00  0.00     0.074 A 
ATOM     57  C   UNL     1      19.297  -3.360   8.529  1.00  0.00     0.031 C 
ATOM     58  C   UNL     1      17.296  -4.978   8.642  1.00  0.00     0.037 A 
BRANCH  45  59
ATOM     59  C   UNL     1      19.239  -3.772   3.635  1.00  0.00     0.064 A 
ATOM     60  C   UNL     1      20.070  -4.914   3.635  1.00  0.00     0.173 A 
ATOM     61  C   UNL     1      19.914  -2.537   3.511  1.00  0.00     0.173 A 
ATOM     62  F   UNL     1      19.545  -6.142   3.756  1.00  0.00    -0.203 F 
ATOM     63  C   UNL     1      21.465  -4.816   3.614  1.00  0.00     0.198 A 
ATOM     64  C   UNL     1      21.303  -2.447   3.442  1.00  0.00     0.198 A 
ATOM     65  F   UNL     1      19.280  -1.362   3.567  1.00  0.00    -0.203 F 
ATOM     66  F   UNL     1      22.212  -5.919   3.752  1.00  0.00    -0.200 F 
ATOM     67  C   UNL     1      22.080  -3.582   3.529  1.00  0.00     0.200 A 
ATOM     68  F   UNL     1      21.881  -1.239   3.380  1.00  0.00    -0.200 F 
ATOM     69  F   UNL     1      23.415  -3.479   3.578  1.00  0.00    -0.200 F 
ENDBRANCH  45  59
BRANCH  46  70
ATOM     70  C   UNL     1      18.421   0.086  11.319  1.00  0.00     0.064 A 
ATOM     71  C   UNL     1      19.304  -0.409  12.295  1.00  0.00     0.173 A 
ATOM     72  C   UNL     1      18.458   1.473  11.088  1.00  0.00     0.173 A 
ATOM     73  F   UNL     1      19.354  -1.724  12.556  1.00  0.00    -0.203 F 
ATOM     74  C   UNL     1      20.203   0.426  12.964  1.00  0.00     0.198 A 
ATOM     75  C   UNL     1      19.352   2.307  11.762  1.00  0.00     0.198 A 
ATOM     76  F   UNL     1      17.700   2.030  10.132  1.00  0.00    -0.203 F 
ATOM     77  F   UNL     1      21.081  -0.096  13.832  1.00  0.00    -0.200 F 
ATOM     78  C   UNL     1      20.237   1.781  12.686  1.00  0.00     0.200 A 
ATOM     79  F   UNL     1      19.398   3.613  11.461  1.00  0.00    -0.200 F 
ATOM     80  F   UNL     1      21.147   2.571  13.272  1.00  0.00    -0.200 F 
ENDBRANCH  46  70
BRANCH  58  81
ATOM     81  C   UNL     1      16.252  -5.488   9.586  1.00  0.00     0.064 A 
ATOM     82  C   UNL     1      15.224  -4.708  10.139  1.00  0.00     0.173 A 
ATOM     83  C   UNL     1      16.273  -6.854   9.898  1.00  0.00     0.173 A 
ATOM     84  F   UNL     1      15.088  -3.414   9.819  1.00  0.00    -0.203 F 
ATOM     85  C   UNL     1      14.294  -5.266  11.014  1.00  0.00     0.198 A 
ATOM     86  C   UNL     1      15.318  -7.416  10.736  1.00  0.00     0.198 A 
ATOM     87  F   UNL     1      17.209  -7.652   9.360  1.00  0.00    -0.203 F 
ATOM     88  F   UNL     1      13.339  -4.498  11.560  1.00  0.00    -0.200 F 
ATOM     89  C   UNL     1      14.339  -6.620  11.306  1.00  0.00     0.200 A 
ATOM     90  F   UNL     1      15.340  -8.734  10.978  1.00  0.00    -0.200 F 
ATOM     91  F   UNL     1      13.426  -7.164  12.124  1.00  0.00    -0.200 F 
ENDBRANCH  58  81
ENDBRANCH  32  33
ENDBRANCH  25  27
ENDBRANCH  24  25
ENDBRANCH  23  24
ENDBRANCH   1  23
TORSDOF 14
