REMARK SMILES CC[C@H]1CC[C@](C(=O)OCCOC(=O)c2ccc(-c3c4nc(c(-c5c(F)c(F)c(F)c(F)c5F)c5ccc([nH]5)c(-c5c(F)c(F)c(F)c(F)c5F)c5nc(c(-c6c(F)c(F)c(F)c(F)c6F)c6ccc3[nH]6)C=C5)C=C4)cc2)([C@H]2CCC[C@@H](S(C)(=O)=O)C2)CC1
REMARK SMILES IDX 10 1 9 2 7 3 8 4 6 5 3 6 89 7 4 8 88 9 5 10 2 11 1 12 78 13
REMARK SMILES IDX 79 14 87 15 80 16 82 17 81 18 83 19 84 20 85 21 86 22 11 23
REMARK SMILES IDX 12 24 13 25 14 26 15 27 16 28 77 29 17 30 76 31 18 32 19 33
REMARK SMILES IDX 20 34 70 35 21 36 75 37 69 38 71 39 22 40 74 41 68 42 67 43
REMARK SMILES IDX 23 45 55 46 35 47 54 48 36 49 39 50 53 51 72 52 37 53 38 54
REMARK SMILES IDX 52 56 73 57 40 58 24 59 25 60 33 61 26 62 27 63 31 64 34 65
REMARK SMILES IDX 28 66 29 67 32 68 30 69 56 70 57 71 65 72 58 73 59 74 63 75
REMARK SMILES IDX 66 76 60 77 61 78 64 79 62 80 41 81 42 82 50 83 43 84 44 85
REMARK SMILES IDX 48 86 51 87 45 88 46 89 49 90 47 91
REMARK H PARENT 71 44 39 55
REMARK Flexibility Score: inf
ROOT
ATOM      1  C   UNL     1       2.047   9.766   4.171  1.00  0.00     0.274 C 
ENDROOT
BRANCH   1   2
ATOM      2  O   UNL     1       1.113   8.863   3.474  1.00  0.00    -0.462 OA
BRANCH   2   3
ATOM      3  C   UNL     1       1.661   7.977   2.588  1.00  0.00     0.312 C 
ATOM      4  O   UNL     1       2.853   8.030   2.287  1.00  0.00    -0.252 OA
BRANCH   3   5
ATOM      5  C   UNL     1       0.709   6.838   2.010  1.00  0.00     0.071 C 
ATOM      6  C   UNL     1      -0.458   8.168  -0.452  1.00  0.00    -0.011 C 
ATOM      7  C   UNL     1       1.021   7.775  -0.370  1.00  0.00     0.005 C 
ATOM      8  C   UNL     1      -1.077   8.354   0.934  1.00  0.00     0.005 C 
ATOM      9  C   UNL     1       1.257   6.596   0.565  1.00  0.00     0.019 C 
ATOM     10  C   UNL     1      -0.781   7.196   1.858  1.00  0.00     0.019 C 
BRANCH   6  11
ATOM     11  C   UNL     1      -0.691   9.461  -1.248  1.00  0.00    -0.000 C 
ATOM     12  C   UNL     1       0.086   9.545  -2.547  1.00  0.00     0.004 C 
ENDBRANCH   6  11
BRANCH   5  13
ATOM     13  C   UNL     1       0.768   5.408   2.713  1.00  0.00     0.008 C 
ATOM     14  C   UNL     1       2.146   4.955   3.185  1.00  0.00     0.005 C 
ATOM     15  C   UNL     1      -0.243   5.090   3.839  1.00  0.00     0.024 C 
ATOM     16  C   UNL     1       2.548   5.636   4.477  1.00  0.00     0.002 C 
ATOM     17  C   UNL     1      -0.017   5.823   5.136  1.00  0.00     0.108 C 
ATOM     18  C   UNL     1       1.402   6.366   5.181  1.00  0.00     0.020 C 
BRANCH  17  19
ATOM     19  S   UNL     1      -1.282   7.053   5.634  1.00  0.00     0.150 S 
ATOM     20  C   UNL     1      -2.880   6.570   4.999  1.00  0.00     0.158 C 
ATOM     21  O   UNL     1      -1.399   6.975   7.073  1.00  0.00    -0.229 OA
ATOM     22  O   UNL     1      -0.992   8.330   5.000  1.00  0.00    -0.229 OA
ENDBRANCH  17  19
ENDBRANCH   5  13
ENDBRANCH   3   5
ENDBRANCH   2   3
ENDBRANCH   1   2
BRANCH   1  23
ATOM     23  C   UNL     1       1.702  10.069   5.662  1.00  0.00     0.275 C 
BRANCH  23  24
ATOM     24  O   UNL     1       2.213   9.063   6.603  1.00  0.00    -0.458 OA
BRANCH  24  25
ATOM     25  C   UNL     1       1.411   8.815   7.685  1.00  0.00     0.338 C 
ATOM     26  O   UNL     1       0.352   9.404   7.902  1.00  0.00    -0.246 OA
BRANCH  25  27
ATOM     27  C   UNL     1       1.788   7.629   8.540  1.00  0.00     0.060 A 
ATOM     28  C   UNL     1       2.633   6.648   8.064  1.00  0.00     0.016 A 
ATOM     29  C   UNL     1       0.947   7.287   9.612  1.00  0.00     0.016 A 
ATOM     30  C   UNL     1       2.242   5.316   8.294  1.00  0.00     0.010 A 
ATOM     31  C   UNL     1       0.799   5.946  10.046  1.00  0.00     0.010 A 
ATOM     32  C   UNL     1       1.382   4.899   9.328  1.00  0.00    -0.014 A 
BRANCH  32  33
ATOM     33  C   UNL     1       1.161   3.418   9.604  1.00  0.00     0.031 A 
ATOM     34  C   UNL     1      -0.180   2.829  10.034  1.00  0.00     0.074 A 
ATOM     35  C   UNL     1       2.168   2.525   9.419  1.00  0.00     0.049 A 
ATOM     36  N   UNL     1      -0.434   1.655  10.577  1.00  0.00    -0.248 NA
ATOM     37  C   UNL     1      -1.388   3.635   9.808  1.00  0.00     0.031 C 
ATOM     38  C   UNL     1       3.508   2.839   8.919  1.00  0.00     0.029 A 
ATOM     39  N   UNL     1       2.226   1.156   9.597  1.00  0.00    -0.354 N 
ATOM     40  C   UNL     1      -1.803   1.618  10.836  1.00  0.00     0.074 A 
ATOM     41  C   UNL     1      -2.338   2.872  10.340  1.00  0.00     0.031 C 
ATOM     42  C   UNL     1       4.184   1.716   8.680  1.00  0.00     0.029 A 
ATOM     43  C   UNL     1       3.453   0.617   9.276  1.00  0.00     0.049 A 
ATOM     44  H   UNL     1       1.466   0.619   9.920  1.00  0.00     0.167 HD
ATOM     45  C   UNL     1      -2.533   0.647  11.455  1.00  0.00     0.037 A 
ATOM     46  C   UNL     1       4.024  -0.574   9.536  1.00  0.00     0.037 A 
ATOM     47  C   UNL     1      -1.998  -0.620  11.910  1.00  0.00     0.049 A 
ATOM     48  C   UNL     1       3.255  -1.583  10.324  1.00  0.00     0.074 A 
ATOM     49  C   UNL     1      -2.619  -1.620  12.645  1.00  0.00     0.029 A 
ATOM     50  N   UNL     1      -0.712  -1.074  11.649  1.00  0.00    -0.354 N 
ATOM     51  N   UNL     1       2.023  -1.521  10.760  1.00  0.00    -0.248 NA
ATOM     52  C   UNL     1       3.969  -2.811  10.692  1.00  0.00     0.031 C 
ATOM     53  C   UNL     1      -1.695  -2.651  12.866  1.00  0.00     0.029 A 
ATOM     54  C   UNL     1      -0.518  -2.328  12.214  1.00  0.00     0.049 A 
ATOM     55  H   UNL     1      -0.034  -0.578  11.136  1.00  0.00     0.167 HD
ATOM     56  C   UNL     1       1.807  -2.704  11.447  1.00  0.00     0.074 A 
ATOM     57  C   UNL     1       3.028  -3.476  11.347  1.00  0.00     0.031 C 
ATOM     58  C   UNL     1       0.694  -3.103  12.108  1.00  0.00     0.037 A 
BRANCH  45  59
ATOM     59  C   UNL     1      -3.971   0.966  11.788  1.00  0.00     0.064 A 
ATOM     60  C   UNL     1      -4.979   1.052  10.816  1.00  0.00     0.173 A 
ATOM     61  C   UNL     1      -4.342   1.206  13.124  1.00  0.00     0.173 A 
ATOM     62  F   UNL     1      -4.693   0.825   9.525  1.00  0.00    -0.203 F 
ATOM     63  C   UNL     1      -6.280   1.426  11.158  1.00  0.00     0.198 A 
ATOM     64  C   UNL     1      -5.649   1.550  13.466  1.00  0.00     0.198 A 
ATOM     65  F   UNL     1      -3.432   1.108  14.105  1.00  0.00    -0.203 F 
ATOM     66  F   UNL     1      -7.208   1.573  10.201  1.00  0.00    -0.200 F 
ATOM     67  C   UNL     1      -6.613   1.679  12.481  1.00  0.00     0.200 A 
ATOM     68  F   UNL     1      -5.969   1.771  14.749  1.00  0.00    -0.200 F 
ATOM     69  F   UNL     1      -7.857   2.061  12.803  1.00  0.00    -0.200 F 
ENDBRANCH  45  59
BRANCH  46  70
ATOM     70  C   UNL     1       5.450  -0.808   9.160  1.00  0.00     0.064 A 
ATOM     71  C   UNL     1       5.802  -1.781   8.216  1.00  0.00     0.173 A 
ATOM     72  C   UNL     1       6.489  -0.040   9.717  1.00  0.00     0.173 A 
ATOM     73  F   UNL     1       4.855  -2.562   7.676  1.00  0.00    -0.203 F 
ATOM     74  C   UNL     1       7.132  -1.974   7.845  1.00  0.00     0.198 A 
ATOM     75  C   UNL     1       7.809  -0.200   9.307  1.00  0.00     0.198 A 
ATOM     76  F   UNL     1       6.214   0.907  10.627  1.00  0.00    -0.203 F 
ATOM     77  F   UNL     1       7.446  -2.942   6.973  1.00  0.00    -0.200 F 
ATOM     78  C   UNL     1       8.132  -1.174   8.378  1.00  0.00     0.200 A 
ATOM     79  F   UNL     1       8.764   0.600   9.802  1.00  0.00    -0.200 F 
ATOM     80  F   UNL     1       9.405  -1.345   7.999  1.00  0.00    -0.200 F 
ENDBRANCH  46  70
BRANCH  58  81
ATOM     81  C   UNL     1       0.731  -4.472  12.722  1.00  0.00     0.064 A 
ATOM     82  C   UNL     1       1.520  -4.763  13.845  1.00  0.00     0.173 A 
ATOM     83  C   UNL     1      -0.024  -5.514  12.162  1.00  0.00     0.173 A 
ATOM     84  F   UNL     1       2.283  -3.809  14.400  1.00  0.00    -0.203 F 
ATOM     85  C   UNL     1       1.576  -6.054  14.366  1.00  0.00     0.198 A 
ATOM     86  C   UNL     1       0.011  -6.795  12.704  1.00  0.00     0.198 A 
ATOM     87  F   UNL     1      -0.788  -5.290  11.082  1.00  0.00    -0.203 F 
ATOM     88  F   UNL     1       2.385  -6.323  15.399  1.00  0.00    -0.200 F 
ATOM     89  C   UNL     1       0.817  -7.067  13.798  1.00  0.00     0.200 A 
ATOM     90  F   UNL     1      -0.728  -7.771  12.157  1.00  0.00    -0.200 F 
ATOM     91  F   UNL     1       0.874  -8.309  14.298  1.00  0.00    -0.200 F 
ENDBRANCH  58  81
ENDBRANCH  32  33
ENDBRANCH  25  27
ENDBRANCH  24  25
ENDBRANCH  23  24
ENDBRANCH   1  23
TORSDOF 14
