REMARK SMILES CC[C@H](C(=O)OCCOC(=O)c1ccc(-c2c3nc(c(-c4c(F)c(F)c(F)c(F)c4F)c4ccc([nH]4)c(-c4c(F)c(F)c(F)c(F)c4F)c4nc(c(-c5c(F)c(F)c(F)c(F)c5F)c5ccc2[nH]5)C=C4)C=C3)cc1)N1C(=O)/C(=C/c2ccc(-c3ccc(C)cc3Br)o2)SC1=S
REMARK SMILES IDX 7 1 6 2 4 3 5 4 3 5 2 6 1 7 75 8 76 9 94 10 77 11 78 12
REMARK SMILES IDX 93 13 95 14 79 15 80 16 81 17 92 18 82 19 83 20 84 21 85 22
REMARK SMILES IDX 90 23 86 24 89 25 91 26 87 27 88 28 8 29 9 30 10 31 11 32
REMARK SMILES IDX 12 33 13 34 74 35 14 36 73 37 15 38 16 39 17 40 67 41 18 42
REMARK SMILES IDX 72 43 66 44 68 45 19 46 71 47 65 48 64 49 20 51 52 52 32 53
REMARK SMILES IDX 51 54 33 55 36 56 50 57 69 58 34 59 35 60 49 62 70 63 37 64
REMARK SMILES IDX 21 65 22 66 30 67 23 68 24 69 28 70 31 71 25 72 26 73 29 74
REMARK SMILES IDX 27 75 53 76 54 77 62 78 55 79 56 80 60 81 63 82 57 83 58 84
REMARK SMILES IDX 61 85 59 86 38 87 39 88 47 89 40 90 41 91 45 92 48 93 42 94
REMARK SMILES IDX 43 95 46 96 44 97
REMARK H PARENT 68 50 36 61
REMARK Flexibility Score: inf
ROOT
ATOM      1  C   UNL     1      -1.251  -0.853   0.118  1.00  0.00     0.274 C 
ENDROOT
BRANCH   1   2
ATOM      2  O   UNL     1      -0.537   0.377   0.324  1.00  0.00    -0.461 OA
BRANCH   2   3
ATOM      3  C   UNL     1      -0.628   0.989   1.532  1.00  0.00     0.329 C 
ATOM      4  O   UNL     1      -1.462   0.694   2.381  1.00  0.00    -0.250 OA
BRANCH   3   5
ATOM      5  C   UNL     1       0.489   2.077   1.688  1.00  0.00     0.201 C 
BRANCH   5   6
ATOM      6  C   UNL     1       0.395   3.010   0.459  1.00  0.00     0.034 C 
ATOM      7  C   UNL     1       1.112   2.496  -0.792  1.00  0.00     0.007 C 
ENDBRANCH   5   6
BRANCH   5   8
ATOM      8  N   UNL     1       0.319   2.689   3.053  1.00  0.00    -0.278 N 
ATOM      9  C   UNL     1       0.331   1.800   4.129  1.00  0.00     0.267 C 
ATOM     10  C   UNL     1       0.409   3.999   3.470  1.00  0.00     0.149 C 
ATOM     11  O   UNL     1       0.766   0.656   4.112  1.00  0.00    -0.268 OA
ATOM     12  C   UNL     1      -0.189   2.451   5.357  1.00  0.00     0.084 C 
ATOM     13  S   UNL     1      -0.203   4.144   5.118  1.00  0.00    -0.054 SA
ATOM     14  S   UNL     1       1.040   5.356   2.741  1.00  0.00    -0.052 S 
ATOM     15  C   UNL     1      -0.564   1.746   6.433  1.00  0.00     0.068 C 
BRANCH  15  16
ATOM     16  C   UNL     1      -1.115   2.326   7.609  1.00  0.00     0.128 A 
ATOM     17  C   UNL     1      -2.102   3.296   7.759  1.00  0.00     0.051 A 
ATOM     18  O   UNL     1      -0.721   1.943   8.874  1.00  0.00    -0.457 OA
ATOM     19  C   UNL     1      -2.255   3.556   9.137  1.00  0.00     0.051 A 
ATOM     20  C   UNL     1      -1.369   2.724   9.780  1.00  0.00     0.135 A 
BRANCH  20  21
ATOM     21  C   UNL     1      -1.034   2.539  11.182  1.00  0.00     0.031 A 
ATOM     22  C   UNL     1      -2.084   2.302  12.085  1.00  0.00     0.013 A 
ATOM     23  C   UNL     1       0.265   2.682  11.692  1.00  0.00     0.029 A 
ATOM     24  C   UNL     1      -1.852   2.230  13.460  1.00  0.00     0.004 A 
ATOM     25  C   UNL     1       0.492   2.632  13.074  1.00  0.00     0.019 A 
ATOM     26  Br  UNL     1       1.784   3.001  10.590  1.00  0.00    -0.050 Br
ATOM     27  C   UNL     1      -0.563   2.409  13.966  1.00  0.00    -0.050 A 
ATOM     28  C   UNL     1      -0.327   2.379  15.447  1.00  0.00     0.044 C 
ENDBRANCH  20  21
ENDBRANCH  15  16
ENDBRANCH   5   8
ENDBRANCH   3   5
ENDBRANCH   2   3
ENDBRANCH   1   2
BRANCH   1  29
ATOM     29  C   UNL     1      -0.238  -1.946  -0.235  1.00  0.00     0.275 C 
BRANCH  29  30
ATOM     30  O   UNL     1       0.651  -2.225   0.869  1.00  0.00    -0.458 OA
BRANCH  30  31
ATOM     31  C   UNL     1       1.768  -1.458   0.928  1.00  0.00     0.338 C 
ATOM     32  O   UNL     1       2.082  -0.566   0.151  1.00  0.00    -0.246 OA
BRANCH  31  33
ATOM     33  C   UNL     1       2.562  -1.761   2.135  1.00  0.00     0.060 A 
ATOM     34  C   UNL     1       3.184  -0.692   2.789  1.00  0.00     0.016 A 
ATOM     35  C   UNL     1       2.752  -3.065   2.599  1.00  0.00     0.016 A 
ATOM     36  C   UNL     1       3.967  -0.911   3.917  1.00  0.00     0.010 A 
ATOM     37  C   UNL     1       3.558  -3.289   3.723  1.00  0.00     0.010 A 
ATOM     38  C   UNL     1       4.170  -2.212   4.387  1.00  0.00    -0.014 A 
BRANCH  38  39
ATOM     39  C   UNL     1       5.086  -2.420   5.533  1.00  0.00     0.031 A 
ATOM     40  C   UNL     1       6.491  -2.887   5.287  1.00  0.00     0.074 A 
ATOM     41  C   UNL     1       4.683  -2.118   6.780  1.00  0.00     0.049 A 
ATOM     42  N   UNL     1       7.458  -3.101   6.142  1.00  0.00    -0.248 NA
ATOM     43  C   UNL     1       6.859  -3.139   3.885  1.00  0.00     0.031 C 
ATOM     44  C   UNL     1       3.361  -1.603   7.138  1.00  0.00     0.029 A 
ATOM     45  N   UNL     1       5.351  -2.192   7.976  1.00  0.00    -0.354 N 
ATOM     46  C   UNL     1       8.548  -3.510   5.386  1.00  0.00     0.074 A 
ATOM     47  C   UNL     1       8.113  -3.549   4.006  1.00  0.00     0.031 C 
ATOM     48  C   UNL     1       3.316  -1.406   8.466  1.00  0.00     0.029 A 
ATOM     49  C   UNL     1       4.590  -1.814   9.054  1.00  0.00     0.049 A 
ATOM     50  H   UNL     1       6.287  -2.487   8.054  1.00  0.00     0.167 HD
ATOM     51  C   UNL     1       9.799  -3.815   5.806  1.00  0.00     0.037 A 
ATOM     52  C   UNL     1       4.884  -1.817  10.368  1.00  0.00     0.037 A 
ATOM     53  C   UNL     1      10.226  -3.780   7.182  1.00  0.00     0.049 A 
ATOM     54  C   UNL     1       6.258  -2.247  10.816  1.00  0.00     0.074 A 
ATOM     55  C   UNL     1      11.475  -4.064   7.706  1.00  0.00     0.029 A 
ATOM     56  N   UNL     1       9.411  -3.449   8.255  1.00  0.00    -0.354 N 
ATOM     57  N   UNL     1       7.291  -2.613  10.095  1.00  0.00    -0.248 NA
ATOM     58  C   UNL     1       6.509  -2.258  12.264  1.00  0.00     0.031 C 
ATOM     59  C   UNL     1      11.399  -3.968   9.099  1.00  0.00     0.029 A 
ATOM     60  C   UNL     1      10.122  -3.554   9.441  1.00  0.00     0.049 A 
ATOM     61  H   UNL     1       8.466  -3.180   8.185  1.00  0.00     0.167 HD
ATOM     62  C   UNL     1       8.320  -2.862  10.996  1.00  0.00     0.074 A 
ATOM     63  C   UNL     1       7.791  -2.590  12.316  1.00  0.00     0.031 C 
ATOM     64  C   UNL     1       9.588  -3.275  10.751  1.00  0.00     0.037 A 
BRANCH  51  65
ATOM     65  C   UNL     1      10.792  -4.247   4.766  1.00  0.00     0.064 A 
ATOM     66  C   UNL     1      11.310  -3.352   3.818  1.00  0.00     0.173 A 
ATOM     67  C   UNL     1      11.256  -5.572   4.737  1.00  0.00     0.173 A 
ATOM     68  F   UNL     1      10.892  -2.078   3.792  1.00  0.00    -0.203 F 
ATOM     69  C   UNL     1      12.233  -3.774   2.863  1.00  0.00     0.198 A 
ATOM     70  C   UNL     1      12.203  -5.981   3.803  1.00  0.00     0.198 A 
ATOM     71  F   UNL     1      10.798  -6.468   5.624  1.00  0.00    -0.203 F 
ATOM     72  F   UNL     1      12.675  -2.913   1.935  1.00  0.00    -0.200 F 
ATOM     73  C   UNL     1      12.684  -5.085   2.861  1.00  0.00     0.200 A 
ATOM     74  F   UNL     1      12.648  -7.245   3.812  1.00  0.00    -0.200 F 
ATOM     75  F   UNL     1      13.577  -5.487   1.946  1.00  0.00    -0.200 F 
ENDBRANCH  51  65
BRANCH  52  76
ATOM     76  C   UNL     1       3.853  -1.418  11.363  1.00  0.00     0.064 A 
ATOM     77  C   UNL     1       4.012  -0.275  12.157  1.00  0.00     0.173 A 
ATOM     78  C   UNL     1       2.708  -2.203  11.573  1.00  0.00     0.173 A 
ATOM     79  F   UNL     1       5.102   0.494  12.016  1.00  0.00    -0.203 F 
ATOM     80  C   UNL     1       3.087   0.046  13.149  1.00  0.00     0.198 A 
ATOM     81  C   UNL     1       1.764  -1.859  12.537  1.00  0.00     0.198 A 
ATOM     82  F   UNL     1       2.513  -3.315  10.849  1.00  0.00    -0.203 F 
ATOM     83  F   UNL     1       3.305   1.100  13.947  1.00  0.00    -0.200 F 
ATOM     84  C   UNL     1       1.962  -0.744  13.335  1.00  0.00     0.200 A 
ATOM     85  F   UNL     1       0.677  -2.622  12.711  1.00  0.00    -0.200 F 
ATOM     86  F   UNL     1       1.085  -0.446  14.303  1.00  0.00    -0.200 F 
ENDBRANCH  52  76
BRANCH  64  87
ATOM     87  C   UNL     1      10.510  -3.416  11.932  1.00  0.00     0.064 A 
ATOM     88  C   UNL     1      10.338  -4.423  12.893  1.00  0.00     0.173 A 
ATOM     89  C   UNL     1      11.601  -2.546  12.087  1.00  0.00     0.173 A 
ATOM     90  F   UNL     1       9.306  -5.276  12.801  1.00  0.00    -0.203 F 
ATOM     91  C   UNL     1      11.198  -4.530  13.984  1.00  0.00     0.198 A 
ATOM     92  C   UNL     1      12.481  -2.678  13.158  1.00  0.00     0.198 A 
ATOM     93  F   UNL     1      11.822  -1.570  11.193  1.00  0.00    -0.203 F 
ATOM     94  F   UNL     1      10.977  -5.462  14.921  1.00  0.00    -0.200 F 
ATOM     95  C   UNL     1      12.273  -3.662  14.111  1.00  0.00     0.200 A 
ATOM     96  F   UNL     1      13.529  -1.850  13.268  1.00  0.00    -0.200 F 
ATOM     97  F   UNL     1      13.103  -3.770  15.158  1.00  0.00    -0.200 F 
ENDBRANCH  64  87
ENDBRANCH  38  39
ENDBRANCH  31  33
ENDBRANCH  30  31
ENDBRANCH  29  30
ENDBRANCH   1  29
TORSDOF 15
