REMARK SMILES C[C@H]1C[C@H](C)CN(S(=O)(=O)N[C@@H](CCC(N)=O)C(=O)OCCOC(=O)c2ccc(-c3c4nc(c(-c5c(F)c(F)c(F)c(F)c5F)c5ccc([nH]5)c(-c5c(F)c(F)c(F)c(F)c5F)c5nc(c(-c6c(F)c(F)c(F)c(F)c6F)c6ccc3[nH]6)C=C5)C=C4)cc2)C1
REMARK SMILES IDX 21 1 20 2 18 3 19 4 12 5 11 6 8 8 9 9 10 10 7 11 1 12 2 13
REMARK SMILES IDX 3 14 89 15 4 16 5 17 6 18 13 19 14 20 15 21 16 22 17 23
REMARK SMILES IDX 22 26 23 27 24 28 25 29 26 30 27 31 88 32 28 33 87 34 29 35
REMARK SMILES IDX 30 36 31 37 81 38 32 39 86 40 80 41 82 42 33 43 85 44 79 45
REMARK SMILES IDX 78 46 34 48 66 49 46 50 65 51 47 52 50 53 64 54 83 55 48 56
REMARK SMILES IDX 49 57 63 59 84 60 51 61 35 62 36 63 44 64 37 65 38 66 42 67
REMARK SMILES IDX 45 68 39 69 40 70 43 71 41 72 67 73 68 74 76 75 69 76 70 77
REMARK SMILES IDX 74 78 77 79 71 80 72 81 75 82 73 83 52 84 53 85 61 86 54 87
REMARK SMILES IDX 55 88 59 89 62 90 56 91 57 92 60 93 58 94
REMARK H PARENT 11 7 16 24 16 25 82 47 50 58
REMARK Flexibility Score: inf
ROOT
ATOM      1  C   UNL     1       1.185   7.520  -5.412  1.00  0.00     0.274 C 
ENDROOT
BRANCH   1   2
ATOM      2  O   UNL     1       1.252   6.910  -4.104  1.00  0.00    -0.461 OA
BRANCH   2   3
ATOM      3  C   UNL     1       0.064   6.556  -3.550  1.00  0.00     0.324 C 
ATOM      4  O   UNL     1      -1.027   6.666  -4.104  1.00  0.00    -0.250 OA
BRANCH   3   5
ATOM      5  C   UNL     1       0.188   6.050  -2.114  1.00  0.00     0.181 C 
BRANCH   5   6
ATOM      6  N   UNL     1       1.452   5.334  -1.817  1.00  0.00    -0.188 NA
ATOM      7  H   UNL     1       1.484   4.551  -2.470  1.00  0.00     0.143 HD
BRANCH   6   8
ATOM      8  S   UNL     1       1.844   4.695  -0.330  1.00  0.00     0.280 S 
ATOM      9  O   UNL     1       1.235   5.511   0.695  1.00  0.00    -0.195 OA
ATOM     10  O   UNL     1       3.270   4.483  -0.339  1.00  0.00    -0.195 OA
BRANCH   8  11
ATOM     11  N   UNL     1       1.110   3.150  -0.254  1.00  0.00    -0.188 NA
ATOM     12  C   UNL     1       0.718   0.687   2.731  1.00  0.00     0.009 C 
ATOM     13  C   UNL     1       0.682   1.166   1.280  1.00  0.00     0.001 C 
ATOM     14  C   UNL     1      -0.756   1.101   0.755  1.00  0.00     0.009 C 
ATOM     15  C   UNL     1       1.258   2.583   1.140  1.00  0.00     0.106 C 
ATOM     16  C   UNL     1      -0.830   1.620  -0.675  1.00  0.00     0.001 C 
ATOM     17  C   UNL     1      -0.139   0.659  -1.650  1.00  0.00     0.009 C 
ATOM     18  C   UNL     1      -0.277   3.047  -0.744  1.00  0.00     0.106 C 
ENDBRANCH   8  11
ENDBRANCH   6   8
ENDBRANCH   5   6
BRANCH   5  19
ATOM     19  C   UNL     1      -0.244   7.162  -1.151  1.00  0.00     0.042 C 
BRANCH  19  20
ATOM     20  C   UNL     1       0.745   8.301  -0.918  1.00  0.00     0.102 C 
BRANCH  20  21
ATOM     21  C   UNL     1       0.922   9.214  -2.109  1.00  0.00     0.217 C 
ATOM     22  N   UNL     1      -0.206   9.824  -2.566  1.00  0.00    -0.370 N 
ATOM     23  O   UNL     1       2.003   9.409  -2.650  1.00  0.00    -0.275 OA
ATOM     24  H   UNL     1      -1.069   9.658  -2.122  1.00  0.00     0.159 HD
ATOM     25  H   UNL     1      -0.159  10.431  -3.340  1.00  0.00     0.159 HD
ENDBRANCH  20  21
ENDBRANCH  19  20
ENDBRANCH   5  19
ENDBRANCH   3   5
ENDBRANCH   2   3
ENDBRANCH   1   2
BRANCH   1  26
ATOM     26  C   UNL     1       1.701   6.580  -6.503  1.00  0.00     0.275 C 
BRANCH  26  27
ATOM     27  O   UNL     1       0.901   5.389  -6.580  1.00  0.00    -0.458 OA
BRANCH  27  28
ATOM     28  C   UNL     1       1.339   4.379  -5.796  1.00  0.00     0.338 C 
ATOM     29  O   UNL     1       2.332   4.353  -5.091  1.00  0.00    -0.246 OA
BRANCH  28  30
ATOM     30  C   UNL     1       0.347   3.301  -5.797  1.00  0.00     0.060 A 
ATOM     31  C   UNL     1      -0.531   3.228  -4.721  1.00  0.00     0.016 A 
ATOM     32  C   UNL     1       0.380   2.294  -6.758  1.00  0.00     0.016 A 
ATOM     33  C   UNL     1      -1.334   2.109  -4.558  1.00  0.00     0.010 A 
ATOM     34  C   UNL     1      -0.459   1.184  -6.610  1.00  0.00     0.010 A 
ATOM     35  C   UNL     1      -1.291   1.057  -5.482  1.00  0.00    -0.014 A 
BRANCH  35  36
ATOM     36  C   UNL     1      -2.055  -0.193  -5.220  1.00  0.00     0.031 A 
ATOM     37  C   UNL     1      -1.335  -1.512  -5.098  1.00  0.00     0.074 A 
ATOM     38  C   UNL     1      -3.391  -0.146  -5.052  1.00  0.00     0.049 A 
ATOM     39  N   UNL     1      -1.827  -2.725  -5.046  1.00  0.00    -0.248 NA
ATOM     40  C   UNL     1       0.134  -1.461  -5.036  1.00  0.00     0.031 C 
ATOM     41  C   UNL     1      -4.204   1.071  -5.072  1.00  0.00     0.029 A 
ATOM     42  N   UNL     1      -4.303  -1.149  -4.833  1.00  0.00    -0.354 N 
ATOM     43  C   UNL     1      -0.731  -3.580  -5.004  1.00  0.00     0.074 A 
ATOM     44  C   UNL     1       0.453  -2.748  -5.041  1.00  0.00     0.031 C 
ATOM     45  C   UNL     1      -5.486   0.749  -4.850  1.00  0.00     0.029 A 
ATOM     46  C   UNL     1      -5.601  -0.703  -4.777  1.00  0.00     0.049 A 
ATOM     47  H   UNL     1      -4.051  -2.095  -4.726  1.00  0.00     0.167 HD
ATOM     48  C   UNL     1      -0.719  -4.934  -4.944  1.00  0.00     0.037 A 
ATOM     49  C   UNL     1      -6.761  -1.384  -4.736  1.00  0.00     0.037 A 
ATOM     50  C   UNL     1      -1.906  -5.748  -4.860  1.00  0.00     0.049 A 
ATOM     51  C   UNL     1      -6.724  -2.886  -4.737  1.00  0.00     0.074 A 
ATOM     52  C   UNL     1      -2.004  -7.127  -4.771  1.00  0.00     0.029 A 
ATOM     53  N   UNL     1      -3.204  -5.257  -4.849  1.00  0.00    -0.354 N 
ATOM     54  N   UNL     1      -5.687  -3.688  -4.741  1.00  0.00    -0.248 NA
ATOM     55  C   UNL     1      -8.019  -3.577  -4.740  1.00  0.00     0.031 C 
ATOM     56  C   UNL     1      -3.360  -7.471  -4.768  1.00  0.00     0.029 A 
ATOM     57  C   UNL     1      -4.109  -6.306  -4.784  1.00  0.00     0.049 A 
ATOM     58  H   UNL     1      -3.447  -4.303  -4.883  1.00  0.00     0.167 HD
ATOM     59  C   UNL     1      -6.203  -4.977  -4.726  1.00  0.00     0.074 A 
ATOM     60  C   UNL     1      -7.645  -4.847  -4.691  1.00  0.00     0.031 C 
ATOM     61  C   UNL     1      -5.542  -6.160  -4.744  1.00  0.00     0.037 A 
BRANCH  48  62
ATOM     62  C   UNL     1       0.612  -5.633  -5.010  1.00  0.00     0.064 A 
ATOM     63  C   UNL     1       1.541  -5.577  -3.961  1.00  0.00     0.173 A 
ATOM     64  C   UNL     1       0.939  -6.414  -6.130  1.00  0.00     0.173 A 
ATOM     65  F   UNL     1       1.285  -4.840  -2.870  1.00  0.00    -0.203 F 
ATOM     66  C   UNL     1       2.758  -6.253  -4.044  1.00  0.00     0.198 A 
ATOM     67  C   UNL     1       2.140  -7.116  -6.195  1.00  0.00     0.198 A 
ATOM     68  F   UNL     1       0.085  -6.513  -7.160  1.00  0.00    -0.203 F 
ATOM     69  F   UNL     1       3.650  -6.146  -3.049  1.00  0.00    -0.200 F 
ATOM     70  C   UNL     1       3.053  -7.029  -5.155  1.00  0.00     0.200 A 
ATOM     71  F   UNL     1       2.413  -7.880  -7.262  1.00  0.00    -0.200 F 
ATOM     72  F   UNL     1       4.217  -7.688  -5.227  1.00  0.00    -0.200 F 
ENDBRANCH  48  62
BRANCH  49  73
ATOM     73  C   UNL     1      -8.052  -0.646  -4.745  1.00  0.00     0.064 A 
ATOM     74  C   UNL     1      -8.911  -0.678  -3.639  1.00  0.00     0.173 A 
ATOM     75  C   UNL     1      -8.450   0.113  -5.857  1.00  0.00     0.173 A 
ATOM     76  F   UNL     1      -8.587  -1.407  -2.560  1.00  0.00    -0.203 F 
ATOM     77  C   UNL     1     -10.124   0.007  -3.650  1.00  0.00     0.198 A 
ATOM     78  C   UNL     1      -9.644   0.829  -5.852  1.00  0.00     0.198 A 
ATOM     79  F   UNL     1      -7.664   0.181  -6.942  1.00  0.00    -0.203 F 
ATOM     80  F   UNL     1     -10.949  -0.079  -2.597  1.00  0.00    -0.200 F 
ATOM     81  C   UNL     1     -10.485   0.768  -4.752  1.00  0.00     0.200 A 
ATOM     82  F   UNL     1      -9.977   1.580  -6.911  1.00  0.00    -0.200 F 
ATOM     83  F   UNL     1     -11.646   1.438  -4.756  1.00  0.00    -0.200 F 
ENDBRANCH  49  73
BRANCH  61  84
ATOM     84  C   UNL     1      -6.374  -7.410  -4.680  1.00  0.00     0.064 A 
ATOM     85  C   UNL     1      -7.176  -7.822  -5.754  1.00  0.00     0.173 A 
ATOM     86  C   UNL     1      -6.348  -8.218  -3.532  1.00  0.00     0.173 A 
ATOM     87  F   UNL     1      -7.249  -7.076  -6.867  1.00  0.00    -0.203 F 
ATOM     88  C   UNL     1      -7.947  -8.978  -5.670  1.00  0.00     0.198 A 
ATOM     89  C   UNL     1      -7.092  -9.393  -3.466  1.00  0.00     0.198 A 
ATOM     90  F   UNL     1      -5.594  -7.873  -2.478  1.00  0.00    -0.203 F 
ATOM     91  F   UNL     1      -8.752  -9.320  -6.685  1.00  0.00    -0.200 F 
ATOM     92  C   UNL     1      -7.898  -9.766  -4.529  1.00  0.00     0.200 A 
ATOM     93  F   UNL     1      -7.031 -10.160  -2.369  1.00  0.00    -0.200 F 
ATOM     94  F   UNL     1      -8.637 -10.881  -4.452  1.00  0.00    -0.200 F 
ENDBRANCH  61  84
ENDBRANCH  35  36
ENDBRANCH  28  30
ENDBRANCH  27  28
ENDBRANCH  26  27
ENDBRANCH   1  26
TORSDOF 17
