REMARK SMILES Nc1ccccc1NC(=O)N[C@H]1CCCCC[C@H]1C(=O)OCCOC(=O)c1ccc(-c2c3nc(c(-c4c(F)c(F)c(F)c(F)c4F)c4ccc([nH]4)c(-c4c(F)c(F)c(F)c(F)c4F)c4nc(c(-c5c(F)c(F)c(F)c(F)c5F)c5ccc2[nH]5)C=C4)C=C3)cc1
REMARK SMILES IDX 22 1 21 2 19 3 20 4 18 5 12 6 11 7 8 8 9 9 10 11 7 13 2 14
REMARK SMILES IDX 3 15 4 16 6 17 5 18 1 19 13 22 14 23 17 25 16 26 15 27 23 29
REMARK SMILES IDX 24 30 25 31 26 32 27 33 28 34 89 35 29 36 88 37 30 38 31 39
REMARK SMILES IDX 32 40 82 41 33 42 87 43 81 44 83 45 34 46 86 47 80 48 79 49
REMARK SMILES IDX 35 51 67 52 47 53 66 54 48 55 51 56 65 57 84 58 49 59 50 60
REMARK SMILES IDX 64 62 85 63 52 64 36 65 37 66 45 67 38 68 39 69 43 70 46 71
REMARK SMILES IDX 40 72 41 73 44 74 42 75 68 76 69 77 77 78 70 79 71 80 75 81
REMARK SMILES IDX 78 82 72 83 73 84 76 85 74 86 53 87 54 88 62 89 55 90 56 91
REMARK SMILES IDX 60 92 63 93 57 94 58 95 61 96 59 97
REMARK H PARENT 8 10 11 12 1 20 1 21 83 50 51 61
REMARK Flexibility Score: 90.00
ROOT
ATOM      1  C   UNL     1      -5.748   0.034  -1.300  1.00  0.00     0.274 C 
ENDROOT
BRANCH   1   2
ATOM      2  O   UNL     1      -4.537   0.607  -0.759  1.00  0.00    -0.462 OA
BRANCH   2   3
ATOM      3  C   UNL     1      -3.436   0.486  -1.535  1.00  0.00     0.311 C 
ATOM      4  O   UNL     1      -3.439  -0.009  -2.660  1.00  0.00    -0.252 OA
BRANCH   3   5
ATOM      5  C   UNL     1      -2.140   0.939  -0.884  1.00  0.00     0.121 C 
BRANCH   5   6
ATOM      6  C   UNL     1      -2.119   1.906   0.315  1.00  0.00     0.098 C 
BRANCH   6   7
ATOM      7  N   UNL     1      -2.996   3.071   0.218  1.00  0.00    -0.334 N 
ATOM      8  N   UNL     1      -1.751   5.111   0.501  1.00  0.00    -0.306 N 
ATOM      9  C   UNL     1      -2.877   4.395   0.395  1.00  0.00     0.319 C 
ATOM     10  H   UNL     1      -1.954   6.067   0.385  1.00  0.00     0.171 HD
ATOM     11  O   UNL     1      -3.916   5.066   0.349  1.00  0.00    -0.248 OA
ATOM     12  H   UNL     1      -3.911   2.818  -0.044  1.00  0.00     0.165 HD
BRANCH   8  13
ATOM     13  C   UNL     1      -0.377   4.943   0.723  1.00  0.00     0.065 A 
ATOM     14  C   UNL     1       0.496   5.948   0.242  1.00  0.00     0.055 A 
ATOM     15  C   UNL     1       1.874   5.693   0.220  1.00  0.00     0.028 A 
ATOM     16  C   UNL     1       2.396   4.539   0.803  1.00  0.00     0.002 A 
ATOM     17  C   UNL     1       0.166   3.881   1.435  1.00  0.00     0.028 A 
ATOM     18  C   UNL     1       1.543   3.655   1.451  1.00  0.00     0.002 A 
BRANCH  14  19
ATOM     19  N   UNL     1       0.028   7.132  -0.345  1.00  0.00    -0.397 N 
ATOM     20  H   UNL     1       0.668   7.808  -0.667  1.00  0.00     0.156 HD
ATOM     21  H   UNL     1      -0.940   7.288  -0.434  1.00  0.00     0.156 HD
ENDBRANCH  14  19
ENDBRANCH   8  13
ENDBRANCH   6   7
BRANCH   6  22
ATOM     22  C   UNL     1      -2.196   1.298   1.728  1.00  0.00     0.026 C 
BRANCH  22  23
ATOM     23  C   UNL     1      -2.968  -0.001   1.918  1.00  0.00     0.002 CG0
ATOM     24  G   UNL     1      -2.154  -1.240   1.558  1.00  0.00     0.000 G0
ENDBRANCH  22  23
ENDBRANCH   6  22
ENDBRANCH   5   6
BRANCH   5  25
ATOM     25  C   UNL     1      -1.230  -0.286  -0.663  1.00  0.00     0.017 C 
BRANCH  25  26
ATOM     26  C   UNL     1      -1.875  -1.458   0.076  1.00  0.00     0.001 C 
BRANCH  26  27
ATOM     27  C   UNL     1      -2.154  -1.240   1.558  1.00  0.00     0.000 CG0
ATOM     28  G   UNL     1      -2.968  -0.001   1.918  1.00  0.00     0.000 G0
ENDBRANCH  26  27
ENDBRANCH  25  26
ENDBRANCH   5  25
ENDBRANCH   3   5
ENDBRANCH   2   3
ENDBRANCH   1   2
BRANCH   1  29
ATOM     29  C   UNL     1      -6.663   1.080  -1.941  1.00  0.00     0.275 C 
BRANCH  29  30
ATOM     30  O   UNL     1      -6.037   1.741  -3.053  1.00  0.00    -0.458 OA
BRANCH  30  31
ATOM     31  C   UNL     1      -5.313   2.828  -2.699  1.00  0.00     0.338 C 
ATOM     32  O   UNL     1      -5.173   3.272  -1.575  1.00  0.00    -0.246 OA
BRANCH  31  33
ATOM     33  C   UNL     1      -4.611   3.368  -3.866  1.00  0.00     0.060 A 
ATOM     34  C   UNL     1      -3.248   3.102  -4.026  1.00  0.00     0.016 A 
ATOM     35  C   UNL     1      -5.282   4.207  -4.752  1.00  0.00     0.016 A 
ATOM     36  C   UNL     1      -2.544   3.665  -5.085  1.00  0.00     0.010 A 
ATOM     37  C   UNL     1      -4.580   4.759  -5.823  1.00  0.00     0.010 A 
ATOM     38  C   UNL     1      -3.210   4.490  -5.997  1.00  0.00    -0.014 A 
BRANCH  38  39
ATOM     39  C   UNL     1      -2.501   5.084  -7.150  1.00  0.00     0.031 A 
ATOM     40  C   UNL     1      -2.261   6.561  -7.188  1.00  0.00     0.074 A 
ATOM     41  C   UNL     1      -2.159   4.304  -8.191  1.00  0.00     0.049 A 
ATOM     42  N   UNL     1      -1.939   7.321  -8.200  1.00  0.00    -0.248 NA
ATOM     43  C   UNL     1      -2.418   7.279  -5.914  1.00  0.00     0.031 C 
ATOM     44  C   UNL     1      -2.286   2.848  -8.234  1.00  0.00     0.029 A 
ATOM     45  N   UNL     1      -1.669   4.637  -9.428  1.00  0.00    -0.354 N 
ATOM     46  C   UNL     1      -1.898   8.614  -7.699  1.00  0.00     0.074 A 
ATOM     47  C   UNL     1      -2.219   8.535  -6.289  1.00  0.00     0.031 C 
ATOM     48  C   UNL     1      -1.912   2.413  -9.447  1.00  0.00     0.029 A 
ATOM     49  C   UNL     1      -1.590   3.565 -10.283  1.00  0.00     0.049 A 
ATOM     50  H   UNL     1      -1.402   5.551  -9.679  1.00  0.00     0.167 HD
ATOM     51  C   UNL     1      -1.629   9.759  -8.369  1.00  0.00     0.037 A 
ATOM     52  C   UNL     1      -1.347   3.527 -11.606  1.00  0.00     0.037 A 
ATOM     53  C   UNL     1      -1.292   9.811  -9.768  1.00  0.00     0.049 A 
ATOM     54  C   UNL     1      -1.120   4.817 -12.344  1.00  0.00     0.074 A 
ATOM     55  C   UNL     1      -0.984  10.915 -10.543  1.00  0.00     0.029 A 
ATOM     56  N   UNL     1      -1.220   8.703 -10.601  1.00  0.00    -0.354 N 
ATOM     57  N   UNL     1      -1.111   6.043 -11.879  1.00  0.00    -0.248 NA
ATOM     58  C   UNL     1      -0.887   4.721 -13.791  1.00  0.00     0.031 C 
ATOM     59  C   UNL     1      -0.763  10.479 -11.854  1.00  0.00     0.029 A 
ATOM     60  C   UNL     1      -0.889   9.099 -11.886  1.00  0.00     0.049 A 
ATOM     61  H   UNL     1      -1.380   7.773 -10.319  1.00  0.00     0.167 HD
ATOM     62  C   UNL     1      -0.844   6.862 -12.967  1.00  0.00     0.074 A 
ATOM     63  C   UNL     1      -0.697   5.993 -14.117  1.00  0.00     0.031 C 
ATOM     64  C   UNL     1      -0.729   8.211 -13.009  1.00  0.00     0.037 A 
BRANCH  51  65
ATOM     65  C   UNL     1      -1.730  11.049  -7.613  1.00  0.00     0.064 A 
ATOM     66  C   UNL     1      -0.770  11.431  -6.665  1.00  0.00     0.173 A 
ATOM     67  C   UNL     1      -2.788  11.936  -7.871  1.00  0.00     0.173 A 
ATOM     68  F   UNL     1       0.252  10.614  -6.373  1.00  0.00    -0.203 F 
ATOM     69  C   UNL     1      -0.876  12.644  -5.989  1.00  0.00     0.198 A 
ATOM     70  C   UNL     1      -2.877  13.159  -7.212  1.00  0.00     0.198 A 
ATOM     71  F   UNL     1      -3.731  11.620  -8.771  1.00  0.00    -0.203 F 
ATOM     72  F   UNL     1       0.032  12.972  -5.059  1.00  0.00    -0.200 F 
ATOM     73  C   UNL     1      -1.924  13.509  -6.267  1.00  0.00     0.200 A 
ATOM     74  F   UNL     1      -3.884  13.998  -7.490  1.00  0.00    -0.200 F 
ATOM     75  F   UNL     1      -2.019  14.680  -5.621  1.00  0.00    -0.200 F 
ENDBRANCH  51  65
BRANCH  52  76
ATOM     76  C   UNL     1      -1.350   2.224 -12.318  1.00  0.00     0.064 A 
ATOM     77  C   UNL     1      -0.159   1.674 -12.811  1.00  0.00     0.173 A 
ATOM     78  C   UNL     1      -2.534   1.494 -12.505  1.00  0.00     0.173 A 
ATOM     79  F   UNL     1       0.993   2.347 -12.677  1.00  0.00    -0.203 F 
ATOM     80  C   UNL     1      -0.153   0.447 -13.470  1.00  0.00     0.198 A 
ATOM     81  C   UNL     1      -2.522   0.255 -13.141  1.00  0.00     0.198 A 
ATOM     82  F   UNL     1      -3.700   1.978 -12.053  1.00  0.00    -0.203 F 
ATOM     83  F   UNL     1       0.994  -0.041 -13.961  1.00  0.00    -0.200 F 
ATOM     84  C   UNL     1      -1.333  -0.265 -13.627  1.00  0.00     0.200 A 
ATOM     85  F   UNL     1      -3.662  -0.435 -13.280  1.00  0.00    -0.200 F 
ATOM     86  F   UNL     1      -1.324  -1.450 -14.253  1.00  0.00    -0.200 F 
ENDBRANCH  52  76
BRANCH  64  87
ATOM     87  C   UNL     1      -0.374   8.828 -14.328  1.00  0.00     0.064 A 
ATOM     88  C   UNL     1      -1.321   8.968 -15.352  1.00  0.00     0.173 A 
ATOM     89  C   UNL     1       0.914   9.341 -14.542  1.00  0.00     0.173 A 
ATOM     90  F   UNL     1      -2.560   8.478 -15.198  1.00  0.00    -0.203 F 
ATOM     91  C   UNL     1      -0.985   9.592 -16.550  1.00  0.00     0.198 A 
ATOM     92  C   UNL     1       1.238   9.984 -15.731  1.00  0.00     0.198 A 
ATOM     93  F   UNL     1       1.851   9.233 -13.588  1.00  0.00    -0.203 F 
ATOM     94  F   UNL     1      -1.895   9.690 -17.530  1.00  0.00    -0.200 F 
ATOM     95  C   UNL     1       0.290  10.107 -16.736  1.00  0.00     0.200 A 
ATOM     96  F   UNL     1       2.467  10.490 -15.905  1.00  0.00    -0.200 F 
ATOM     97  F   UNL     1       0.606  10.718 -17.885  1.00  0.00    -0.200 F 
ENDBRANCH  64  87
ENDBRANCH  38  39
ENDBRANCH  31  33
ENDBRANCH  30  31
ENDBRANCH  29  30
ENDBRANCH   1  29
TORSDOF 14
