REMARK SMILES CN(C)Nc1ncnc(Nc2ccc(C(=O)OCCOC(=O)c3ccc(-c4c5nc(c(-c6c(F)c(F)c(F)c(F)c6F)c6ccc([nH]6)c(-c6c(F)c(F)c(F)c(F)c6F)c6nc(c(-c7c(F)c(F)c(F)c(F)c7F)c7ccc4[nH]7)C=C6)C=C5)cc3)cc2)c1[N+](=O)[O-]
REMARK SMILES IDX 18 1 17 2 15 3 16 4 14 5 11 6 12 7 87 8 13 9 86 10 10 11
REMARK SMILES IDX 9 13 5 14 6 15 88 16 7 17 8 18 4 19 2 21 1 22 3 23 89 24
REMARK SMILES IDX 90 25 91 26 19 27 20 28 21 29 22 30 23 31 24 32 85 33 25 34
REMARK SMILES IDX 84 35 26 36 27 37 28 38 78 39 29 40 83 41 77 42 79 43 30 44
REMARK SMILES IDX 82 45 76 46 75 47 31 49 63 50 43 51 62 52 44 53 47 54 61 55
REMARK SMILES IDX 80 56 45 57 46 58 60 60 81 61 48 62 32 63 33 64 41 65 34 66
REMARK SMILES IDX 35 67 39 68 42 69 36 70 37 71 40 72 38 73 64 74 65 75 73 76
REMARK SMILES IDX 66 77 67 78 71 79 74 80 68 81 69 82 72 83 70 84 49 85 50 86
REMARK SMILES IDX 58 87 51 88 52 89 56 90 59 91 53 92 54 93 57 94 55 95
REMARK H PARENT 10 12 4 20 79 48 47 59
REMARK Flexibility Score: inf
ROOT
ATOM      1  C   UNL     1       7.975  -9.269   0.267  1.00  0.00     0.275 C 
ENDROOT
BRANCH   1   2
ATOM      2  O   UNL     1       7.135  -8.102   0.150  1.00  0.00    -0.458 OA
BRANCH   2   3
ATOM      3  C   UNL     1       7.476  -7.074   0.963  1.00  0.00     0.338 C 
ATOM      4  O   UNL     1       8.366  -7.060   1.798  1.00  0.00    -0.246 OA
BRANCH   3   5
ATOM      5  C   UNL     1       6.665  -5.879   0.659  1.00  0.00     0.060 A 
ATOM      6  C   UNL     1       5.187  -3.506   0.440  1.00  0.00     0.040 A 
ATOM      7  C   UNL     1       6.580  -3.465   0.453  1.00  0.00     0.027 A 
ATOM      8  C   UNL     1       4.546  -4.756   0.478  1.00  0.00     0.027 A 
ATOM      9  C   UNL     1       7.311  -4.640   0.593  1.00  0.00     0.018 A 
ATOM     10  C   UNL     1       5.278  -5.945   0.566  1.00  0.00     0.018 A 
BRANCH   6  11
ATOM     11  N   UNL     1       4.488  -2.294   0.566  1.00  0.00    -0.334 N 
ATOM     12  H   UNL     1       4.746  -1.572  -0.051  1.00  0.00     0.168 HD
BRANCH  11  13
ATOM     13  C   UNL     1       3.458  -2.002   1.479  1.00  0.00     0.215 A 
ATOM     14  C   UNL     1       1.591  -0.734   2.207  1.00  0.00     0.225 A 
ATOM     15  N   UNL     1       1.297  -1.669   3.135  1.00  0.00    -0.212 NA
ATOM     16  C   UNL     1       2.729  -0.829   1.433  1.00  0.00     0.354 A 
ATOM     17  C   UNL     1       2.102  -2.730   3.194  1.00  0.00     0.227 A 
ATOM     18  N   UNL     1       3.135  -2.957   2.381  1.00  0.00    -0.212 NA
BRANCH  14  19
ATOM     19  N   UNL     1       0.565   0.200   2.035  1.00  0.00    -0.298 N 
ATOM     20  H   UNL     1       0.064   0.487   2.832  1.00  0.00     0.184 HD
BRANCH  19  21
ATOM     21  N   UNL     1       0.199   0.758   0.785  1.00  0.00    -0.228 NA
ATOM     22  C   UNL     1      -0.083  -0.292  -0.212  1.00  0.00     0.130 C 
ATOM     23  C   UNL     1      -1.035   1.532   0.999  1.00  0.00     0.130 C 
ENDBRANCH  19  21
ENDBRANCH  14  19
BRANCH  16  24
ATOM     24  N   UNL     1       3.213   0.303   0.697  1.00  0.00     0.070 N 
ATOM     25  O   UNL     1       3.518   0.126  -0.493  1.00  0.00    -0.258 OA
ATOM     26  O   UNL     1       3.431   1.344   1.333  1.00  0.00    -0.258 OA
ENDBRANCH  16  24
ENDBRANCH  11  13
ENDBRANCH   6  11
ENDBRANCH   3   5
ENDBRANCH   2   3
ENDBRANCH   1   2
BRANCH   1  27
ATOM     27  C   UNL     1       9.095  -9.232  -0.773  1.00  0.00     0.275 C 
BRANCH  27  28
ATOM     28  O   UNL     1       9.957  -8.108  -0.519  1.00  0.00    -0.458 OA
BRANCH  28  29
ATOM     29  C   UNL     1      10.441  -7.473  -1.613  1.00  0.00     0.338 C 
ATOM     30  O   UNL     1      10.282  -7.799  -2.776  1.00  0.00    -0.246 OA
BRANCH  29  31
ATOM     31  C   UNL     1      11.216  -6.274  -1.214  1.00  0.00     0.060 A 
ATOM     32  C   UNL     1      10.828  -5.492  -0.128  1.00  0.00     0.016 A 
ATOM     33  C   UNL     1      12.291  -5.861  -1.999  1.00  0.00     0.016 A 
ATOM     34  C   UNL     1      11.421  -4.247   0.100  1.00  0.00     0.010 A 
ATOM     35  C   UNL     1      12.967  -4.671  -1.694  1.00  0.00     0.010 A 
ATOM     36  C   UNL     1      12.514  -3.821  -0.668  1.00  0.00    -0.014 A 
BRANCH  36  37
ATOM     37  C   UNL     1      13.158  -2.489  -0.442  1.00  0.00     0.031 A 
ATOM     38  C   UNL     1      13.328  -1.524  -1.591  1.00  0.00     0.074 A 
ATOM     39  C   UNL     1      13.599  -2.119   0.779  1.00  0.00     0.049 A 
ATOM     40  N   UNL     1      14.074  -0.450  -1.672  1.00  0.00    -0.248 NA
ATOM     41  C   UNL     1      12.573  -1.818  -2.820  1.00  0.00     0.031 C 
ATOM     42  C   UNL     1      13.477  -2.906   2.006  1.00  0.00     0.029 A 
ATOM     43  N   UNL     1      14.240  -0.972   1.188  1.00  0.00    -0.354 N 
ATOM     44  C   UNL     1      13.945   0.007  -2.978  1.00  0.00     0.074 A 
ATOM     45  C   UNL     1      13.034  -0.894  -3.651  1.00  0.00     0.031 C 
ATOM     46  C   UNL     1      13.973  -2.202   3.035  1.00  0.00     0.029 A 
ATOM     47  C   UNL     1      14.540  -0.957   2.529  1.00  0.00     0.049 A 
ATOM     48  H   UNL     1      14.463  -0.232   0.578  1.00  0.00     0.167 HD
ATOM     49  C   UNL     1      14.540   1.074  -3.565  1.00  0.00     0.037 A 
ATOM     50  C   UNL     1      15.234  -0.069   3.268  1.00  0.00     0.037 A 
ATOM     51  C   UNL     1      15.374   2.025  -2.879  1.00  0.00     0.049 A 
ATOM     52  C   UNL     1      15.862   1.123   2.604  1.00  0.00     0.074 A 
ATOM     53  C   UNL     1      16.018   3.140  -3.391  1.00  0.00     0.029 A 
ATOM     54  N   UNL     1      15.649   1.996  -1.521  1.00  0.00    -0.354 N 
ATOM     55  N   UNL     1      15.827   1.480   1.344  1.00  0.00    -0.248 NA
ATOM     56  C   UNL     1      16.655   2.018   3.460  1.00  0.00     0.031 C 
ATOM     57  C   UNL     1      16.693   3.778  -2.344  1.00  0.00     0.029 A 
ATOM     58  C   UNL     1      16.446   3.076  -1.177  1.00  0.00     0.049 A 
ATOM     59  H   UNL     1      15.326   1.309  -0.893  1.00  0.00     0.167 HD
ATOM     60  C   UNL     1      16.594   2.632   1.254  1.00  0.00     0.074 A 
ATOM     61  C   UNL     1      17.059   2.934   2.592  1.00  0.00     0.031 C 
ATOM     62  C   UNL     1      16.899   3.365   0.157  1.00  0.00     0.037 A 
BRANCH  49  63
ATOM     63  C   UNL     1      14.338   1.261  -5.039  1.00  0.00     0.064 A 
ATOM     64  C   UNL     1      13.141   1.764  -5.567  1.00  0.00     0.173 A 
ATOM     65  C   UNL     1      15.386   0.984  -5.931  1.00  0.00     0.173 A 
ATOM     66  F   UNL     1      12.106   2.030  -4.756  1.00  0.00    -0.203 F 
ATOM     67  C   UNL     1      12.995   1.967  -6.937  1.00  0.00     0.198 A 
ATOM     68  C   UNL     1      15.245   1.211  -7.297  1.00  0.00     0.198 A 
ATOM     69  F   UNL     1      16.554   0.508  -5.474  1.00  0.00    -0.203 F 
ATOM     70  F   UNL     1      11.831   2.418  -7.425  1.00  0.00    -0.200 F 
ATOM     71  C   UNL     1      14.048   1.698  -7.799  1.00  0.00     0.200 A 
ATOM     72  F   UNL     1      16.267   0.961  -8.126  1.00  0.00    -0.200 F 
ATOM     73  F   UNL     1      13.909   1.906  -9.116  1.00  0.00    -0.200 F 
ENDBRANCH  49  63
BRANCH  50  74
ATOM     74  C   UNL     1      15.413  -0.303   4.725  1.00  0.00     0.064 A 
ATOM     75  C   UNL     1      14.764   0.505   5.667  1.00  0.00     0.173 A 
ATOM     76  C   UNL     1      16.227  -1.342   5.202  1.00  0.00     0.173 A 
ATOM     77  F   UNL     1      14.001   1.530   5.258  1.00  0.00    -0.203 F 
ATOM     78  C   UNL     1      14.925   0.286   7.034  1.00  0.00     0.198 A 
ATOM     79  C   UNL     1      16.364  -1.577   6.568  1.00  0.00     0.198 A 
ATOM     80  F   UNL     1      16.872  -2.140   4.339  1.00  0.00    -0.203 F 
ATOM     81  F   UNL     1      14.322   1.095   7.915  1.00  0.00    -0.200 F 
ATOM     82  C   UNL     1      15.716  -0.761   7.482  1.00  0.00     0.200 A 
ATOM     83  F   UNL     1      17.120  -2.597   6.996  1.00  0.00    -0.200 F 
ATOM     84  F   UNL     1      15.861  -0.978   8.797  1.00  0.00    -0.200 F 
ENDBRANCH  50  74
BRANCH  62  85
ATOM     85  C   UNL     1      17.766   4.569   0.360  1.00  0.00     0.064 A 
ATOM     86  C   UNL     1      19.149   4.446   0.553  1.00  0.00     0.173 A 
ATOM     87  C   UNL     1      17.214   5.858   0.334  1.00  0.00     0.173 A 
ATOM     88  F   UNL     1      19.718   3.232   0.601  1.00  0.00    -0.203 F 
ATOM     89  C   UNL     1      19.948   5.571   0.732  1.00  0.00     0.198 A 
ATOM     90  C   UNL     1      18.018   6.982   0.495  1.00  0.00     0.198 A 
ATOM     91  F   UNL     1      15.896   6.025   0.150  1.00  0.00    -0.203 F 
ATOM     92  F   UNL     1      21.262   5.431   0.951  1.00  0.00    -0.200 F 
ATOM     93  C   UNL     1      19.383   6.838   0.698  1.00  0.00     0.200 A 
ATOM     94  F   UNL     1      17.473   8.206   0.458  1.00  0.00    -0.200 F 
ATOM     95  F   UNL     1      20.154   7.921   0.871  1.00  0.00    -0.200 F 
ENDBRANCH  62  85
ENDBRANCH  36  37
ENDBRANCH  29  31
ENDBRANCH  28  29
ENDBRANCH  27  28
ENDBRANCH   1  27
TORSDOF 16
