REMARK SMILES C[C@H](CSc1ccc(C(=O)N(C)C)cn1)C(=O)OCCOC(=O)c1ccc(-c2c3nc(c(-c4c(F)c(F)c(F)c(F)c4F)c4ccc([nH]4)c(-c4c(F)c(F)c(F)c(F)c4F)c4nc(c(-c5c(F)c(F)c(F)c(F)c5F)c5ccc2[nH]5)C=C4)C=C3)cc1
REMARK SMILES IDX 19 1 18 2 16 3 17 4 2 5 1 6 3 7 4 8 5 9 6 10 15 11 7 12
REMARK SMILES IDX 14 13 8 14 9 15 10 16 11 17 12 18 13 19 20 20 21 21 22 22
REMARK SMILES IDX 23 23 24 24 25 25 86 26 26 27 85 28 27 29 28 30 29 31 79 32
REMARK SMILES IDX 30 33 84 34 78 35 80 36 31 37 83 38 77 39 76 40 32 42 64 43
REMARK SMILES IDX 44 44 63 45 45 46 48 47 62 48 81 49 46 50 47 51 61 53 82 54
REMARK SMILES IDX 49 55 33 56 34 57 42 58 35 59 36 60 40 61 43 62 37 63 38 64
REMARK SMILES IDX 41 65 39 66 65 67 66 68 74 69 67 70 68 71 72 72 75 73 69 74
REMARK SMILES IDX 70 75 73 76 71 77 50 78 51 79 59 80 52 81 53 82 57 83 60 84
REMARK SMILES IDX 54 85 55 86 58 87 56 88
REMARK H PARENT 80 41 48 52
REMARK Flexibility Score: inf
ROOT
ATOM      1  C   UNL     1      -2.738  -1.903  -0.466  1.00  0.00     0.274 C 
ENDROOT
BRANCH   1   2
ATOM      2  O   UNL     1      -1.336  -2.215  -0.303  1.00  0.00    -0.462 OA
BRANCH   2   3
ATOM      3  C   UNL     1      -0.669  -2.533  -1.435  1.00  0.00     0.309 C 
ATOM      4  O   UNL     1      -1.189  -3.103  -2.390  1.00  0.00    -0.252 OA
BRANCH   3   5
ATOM      5  C   UNL     1       0.750  -1.973  -1.510  1.00  0.00     0.106 C 
ATOM      6  C   UNL     1       1.765  -3.111  -1.509  1.00  0.00     0.021 C 
BRANCH   5   7
ATOM      7  C   UNL     1       1.225  -0.771  -0.663  1.00  0.00     0.091 C 
BRANCH   7   8
ATOM      8  S   UNL     1       0.425  -0.209   0.861  1.00  0.00    -0.106 SA
BRANCH   8   9
ATOM      9  C   UNL     1      -1.167   0.338   0.291  1.00  0.00     0.096 A 
ATOM     10  C   UNL     1      -1.784   0.198  -1.404  1.00  0.00     0.036 A 
ATOM     11  N   UNL     1      -2.214   0.920   1.584  1.00  0.00    -0.249 NA
ATOM     12  C   UNL     1      -3.507   0.628  -1.751  1.00  0.00     0.018 A 
ATOM     13  C   UNL     1      -3.889   1.363   1.208  1.00  0.00     0.126 A 
ATOM     14  C   UNL     1      -4.567   1.256  -0.444  1.00  0.00     0.058 A 
BRANCH  14  15
ATOM     15  C   UNL     1      -5.967   1.712  -0.555  1.00  0.00     0.254 C 
ATOM     16  O   UNL     1      -6.362   2.402   0.386  1.00  0.00    -0.269 OA
ATOM     17  N   UNL     1      -6.804   1.357  -1.608  1.00  0.00    -0.345 N 
ATOM     18  C   UNL     1      -6.479   0.475  -2.710  1.00  0.00     0.146 C 
ATOM     19  C   UNL     1      -8.183   1.830  -1.567  1.00  0.00     0.146 C 
ENDBRANCH  14  15
ENDBRANCH   8   9
ENDBRANCH   7   8
ENDBRANCH   5   7
ENDBRANCH   3   5
ENDBRANCH   2   3
ENDBRANCH   1   2
BRANCH   1  20
ATOM     20  C   UNL     1      -3.204  -0.478   0.244  1.00  0.00     0.275 C 
BRANCH  20  21
ATOM     21  O   UNL     1      -2.633   1.399  -0.228  1.00  0.00    -0.458 OA
BRANCH  21  22
ATOM     22  C   UNL     1      -2.238   2.759  -0.167  1.00  0.00     0.338 C 
ATOM     23  O   UNL     1      -2.186   3.504   0.799  1.00  0.00    -0.246 OA
BRANCH  22  24
ATOM     24  C   UNL     1      -1.894   3.281  -1.514  1.00  0.00     0.060 A 
ATOM     25  C   UNL     1      -0.671   2.964  -2.124  1.00  0.00     0.016 A 
ATOM     26  C   UNL     1      -2.774   4.171  -2.132  1.00  0.00     0.016 A 
ATOM     27  C   UNL     1      -0.337   3.511  -3.368  1.00  0.00     0.010 A 
ATOM     28  C   UNL     1      -2.428   4.741  -3.361  1.00  0.00     0.010 A 
ATOM     29  C   UNL     1      -1.199   4.433  -3.974  1.00  0.00    -0.014 A 
BRANCH  29  30
ATOM     30  C   UNL     1      -0.735   5.274  -5.105  1.00  0.00     0.031 A 
ATOM     31  C   UNL     1      -0.138   6.614  -4.783  1.00  0.00     0.074 A 
ATOM     32  C   UNL     1      -0.877   4.898  -6.387  1.00  0.00     0.049 A 
ATOM     33  N   UNL     1       0.140   7.615  -5.577  1.00  0.00    -0.248 NA
ATOM     34  C   UNL     1       0.182   6.855  -3.367  1.00  0.00     0.031 C 
ATOM     35  C   UNL     1      -1.366   3.602  -6.843  1.00  0.00     0.029 A 
ATOM     36  N   UNL     1      -0.644   5.602  -7.545  1.00  0.00    -0.354 N 
ATOM     37  C   UNL     1       0.635   8.616  -4.753  1.00  0.00     0.074 A 
ATOM     38  C   UNL     1       0.628   8.100  -3.401  1.00  0.00     0.031 C 
ATOM     39  C   UNL     1      -1.436   3.614  -8.187  1.00  0.00     0.029 A 
ATOM     40  C   UNL     1      -1.045   4.937  -8.677  1.00  0.00     0.049 A 
ATOM     41  H   UNL     1      -0.231   6.495  -7.561  1.00  0.00     0.167 HD
ATOM     42  C   UNL     1       1.045   9.861  -5.089  1.00  0.00     0.037 A 
ATOM     43  C   UNL     1      -1.137   5.366  -9.953  1.00  0.00     0.037 A 
ATOM     44  C   UNL     1       1.053  10.381  -6.428  1.00  0.00     0.049 A 
ATOM     45  C   UNL     1      -0.751   6.782 -10.300  1.00  0.00     0.074 A 
ATOM     46  C   UNL     1       1.461  11.627  -6.868  1.00  0.00     0.029 A 
ATOM     47  N   UNL     1       0.622   9.681  -7.545  1.00  0.00    -0.354 N 
ATOM     48  N   UNL     1      -0.299   7.733  -9.518  1.00  0.00    -0.248 NA
ATOM     49  C   UNL     1      -0.903   7.189 -11.706  1.00  0.00     0.031 C 
ATOM     50  C   UNL     1       1.236  11.697  -8.247  1.00  0.00     0.029 A 
ATOM     51  C   UNL     1       0.731  10.479  -8.671  1.00  0.00     0.049 A 
ATOM     52  H   UNL     1       0.288   8.755  -7.537  1.00  0.00     0.167 HD
ATOM     53  C   UNL     1      -0.094   8.838 -10.336  1.00  0.00     0.074 A 
ATOM     54  C   UNL     1      -0.466   8.442 -11.677  1.00  0.00     0.031 C 
ATOM     55  C   UNL     1       0.365  10.070 -10.003  1.00  0.00     0.037 A 
BRANCH  42  56
ATOM     56  C   UNL     1       1.462  10.763  -3.968  1.00  0.00     0.064 A 
ATOM     57  C   UNL     1       2.676  10.585  -3.289  1.00  0.00     0.173 A 
ATOM     58  C   UNL     1       0.625  11.812  -3.563  1.00  0.00     0.173 A 
ATOM     59  F   UNL     1       3.498   9.581  -3.627  1.00  0.00    -0.203 F 
ATOM     60  C   UNL     1       3.022  11.410  -2.222  1.00  0.00     0.198 A 
ATOM     61  C   UNL     1       0.986  12.651  -2.514  1.00  0.00     0.198 A 
ATOM     62  F   UNL     1      -0.547  12.020  -4.183  1.00  0.00    -0.203 F 
ATOM     63  F   UNL     1       4.162  11.192  -1.552  1.00  0.00    -0.200 F 
ATOM     64  C   UNL     1       2.180  12.444  -1.838  1.00  0.00     0.200 A 
ATOM     65  F   UNL     1       0.175  13.653  -2.149  1.00  0.00    -0.200 F 
ATOM     66  F   UNL     1       2.514  13.235  -0.810  1.00  0.00    -0.200 F 
ENDBRANCH  42  56
BRANCH  43  67
ATOM     67  C   UNL     1      -1.673   4.455 -10.996  1.00  0.00     0.064 A 
ATOM     68  C   UNL     1      -0.842   3.925 -11.992  1.00  0.00     0.173 A 
ATOM     69  C   UNL     1      -3.030   4.101 -11.020  1.00  0.00     0.173 A 
ATOM     70  F   UNL     1       0.456   4.260 -12.029  1.00  0.00    -0.203 F 
ATOM     71  C   UNL     1      -1.349   3.076 -12.975  1.00  0.00     0.198 A 
ATOM     72  C   UNL     1      -3.531   3.234 -11.988  1.00  0.00     0.198 A 
ATOM     73  F   UNL     1      -3.867   4.588 -10.092  1.00  0.00    -0.203 F 
ATOM     74  F   UNL     1      -0.541   2.608 -13.935  1.00  0.00    -0.200 F 
ATOM     75  C   UNL     1      -2.692   2.726 -12.967  1.00  0.00     0.200 A 
ATOM     76  F   UNL     1      -4.826   2.891 -11.971  1.00  0.00    -0.200 F 
ATOM     77  F   UNL     1      -3.177   1.903 -13.907  1.00  0.00    -0.200 F 
ENDBRANCH  43  67
BRANCH  55  78
ATOM     78  C   UNL     1       0.530  11.077 -11.103  1.00  0.00     0.064 A 
ATOM     79  C   UNL     1      -0.571  11.738 -11.666  1.00  0.00     0.173 A 
ATOM     80  C   UNL     1       1.812  11.442 -11.542  1.00  0.00     0.173 A 
ATOM     81  F   UNL     1      -1.817  11.415 -11.289  1.00  0.00    -0.203 F 
ATOM     82  C   UNL     1      -0.394  12.723 -12.635  1.00  0.00     0.198 A 
ATOM     83  C   UNL     1       1.986  12.443 -12.493  1.00  0.00     0.198 A 
ATOM     84  F   UNL     1       2.897  10.844 -11.029  1.00  0.00    -0.203 F 
ATOM     85  F   UNL     1      -1.461  13.325 -13.179  1.00  0.00    -0.200 F 
ATOM     86  C   UNL     1       0.883  13.081 -13.041  1.00  0.00     0.200 A 
ATOM     87  F   UNL     1       3.221  12.796 -12.876  1.00  0.00    -0.200 F 
ATOM     88  F   UNL     1       1.052  14.040 -13.962  1.00  0.00    -0.200 F 
ENDBRANCH  55  78
ENDBRANCH  29  30
ENDBRANCH  22  24
ENDBRANCH  21  22
ENDBRANCH  20  21
ENDBRANCH   1  20
TORSDOF 15
