REMARK SMILES CCc1cc2c(=O)c(-c3nc(C)cs3)coc2cc1O[C@H](C)C(=O)OCCOC(=O)c1ccc(-c2c3nc(c(-c4c(F)c(F)c(F)c(F)c4F)c4ccc([nH]4)c(-c4c(F)c(F)c(F)c(F)c4F)c4nc(c(-c5c(F)c(F)c(F)c(F)c5F)c5ccc2[nH]5)C=C4)C=C3)cc1
REMARK SMILES IDX 26 1 25 2 23 3 24 4 21 5 22 6 20 7 19 8 3 9 4 10 5 11 18 12
REMARK SMILES IDX 6 13 17 14 7 15 8 16 16 17 15 18 2 19 1 20 9 21 10 22 14 23
REMARK SMILES IDX 11 24 13 25 12 26 27 27 28 28 29 29 30 30 31 31 32 32 93 33
REMARK SMILES IDX 33 34 92 35 34 36 35 37 36 38 86 39 37 40 91 41 85 42 87 43
REMARK SMILES IDX 38 44 90 45 84 46 83 47 39 49 71 50 51 51 70 52 52 53 55 54
REMARK SMILES IDX 69 55 88 56 53 57 54 58 68 60 89 61 56 62 40 63 41 64 49 65
REMARK SMILES IDX 42 66 43 67 47 68 50 69 44 70 45 71 48 72 46 73 72 74 73 75
REMARK SMILES IDX 81 76 74 77 75 78 79 79 82 80 76 81 77 82 80 83 78 84 57 85
REMARK SMILES IDX 58 86 66 87 59 88 60 89 64 90 67 91 61 92 62 93 65 94 63 95
REMARK H PARENT 87 48 55 59
REMARK Flexibility Score: inf
ROOT
ATOM      1  C   UNL     1      -1.442  -0.537   0.883  1.00  0.00     0.274 C 
ENDROOT
BRANCH   1   2
ATOM      2  O   UNL     1      -0.083  -0.896   0.568  1.00  0.00    -0.459 OA
BRANCH   2   3
ATOM      3  C   UNL     1       0.771   0.148   0.388  1.00  0.00     0.347 C 
ATOM      4  O   UNL     1       0.423   1.323   0.457  1.00  0.00    -0.248 OA
BRANCH   3   5
ATOM      5  C   UNL     1       2.231  -0.281   0.129  1.00  0.00     0.279 C 
ATOM      6  C   UNL     1       2.496  -1.741   0.496  1.00  0.00     0.066 C 
BRANCH   5   7
ATOM      7  O   UNL     1       2.676  -0.115  -1.211  1.00  0.00    -0.479 OA
BRANCH   7   8
ATOM      8  C   UNL     1       2.815   1.125  -1.763  1.00  0.00     0.127 A 
ATOM      9  C   UNL     1       3.035   1.163  -3.154  1.00  0.00    -0.005 A 
ATOM     10  C   UNL     1       3.030   2.416  -3.801  1.00  0.00     0.023 A 
ATOM     11  C   UNL     1       2.856   3.600  -3.081  1.00  0.00     0.066 A 
ATOM     12  C   UNL     1       2.729   2.326  -1.043  1.00  0.00     0.094 A 
ATOM     13  C   UNL     1       2.802   4.903  -3.770  1.00  0.00     0.202 A 
ATOM     14  C   UNL     1       2.730   3.556  -1.701  1.00  0.00     0.141 A 
ATOM     15  O   UNL     1       2.925   4.966  -4.987  1.00  0.00    -0.288 OA
ATOM     16  C   UNL     1       2.608   6.091  -2.905  1.00  0.00     0.094 A 
ATOM     17  O   UNL     1       2.583   4.683  -0.931  1.00  0.00    -0.463 OA
ATOM     18  C   UNL     1       2.533   5.895  -1.581  1.00  0.00     0.211 A 
BRANCH   9  19
ATOM     19  C   UNL     1       3.223  -0.050  -4.048  1.00  0.00     0.036 C 
ATOM     20  C   UNL     1       3.690  -1.364  -3.432  1.00  0.00     0.009 C 
ENDBRANCH   9  19
BRANCH  16  21
ATOM     21  C   UNL     1       2.577   7.413  -3.428  1.00  0.00     0.130 A 
ATOM     22  N   UNL     1       3.287   8.435  -2.977  1.00  0.00    -0.241 NA
ATOM     23  S   UNL     1       1.490   7.833  -4.711  1.00  0.00    -0.122 S 
ATOM     24  C   UNL     1       3.066   9.570  -3.740  1.00  0.00     0.049 A 
ATOM     25  C   UNL     1       2.105   9.428  -4.718  1.00  0.00     0.090 A 
ATOM     26  C   UNL     1       3.865  10.786  -3.446  1.00  0.00     0.067 C 
ENDBRANCH  16  21
ENDBRANCH   7   8
ENDBRANCH   5   7
ENDBRANCH   3   5
ENDBRANCH   2   3
ENDBRANCH   1   2
BRANCH   1  27
ATOM     27  C   UNL     1      -1.701  -0.485   2.395  1.00  0.00     0.275 C 
BRANCH  27  28
ATOM     28  O   UNL     1      -1.006   0.597   3.050  1.00  0.00    -0.458 OA
BRANCH  28  29
ATOM     29  C   UNL     1       0.229   0.282   3.502  1.00  0.00     0.338 C 
ATOM     30  O   UNL     1       0.785  -0.801   3.421  1.00  0.00    -0.246 OA
BRANCH  29  31
ATOM     31  C   UNL     1       0.935   1.473   4.007  1.00  0.00     0.060 A 
ATOM     32  C   UNL     1       2.208   1.724   3.486  1.00  0.00     0.016 A 
ATOM     33  C   UNL     1       0.443   2.243   5.062  1.00  0.00     0.016 A 
ATOM     34  C   UNL     1       3.009   2.723   4.023  1.00  0.00     0.010 A 
ATOM     35  C   UNL     1       1.256   3.243   5.615  1.00  0.00     0.010 A 
ATOM     36  C   UNL     1       2.551   3.467   5.114  1.00  0.00    -0.014 A 
BRANCH  36  37
ATOM     37  C   UNL     1       3.503   4.374   5.796  1.00  0.00     0.031 A 
ATOM     38  C   UNL     1       4.181   3.916   7.056  1.00  0.00     0.074 A 
ATOM     39  C   UNL     1       3.833   5.553   5.240  1.00  0.00     0.049 A 
ATOM     40  N   UNL     1       5.041   4.546   7.815  1.00  0.00    -0.248 NA
ATOM     41  C   UNL     1       3.851   2.558   7.519  1.00  0.00     0.031 C 
ATOM     42  C   UNL     1       3.309   6.064   3.975  1.00  0.00     0.029 A 
ATOM     43  N   UNL     1       4.705   6.524   5.662  1.00  0.00    -0.354 N 
ATOM     44  C   UNL     1       5.335   3.675   8.855  1.00  0.00     0.074 A 
ATOM     45  C   UNL     1       4.559   2.474   8.636  1.00  0.00     0.031 C 
ATOM     46  C   UNL     1       3.881   7.252   3.715  1.00  0.00     0.029 A 
ATOM     47  C   UNL     1       4.777   7.601   4.815  1.00  0.00     0.049 A 
ATOM     48  H   UNL     1       5.229   6.455   6.493  1.00  0.00     0.167 HD
ATOM     49  C   UNL     1       6.177   3.863   9.899  1.00  0.00     0.037 A 
ATOM     50  C   UNL     1       5.478   8.746   4.926  1.00  0.00     0.037 A 
ATOM     51  C   UNL     1       6.966   5.049  10.102  1.00  0.00     0.049 A 
ATOM     52  C   UNL     1       6.357   8.956   6.129  1.00  0.00     0.074 A 
ATOM     53  C   UNL     1       7.849   5.336  11.128  1.00  0.00     0.029 A 
ATOM     54  N   UNL     1       6.968   6.146   9.253  1.00  0.00    -0.354 N 
ATOM     55  N   UNL     1       6.611   8.139   7.123  1.00  0.00    -0.248 NA
ATOM     56  C   UNL     1       7.044  10.252   6.228  1.00  0.00     0.031 C 
ATOM     57  C   UNL     1       8.357   6.624  10.919  1.00  0.00     0.029 A 
ATOM     58  C   UNL     1       7.822   7.121   9.742  1.00  0.00     0.049 A 
ATOM     59  H   UNL     1       6.439   6.221   8.426  1.00  0.00     0.167 HD
ATOM     60  C   UNL     1       7.505   8.808   7.949  1.00  0.00     0.074 A 
ATOM     61  C   UNL     1       7.755  10.097   7.336  1.00  0.00     0.031 C 
ATOM     62  C   UNL     1       8.069   8.392   9.109  1.00  0.00     0.037 A 
BRANCH  49  63
ATOM     63  C   UNL     1       6.248   2.774  10.927  1.00  0.00     0.064 A 
ATOM     64  C   UNL     1       6.906   1.560  10.679  1.00  0.00     0.173 A 
ATOM     65  C   UNL     1       5.649   2.953  12.183  1.00  0.00     0.173 A 
ATOM     66  F   UNL     1       7.478   1.334   9.487  1.00  0.00    -0.203 F 
ATOM     67  C   UNL     1       6.939   0.555  11.643  1.00  0.00     0.198 A 
ATOM     68  C   UNL     1       5.704   1.956  13.153  1.00  0.00     0.198 A 
ATOM     69  F   UNL     1       5.008   4.096  12.470  1.00  0.00    -0.203 F 
ATOM     70  F   UNL     1       7.531  -0.615  11.369  1.00  0.00    -0.200 F 
ATOM     71  C   UNL     1       6.342   0.755  12.880  1.00  0.00     0.200 A 
ATOM     72  F   UNL     1       5.132   2.153  14.349  1.00  0.00    -0.200 F 
ATOM     73  F   UNL     1       6.371  -0.214  13.804  1.00  0.00    -0.200 F 
ENDBRANCH  49  63
BRANCH  50  74
ATOM     74  C   UNL     1       5.370   9.784   3.870  1.00  0.00     0.064 A 
ATOM     75  C   UNL     1       6.449  10.063   3.020  1.00  0.00     0.173 A 
ATOM     76  C   UNL     1       4.189  10.518   3.690  1.00  0.00     0.173 A 
ATOM     77  F   UNL     1       7.608   9.406   3.173  1.00  0.00    -0.203 F 
ATOM     78  C   UNL     1       6.352  11.044   2.035  1.00  0.00     0.198 A 
ATOM     79  C   UNL     1       4.085  11.481   2.689  1.00  0.00     0.198 A 
ATOM     80  F   UNL     1       3.131  10.293   4.483  1.00  0.00    -0.203 F 
ATOM     81  F   UNL     1       7.411  11.320   1.262  1.00  0.00    -0.200 F 
ATOM     82  C   UNL     1       5.169  11.747   1.866  1.00  0.00     0.200 A 
ATOM     83  F   UNL     1       2.938  12.154   2.526  1.00  0.00    -0.200 F 
ATOM     84  F   UNL     1       5.076  12.688   0.916  1.00  0.00    -0.200 F 
ENDBRANCH  50  74
BRANCH  62  85
ATOM     85  C   UNL     1       9.045   9.320   9.768  1.00  0.00     0.064 A 
ATOM     86  C   UNL     1       8.621  10.470  10.450  1.00  0.00     0.173 A 
ATOM     87  C   UNL     1      10.418   9.036   9.745  1.00  0.00     0.173 A 
ATOM     88  F   UNL     1       7.319  10.791  10.486  1.00  0.00    -0.203 F 
ATOM     89  C   UNL     1       9.541  11.314  11.066  1.00  0.00     0.198 A 
ATOM     90  C   UNL     1      11.333   9.869  10.383  1.00  0.00     0.198 A 
ATOM     91  F   UNL     1      10.872   7.944   9.110  1.00  0.00    -0.203 F 
ATOM     92  F   UNL     1       9.119  12.430  11.677  1.00  0.00    -0.200 F 
ATOM     93  C   UNL     1      10.894  11.010  11.037  1.00  0.00     0.200 A 
ATOM     94  F   UNL     1      12.639   9.569  10.362  1.00  0.00    -0.200 F 
ATOM     95  F   UNL     1      11.777  11.822  11.634  1.00  0.00    -0.200 F 
ENDBRANCH  62  85
ENDBRANCH  36  37
ENDBRANCH  29  31
ENDBRANCH  28  29
ENDBRANCH  27  28
ENDBRANCH   1  27
TORSDOF 15
