REMARK SMILES Cc1c(CC(=O)OCCOC(=O)c2ccc(-c3c4nc(c(-c5c(F)c(F)c(F)c(F)c5F)c5ccc([nH]5)c(-c5c(F)c(F)c(F)c(F)c5F)c5nc(c(-c6c(F)c(F)c(F)c(F)c6F)c6ccc3[nH]6)C=C5)C=C4)cc2)cccc1-c1ccn(C(F)F)c(=O)c1
REMARK SMILES IDX 8 1 7 2 5 3 6 4 4 5 3 6 1 7 2 8 79 9 76 10 78 11 77 12 80 13
REMARK SMILES IDX 81 14 89 15 82 16 87 17 83 18 88 19 84 20 85 21 86 22 9 23
REMARK SMILES IDX 10 24 11 25 12 26 13 27 14 28 75 29 15 30 74 31 16 32 17 33
REMARK SMILES IDX 18 34 68 35 19 36 73 37 67 38 69 39 20 40 72 41 66 42 65 43
REMARK SMILES IDX 21 45 53 46 33 47 52 48 34 49 37 50 51 51 70 52 35 53 36 54
REMARK SMILES IDX 50 56 71 57 38 58 22 59 23 60 31 61 24 62 25 63 29 64 32 65
REMARK SMILES IDX 26 66 27 67 30 68 28 69 54 70 55 71 63 72 56 73 57 74 61 75
REMARK SMILES IDX 64 76 58 77 59 78 62 79 60 80 39 81 40 82 48 83 41 84 42 85
REMARK SMILES IDX 46 86 49 87 43 88 44 89 47 90 45 91
REMARK H PARENT 69 44 37 55
REMARK Flexibility Score: inf
ROOT
ATOM      1  C   UNL     1      -0.594  -4.422   4.243  1.00  0.00     0.274 C 
ENDROOT
BRANCH   1   2
ATOM      2  O   UNL     1       0.383  -3.675   3.489  1.00  0.00    -0.462 OA
BRANCH   2   3
ATOM      3  C   UNL     1       0.430  -3.922   2.064  1.00  0.00     0.310 C 
ATOM      4  O   UNL     1       0.144  -5.155   1.956  1.00  0.00    -0.252 OA
BRANCH   3   5
ATOM      5  C   UNL     1       0.874  -2.423   0.551  1.00  0.00     0.158 C 
BRANCH   5   6
ATOM      6  C   UNL     1       0.200  -0.893   0.110  1.00  0.00    -0.033 A 
ATOM      7  C   UNL     1       2.468   0.285   0.346  1.00  0.00     0.045 C 
ATOM      8  C   UNL     1       0.970   0.307   0.157  1.00  0.00    -0.039 A 
ATOM      9  C   UNL     1       0.310   1.546  -0.054  1.00  0.00    -0.015 A 
ATOM     10  C   UNL     1      -1.088  -0.819  -0.465  1.00  0.00     0.004 A 
ATOM     11  C   UNL     1      -1.053   1.578  -0.374  1.00  0.00     0.009 A 
ATOM     12  C   UNL     1      -1.734   0.399  -0.627  1.00  0.00     0.001 A 
BRANCH   9  13
ATOM     13  C   UNL     1       1.030   2.832  -0.007  1.00  0.00    -0.011 A 
ATOM     14  C   UNL     1       1.827   3.305  -1.121  1.00  0.00     0.027 A 
ATOM     15  C   UNL     1       1.001   3.537   1.135  1.00  0.00     0.080 A 
ATOM     16  C   UNL     1       2.619   4.373  -0.977  1.00  0.00     0.095 A 
ATOM     17  C   UNL     1       1.833   4.762   1.288  1.00  0.00     0.255 A 
ATOM     18  N   UNL     1       2.649   5.077   0.212  1.00  0.00    -0.258 N 
ATOM     19  O   UNL     1       1.772   5.381   2.345  1.00  0.00    -0.269 OA
BRANCH  18  20
ATOM     20  C   UNL     1       3.561   6.176   0.385  1.00  0.00     0.451 C 
ATOM     21  F   UNL     1       2.899   7.331   0.632  1.00  0.00    -0.185 F 
ATOM     22  F   UNL     1       4.404   5.942   1.421  1.00  0.00    -0.185 F 
ENDBRANCH  18  20
ENDBRANCH   9  13
ENDBRANCH   5   6
ENDBRANCH   3   5
ENDBRANCH   2   3
ENDBRANCH   1   2
BRANCH   1  23
ATOM     23  C   UNL     1      -1.982  -3.818   3.992  1.00  0.00     0.275 C 
BRANCH  23  24
ATOM     24  O   UNL     1      -2.539  -4.102   2.679  1.00  0.00    -0.458 OA
BRANCH  24  25
ATOM     25  C   UNL     1      -2.492  -3.211   1.648  1.00  0.00     0.338 C 
ATOM     26  O   UNL     1      -3.432  -2.944   0.919  1.00  0.00    -0.246 OA
BRANCH  25  27
ATOM     27  C   UNL     1      -1.111  -2.900   1.233  1.00  0.00     0.060 A 
ATOM     28  C   UNL     1      -0.337  -4.094   0.118  1.00  0.00     0.016 A 
ATOM     29  C   UNL     1      -0.103  -1.895   2.340  1.00  0.00     0.016 A 
ATOM     30  C   UNL     1       1.448  -4.434   0.281  1.00  0.00     0.010 A 
ATOM     31  C   UNL     1       1.665  -2.230   2.481  1.00  0.00     0.010 A 
ATOM     32  C   UNL     1       2.408  -3.572   1.527  1.00  0.00    -0.014 A 
BRANCH  32  33
ATOM     33  C   UNL     1       3.532  -4.186   2.220  1.00  0.00     0.031 A 
ATOM     34  C   UNL     1       4.786  -3.450   2.390  1.00  0.00     0.074 A 
ATOM     35  C   UNL     1       3.300  -5.317   2.925  1.00  0.00     0.049 A 
ATOM     36  N   UNL     1       5.864  -3.998   2.824  1.00  0.00    -0.248 NA
ATOM     37  C   UNL     1       4.976  -2.057   2.009  1.00  0.00     0.031 C 
ATOM     38  C   UNL     1       4.042  -5.863   4.056  1.00  0.00     0.029 A 
ATOM     39  N   UNL     1       2.353  -6.294   2.676  1.00  0.00    -0.354 N 
ATOM     40  C   UNL     1       6.745  -2.990   3.114  1.00  0.00     0.074 A 
ATOM     41  C   UNL     1       6.230  -1.841   2.418  1.00  0.00     0.031 C 
ATOM     42  C   UNL     1       3.668  -7.140   4.257  1.00  0.00     0.029 A 
ATOM     43  C   UNL     1       2.774  -7.522   3.179  1.00  0.00     0.049 A 
ATOM     44  H   UNL     1       1.500  -6.143   2.208  1.00  0.00     0.167 HD
ATOM     45  C   UNL     1       7.714  -3.240   4.035  1.00  0.00     0.037 A 
ATOM     46  C   UNL     1       2.987  -8.537   2.288  1.00  0.00     0.037 A 
ATOM     47  C   UNL     1       7.785  -4.678   4.329  1.00  0.00     0.049 A 
ATOM     48  C   UNL     1       4.470  -8.755   2.016  1.00  0.00     0.074 A 
ATOM     49  C   UNL     1       7.441  -5.495   5.390  1.00  0.00     0.029 A 
ATOM     50  N   UNL     1       7.996  -5.534   3.260  1.00  0.00    -0.354 N 
ATOM     51  N   UNL     1       5.434  -8.145   2.656  1.00  0.00    -0.248 NA
ATOM     52  C   UNL     1       4.987  -9.622   0.959  1.00  0.00     0.031 C 
ATOM     53  C   UNL     1       7.372  -6.845   4.900  1.00  0.00     0.029 A 
ATOM     54  C   UNL     1       7.729  -6.852   3.561  1.00  0.00     0.049 A 
ATOM     55  H   UNL     1       8.305  -5.231   2.375  1.00  0.00     0.167 HD
ATOM     56  C   UNL     1       6.639  -8.427   2.078  1.00  0.00     0.074 A 
ATOM     57  C   UNL     1       6.306  -9.365   1.017  1.00  0.00     0.031 C 
ATOM     58  C   UNL     1       7.809  -7.840   2.484  1.00  0.00     0.037 A 
BRANCH  45  59
ATOM     59  C   UNL     1       8.509  -2.185   4.770  1.00  0.00     0.064 A 
ATOM     60  C   UNL     1       9.567  -2.572   5.618  1.00  0.00     0.173 A 
ATOM     61  C   UNL     1       8.232  -0.799   4.771  1.00  0.00     0.173 A 
ATOM     62  F   UNL     1       9.931  -3.858   5.728  1.00  0.00    -0.203 F 
ATOM     63  C   UNL     1      10.279  -1.653   6.398  1.00  0.00     0.198 A 
ATOM     64  C   UNL     1       8.981   0.124   5.506  1.00  0.00     0.198 A 
ATOM     65  F   UNL     1       7.191  -0.274   4.118  1.00  0.00    -0.203 F 
ATOM     66  F   UNL     1      11.237  -2.088   7.228  1.00  0.00    -0.200 F 
ATOM     67  C   UNL     1       9.995  -0.304   6.331  1.00  0.00     0.200 A 
ATOM     68  F   UNL     1       8.684   1.430   5.426  1.00  0.00    -0.200 F 
ATOM     69  F   UNL     1      10.680   0.577   7.072  1.00  0.00    -0.200 F 
ENDBRANCH  45  59
BRANCH  46  70
ATOM     70  C   UNL     1       1.859  -8.628   1.302  1.00  0.00     0.064 A 
ATOM     71  C   UNL     1       0.569  -8.885   1.823  1.00  0.00     0.173 A 
ATOM     72  C   UNL     1       1.922  -8.075   0.018  1.00  0.00     0.173 A 
ATOM     73  F   UNL     1       0.440  -9.436   3.041  1.00  0.00    -0.203 F 
ATOM     74  C   UNL     1      -0.587  -8.463   1.166  1.00  0.00     0.198 A 
ATOM     75  C   UNL     1       0.756  -7.684  -0.653  1.00  0.00     0.198 A 
ATOM     76  F   UNL     1       3.105  -7.777  -0.538  1.00  0.00    -0.203 F 
ATOM     77  F   UNL     1      -1.782  -8.594   1.760  1.00  0.00    -0.200 F 
ATOM     78  C   UNL     1      -0.489  -7.833  -0.060  1.00  0.00     0.200 A 
ATOM     79  F   UNL     1       0.850  -7.040  -1.827  1.00  0.00    -0.200 F 
ATOM     80  F   UNL     1      -1.582  -7.322  -0.647  1.00  0.00    -0.200 F 
ENDBRANCH  46  70
BRANCH  58  81
ATOM     81  C   UNL     1       9.145  -8.142   1.844  1.00  0.00     0.064 A 
ATOM     82  C   UNL     1       9.533  -9.449   1.510  1.00  0.00     0.173 A 
ATOM     83  C   UNL     1      10.126  -7.145   1.632  1.00  0.00     0.173 A 
ATOM     84  F   UNL     1       8.726 -10.491   1.759  1.00  0.00    -0.203 F 
ATOM     85  C   UNL     1      10.773  -9.724   0.927  1.00  0.00     0.198 A 
ATOM     86  C   UNL     1      11.390  -7.434   1.123  1.00  0.00     0.198 A 
ATOM     87  F   UNL     1       9.889  -5.849   1.871  1.00  0.00    -0.203 F 
ATOM     88  F   UNL     1      11.062 -10.975   0.544  1.00  0.00    -0.200 F 
ATOM     89  C   UNL     1      11.705  -8.719   0.744  1.00  0.00     0.200 A 
ATOM     90  F   UNL     1      12.290  -6.449   0.988  1.00  0.00    -0.200 F 
ATOM     91  F   UNL     1      12.899  -8.987   0.200  1.00  0.00    -0.200 F 
ENDBRANCH  58  81
ENDBRANCH  32  33
ENDBRANCH  25  27
ENDBRANCH  24  25
ENDBRANCH  23  24
ENDBRANCH   1  23
TORSDOF 14
