REMARK SMILES CCN1CC(=O)N(C[C@@H]([NH3+])C(=O)OCCOC(=O)c2ccc(-c3c4nc(c(-c5c(F)c(F)c(F)c(F)c5F)c5ccc([nH]5)c(-c5c(F)c(F)c(F)c(F)c5F)c5nc(c(-c6c(F)c(F)c(F)c(F)c6F)c6ccc3[nH]6)C=C5)C=C4)cc2)CC1=O
REMARK SMILES IDX 14 1 13 2 11 3 12 4 9 5 8 6 7 7 3 8 4 9 83 10 5 11 82 12
REMARK SMILES IDX 84 13 6 14 2 15 1 16 10 17 15 21 16 22 17 23 18 24 19 25
REMARK SMILES IDX 20 26 81 27 21 28 80 29 22 30 23 31 24 32 74 33 25 34 79 35
REMARK SMILES IDX 73 36 75 37 26 38 78 39 72 40 71 41 27 43 59 44 39 45 58 46
REMARK SMILES IDX 40 47 43 48 57 49 76 50 41 51 42 52 56 54 77 55 44 56 28 57
REMARK SMILES IDX 29 58 37 59 30 60 31 61 35 62 38 63 32 64 33 65 36 66 34 67
REMARK SMILES IDX 60 68 61 69 69 70 62 71 63 72 67 73 70 74 64 75 65 76 68 77
REMARK SMILES IDX 66 78 45 79 46 80 54 81 47 82 48 83 52 84 55 85 49 86 50 87
REMARK SMILES IDX 53 88 51 89
REMARK H PARENT 10 18 10 19 10 20 75 42 43 53
REMARK Flexibility Score: inf
ROOT
ATOM      1  C   UNL     1      -1.382   5.558   8.230  1.00  0.00     0.274 C 
ENDROOT
BRANCH   1   2
ATOM      2  O   UNL     1      -0.789   4.725   7.215  1.00  0.00    -0.458 OA
BRANCH   2   3
ATOM      3  C   UNL     1       0.547   4.508   7.326  1.00  0.00     0.366 C 
ATOM      4  O   UNL     1       1.259   4.975   8.212  1.00  0.00    -0.245 OA
BRANCH   3   5
ATOM      5  C   UNL     1       1.140   3.671   6.180  1.00  0.00     0.311 C 
BRANCH   5   6
ATOM      6  C   UNL     1       0.079   2.911   5.359  1.00  0.00     0.197 C 
BRANCH   6   7
ATOM      7  N   UNL     1       0.625   1.903   4.439  1.00  0.00    -0.325 N 
ATOM      8  N   UNL     1       0.877   0.131   2.301  1.00  0.00    -0.332 N 
ATOM      9  C   UNL     1       1.138  -0.372   3.657  1.00  0.00     0.219 C 
ATOM     10  C   UNL     1       1.045   1.488   2.036  1.00  0.00     0.242 C 
ATOM     11  C   UNL     1       0.647   0.557   4.778  1.00  0.00     0.242 C 
ATOM     12  C   UNL     1       1.370   2.335   3.263  1.00  0.00     0.220 C 
ATOM     13  O   UNL     1       1.073   1.984   0.913  1.00  0.00    -0.273 OA
ATOM     14  O   UNL     1       0.422   0.149   5.915  1.00  0.00    -0.273 OA
BRANCH   8  15
ATOM     15  C   UNL     1       0.502  -0.843   1.273  1.00  0.00     0.116 C 
ATOM     16  C   UNL     1       1.004  -0.586  -0.141  1.00  0.00     0.027 C 
ENDBRANCH   8  15
ENDBRANCH   6   7
ENDBRANCH   5   6
BRANCH   5  17
ATOM     17  N   UNL     1       2.006   4.557   5.355  1.00  0.00    -0.344 N 
ATOM     18  H   UNL     1       1.443   5.309   4.957  1.00  0.00     0.345 HD
ATOM     19  H   UNL     1       2.430   4.014   4.603  1.00  0.00     0.345 HD
ATOM     20  H   UNL     1       2.740   4.956   5.941  1.00  0.00     0.345 HD
ENDBRANCH   5  17
ENDBRANCH   3   5
ENDBRANCH   2   3
ENDBRANCH   1   2
BRANCH   1  21
ATOM     21  C   UNL     1      -2.129   4.734   9.285  1.00  0.00     0.275 C 
BRANCH  21  22
ATOM     22  O   UNL     1      -1.250   3.838   9.990  1.00  0.00    -0.458 OA
BRANCH  22  23
ATOM     23  C   UNL     1      -1.174   2.593   9.462  1.00  0.00     0.338 C 
ATOM     24  O   UNL     1      -1.790   2.164   8.502  1.00  0.00    -0.246 OA
BRANCH  23  25
ATOM     25  C   UNL     1      -0.091   1.840  10.115  1.00  0.00     0.060 A 
ATOM     26  C   UNL     1       0.958   1.391   9.309  1.00  0.00     0.016 A 
ATOM     27  C   UNL     1      -0.130   1.514  11.472  1.00  0.00     0.016 A 
ATOM     28  C   UNL     1       1.987   0.633   9.857  1.00  0.00     0.010 A 
ATOM     29  C   UNL     1       0.895   0.732  12.020  1.00  0.00     0.010 A 
ATOM     30  C   UNL     1       1.957   0.286  11.213  1.00  0.00    -0.014 A 
BRANCH  30  31
ATOM     31  C   UNL     1       3.018  -0.599  11.751  1.00  0.00     0.031 A 
ATOM     32  C   UNL     1       2.746  -2.062  11.943  1.00  0.00     0.074 A 
ATOM     33  C   UNL     1       4.241  -0.099  12.003  1.00  0.00     0.049 A 
ATOM     34  N   UNL     1       3.536  -2.998  12.406  1.00  0.00    -0.248 NA
ATOM     35  C   UNL     1       1.408  -2.536  11.560  1.00  0.00     0.031 C 
ATOM     36  C   UNL     1       4.636   1.295  11.808  1.00  0.00     0.029 A 
ATOM     37  N   UNL     1       5.378  -0.710  12.469  1.00  0.00    -0.354 N 
ATOM     38  C   UNL     1       2.790  -4.168  12.381  1.00  0.00     0.074 A 
ATOM     39  C   UNL     1       1.478  -3.823  11.874  1.00  0.00     0.031 C 
ATOM     40  C   UNL     1       5.930   1.432  12.144  1.00  0.00     0.029 A 
ATOM     41  C   UNL     1       6.441   0.145  12.611  1.00  0.00     0.049 A 
ATOM     42  H   UNL     1       5.426  -1.671  12.680  1.00  0.00     0.167 HD
ATOM     43  C   UNL     1       3.170  -5.417  12.744  1.00  0.00     0.037 A 
ATOM     44  C   UNL     1       7.683  -0.081  13.081  1.00  0.00     0.037 A 
ATOM     45  C   UNL     1       4.479  -5.760  13.235  1.00  0.00     0.049 A 
ATOM     46  C   UNL     1       8.060  -1.468  13.527  1.00  0.00     0.074 A 
ATOM     47  C   UNL     1       4.960  -7.000  13.618  1.00  0.00     0.029 A 
ATOM     48  N   UNL     1       5.517  -4.858  13.412  1.00  0.00    -0.354 N 
ATOM     49  N   UNL     1       7.347  -2.567  13.504  1.00  0.00    -0.248 NA
ATOM     50  C   UNL     1       9.415  -1.642  14.070  1.00  0.00     0.031 C 
ATOM     51  C   UNL     1       6.278  -6.841  14.062  1.00  0.00     0.029 A 
ATOM     52  C   UNL     1       6.631  -5.510  13.917  1.00  0.00     0.049 A 
ATOM     53  H   UNL     1       5.470  -3.896  13.208  1.00  0.00     0.167 HD
ATOM     54  C   UNL     1       8.167  -3.564  14.015  1.00  0.00     0.074 A 
ATOM     55  C   UNL     1       9.440  -2.944  14.319  1.00  0.00     0.031 C 
ATOM     56  C   UNL     1       7.888  -4.875  14.219  1.00  0.00     0.037 A 
BRANCH  43  57
ATOM     57  C   UNL     1       2.142  -6.504  12.650  1.00  0.00     0.064 A 
ATOM     58  C   UNL     1       1.744  -7.037  11.415  1.00  0.00     0.173 A 
ATOM     59  C   UNL     1       1.574  -7.044  13.813  1.00  0.00     0.173 A 
ATOM     60  F   UNL     1       2.249  -6.546  10.273  1.00  0.00    -0.203 F 
ATOM     61  C   UNL     1       0.799  -8.058  11.348  1.00  0.00     0.198 A 
ATOM     62  C   UNL     1       0.647  -8.080  13.744  1.00  0.00     0.198 A 
ATOM     63  F   UNL     1       1.925  -6.572  15.019  1.00  0.00    -0.203 F 
ATOM     64  F   UNL     1       0.405  -8.528  10.156  1.00  0.00    -0.200 F 
ATOM     65  C   UNL     1       0.256  -8.583  12.512  1.00  0.00     0.200 A 
ATOM     66  F   UNL     1       0.131  -8.593  14.870  1.00  0.00    -0.200 F 
ATOM     67  F   UNL     1      -0.649  -9.569  12.446  1.00  0.00    -0.200 F 
ENDBRANCH  43  57
BRANCH  44  68
ATOM     68  C   UNL     1       8.656   1.037  13.168  1.00  0.00     0.064 A 
ATOM     69  C   UNL     1       9.777   1.086  12.330  1.00  0.00     0.173 A 
ATOM     70  C   UNL     1       8.486   2.075  14.096  1.00  0.00     0.173 A 
ATOM     71  F   UNL     1       9.996   0.102  11.445  1.00  0.00    -0.203 F 
ATOM     72  C   UNL     1      10.699   2.127  12.424  1.00  0.00     0.198 A 
ATOM     73  C   UNL     1       9.394   3.128  14.172  1.00  0.00     0.198 A 
ATOM     74  F   UNL     1       7.431   2.070  14.924  1.00  0.00    -0.203 F 
ATOM     75  F   UNL     1      11.785   2.130  11.639  1.00  0.00    -0.200 F 
ATOM     76  C   UNL     1      10.503   3.150  13.340  1.00  0.00     0.200 A 
ATOM     77  F   UNL     1       9.196   4.119  15.052  1.00  0.00    -0.200 F 
ATOM     78  F   UNL     1      11.388   4.153  13.427  1.00  0.00    -0.200 F 
ENDBRANCH  44  68
BRANCH  56  79
ATOM     79  C   UNL     1       8.987  -5.726  14.785  1.00  0.00     0.064 A 
ATOM     80  C   UNL     1       9.368  -5.628  16.132  1.00  0.00     0.173 A 
ATOM     81  C   UNL     1       9.650  -6.664  13.980  1.00  0.00     0.173 A 
ATOM     82  F   UNL     1       8.775  -4.734  16.937  1.00  0.00    -0.203 F 
ATOM     83  C   UNL     1      10.391  -6.421  16.645  1.00  0.00     0.198 A 
ATOM     84  C   UNL     1      10.655  -7.473  14.503  1.00  0.00     0.198 A 
ATOM     85  F   UNL     1       9.319  -6.799  12.687  1.00  0.00    -0.203 F 
ATOM     86  F   UNL     1      10.771  -6.277  17.922  1.00  0.00    -0.200 F 
ATOM     87  C   UNL     1      11.030  -7.346  15.832  1.00  0.00     0.200 A 
ATOM     88  F   UNL     1      11.265  -8.373  13.719  1.00  0.00    -0.200 F 
ATOM     89  F   UNL     1      12.014  -8.108  16.328  1.00  0.00    -0.200 F 
ENDBRANCH  56  79
ENDBRANCH  30  31
ENDBRANCH  23  25
ENDBRANCH  22  23
ENDBRANCH  21  22
ENDBRANCH   1  21
TORSDOF 15
