REMARK SMILES [NH3+]Cc1c(-c2ccccc2)c(C(=O)OCCOC(=O)c2ccc(-c3c4nc(c(-c5c(F)c(F)c(F)c(F)c5F)c5ccc([nH]5)c(-c5c(F)c(F)c(F)c(F)c5F)c5nc(c(-c6c(F)c(F)c(F)c(F)c6F)c6ccc3[nH]6)C=C5)C=C4)cc2)c2ccccn12
REMARK SMILES IDX 15 1 14 2 12 3 13 4 11 5 3 6 4 7 88 8 83 9 87 10 84 11 86 12
REMARK SMILES IDX 85 13 2 14 1 15 5 19 6 20 10 21 7 22 9 23 8 24 16 25 17 26
REMARK SMILES IDX 18 27 19 28 20 29 21 30 82 31 22 32 81 33 23 34 24 35 25 36
REMARK SMILES IDX 75 37 26 38 80 39 74 40 76 41 27 42 79 43 73 44 72 45 28 47
REMARK SMILES IDX 60 48 40 49 59 50 41 51 44 52 58 53 77 54 42 55 43 56 57 58
REMARK SMILES IDX 78 59 45 60 29 61 30 62 38 63 31 64 32 65 36 66 39 67 33 68
REMARK SMILES IDX 34 69 37 70 35 71 61 72 62 73 70 74 63 75 64 76 68 77 71 78
REMARK SMILES IDX 65 79 66 80 69 81 67 82 46 83 47 84 55 85 48 86 49 87 53 88
REMARK SMILES IDX 56 89 50 90 51 91 54 92 52 93
REMARK H PARENT 1 16 1 17 1 18 76 46 44 57
REMARK Flexibility Score: inf
ROOT
ATOM      1  C   UNL     1       1.549  -7.979   1.639  1.00  0.00     0.275 C 
ENDROOT
BRANCH   1   2
ATOM      2  O   UNL     1       1.261  -6.571   1.757  1.00  0.00    -0.458 OA
BRANCH   2   3
ATOM      3  C   UNL     1       1.641  -5.797   0.699  1.00  0.00     0.341 C 
ATOM      4  O   UNL     1       2.312  -6.201  -0.244  1.00  0.00    -0.246 OA
BRANCH   3   5
ATOM      5  C   UNL     1       1.265  -4.397   0.846  1.00  0.00     0.093 A 
ATOM      6  C   UNL     1       0.772  -2.220   0.329  1.00  0.00     0.086 A 
ATOM      7  C   UNL     1       0.446  -3.550   0.014  1.00  0.00     0.024 A 
ATOM      8  N   UNL     1       1.669  -2.252   1.415  1.00  0.00    -0.314 N 
ATOM      9  C   UNL     1       1.892  -3.585   1.762  1.00  0.00     0.061 A 
ATOM     10  C   UNL     1       2.385  -1.235   2.077  1.00  0.00     0.092 A 
ATOM     11  C   UNL     1       2.817  -3.891   2.808  1.00  0.00     0.027 A 
ATOM     12  C   UNL     1       3.278  -1.528   3.038  1.00  0.00     0.018 A 
ATOM     13  C   UNL     1       3.493  -2.905   3.416  1.00  0.00     0.004 A 
BRANCH   6  14
ATOM     14  C   UNL     1       0.338  -1.026  -0.476  1.00  0.00     0.315 C 
BRANCH  14  15
ATOM     15  N   UNL     1       0.608   0.290   0.064  1.00  0.00    -0.353 N 
ATOM     16  H   UNL     1       0.262   1.000  -0.582  1.00  0.00     0.344 HD
ATOM     17  H   UNL     1       1.613   0.406   0.191  1.00  0.00     0.344 HD
ATOM     18  H   UNL     1       0.138   0.392   0.963  1.00  0.00     0.344 HD
ENDBRANCH  14  15
ENDBRANCH   6  14
BRANCH   7  19
ATOM     19  C   UNL     1      -0.198  -3.979  -1.251  1.00  0.00    -0.015 A 
ATOM     20  C   UNL     1      -1.864  -4.702  -1.318  1.00  0.00     0.009 A 
ATOM     21  C   UNL     1       0.995  -4.559  -2.418  1.00  0.00     0.009 A 
ATOM     22  C   UNL     1      -2.189  -6.192  -2.654  1.00  0.00     0.001 A 
ATOM     23  C   UNL     1       0.687  -5.847  -3.592  1.00  0.00     0.001 A 
ATOM     24  C   UNL     1      -0.843  -6.690  -3.731  1.00  0.00     0.000 A 
ENDBRANCH   7  19
ENDBRANCH   3   5
ENDBRANCH   2   3
ENDBRANCH   1   2
BRANCH   1  25
ATOM     25  C   UNL     1       0.239  -8.749   1.530  1.00  0.00     0.275 C 
BRANCH  25  26
ATOM     26  O   UNL     1      -0.442  -8.285   0.354  1.00  0.00    -0.458 OA
BRANCH  26  27
ATOM     27  C   UNL     1      -1.464  -7.445   0.602  1.00  0.00     0.338 C 
ATOM     28  O   UNL     1      -2.015  -7.218   1.666  1.00  0.00    -0.246 OA
BRANCH  27  29
ATOM     29  C   UNL     1      -1.817  -6.729  -0.614  1.00  0.00     0.060 A 
ATOM     30  C   UNL     1      -0.575  -6.027  -1.707  1.00  0.00     0.016 A 
ATOM     31  C   UNL     1      -3.481  -6.218  -0.805  1.00  0.00     0.016 A 
ATOM     32  C   UNL     1      -1.175  -4.654  -3.069  1.00  0.00     0.010 A 
ATOM     33  C   UNL     1      -4.008  -5.063  -2.043  1.00  0.00     0.010 A 
ATOM     34  C   UNL     1      -2.933  -4.262  -3.203  1.00  0.00    -0.014 A 
BRANCH  34  35
ATOM     35  C   UNL     1      -3.563  -3.643  -4.454  1.00  0.00     0.031 A 
ATOM     36  C   UNL     1      -4.884  -2.889  -4.378  1.00  0.00     0.074 A 
ATOM     37  C   UNL     1      -3.097  -3.913  -5.700  1.00  0.00     0.049 A 
ATOM     38  N   UNL     1      -5.706  -2.536  -5.344  1.00  0.00    -0.248 NA
ATOM     39  C   UNL     1      -5.358  -2.502  -3.043  1.00  0.00     0.031 C 
ATOM     40  C   UNL     1      -1.875  -4.627  -6.026  1.00  0.00     0.029 A 
ATOM     41  N   UNL     1      -3.623  -3.657  -6.957  1.00  0.00    -0.354 N 
ATOM     42  C   UNL     1      -6.797  -1.927  -4.729  1.00  0.00     0.074 A 
ATOM     43  C   UNL     1      -6.571  -2.033  -3.302  1.00  0.00     0.031 C 
ATOM     44  C   UNL     1      -1.742  -4.790  -7.341  1.00  0.00     0.029 A 
ATOM     45  C   UNL     1      -2.891  -4.207  -7.990  1.00  0.00     0.049 A 
ATOM     46  H   UNL     1      -4.444  -3.132  -7.099  1.00  0.00     0.167 HD
ATOM     47  C   UNL     1      -7.864  -1.295  -5.287  1.00  0.00     0.037 A 
ATOM     48  C   UNL     1      -3.068  -4.268  -9.323  1.00  0.00     0.037 A 
ATOM     49  C   UNL     1      -8.064  -1.119  -6.707  1.00  0.00     0.049 A 
ATOM     50  C   UNL     1      -4.235  -3.569  -9.925  1.00  0.00     0.074 A 
ATOM     51  C   UNL     1      -9.055  -0.402  -7.360  1.00  0.00     0.029 A 
ATOM     52  N   UNL     1      -7.254  -1.658  -7.697  1.00  0.00    -0.354 N 
ATOM     53  N   UNL     1      -5.212  -2.948  -9.318  1.00  0.00    -0.248 NA
ATOM     54  C   UNL     1      -4.307  -3.541 -11.390  1.00  0.00     0.031 C 
ATOM     55  C   UNL     1      -8.866  -0.538  -8.741  1.00  0.00     0.029 A 
ATOM     56  C   UNL     1      -7.735  -1.307  -8.951  1.00  0.00     0.049 A 
ATOM     57  H   UNL     1      -6.454  -2.208  -7.533  1.00  0.00     0.167 HD
ATOM     58  C   UNL     1      -6.002  -2.423 -10.324  1.00  0.00     0.074 A 
ATOM     59  C   UNL     1      -5.384  -2.792 -11.582  1.00  0.00     0.031 C 
ATOM     60  C   UNL     1      -7.133  -1.691 -10.203  1.00  0.00     0.037 A 
BRANCH  47  61
ATOM     61  C   UNL     1      -8.894  -0.706  -4.354  1.00  0.00     0.064 A 
ATOM     62  C   UNL     1      -8.595   0.380  -3.515  1.00  0.00     0.173 A 
ATOM     63  C   UNL     1     -10.204  -1.212  -4.314  1.00  0.00     0.173 A 
ATOM     64  F   UNL     1      -7.363   0.913  -3.515  1.00  0.00    -0.203 F 
ATOM     65  C   UNL     1      -9.543   0.896  -2.633  1.00  0.00     0.198 A 
ATOM     66  C   UNL     1     -11.161  -0.670  -3.456  1.00  0.00     0.198 A 
ATOM     67  F   UNL     1     -10.562  -2.231  -5.110  1.00  0.00    -0.203 F 
ATOM     68  F   UNL     1      -9.207   1.886  -1.795  1.00  0.00    -0.200 F 
ATOM     69  C   UNL     1     -10.826   0.372  -2.606  1.00  0.00     0.200 A 
ATOM     70  F   UNL     1     -12.408  -1.162  -3.447  1.00  0.00    -0.200 F 
ATOM     71  F   UNL     1     -11.736   0.867  -1.755  1.00  0.00    -0.200 F 
ENDBRANCH  47  61
BRANCH  48  72
ATOM     72  C   UNL     1      -2.044  -4.954 -10.161  1.00  0.00     0.064 A 
ATOM     73  C   UNL     1      -1.115  -4.211 -10.900  1.00  0.00     0.173 A 
ATOM     74  C   UNL     1      -1.901  -6.351 -10.148  1.00  0.00     0.173 A 
ATOM     75  F   UNL     1      -1.211  -2.874 -10.944  1.00  0.00    -0.203 F 
ATOM     76  C   UNL     1      -0.082  -4.836 -11.597  1.00  0.00     0.198 A 
ATOM     77  C   UNL     1      -0.852  -6.973 -10.825  1.00  0.00     0.198 A 
ATOM     78  F   UNL     1      -2.747  -7.107  -9.434  1.00  0.00    -0.203 F 
ATOM     79  F   UNL     1       0.786  -4.100 -12.305  1.00  0.00    -0.200 F 
ATOM     80  C   UNL     1       0.055  -6.215 -11.550  1.00  0.00     0.200 A 
ATOM     81  F   UNL     1      -0.705  -8.303 -10.754  1.00  0.00    -0.200 F 
ATOM     82  F   UNL     1       1.066  -6.812 -12.196  1.00  0.00    -0.200 F 
ENDBRANCH  48  72
BRANCH  60  83
ATOM     83  C   UNL     1      -7.770  -1.235 -11.478  1.00  0.00     0.064 A 
ATOM     84  C   UNL     1      -8.441  -2.134 -12.320  1.00  0.00     0.173 A 
ATOM     85  C   UNL     1      -7.699   0.110 -11.868  1.00  0.00     0.173 A 
ATOM     86  F   UNL     1      -8.508  -3.436 -12.002  1.00  0.00    -0.203 F 
ATOM     87  C   UNL     1      -8.999  -1.706 -13.521  1.00  0.00     0.198 A 
ATOM     88  C   UNL     1      -8.281   0.539 -13.057  1.00  0.00     0.198 A 
ATOM     89  F   UNL     1      -7.059   1.004 -11.101  1.00  0.00    -0.203 F 
ATOM     90  F   UNL     1      -9.588  -2.591 -14.336  1.00  0.00    -0.200 F 
ATOM     91  C   UNL     1      -8.924  -0.370 -13.885  1.00  0.00     0.200 A 
ATOM     92  F   UNL     1      -8.211   1.830 -13.407  1.00  0.00    -0.200 F 
ATOM     93  F   UNL     1      -9.460   0.040 -15.042  1.00  0.00    -0.200 F 
ENDBRANCH  60  83
ENDBRANCH  34  35
ENDBRANCH  27  29
ENDBRANCH  26  27
ENDBRANCH  25  26
ENDBRANCH   1  25
TORSDOF 14
