REMARK SMILES NS(=O)(=O)c1ccc(N2N=C(C(=O)OCCOC(=O)c3ccc(-c4c5nc(c(-c6c(F)c(F)c(F)c(F)c6F)c6ccc([nH]6)c(-c6c(F)c(F)c(F)c(F)c6F)c6nc(c(-c7c(F)c(F)c(F)c(F)c7F)c7ccc4[nH]7)C=C6)C=C5)cc3)C[C@H]2c2cccs2)cc1
REMARK SMILES IDX 15 1 14 2 12 3 13 4 11 5 9 6 10 7 84 8 83 9 8 10 5 11 6 12
REMARK SMILES IDX 91 13 7 14 90 15 2 16 3 17 4 18 1 19 85 22 86 23 89 24 87 25
REMARK SMILES IDX 88 26 16 27 17 28 18 29 19 30 20 31 21 32 82 33 22 34 81 35
REMARK SMILES IDX 23 36 24 37 25 38 75 39 26 40 80 41 74 42 76 43 27 44 79 45
REMARK SMILES IDX 73 46 72 47 28 49 60 50 40 51 59 52 41 53 44 54 58 55 77 56
REMARK SMILES IDX 42 57 43 58 57 60 78 61 45 62 29 63 30 64 38 65 31 66 32 67
REMARK SMILES IDX 36 68 39 69 33 70 34 71 37 72 35 73 61 74 62 75 70 76 63 77
REMARK SMILES IDX 64 78 68 79 71 80 65 81 66 82 69 83 67 84 46 85 47 86 55 87
REMARK SMILES IDX 48 88 49 89 53 90 56 91 50 92 51 93 54 94 52 95
REMARK H PARENT 1 20 1 21 76 48 44 59
REMARK Flexibility Score: inf
ROOT
ATOM      1  C   UNL     1       1.680 -11.395  -3.594  1.00  0.00     0.275 C 
ENDROOT
BRANCH   1   2
ATOM      2  O   UNL     1       2.190 -10.481  -2.604  1.00  0.00    -0.458 OA
BRANCH   2   3
ATOM      3  C   UNL     1       2.424  -9.226  -3.035  1.00  0.00     0.354 C 
ATOM      4  O   UNL     1       2.358  -8.810  -4.177  1.00  0.00    -0.245 OA
BRANCH   3   5
ATOM      5  C   UNL     1       2.671  -8.306  -1.864  1.00  0.00     0.148 C 
ATOM      6  N   UNL     1       2.546  -6.606  -0.620  1.00  0.00    -0.256 N 
ATOM      7  N   UNL     1       2.170  -7.107  -1.820  1.00  0.00    -0.169 NA
ATOM      8  C   UNL     1       3.659  -7.353  -0.024  1.00  0.00     0.154 C 
ATOM      9  C   UNL     1       3.423  -8.744  -0.646  1.00  0.00     0.099 C 
BRANCH   6  10
ATOM     10  C   UNL     1       2.074  -5.375  -0.206  1.00  0.00     0.060 A 
ATOM     11  C   UNL     1       1.097  -2.889   0.667  1.00  0.00     0.082 A 
ATOM     12  C   UNL     1       0.371  -4.051   0.936  1.00  0.00     0.024 A 
ATOM     13  C   UNL     1       2.283  -2.951  -0.064  1.00  0.00     0.024 A 
ATOM     14  C   UNL     1       0.866  -5.285   0.503  1.00  0.00     0.029 A 
ATOM     15  C   UNL     1       2.756  -4.190  -0.504  1.00  0.00     0.029 A 
BRANCH  11  16
ATOM     16  S   UNL     1       0.484  -1.338   1.251  1.00  0.00     0.238 S 
ATOM     17  O   UNL     1       1.188  -1.007   2.471  1.00  0.00    -0.207 OA
ATOM     18  O   UNL     1      -0.953  -1.333   1.153  1.00  0.00    -0.207 OA
BRANCH  16  19
ATOM     19  N   UNL     1       1.009  -0.228   0.101  1.00  0.00    -0.225 NA
ATOM     20  H   UNL     1       0.696   0.707   0.362  1.00  0.00     0.137 HD
ATOM     21  H   UNL     1       0.623  -0.474  -0.810  1.00  0.00     0.137 HD
ENDBRANCH  16  19
ENDBRANCH  11  16
ENDBRANCH   6  10
BRANCH   8  22
ATOM     22  C   UNL     1       5.028  -6.750  -0.312  1.00  0.00     0.030 A 
ATOM     23  C   UNL     1       5.658  -5.752   0.413  1.00  0.00     0.017 A 
ATOM     24  S   UNL     1       5.955  -7.166  -1.700  1.00  0.00    -0.147 S 
ATOM     25  C   UNL     1       6.871  -5.312  -0.190  1.00  0.00     0.012 A 
ATOM     26  C   UNL     1       7.157  -6.013  -1.338  1.00  0.00     0.065 A 
ENDBRANCH   8  22
ENDBRANCH   3   5
ENDBRANCH   2   3
ENDBRANCH   1   2
BRANCH   1  27
ATOM     27  C   UNL     1       0.243 -11.810  -3.263  1.00  0.00     0.275 C 
BRANCH  27  28
ATOM     28  O   UNL     1      -0.668 -10.695  -3.333  1.00  0.00    -0.458 OA
BRANCH  28  29
ATOM     29  C   UNL     1      -0.855 -10.041  -2.162  1.00  0.00     0.338 C 
ATOM     30  O   UNL     1      -0.343 -10.299  -1.084  1.00  0.00    -0.246 OA
BRANCH  29  31
ATOM     31  C   UNL     1      -1.678  -8.841  -2.376  1.00  0.00     0.060 A 
ATOM     32  C   UNL     1      -1.042  -7.611  -2.244  1.00  0.00     0.016 A 
ATOM     33  C   UNL     1      -3.055  -8.897  -2.575  1.00  0.00     0.016 A 
ATOM     34  C   UNL     1      -1.762  -6.425  -2.268  1.00  0.00     0.010 A 
ATOM     35  C   UNL     1      -3.785  -7.699  -2.631  1.00  0.00     0.010 A 
ATOM     36  C   UNL     1      -3.144  -6.456  -2.460  1.00  0.00    -0.014 A 
BRANCH  36  37
ATOM     37  C   UNL     1      -3.902  -5.181  -2.425  1.00  0.00     0.031 A 
ATOM     38  C   UNL     1      -4.833  -4.891  -1.285  1.00  0.00     0.074 A 
ATOM     39  C   UNL     1      -3.710  -4.261  -3.389  1.00  0.00     0.049 A 
ATOM     40  N   UNL     1      -5.648  -3.881  -1.114  1.00  0.00    -0.248 NA
ATOM     41  C   UNL     1      -4.856  -5.874  -0.191  1.00  0.00     0.031 C 
ATOM     42  C   UNL     1      -2.783  -4.398  -4.512  1.00  0.00     0.029 A 
ATOM     43  N   UNL     1      -4.278  -3.025  -3.573  1.00  0.00    -0.354 N 
ATOM     44  C   UNL     1      -6.302  -4.121   0.087  1.00  0.00     0.074 A 
ATOM     45  C   UNL     1      -5.803  -5.382   0.595  1.00  0.00     0.031 C 
ATOM     46  C   UNL     1      -2.836  -3.287  -5.262  1.00  0.00     0.029 A 
ATOM     47  C   UNL     1      -3.843  -2.387  -4.707  1.00  0.00     0.049 A 
ATOM     48  H   UNL     1      -4.934  -2.634  -2.951  1.00  0.00     0.167 HD
ATOM     49  C   UNL     1      -7.234  -3.357   0.706  1.00  0.00     0.037 A 
ATOM     50  C   UNL     1      -4.235  -1.223  -5.258  1.00  0.00     0.037 A 
ATOM     51  C   UNL     1      -7.698  -2.086   0.211  1.00  0.00     0.049 A 
ATOM     52  C   UNL     1      -5.304  -0.415  -4.578  1.00  0.00     0.074 A 
ATOM     53  C   UNL     1      -8.628  -1.227   0.770  1.00  0.00     0.029 A 
ATOM     54  N   UNL     1      -7.258  -1.487  -0.962  1.00  0.00    -0.354 N 
ATOM     55  N   UNL     1      -5.941  -0.662  -3.459  1.00  0.00    -0.248 NA
ATOM     56  C   UNL     1      -5.716   0.830  -5.240  1.00  0.00     0.031 C 
ATOM     57  C   UNL     1      -8.786  -0.133  -0.087  1.00  0.00     0.029 A 
ATOM     58  C   UNL     1      -7.918  -0.284  -1.156  1.00  0.00     0.049 A 
ATOM     59  H   UNL     1      -6.577  -1.863  -1.566  1.00  0.00     0.167 HD
ATOM     60  C   UNL     1      -6.815   0.399  -3.274  1.00  0.00     0.074 A 
ATOM     61  C   UNL     1      -6.615   1.303  -4.388  1.00  0.00     0.031 C 
ATOM     62  C   UNL     1      -7.705   0.604  -2.272  1.00  0.00     0.037 A 
BRANCH  49  63
ATOM     63  C   UNL     1      -7.848  -3.899   1.964  1.00  0.00     0.064 A 
ATOM     64  C   UNL     1      -7.133  -3.982   3.168  1.00  0.00     0.173 A 
ATOM     65  C   UNL     1      -9.184  -4.330   1.965  1.00  0.00     0.173 A 
ATOM     66  F   UNL     1      -5.848  -3.600   3.218  1.00  0.00    -0.203 F 
ATOM     67  C   UNL     1      -7.722  -4.506   4.316  1.00  0.00     0.198 A 
ATOM     68  C   UNL     1      -9.779  -4.825   3.122  1.00  0.00     0.198 A 
ATOM     69  F   UNL     1      -9.915  -4.269   0.842  1.00  0.00    -0.203 F 
ATOM     70  F   UNL     1      -7.004  -4.628   5.441  1.00  0.00    -0.200 F 
ATOM     71  C   UNL     1      -9.046  -4.922   4.294  1.00  0.00     0.200 A 
ATOM     72  F   UNL     1     -11.061  -5.216   3.100  1.00  0.00    -0.200 F 
ATOM     73  F   UNL     1      -9.611  -5.426   5.400  1.00  0.00    -0.200 F 
ENDBRANCH  49  63
BRANCH  50  74
ATOM     74  C   UNL     1      -3.625  -0.774  -6.536  1.00  0.00     0.064 A 
ATOM     75  C   UNL     1      -2.773   0.337  -6.581  1.00  0.00     0.173 A 
ATOM     76  C   UNL     1      -3.867  -1.462  -7.735  1.00  0.00     0.173 A 
ATOM     77  F   UNL     1      -2.531   1.042  -5.466  1.00  0.00    -0.203 F 
ATOM     78  C   UNL     1      -2.191   0.747  -7.779  1.00  0.00     0.198 A 
ATOM     79  C   UNL     1      -3.262  -1.069  -8.925  1.00  0.00     0.198 A 
ATOM     80  F   UNL     1      -4.678  -2.530  -7.744  1.00  0.00    -0.203 F 
ATOM     81  F   UNL     1      -1.407   1.834  -7.803  1.00  0.00    -0.200 F 
ATOM     82  C   UNL     1      -2.428   0.038  -8.948  1.00  0.00     0.200 A 
ATOM     83  F   UNL     1      -3.484  -1.764 -10.049  1.00  0.00    -0.200 F 
ATOM     84  F   UNL     1      -1.858   0.426 -10.097  1.00  0.00    -0.200 F 
ENDBRANCH  50  74
BRANCH  62  85
ATOM     85  C   UNL     1      -8.511   1.869  -2.321  1.00  0.00     0.064 A 
ATOM     86  C   UNL     1      -9.552   2.040  -3.245  1.00  0.00     0.173 A 
ATOM     87  C   UNL     1      -8.262   2.906  -1.410  1.00  0.00     0.173 A 
ATOM     88  F   UNL     1      -9.818   1.085  -4.149  1.00  0.00    -0.203 F 
ATOM     89  C   UNL     1     -10.300   3.214  -3.269  1.00  0.00     0.198 A 
ATOM     90  C   UNL     1      -9.030   4.066  -1.418  1.00  0.00     0.198 A 
ATOM     91  F   UNL     1      -7.280   2.789  -0.504  1.00  0.00    -0.203 F 
ATOM     92  F   UNL     1     -11.261   3.376  -4.189  1.00  0.00    -0.200 F 
ATOM     93  C   UNL     1     -10.044   4.223  -2.351  1.00  0.00     0.200 A 
ATOM     94  F   UNL     1      -8.789   5.035  -0.524  1.00  0.00    -0.200 F 
ATOM     95  F   UNL     1     -10.769   5.349  -2.372  1.00  0.00    -0.200 F 
ENDBRANCH  62  85
ENDBRANCH  36  37
ENDBRANCH  29  31
ENDBRANCH  28  29
ENDBRANCH  27  28
ENDBRANCH   1  27
TORSDOF 15
