REMARK SMILES C[C@H]1[NH2+]CC[C@@H]1C(=O)N[C@@H](CC(=O)OCCOC(=O)c1ccc(-c2c3nc(c(-c4c(F)c(F)c(F)c(F)c4F)c4ccc([nH]4)c(-c4c(F)c(F)c(F)c(F)c4F)c4nc(c(-c5c(F)c(F)c(F)c(F)c5F)c5ccc2[nH]5)C=C4)C=C3)cc1)c1cccs1
REMARK SMILES IDX 15 1 14 2 12 3 13 4 11 5 10 6 9 7 7 8 8 9 6 11 1 12 2 13
REMARK SMILES IDX 3 14 4 15 5 18 83 19 84 20 87 21 85 22 86 23 16 24 17 25
REMARK SMILES IDX 18 26 19 27 20 28 21 29 82 30 22 31 81 32 23 33 24 34 25 35
REMARK SMILES IDX 75 36 26 37 80 38 74 39 76 40 27 41 79 42 73 43 72 44 28 46
REMARK SMILES IDX 60 47 40 48 59 49 41 50 44 51 58 52 77 53 42 54 43 55 57 57
REMARK SMILES IDX 78 58 45 59 29 60 30 61 38 62 31 63 32 64 36 65 39 66 33 67
REMARK SMILES IDX 34 68 37 69 35 70 61 71 62 72 70 73 63 74 64 75 68 76 71 77
REMARK SMILES IDX 65 78 66 79 69 80 67 81 46 82 47 83 55 84 48 85 49 86 53 87
REMARK SMILES IDX 56 88 50 89 51 90 54 91 52 92
REMARK H PARENT 9 10 3 16 3 17 76 45 44 56
REMARK Flexibility Score: inf
ROOT
ATOM      1  C   UNL     1      -3.864   4.290  -4.705  1.00  0.00     0.274 C 
ENDROOT
BRANCH   1   2
ATOM      2  O   UNL     1      -3.168   3.768  -3.552  1.00  0.00    -0.462 OA
BRANCH   2   3
ATOM      3  C   UNL     1      -3.100   4.619  -2.500  1.00  0.00     0.308 C 
ATOM      4  O   UNL     1      -3.517   5.774  -2.505  1.00  0.00    -0.252 OA
BRANCH   3   5
ATOM      5  C   UNL     1      -2.383   4.072  -1.298  1.00  0.00     0.153 C 
BRANCH   5   6
ATOM      6  C   UNL     1      -2.303   2.568  -1.072  1.00  0.00     0.133 C 
BRANCH   6   7
ATOM      7  N   UNL     1      -1.417   1.898  -2.003  1.00  0.00    -0.347 N 
ATOM      8  C   UNL     1      -0.422   0.991  -1.788  1.00  0.00     0.229 C 
ATOM      9  O   UNL     1       0.122   0.535  -2.795  1.00  0.00    -0.275 OA
ATOM     10  H   UNL     1      -1.556   2.138  -2.947  1.00  0.00     0.164 HD
BRANCH   8  11
ATOM     11  C   UNL     1       0.062   0.674  -0.365  1.00  0.00     0.142 C 
ATOM     12  C   UNL     1       2.283  -0.063   0.622  1.00  0.00     0.076 C 
ATOM     13  C   UNL     1       1.164  -0.407  -0.365  1.00  0.00     0.192 C 
ATOM     14  N   UNL     1       0.529  -1.680   0.049  1.00  0.00    -0.343 N 
ATOM     15  C   UNL     1      -0.889  -1.420   0.268  1.00  0.00     0.261 C 
ATOM     16  H   UNL     1       0.957  -2.017   0.912  1.00  0.00     0.346 HD
ATOM     17  H   UNL     1       0.654  -2.392  -0.670  1.00  0.00     0.346 HD
ATOM     18  C   UNL     1      -0.971   0.057   0.569  1.00  0.00     0.081 C 
ENDBRANCH   8  11
ENDBRANCH   6   7
BRANCH   6  19
ATOM     19  C   UNL     1      -3.635   1.844  -0.977  1.00  0.00     0.027 A 
ATOM     20  C   UNL     1      -4.516   1.850   0.093  1.00  0.00     0.017 A 
ATOM     21  S   UNL     1      -4.182   0.760  -2.198  1.00  0.00    -0.147 S 
ATOM     22  C   UNL     1      -5.597   0.935  -0.072  1.00  0.00     0.012 A 
ATOM     23  C   UNL     1      -5.519   0.258  -1.266  1.00  0.00     0.065 A 
ENDBRANCH   6  19
ENDBRANCH   5   6
ENDBRANCH   3   5
ENDBRANCH   2   3
ENDBRANCH   1   2
BRANCH   1  24
ATOM     24  C   UNL     1      -5.355   3.956  -4.654  1.00  0.00     0.275 C 
BRANCH  24  25
ATOM     25  O   UNL     1      -5.910   4.393  -3.402  1.00  0.00    -0.458 OA
BRANCH  25  26
ATOM     26  C   UNL     1      -6.849   3.581  -2.868  1.00  0.00     0.338 C 
ATOM     27  O   UNL     1      -7.329   2.581  -3.373  1.00  0.00    -0.246 OA
BRANCH  26  28
ATOM     28  C   UNL     1      -7.286   4.107  -1.558  1.00  0.00     0.060 A 
ATOM     29  C   UNL     1      -6.378   4.603  -0.618  1.00  0.00     0.016 A 
ATOM     30  C   UNL     1      -8.643   4.032  -1.242  1.00  0.00     0.016 A 
ATOM     31  C   UNL     1      -6.817   4.971   0.656  1.00  0.00     0.010 A 
ATOM     32  C   UNL     1      -9.092   4.465   0.006  1.00  0.00     0.010 A 
ATOM     33  C   UNL     1      -8.181   4.917   0.975  1.00  0.00    -0.014 A 
BRANCH  33  34
ATOM     34  C   UNL     1      -8.681   5.338   2.309  1.00  0.00     0.031 A 
ATOM     35  C   UNL     1      -9.343   4.341   3.220  1.00  0.00     0.074 A 
ATOM     36  C   UNL     1      -8.593   6.630   2.677  1.00  0.00     0.049 A 
ATOM     37  N   UNL     1     -10.004   4.545   4.331  1.00  0.00    -0.248 NA
ATOM     38  C   UNL     1      -9.256   2.928   2.822  1.00  0.00     0.031 C 
ATOM     39  C   UNL     1      -7.959   7.690   1.894  1.00  0.00     0.029 A 
ATOM     40  N   UNL     1      -9.057   7.273   3.797  1.00  0.00    -0.354 N 
ATOM     41  C   UNL     1     -10.442   3.294   4.747  1.00  0.00     0.074 A 
ATOM     42  C   UNL     1      -9.975   2.336   3.767  1.00  0.00     0.031 C 
ATOM     43  C   UNL     1      -8.069   8.851   2.558  1.00  0.00     0.029 A 
ATOM     44  C   UNL     1      -8.837   8.628   3.779  1.00  0.00     0.049 A 
ATOM     45  H   UNL     1      -9.504   6.809   4.541  1.00  0.00     0.167 HD
ATOM     46  C   UNL     1     -11.169   2.979   5.846  1.00  0.00     0.037 A 
ATOM     47  C   UNL     1      -9.243   9.591   4.627  1.00  0.00     0.037 A 
ATOM     48  C   UNL     1     -11.613   3.932   6.830  1.00  0.00     0.049 A 
ATOM     49  C   UNL     1     -10.082   9.220   5.816  1.00  0.00     0.074 A 
ATOM     50  C   UNL     1     -12.331   3.704   7.992  1.00  0.00     0.029 A 
ATOM     51  N   UNL     1     -11.378   5.298   6.767  1.00  0.00    -0.354 N 
ATOM     52  N   UNL     1     -10.503   8.038   6.193  1.00  0.00    -0.248 NA
ATOM     53  C   UNL     1     -10.514  10.320   6.689  1.00  0.00     0.031 C 
ATOM     54  C   UNL     1     -12.560   4.937   8.614  1.00  0.00     0.029 A 
ATOM     55  C   UNL     1     -11.952   5.927   7.860  1.00  0.00     0.049 A 
ATOM     56  H   UNL     1     -10.878   5.752   6.052  1.00  0.00     0.167 HD
ATOM     57  C   UNL     1     -11.241   8.248   7.349  1.00  0.00     0.074 A 
ATOM     58  C   UNL     1     -11.194   9.669   7.623  1.00  0.00     0.031 C 
ATOM     59  C   UNL     1     -11.902   7.344   8.112  1.00  0.00     0.037 A 
BRANCH  46  60
ATOM     60  C   UNL     1     -11.554   1.542   6.035  1.00  0.00     0.064 A 
ATOM     61  C   UNL     1     -10.624   0.577   6.449  1.00  0.00     0.173 A 
ATOM     62  C   UNL     1     -12.884   1.134   5.847  1.00  0.00     0.173 A 
ATOM     63  F   UNL     1      -9.338   0.914   6.629  1.00  0.00    -0.203 F 
ATOM     64  C   UNL     1     -11.008  -0.746   6.652  1.00  0.00     0.198 A 
ATOM     65  C   UNL     1     -13.269  -0.185   6.072  1.00  0.00     0.198 A 
ATOM     66  F   UNL     1     -13.812   2.019   5.455  1.00  0.00    -0.203 F 
ATOM     67  F   UNL     1     -10.096  -1.658   7.015  1.00  0.00    -0.200 F 
ATOM     68  C   UNL     1     -12.330  -1.125   6.470  1.00  0.00     0.200 A 
ATOM     69  F   UNL     1     -14.548  -0.546   5.904  1.00  0.00    -0.200 F 
ATOM     70  F   UNL     1     -12.699  -2.397   6.673  1.00  0.00    -0.200 F 
ENDBRANCH  46  60
BRANCH  47  71
ATOM     71  C   UNL     1      -8.878  11.005   4.359  1.00  0.00     0.064 A 
ATOM     72  C   UNL     1      -7.935  11.665   5.156  1.00  0.00     0.173 A 
ATOM     73  C   UNL     1      -9.446  11.714   3.290  1.00  0.00     0.173 A 
ATOM     74  F   UNL     1      -7.385  11.034   6.204  1.00  0.00    -0.203 F 
ATOM     75  C   UNL     1      -7.576  12.986   4.897  1.00  0.00     0.198 A 
ATOM     76  C   UNL     1      -9.067  13.025   3.016  1.00  0.00     0.198 A 
ATOM     77  F   UNL     1     -10.353  11.123   2.499  1.00  0.00    -0.203 F 
ATOM     78  F   UNL     1      -6.693  13.606   5.692  1.00  0.00    -0.200 F 
ATOM     79  C   UNL     1      -8.135  13.662   3.822  1.00  0.00     0.200 A 
ATOM     80  F   UNL     1      -9.599  13.670   1.969  1.00  0.00    -0.200 F 
ATOM     81  F   UNL     1      -7.779  14.928   3.566  1.00  0.00    -0.200 F 
ENDBRANCH  47  71
BRANCH  59  82
ATOM     82  C   UNL     1     -12.612   7.869   9.323  1.00  0.00     0.064 A 
ATOM     83  C   UNL     1     -13.818   8.576   9.213  1.00  0.00     0.173 A 
ATOM     84  C   UNL     1     -12.091   7.647  10.606  1.00  0.00     0.173 A 
ATOM     85  F   UNL     1     -14.344   8.828   8.005  1.00  0.00    -0.203 F 
ATOM     86  C   UNL     1     -14.465   9.063  10.345  1.00  0.00     0.198 A 
ATOM     87  C   UNL     1     -12.753   8.116  11.737  1.00  0.00     0.198 A 
ATOM     88  F   UNL     1     -10.941   6.974  10.762  1.00  0.00    -0.203 F 
ATOM     89  F   UNL     1     -15.594   9.774  10.216  1.00  0.00    -0.200 F 
ATOM     90  C   UNL     1     -13.935   8.829  11.605  1.00  0.00     0.200 A 
ATOM     91  F   UNL     1     -12.243   7.883  12.955  1.00  0.00    -0.200 F 
ATOM     92  F   UNL     1     -14.559   9.300  12.694  1.00  0.00    -0.200 F 
ENDBRANCH  59  82
ENDBRANCH  33  34
ENDBRANCH  26  28
ENDBRANCH  25  26
ENDBRANCH  24  25
ENDBRANCH   1  24
TORSDOF 15
