REMARK SMILES O=C(OCCOC(=O)c1ccc(-n2cc(CSc3nc4ccccc4c(=O)n3-c3ccccc3)nn2)cc1)c1ccc(-c2c3nc(c(-c4c(F)c(F)c(F)c(F)c4F)c4ccc([nH]4)c(-c4c(F)c(F)c(F)c(F)c4F)c4nc(c(-c5c(F)c(F)c(F)c(F)c5F)c5ccc2[nH]5)C=C4)C=C3)cc1
REMARK SMILES IDX 6 1 5 2 4 3 3 4 2 5 1 6 39 7 40 8 101 9 41 10 100 11 42 12
REMARK SMILES IDX 43 13 44 14 94 15 45 16 99 17 93 18 95 19 46 20 98 21 92 22
REMARK SMILES IDX 91 23 47 25 79 26 59 27 78 28 60 29 63 30 77 31 96 32 61 33
REMARK SMILES IDX 62 34 76 36 97 37 64 38 48 39 49 40 57 41 50 42 51 43 55 44
REMARK SMILES IDX 58 45 52 46 53 47 56 48 54 49 80 50 81 51 89 52 82 53 83 54
REMARK SMILES IDX 87 55 90 56 84 57 85 58 88 59 86 60 65 61 66 62 74 63 67 64
REMARK SMILES IDX 68 65 72 66 75 67 69 68 70 69 73 70 71 71 7 72 8 73 9 74
REMARK SMILES IDX 10 75 38 76 11 77 37 78 12 79 13 80 14 81 36 82 15 83 35 84
REMARK SMILES IDX 16 85 17 86 18 87 19 88 28 89 20 90 26 91 21 92 25 93 27 94
REMARK SMILES IDX 22 95 24 96 23 97 29 98 30 99 34 100 31 101 33 102 32 103
REMARK H PARENT 95 24 63 35
REMARK Flexibility Score: inf
ROOT
ATOM      1  O   UNL     1       3.888   1.542  -0.447  1.00  0.00    -0.458 OA
ENDROOT
BRANCH   1   2
ATOM      2  C   UNL     1       4.438   0.702  -1.479  1.00  0.00     0.275 C 
BRANCH   2   3
ATOM      3  C   UNL     1       4.665  -0.712  -0.945  1.00  0.00     0.275 C 
BRANCH   3   4
ATOM      4  O   UNL     1       3.499  -1.498  -0.620  1.00  0.00    -0.458 OA
BRANCH   4   5
ATOM      5  C   UNL     1       2.359  -0.862  -0.278  1.00  0.00     0.338 C 
ATOM      6  O   UNL     1       1.494  -0.521  -1.069  1.00  0.00    -0.246 OA
BRANCH   5   7
ATOM      7  C   UNL     1       2.178  -0.798   1.191  1.00  0.00     0.060 A 
ATOM      8  C   UNL     1       3.252  -0.897   2.082  1.00  0.00     0.016 A 
ATOM      9  C   UNL     1       0.877  -0.614   1.678  1.00  0.00     0.016 A 
ATOM     10  C   UNL     1       3.020  -0.884   3.448  1.00  0.00     0.010 A 
ATOM     11  C   UNL     1       0.648  -0.563   3.043  1.00  0.00     0.010 A 
ATOM     12  C   UNL     1       1.713  -0.760   3.922  1.00  0.00    -0.014 A 
BRANCH  12  13
ATOM     13  C   UNL     1       1.499  -0.840   5.362  1.00  0.00     0.031 A 
ATOM     14  C   UNL     1       2.141   0.225   6.181  1.00  0.00     0.074 A 
ATOM     15  C   UNL     1       0.677  -1.759   5.905  1.00  0.00     0.049 A 
ATOM     16  N   UNL     1       3.024   0.100   7.120  1.00  0.00    -0.248 NA
ATOM     17  C   UNL     1       1.816   1.618   5.853  1.00  0.00     0.031 C 
ATOM     18  C   UNL     1      -0.229  -2.681   5.214  1.00  0.00     0.029 A 
ATOM     19  N   UNL     1       0.400  -1.988   7.218  1.00  0.00    -0.354 N 
ATOM     20  C   UNL     1       3.242   1.386   7.623  1.00  0.00     0.074 A 
ATOM     21  C   UNL     1       2.583   2.287   6.715  1.00  0.00     0.031 C 
ATOM     22  C   UNL     1      -1.114  -3.186   6.102  1.00  0.00     0.029 A 
ATOM     23  C   UNL     1      -0.743  -2.743   7.433  1.00  0.00     0.049 A 
ATOM     24  H   UNL     1       0.962  -1.647   7.951  1.00  0.00     0.167 HD
ATOM     25  C   UNL     1       3.761   1.581   8.869  1.00  0.00     0.037 A 
ATOM     26  C   UNL     1      -1.375  -2.934   8.616  1.00  0.00     0.037 A 
ATOM     27  C   UNL     1       4.450   0.402   9.332  1.00  0.00     0.049 A 
ATOM     28  C   UNL     1      -0.408  -2.622   9.697  1.00  0.00     0.074 A 
ATOM     29  C   UNL     1       5.529  -0.338   8.889  1.00  0.00     0.029 A 
ATOM     30  N   UNL     1       3.827  -0.391  10.264  1.00  0.00    -0.354 N 
ATOM     31  N   UNL     1       0.646  -3.343   9.962  1.00  0.00    -0.248 NA
ATOM     32  C   UNL     1      -0.376  -1.258  10.202  1.00  0.00     0.031 C 
ATOM     33  C   UNL     1       5.198  -1.692   9.193  1.00  0.00     0.029 A 
ATOM     34  C   UNL     1       3.968  -1.687   9.850  1.00  0.00     0.049 A 
ATOM     35  H   UNL     1       3.366  -0.084  11.079  1.00  0.00     0.167 HD
ATOM     36  C   UNL     1       1.633  -2.419  10.270  1.00  0.00     0.074 A 
ATOM     37  C   UNL     1       0.923  -1.163  10.499  1.00  0.00     0.031 C 
ATOM     38  C   UNL     1       2.949  -2.691  10.030  1.00  0.00     0.037 A 
BRANCH  25  39
ATOM     39  C   UNL     1       3.316   2.670   9.831  1.00  0.00     0.064 A 
ATOM     40  C   UNL     1       3.917   2.730  11.109  1.00  0.00     0.173 A 
ATOM     41  C   UNL     1       2.126   3.415   9.696  1.00  0.00     0.173 A 
ATOM     42  F   UNL     1       5.069   2.087  11.357  1.00  0.00    -0.203 F 
ATOM     43  C   UNL     1       3.296   3.355  12.193  1.00  0.00     0.198 A 
ATOM     44  C   UNL     1       1.535   4.082  10.769  1.00  0.00     0.198 A 
ATOM     45  F   UNL     1       1.425   3.450   8.559  1.00  0.00    -0.203 F 
ATOM     46  F   UNL     1       3.828   3.245  13.418  1.00  0.00    -0.200 F 
ATOM     47  C   UNL     1       2.094   4.013  12.027  1.00  0.00     0.200 A 
ATOM     48  F   UNL     1       0.369   4.718  10.588  1.00  0.00    -0.200 F 
ATOM     49  F   UNL     1       1.454   4.542  13.078  1.00  0.00    -0.200 F 
ENDBRANCH  25  39
BRANCH  26  50
ATOM     50  C   UNL     1      -2.830  -3.064   8.857  1.00  0.00     0.064 A 
ATOM     51  C   UNL     1      -3.322  -3.585  10.064  1.00  0.00     0.173 A 
ATOM     52  C   UNL     1      -3.769  -2.432   8.018  1.00  0.00     0.173 A 
ATOM     53  F   UNL     1      -2.486  -4.162  10.940  1.00  0.00    -0.203 F 
ATOM     54  C   UNL     1      -4.669  -3.461  10.420  1.00  0.00     0.198 A 
ATOM     55  C   UNL     1      -5.113  -2.316   8.370  1.00  0.00     0.198 A 
ATOM     56  F   UNL     1      -3.383  -1.831   6.883  1.00  0.00    -0.203 F 
ATOM     57  F   UNL     1      -5.091  -3.917  11.607  1.00  0.00    -0.200 F 
ATOM     58  C   UNL     1      -5.561  -2.818   9.577  1.00  0.00     0.200 A 
ATOM     59  F   UNL     1      -5.958  -1.662   7.560  1.00  0.00    -0.200 F 
ATOM     60  F   UNL     1      -6.839  -2.647   9.944  1.00  0.00    -0.200 F 
ENDBRANCH  26  50
BRANCH  38  61
ATOM     61  C   UNL     1       3.324  -4.102   9.681  1.00  0.00     0.064 A 
ATOM     62  C   UNL     1       2.884  -4.764   8.521  1.00  0.00     0.173 A 
ATOM     63  C   UNL     1       4.282  -4.750  10.471  1.00  0.00     0.173 A 
ATOM     64  F   UNL     1       2.051  -4.169   7.660  1.00  0.00    -0.203 F 
ATOM     65  C   UNL     1       3.350  -6.036   8.196  1.00  0.00     0.198 A 
ATOM     66  C   UNL     1       4.774  -6.004  10.124  1.00  0.00     0.198 A 
ATOM     67  F   UNL     1       4.782  -4.139  11.557  1.00  0.00    -0.203 F 
ATOM     68  F   UNL     1       2.909  -6.652   7.089  1.00  0.00    -0.200 F 
ATOM     69  C   UNL     1       4.301  -6.652   8.994  1.00  0.00     0.200 A 
ATOM     70  F   UNL     1       5.731  -6.573  10.869  1.00  0.00    -0.200 F 
ATOM     71  F   UNL     1       4.783  -7.856   8.657  1.00  0.00    -0.200 F 
ENDBRANCH  38  61
ENDBRANCH  12  13
ENDBRANCH   5   7
ENDBRANCH   4   5
ENDBRANCH   3   4
ENDBRANCH   2   3
ENDBRANCH   1   2
BRANCH   1  72
ATOM     72  C   UNL     1       2.876   2.352  -0.834  1.00  0.00     0.338 C 
ATOM     73  O   UNL     1       2.429   2.514  -1.965  1.00  0.00    -0.246 OA
BRANCH  72  74
ATOM     74  C   UNL     1       2.328   3.004   0.359  1.00  0.00     0.060 A 
ATOM     75  C   UNL     1       1.089   2.583   0.853  1.00  0.00     0.018 A 
ATOM     76  C   UNL     1       3.019   4.059   0.960  1.00  0.00     0.018 A 
ATOM     77  C   UNL     1       0.564   3.160   2.006  1.00  0.00     0.029 A 
ATOM     78  C   UNL     1       2.451   4.707   2.059  1.00  0.00     0.029 A 
ATOM     79  C   UNL     1       1.239   4.235   2.588  1.00  0.00     0.066 A 
BRANCH  79  80
ATOM     80  N   UNL     1       0.562   4.976   3.568  1.00  0.00    -0.220 N 
ATOM     81  C   UNL     1       0.162   6.272   3.422  1.00  0.00     0.141 A 
ATOM     82  N   UNL     1       0.035   4.456   4.694  1.00  0.00    -0.062 NA
ATOM     83  C   UNL     1      -0.668   6.527   4.489  1.00  0.00     0.093 A 
ATOM     84  N   UNL     1      -0.659   5.418   5.301  1.00  0.00    -0.134 NA
BRANCH  83  85
ATOM     85  C   UNL     1      -1.279   7.809   4.907  1.00  0.00     0.138 C 
BRANCH  85  86
ATOM     86  S   UNL     1      -2.917   8.343   4.414  1.00  0.00    -0.081 SA
BRANCH  86  87
ATOM     87  C   UNL     1      -3.495   7.623   2.935  1.00  0.00     0.176 A 
ATOM     88  N   UNL     1      -4.787   7.450   2.942  1.00  0.00    -0.223 NA
ATOM     89  N   UNL     1      -2.725   7.245   1.849  1.00  0.00    -0.255 N 
ATOM     90  C   UNL     1      -5.372   6.760   1.872  1.00  0.00     0.079 A 
ATOM     91  C   UNL     1      -3.146   6.051   1.254  1.00  0.00     0.266 A 
ATOM     92  C   UNL     1      -6.744   6.825   1.625  1.00  0.00     0.029 A 
ATOM     93  C   UNL     1      -4.599   5.907   1.098  1.00  0.00     0.066 A 
ATOM     94  O   UNL     1      -2.417   5.136   0.874  1.00  0.00    -0.268 OA
ATOM     95  C   UNL     1      -7.325   5.997   0.656  1.00  0.00     0.002 A 
ATOM     96  C   UNL     1      -5.167   5.034   0.167  1.00  0.00     0.016 A 
ATOM     97  C   UNL     1      -6.543   5.077  -0.048  1.00  0.00     0.001 A 
BRANCH  89  98
ATOM     98  C   UNL     1      -1.575   7.925   1.294  1.00  0.00     0.051 A 
ATOM     99  C   UNL     1      -1.008   7.472   0.084  1.00  0.00     0.027 A 
ATOM    100  C   UNL     1      -0.960   9.042   1.873  1.00  0.00     0.027 A 
ATOM    101  C   UNL     1       0.221   7.943  -0.387  1.00  0.00     0.002 A 
ATOM    102  C   UNL     1       0.303   9.479   1.445  1.00  0.00     0.002 A 
ATOM    103  C   UNL     1       0.909   8.904   0.335  1.00  0.00     0.000 A 
ENDBRANCH  89  98
ENDBRANCH  86  87
ENDBRANCH  85  86
ENDBRANCH  83  85
ENDBRANCH  79  80
ENDBRANCH  72  74
ENDBRANCH   1  72
TORSDOF 16
