REMARK SMILES CCn1ccc([C@@H](C)NC(=O)c2cnn([C@H](C)C(=O)OCCOC(=O)c3ccc(-c4c5nc(c(-c6c(F)c(F)c(F)c(F)c6F)c6ccc([nH]6)c(-c6c(F)c(F)c(F)c(F)c6F)c6nc(c(-c7c(F)c(F)c(F)c(F)c7F)c7ccc4[nH]7)C=C6)C=C5)cc3)c2)n1
REMARK SMILES IDX 20 1 18 2 19 3 16 4 17 5 15 6 12 7 13 8 89 9 14 10 10 11
REMARK SMILES IDX 9 12 11 14 7 15 8 16 6 17 3 18 4 19 90 20 5 21 2 22 1 23
REMARK SMILES IDX 21 24 22 25 23 26 24 27 25 28 26 29 27 30 88 31 28 32 87 33
REMARK SMILES IDX 29 34 30 35 31 36 81 37 32 38 86 39 80 40 82 41 33 42 85 43
REMARK SMILES IDX 79 44 78 45 34 47 66 48 46 49 65 50 47 51 50 52 64 53 83 54
REMARK SMILES IDX 48 55 49 56 63 58 84 59 51 60 35 61 36 62 44 63 37 64 38 65
REMARK SMILES IDX 42 66 45 67 39 68 40 69 43 70 41 71 67 72 68 73 76 74 69 75
REMARK SMILES IDX 70 76 74 77 77 78 71 79 72 80 75 81 73 82 52 83 53 84 61 85
REMARK SMILES IDX 54 86 55 87 59 88 62 89 56 90 57 91 60 92 58 93
REMARK H PARENT 9 13 82 46 50 57
REMARK Flexibility Score: inf
ROOT
ATOM      1  O   UNL     1      -2.214 -10.175  -0.608  1.00  0.00    -0.460 OA
ENDROOT
BRANCH   1   2
ATOM      2  C   UNL     1      -3.302  -9.363  -0.442  1.00  0.00     0.330 C 
ATOM      3  O   UNL     1      -4.467  -9.751  -0.433  1.00  0.00    -0.250 OA
BRANCH   2   4
ATOM      4  C   UNL     1      -2.904  -7.911  -0.278  1.00  0.00     0.213 C 
ATOM      5  C   UNL     1      -1.992  -7.649   0.924  1.00  0.00     0.046 C 
BRANCH   4   6
ATOM      6  N   UNL     1      -2.426  -7.442  -1.567  1.00  0.00    -0.258 N 
ATOM      7  C   UNL     1      -1.348  -6.434  -3.188  1.00  0.00     0.077 A 
ATOM      8  C   UNL     1      -2.604  -6.917  -3.604  1.00  0.00     0.149 A 
ATOM      9  C   UNL     1      -1.225  -6.889  -1.891  1.00  0.00     0.123 A 
ATOM     10  N   UNL     1      -3.278  -7.496  -2.615  1.00  0.00    -0.180 NA
BRANCH   7  11
ATOM     11  C   UNL     1      -0.380  -5.638  -3.896  1.00  0.00     0.254 C 
ATOM     12  N   UNL     1      -0.808  -4.500  -4.520  1.00  0.00    -0.344 N 
ATOM     13  H   UNL     1      -0.144  -4.049  -5.091  1.00  0.00     0.164 HD
ATOM     14  O   UNL     1       0.819  -5.929  -3.919  1.00  0.00    -0.269 OA
BRANCH  12  15
ATOM     15  C   UNL     1      -2.123  -3.864  -4.450  1.00  0.00     0.130 C 
ATOM     16  C   UNL     1      -2.737  -3.787  -5.842  1.00  0.00     0.038 C 
BRANCH  15  17
ATOM     17  C   UNL     1      -1.991  -2.522  -3.786  1.00  0.00     0.084 A 
ATOM     18  N   UNL     1      -2.323  -1.006  -2.331  1.00  0.00    -0.273 N 
ATOM     19  C   UNL     1      -1.480  -0.437  -3.240  1.00  0.00     0.109 A 
ATOM     20  N   UNL     1      -2.642  -2.277  -2.639  1.00  0.00    -0.176 NA
ATOM     21  C   UNL     1      -1.246  -1.393  -4.201  1.00  0.00     0.047 A 
BRANCH  18  22
ATOM     22  C   UNL     1      -2.874  -0.439  -1.114  1.00  0.00     0.141 C 
ATOM     23  C   UNL     1      -2.749   1.069  -0.972  1.00  0.00     0.029 C 
ENDBRANCH  18  22
ENDBRANCH  15  17
ENDBRANCH  12  15
ENDBRANCH   7  11
ENDBRANCH   4   6
ENDBRANCH   2   4
ENDBRANCH   1   2
BRANCH   1  24
ATOM     24  C   UNL     1      -2.490 -11.569  -0.833  1.00  0.00     0.274 C 
BRANCH  24  25
ATOM     25  C   UNL     1      -2.617 -12.366   0.463  1.00  0.00     0.275 C 
BRANCH  25  26
ATOM     26  O   UNL     1      -3.805 -12.032   1.181  1.00  0.00    -0.458 OA
BRANCH  26  27
ATOM     27  C   UNL     1      -3.668 -11.001   2.034  1.00  0.00     0.338 C 
ATOM     28  O   UNL     1      -2.675 -10.285   2.181  1.00  0.00    -0.246 OA
BRANCH  27  29
ATOM     29  C   UNL     1      -4.821 -10.889   2.916  1.00  0.00     0.060 A 
ATOM     30  C   UNL     1      -4.932  -9.719   3.680  1.00  0.00     0.016 A 
ATOM     31  C   UNL     1      -5.560 -12.040   3.203  1.00  0.00     0.016 A 
ATOM     32  C   UNL     1      -5.640  -9.765   4.860  1.00  0.00     0.010 A 
ATOM     33  C   UNL     1      -6.253 -12.089   4.387  1.00  0.00     0.010 A 
ATOM     34  C   UNL     1      -6.216 -10.979   5.236  1.00  0.00    -0.014 A 
BRANCH  34  35
ATOM     35  C   UNL     1      -6.808 -11.081   6.555  1.00  0.00     0.031 A 
ATOM     36  C   UNL     1      -8.162 -10.490   6.683  1.00  0.00     0.074 A 
ATOM     37  C   UNL     1      -6.225 -11.845   7.500  1.00  0.00     0.049 A 
ATOM     38  N   UNL     1      -8.620  -9.716   7.612  1.00  0.00    -0.248 NA
ATOM     39  C   UNL     1      -9.117 -10.751   5.591  1.00  0.00     0.031 C 
ATOM     40  C   UNL     1      -5.046 -12.706   7.340  1.00  0.00     0.029 A 
ATOM     41  N   UNL     1      -6.655 -12.137   8.758  1.00  0.00    -0.354 N 
ATOM     42  C   UNL     1      -9.965  -9.526   7.310  1.00  0.00     0.074 A 
ATOM     43  C   UNL     1     -10.187 -10.075   6.000  1.00  0.00     0.031 C 
ATOM     44  C   UNL     1      -5.004 -13.586   8.363  1.00  0.00     0.029 A 
ATOM     45  C   UNL     1      -6.083 -13.284   9.288  1.00  0.00     0.049 A 
ATOM     46  H   UNL     1      -7.309 -11.586   9.245  1.00  0.00     0.167 HD
ATOM     47  C   UNL     1     -10.861  -9.141   8.254  1.00  0.00     0.037 A 
ATOM     48  C   UNL     1      -6.536 -13.996  10.348  1.00  0.00     0.037 A 
ATOM     49  C   UNL     1     -10.228  -8.465   9.351  1.00  0.00     0.049 A 
ATOM     50  C   UNL     1      -7.486 -13.140  11.100  1.00  0.00     0.074 A 
ATOM     51  C   UNL     1      -9.458  -7.324   9.465  1.00  0.00     0.029 A 
ATOM     52  N   UNL     1     -10.073  -9.136  10.537  1.00  0.00    -0.354 N 
ATOM     53  N   UNL     1      -7.150 -12.094  11.800  1.00  0.00    -0.248 NA
ATOM     54  C   UNL     1      -8.899 -13.231  10.758  1.00  0.00     0.031 C 
ATOM     55  C   UNL     1      -8.528  -7.600  10.508  1.00  0.00     0.029 A 
ATOM     56  C   UNL     1      -8.803  -8.882  10.984  1.00  0.00     0.049 A 
ATOM     57  H   UNL     1     -10.749  -9.696  10.983  1.00  0.00     0.167 HD
ATOM     58  C   UNL     1      -8.197 -11.202  11.624  1.00  0.00     0.074 A 
ATOM     59  C   UNL     1      -9.291 -11.998  11.084  1.00  0.00     0.031 C 
ATOM     60  C   UNL     1      -7.984  -9.855  11.665  1.00  0.00     0.037 A 
BRANCH  47  61
ATOM     61  C   UNL     1     -12.258  -9.697   8.326  1.00  0.00     0.064 A 
ATOM     62  C   UNL     1     -13.193  -9.110   9.198  1.00  0.00     0.173 A 
ATOM     63  C   UNL     1     -12.621 -10.957   7.796  1.00  0.00     0.173 A 
ATOM     64  F   UNL     1     -12.932  -7.932   9.784  1.00  0.00    -0.203 F 
ATOM     65  C   UNL     1     -14.373  -9.766   9.559  1.00  0.00     0.198 A 
ATOM     66  C   UNL     1     -13.825 -11.580   8.113  1.00  0.00     0.198 A 
ATOM     67  F   UNL     1     -11.782 -11.682   7.046  1.00  0.00    -0.203 F 
ATOM     68  F   UNL     1     -15.173  -9.227  10.488  1.00  0.00    -0.200 F 
ATOM     69  C   UNL     1     -14.686 -11.000   9.019  1.00  0.00     0.200 A 
ATOM     70  F   UNL     1     -14.100 -12.786   7.595  1.00  0.00    -0.200 F 
ATOM     71  F   UNL     1     -15.787 -11.655   9.409  1.00  0.00    -0.200 F 
ENDBRANCH  47  61
BRANCH  48  72
ATOM     72  C   UNL     1      -6.421 -15.452  10.591  1.00  0.00     0.064 A 
ATOM     73  C   UNL     1      -6.618 -15.986  11.874  1.00  0.00     0.173 A 
ATOM     74  C   UNL     1      -6.360 -16.379   9.531  1.00  0.00     0.173 A 
ATOM     75  F   UNL     1      -6.738 -15.171  12.933  1.00  0.00    -0.203 F 
ATOM     76  C   UNL     1      -6.760 -17.362  12.082  1.00  0.00     0.198 A 
ATOM     77  C   UNL     1      -6.484 -17.752   9.742  1.00  0.00     0.198 A 
ATOM     78  F   UNL     1      -6.272 -15.968   8.258  1.00  0.00    -0.203 F 
ATOM     79  F   UNL     1      -7.009 -17.829  13.314  1.00  0.00    -0.200 F 
ATOM     80  C   UNL     1      -6.697 -18.243  11.015  1.00  0.00     0.200 A 
ATOM     81  F   UNL     1      -6.454 -18.590   8.695  1.00  0.00    -0.200 F 
ATOM     82  F   UNL     1      -6.883 -19.556  11.207  1.00  0.00    -0.200 F 
ENDBRANCH  48  72
BRANCH  60  83
ATOM     83  C   UNL     1      -6.673  -9.375  12.217  1.00  0.00     0.064 A 
ATOM     84  C   UNL     1      -5.426  -9.665  11.637  1.00  0.00     0.173 A 
ATOM     85  C   UNL     1      -6.691  -8.486  13.300  1.00  0.00     0.173 A 
ATOM     86  F   UNL     1      -5.337 -10.415  10.531  1.00  0.00    -0.203 F 
ATOM     87  C   UNL     1      -4.247  -9.135  12.157  1.00  0.00     0.198 A 
ATOM     88  C   UNL     1      -5.515  -7.926  13.793  1.00  0.00     0.198 A 
ATOM     89  F   UNL     1      -7.859  -8.123  13.854  1.00  0.00    -0.203 F 
ATOM     90  F   UNL     1      -3.067  -9.444  11.599  1.00  0.00    -0.200 F 
ATOM     91  C   UNL     1      -4.294  -8.262  13.232  1.00  0.00     0.200 A 
ATOM     92  F   UNL     1      -5.569  -7.041  14.798  1.00  0.00    -0.200 F 
ATOM     93  F   UNL     1      -3.164  -7.722  13.709  1.00  0.00    -0.200 F 
ENDBRANCH  60  83
ENDBRANCH  34  35
ENDBRANCH  27  29
ENDBRANCH  26  27
ENDBRANCH  25  26
ENDBRANCH  24  25
ENDBRANCH   1  24
TORSDOF 16
