REMARK SMILES O=C(CNC(=O)[C@@H](CC1=c2ccccc2=NC1)N1C(=O)N=C2C=CC=C[C@@H]2C1=O)OCCOC(=O)c1ccc(-c2c3nc(c(-c4c(F)c(F)c(F)c(F)c4F)c4ccc([nH]4)c(-c4c(F)c(F)c(F)c(F)c4F)c4nc(c(-c5c(F)c(F)c(F)c(F)c5F)c5ccc2[nH]5)C=C4)C=C3)cc1
REMARK SMILES IDX 31 1 30 2 2 3 1 4 3 5 4 6 5 7 6 9 7 10 8 11 9 12 10 13 17 14
REMARK SMILES IDX 11 15 15 16 16 17 12 18 14 19 13 20 18 21 19 22 28 23 21 24
REMARK SMILES IDX 20 25 27 26 29 27 22 28 26 29 23 30 25 31 24 32 32 33 33 34
REMARK SMILES IDX 34 35 35 36 36 37 37 38 98 39 38 40 97 41 39 42 40 43 41 44
REMARK SMILES IDX 91 45 42 46 96 47 90 48 92 49 43 50 95 51 89 52 88 53 44 55
REMARK SMILES IDX 76 56 56 57 75 58 57 59 60 60 74 61 93 62 58 63 59 64 73 66
REMARK SMILES IDX 94 67 61 68 45 69 46 70 54 71 47 72 48 73 52 74 55 75 49 76
REMARK SMILES IDX 50 77 53 78 51 79 77 80 78 81 86 82 79 83 80 84 84 85 87 86
REMARK SMILES IDX 81 87 82 88 85 89 83 90 62 91 63 92 71 93 64 94 65 95 69 96
REMARK SMILES IDX 72 97 66 98 67 99 70 100 68 101
REMARK H PARENT 4 8 92 54 60 65
REMARK Flexibility Score: inf
ROOT
ATOM      1  C   UNL     1       5.269   2.001   0.302  1.00  0.00     0.274 C 
ENDROOT
BRANCH   1   2
ATOM      2  O   UNL     1       4.308   1.304  -0.566  1.00  0.00    -0.461 OA
BRANCH   2   3
ATOM      3  C   UNL     1       4.447   0.494  -1.647  1.00  0.00     0.325 C 
ATOM      4  O   UNL     1       3.955   0.890  -2.714  1.00  0.00    -0.250 OA
BRANCH   3   5
ATOM      5  C   UNL     1       4.602  -1.078  -1.505  1.00  0.00     0.238 C 
BRANCH   5   6
ATOM      6  N   UNL     1       5.454  -2.125  -0.882  1.00  0.00    -0.343 N 
ATOM      7  C   UNL     1       5.633  -2.555   0.414  1.00  0.00     0.244 C 
ATOM      8  H   UNL     1       6.006  -2.615  -1.534  1.00  0.00     0.164 HD
ATOM      9  O   UNL     1       5.905  -3.730   0.637  1.00  0.00    -0.273 OA
BRANCH   7  10
ATOM     10  C   UNL     1       5.603  -1.490   1.472  1.00  0.00     0.188 C 
BRANCH  10  11
ATOM     11  C   UNL     1       4.226  -0.838   1.685  1.00  0.00     0.069 C 
BRANCH  11  12
ATOM     12  C   UNL     1       2.826  -0.953   1.133  1.00  0.00    -0.037 C 
ATOM     13  C   UNL     1       2.053  -2.010   0.928  1.00  0.00     0.001 A 
ATOM     14  C   UNL     1       2.010   0.301   0.805  1.00  0.00     0.174 C 
ATOM     15  C   UNL     1       2.226  -3.413   1.015  1.00  0.00     0.010 A 
ATOM     16  C   UNL     1       0.735  -1.416   0.621  1.00  0.00     0.065 A 
ATOM     17  N   UNL     1       0.627  -0.130   0.575  1.00  0.00    -0.280 NA
ATOM     18  C   UNL     1       1.159  -4.196   0.785  1.00  0.00     0.001 A 
ATOM     19  C   UNL     1      -0.394  -2.330   0.429  1.00  0.00     0.028 A 
ATOM     20  C   UNL     1      -0.158  -3.646   0.510  1.00  0.00     0.002 A 
ENDBRANCH  11  12
ENDBRANCH  10  11
BRANCH  10  21
ATOM     21  N   UNL     1       6.476  -1.486   2.709  1.00  0.00    -0.249 N 
ATOM     22  C   UNL     1       7.443  -0.468   2.789  1.00  0.00     0.351 C 
ATOM     23  C   UNL     1       6.175  -2.273   3.814  1.00  0.00     0.244 C 
ATOM     24  N   UNL     1       8.329  -0.442   3.834  1.00  0.00    -0.197 NA
ATOM     25  O   UNL     1       7.486   0.438   1.990  1.00  0.00    -0.246 OA
ATOM     26  C   UNL     1       6.762  -1.765   5.152  1.00  0.00     0.151 C 
ATOM     27  O   UNL     1       5.345  -3.182   3.776  1.00  0.00    -0.273 OA
ATOM     28  C   UNL     1       8.041  -0.999   4.952  1.00  0.00     0.062 C 
ATOM     29  C   UNL     1       6.859  -2.707   6.325  1.00  0.00    -0.007 C 
ATOM     30  C   UNL     1       8.924  -0.746   6.121  1.00  0.00     0.025 C 
ATOM     31  C   UNL     1       7.751  -2.511   7.312  1.00  0.00    -0.003 C 
ATOM     32  C   UNL     1       8.722  -1.445   7.243  1.00  0.00     0.002 C 
ENDBRANCH  10  21
ENDBRANCH   7  10
ENDBRANCH   5   6
ENDBRANCH   3   5
ENDBRANCH   2   3
ENDBRANCH   1   2
BRANCH   1  33
ATOM     33  C   UNL     1       4.524   2.615   1.589  1.00  0.00     0.275 C 
BRANCH  33  34
ATOM     34  O   UNL     1       4.228   1.675   2.709  1.00  0.00    -0.458 OA
BRANCH  34  35
ATOM     35  C   UNL     1       3.123   1.865   3.519  1.00  0.00     0.338 C 
ATOM     36  O   UNL     1       2.452   2.883   3.545  1.00  0.00    -0.246 OA
BRANCH  35  37
ATOM     37  C   UNL     1       2.696   0.577   4.232  1.00  0.00     0.060 A 
ATOM     38  C   UNL     1       3.582  -0.133   5.036  1.00  0.00     0.016 A 
ATOM     39  C   UNL     1       1.432  -0.013   4.029  1.00  0.00     0.016 A 
ATOM     40  C   UNL     1       3.264  -1.438   5.513  1.00  0.00     0.010 A 
ATOM     41  C   UNL     1       1.110  -1.322   4.516  1.00  0.00     0.010 A 
ATOM     42  C   UNL     1       2.034  -2.080   5.252  1.00  0.00    -0.014 A 
BRANCH  42  43
ATOM     43  C   UNL     1       1.681  -3.336   6.036  1.00  0.00     0.031 A 
ATOM     44  C   UNL     1       1.671  -4.776   5.540  1.00  0.00     0.074 A 
ATOM     45  C   UNL     1       1.414  -3.168   7.345  1.00  0.00     0.049 A 
ATOM     46  N   UNL     1       1.566  -5.908   6.211  1.00  0.00    -0.248 NA
ATOM     47  C   UNL     1       1.755  -4.974   4.100  1.00  0.00     0.031 C 
ATOM     48  C   UNL     1       1.337  -1.871   8.007  1.00  0.00     0.029 A 
ATOM     49  N   UNL     1       1.211  -4.080   8.354  1.00  0.00    -0.354 N 
ATOM     50  C   UNL     1       1.573  -6.943   5.270  1.00  0.00     0.074 A 
ATOM     51  C   UNL     1       1.663  -6.296   3.975  1.00  0.00     0.031 C 
ATOM     52  C   UNL     1       1.190  -2.066   9.321  1.00  0.00     0.029 A 
ATOM     53  C   UNL     1       1.121  -3.501   9.593  1.00  0.00     0.049 A 
ATOM     54  H   UNL     1       1.138  -5.050   8.202  1.00  0.00     0.167 HD
ATOM     55  C   UNL     1       1.518  -8.293   5.456  1.00  0.00     0.037 A 
ATOM     56  C   UNL     1       1.019  -4.039  10.824  1.00  0.00     0.037 A 
ATOM     57  C   UNL     1       1.452  -8.960   6.742  1.00  0.00     0.049 A 
ATOM     58  C   UNL     1       1.000  -5.524  11.025  1.00  0.00     0.074 A 
ATOM     59  C   UNL     1       1.500 -10.321   7.017  1.00  0.00     0.029 A 
ATOM     60  N   UNL     1       1.310  -8.324   7.963  1.00  0.00    -0.354 N 
ATOM     61  N   UNL     1       1.111  -6.480  10.139  1.00  0.00    -0.248 NA
ATOM     62  C   UNL     1       0.844  -6.002  12.407  1.00  0.00     0.031 C 
ATOM     63  C   UNL     1       1.325 -10.509   8.392  1.00  0.00     0.029 A 
ATOM     64  C   UNL     1       1.227  -9.263   8.984  1.00  0.00     0.049 A 
ATOM     65  H   UNL     1       1.272  -7.348   8.090  1.00  0.00     0.167 HD
ATOM     66  C   UNL     1       1.035  -7.670  10.852  1.00  0.00     0.074 A 
ATOM     67  C   UNL     1       0.902  -7.318  12.249  1.00  0.00     0.031 C 
ATOM     68  C   UNL     1       1.067  -8.938  10.377  1.00  0.00     0.037 A 
BRANCH  55  69
ATOM     69  C   UNL     1       1.549  -9.212   4.252  1.00  0.00     0.064 A 
ATOM     70  C   UNL     1       2.728  -9.418   3.519  1.00  0.00     0.173 A 
ATOM     71  C   UNL     1       0.449 -10.037   3.949  1.00  0.00     0.173 A 
ATOM     72  F   UNL     1       3.820  -8.685   3.780  1.00  0.00    -0.203 F 
ATOM     73  C   UNL     1       2.802 -10.398   2.527  1.00  0.00     0.198 A 
ATOM     74  C   UNL     1       0.535 -11.034   2.975  1.00  0.00     0.198 A 
ATOM     75  F   UNL     1      -0.695  -9.920   4.640  1.00  0.00    -0.203 F 
ATOM     76  F   UNL     1       3.939 -10.568   1.838  1.00  0.00    -0.200 F 
ATOM     77  C   UNL     1       1.710 -11.211   2.264  1.00  0.00     0.200 A 
ATOM     78  F   UNL     1      -0.511 -11.842   2.748  1.00  0.00    -0.200 F 
ATOM     79  F   UNL     1       1.795 -12.173   1.333  1.00  0.00    -0.200 F 
ENDBRANCH  55  69
BRANCH  56  80
ATOM     80  C   UNL     1       0.999  -3.113  11.981  1.00  0.00     0.064 A 
ATOM     81  C   UNL     1       2.127  -2.975  12.799  1.00  0.00     0.173 A 
ATOM     82  C   UNL     1      -0.098  -2.273  12.218  1.00  0.00     0.173 A 
ATOM     83  F   UNL     1       3.192  -3.769  12.611  1.00  0.00    -0.203 F 
ATOM     84  C   UNL     1       2.164  -2.018  13.807  1.00  0.00     0.198 A 
ATOM     85  C   UNL     1      -0.046  -1.294  13.204  1.00  0.00     0.198 A 
ATOM     86  F   UNL     1      -1.190  -2.362  11.445  1.00  0.00    -0.203 F 
ATOM     87  F   UNL     1       3.251  -1.907  14.582  1.00  0.00    -0.200 F 
ATOM     88  C   UNL     1       1.085  -1.167  13.998  1.00  0.00     0.200 A 
ATOM     89  F   UNL     1      -1.078  -0.455  13.365  1.00  0.00    -0.200 F 
ATOM     90  F   UNL     1       1.138  -0.217  14.941  1.00  0.00    -0.200 F 
ENDBRANCH  56  80
BRANCH  68  91
ATOM     91  C   UNL     1       0.927 -10.063  11.365  1.00  0.00     0.064 A 
ATOM     92  C   UNL     1      -0.303 -10.342  11.981  1.00  0.00     0.173 A 
ATOM     93  C   UNL     1       2.011 -10.903  11.662  1.00  0.00     0.173 A 
ATOM     94  F   UNL     1      -1.368  -9.562  11.742  1.00  0.00    -0.203 F 
ATOM     95  C   UNL     1      -0.438 -11.408  12.867  1.00  0.00     0.198 A 
ATOM     96  C   UNL     1       1.866 -11.983  12.531  1.00  0.00     0.198 A 
ATOM     97  F   UNL     1       3.209 -10.686  11.100  1.00  0.00    -0.203 F 
ATOM     98  F   UNL     1      -1.615 -11.633  13.468  1.00  0.00    -0.200 F 
ATOM     99  C   UNL     1       0.644 -12.233  13.136  1.00  0.00     0.200 A 
ATOM    100  F   UNL     1       2.911 -12.785  12.782  1.00  0.00    -0.200 F 
ATOM    101  F   UNL     1       0.509 -13.264  13.981  1.00  0.00    -0.200 F 
ENDBRANCH  68  91
ENDBRANCH  42  43
ENDBRANCH  35  37
ENDBRANCH  34  35
ENDBRANCH  33  34
ENDBRANCH   1  33
TORSDOF 16
