REMARK SMILES COc1cc(NC(=O)C2CCN(S(=O)(=O)c3cccs3)CC2)c(Cl)cc1C(=O)OCCOC(=O)c1ccc(-c2c3nc(c(-c4c(F)c(F)c(F)c(F)c4F)c4ccc([nH]4)c(-c4c(F)c(F)c(F)c(F)c4F)c4nc(c(-c5c(F)c(F)c(F)c(F)c5F)c5ccc2[nH]5)C=C4)C=C3)cc1
REMARK SMILES IDX 30 1 29 2 27 3 28 4 26 5 3 6 4 7 5 8 25 9 23 10 24 11 2 12
REMARK SMILES IDX 1 13 6 14 7 15 8 17 9 18 10 19 22 20 11 21 21 22 12 23 13 24
REMARK SMILES IDX 14 25 15 26 16 27 17 28 20 29 18 30 19 31 31 32 32 33 33 34
REMARK SMILES IDX 34 35 35 36 36 37 97 38 37 39 96 40 38 41 39 42 40 43 90 44
REMARK SMILES IDX 41 45 95 46 89 47 91 48 42 49 94 50 88 51 87 52 43 54 75 55
REMARK SMILES IDX 55 56 74 57 56 58 59 59 73 60 92 61 57 62 58 63 72 65 93 66
REMARK SMILES IDX 60 67 44 68 45 69 53 70 46 71 47 72 51 73 54 74 48 75 49 76
REMARK SMILES IDX 52 77 50 78 76 79 77 80 85 81 78 82 79 83 83 84 86 85 80 86
REMARK SMILES IDX 81 87 84 88 82 89 61 90 62 91 70 92 63 93 64 94 68 95 71 96
REMARK SMILES IDX 65 97 66 98 69 99 67 100
REMARK H PARENT 6 16 91 53 59 64
REMARK Flexibility Score: inf
ROOT
ATOM      1  C   UNL     1      -3.226   2.220   1.037  1.00  0.00     0.275 C 
ENDROOT
BRANCH   1   2
ATOM      2  O   UNL     1      -1.882   1.844   1.376  1.00  0.00    -0.458 OA
BRANCH   2   3
ATOM      3  C   UNL     1      -1.172   2.677   2.165  1.00  0.00     0.342 C 
ATOM      4  O   UNL     1      -1.554   3.744   2.620  1.00  0.00    -0.246 OA
BRANCH   3   5
ATOM      5  C   UNL     1       0.114   2.053   2.577  1.00  0.00     0.103 A 
ATOM      6  C   UNL     1       0.791   1.082   1.823  1.00  0.00     0.135 A 
ATOM      7  C   UNL     1       1.956   0.515   2.351  1.00  0.00     0.075 A 
ATOM      8  C   UNL     1       2.518   0.986   3.543  1.00  0.00     0.063 A 
ATOM      9  C   UNL     1       0.625   2.452   3.825  1.00  0.00     0.042 A 
ATOM     10  C   UNL     1       1.794   1.892   4.323  1.00  0.00     0.065 A 
ATOM     11  Cl  UNL     1       2.350   2.394   5.880  1.00  0.00    -0.082 Cl
BRANCH   6  12
ATOM     12  O   UNL     1       0.312   0.797   0.574  1.00  0.00    -0.496 OA
ATOM     13  C   UNL     1       0.971  -0.190  -0.207  1.00  0.00     0.278 C 
ENDBRANCH   6  12
BRANCH   8  14
ATOM     14  N   UNL     1       3.818   0.647   3.959  1.00  0.00    -0.324 N 
ATOM     15  C   UNL     1       4.965   0.473   3.239  1.00  0.00     0.227 C 
ATOM     16  H   UNL     1       3.918   0.514   4.930  1.00  0.00     0.169 HD
ATOM     17  O   UNL     1       6.012   0.315   3.872  1.00  0.00    -0.274 OA
BRANCH  15  18
ATOM     18  C   UNL     1       4.975   0.530   1.713  1.00  0.00     0.081 C 
ATOM     19  C   UNL     1       5.232  -0.869   1.152  1.00  0.00     0.030 C 
ATOM     20  C   UNL     1       5.970   1.557   1.179  1.00  0.00     0.030 C 
ATOM     21  C   UNL     1       6.703  -1.269   1.240  1.00  0.00     0.103 C 
ATOM     22  C   UNL     1       7.410   1.085   1.237  1.00  0.00     0.103 C 
ATOM     23  N   UNL     1       7.539  -0.236   0.566  1.00  0.00    -0.197 NA
BRANCH  23  24
ATOM     24  S   UNL     1       9.173  -0.751   0.386  1.00  0.00     0.252 S 
ATOM     25  O   UNL     1       9.800  -0.680   1.685  1.00  0.00    -0.206 OA
ATOM     26  O   UNL     1       9.171  -1.979  -0.387  1.00  0.00    -0.206 OA
BRANCH  24  27
ATOM     27  C   UNL     1      10.005   0.495  -0.585  1.00  0.00     0.135 A 
ATOM     28  C   UNL     1      10.490   1.743  -0.233  1.00  0.00     0.033 A 
ATOM     29  S   UNL     1      10.236   0.183  -2.249  1.00  0.00    -0.131 S 
ATOM     30  C   UNL     1      11.012   2.459  -1.346  1.00  0.00     0.013 A 
ATOM     31  C   UNL     1      10.959   1.714  -2.502  1.00  0.00     0.066 A 
ENDBRANCH  24  27
ENDBRANCH  23  24
ENDBRANCH  15  18
ENDBRANCH   8  14
ENDBRANCH   3   5
ENDBRANCH   2   3
ENDBRANCH   1   2
BRANCH   1  32
ATOM     32  C   UNL     1      -4.194   1.185   1.605  1.00  0.00     0.275 C 
BRANCH  32  33
ATOM     33  O   UNL     1      -4.231   1.277   3.043  1.00  0.00    -0.458 OA
BRANCH  33  34
ATOM     34  C   UNL     1      -3.499   0.351   3.702  1.00  0.00     0.338 C 
ATOM     35  O   UNL     1      -2.877  -0.588   3.237  1.00  0.00    -0.246 OA
BRANCH  34  36
ATOM     36  C   UNL     1      -3.419   0.716   5.123  1.00  0.00     0.060 A 
ATOM     37  C   UNL     1      -2.318   1.464   5.526  1.00  0.00     0.016 A 
ATOM     38  C   UNL     1      -4.310   0.217   6.067  1.00  0.00     0.016 A 
ATOM     39  C   UNL     1      -2.048   1.662   6.875  1.00  0.00     0.010 A 
ATOM     40  C   UNL     1      -4.081   0.480   7.426  1.00  0.00     0.010 A 
ATOM     41  C   UNL     1      -2.931   1.178   7.848  1.00  0.00    -0.014 A 
BRANCH  41  42
ATOM     42  C   UNL     1      -2.612   1.354   9.294  1.00  0.00     0.031 A 
ATOM     43  C   UNL     1      -2.429   0.149  10.178  1.00  0.00     0.074 A 
ATOM     44  C   UNL     1      -2.448   2.586   9.815  1.00  0.00     0.049 A 
ATOM     45  N   UNL     1      -2.302   0.084  11.480  1.00  0.00    -0.248 NA
ATOM     46  C   UNL     1      -2.394  -1.161   9.508  1.00  0.00     0.031 C 
ATOM     47  C   UNL     1      -2.537   3.842   9.068  1.00  0.00     0.029 A 
ATOM     48  N   UNL     1      -2.164   2.987  11.099  1.00  0.00    -0.354 N 
ATOM     49  C   UNL     1      -2.231  -1.270  11.789  1.00  0.00     0.074 A 
ATOM     50  C   UNL     1      -2.335  -1.992  10.539  1.00  0.00     0.031 C 
ATOM     51  C   UNL     1      -2.279   4.866   9.895  1.00  0.00     0.029 A 
ATOM     52  C   UNL     1      -2.095   4.351  11.247  1.00  0.00     0.049 A 
ATOM     53  H   UNL     1      -2.024   2.356  11.842  1.00  0.00     0.167 HD
ATOM     54  C   UNL     1      -2.091  -1.854  13.004  1.00  0.00     0.037 A 
ATOM     55  C   UNL     1      -1.945   5.108  12.351  1.00  0.00     0.037 A 
ATOM     56  C   UNL     1      -1.931  -1.131  14.239  1.00  0.00     0.049 A 
ATOM     57  C   UNL     1      -1.829   4.436  13.692  1.00  0.00     0.074 A 
ATOM     58  C   UNL     1      -1.767  -1.633  15.519  1.00  0.00     0.029 A 
ATOM     59  N   UNL     1      -1.899   0.252  14.348  1.00  0.00    -0.354 N 
ATOM     60  N   UNL     1      -1.817   3.158  13.979  1.00  0.00    -0.248 NA
ATOM     61  C   UNL     1      -1.725   5.316  14.865  1.00  0.00     0.031 C 
ATOM     62  C   UNL     1      -1.679  -0.555  16.407  1.00  0.00     0.029 A 
ATOM     63  C   UNL     1      -1.734   0.619  15.675  1.00  0.00     0.049 A 
ATOM     64  H   UNL     1      -1.982   0.880  13.594  1.00  0.00     0.167 HD
ATOM     65  C   UNL     1      -1.685   3.078  15.359  1.00  0.00     0.074 A 
ATOM     66  C   UNL     1      -1.601   4.437  15.850  1.00  0.00     0.031 C 
ATOM     67  C   UNL     1      -1.645   1.977  16.148  1.00  0.00     0.037 A 
BRANCH  54  68
ATOM     68  C   UNL     1      -2.142  -3.354  13.065  1.00  0.00     0.064 A 
ATOM     69  C   UNL     1      -1.102  -4.158  12.577  1.00  0.00     0.173 A 
ATOM     70  C   UNL     1      -3.242  -3.996  13.658  1.00  0.00     0.173 A 
ATOM     71  F   UNL     1      -0.034  -3.597  11.989  1.00  0.00    -0.203 F 
ATOM     72  C   UNL     1      -1.173  -5.547  12.653  1.00  0.00     0.198 A 
ATOM     73  C   UNL     1      -3.296  -5.383  13.760  1.00  0.00     0.198 A 
ATOM     74  F   UNL     1      -4.263  -3.275  14.147  1.00  0.00    -0.203 F 
ATOM     75  F   UNL     1      -0.191  -6.296  12.134  1.00  0.00    -0.200 F 
ATOM     76  C   UNL     1      -2.266  -6.158  13.251  1.00  0.00     0.200 A 
ATOM     77  F   UNL     1      -4.346  -5.970  14.351  1.00  0.00    -0.200 F 
ATOM     78  F   UNL     1      -2.329  -7.495  13.329  1.00  0.00    -0.200 F 
ENDBRANCH  54  68
BRANCH  55  79
ATOM     79  C   UNL     1      -1.938   6.591  12.240  1.00  0.00     0.064 A 
ATOM     80  C   UNL     1      -0.783   7.333  12.525  1.00  0.00     0.173 A 
ATOM     81  C   UNL     1      -3.087   7.298  11.853  1.00  0.00     0.173 A 
ATOM     82  F   UNL     1       0.332   6.708  12.927  1.00  0.00    -0.203 F 
ATOM     83  C   UNL     1      -0.782   8.725  12.439  1.00  0.00     0.198 A 
ATOM     84  C   UNL     1      -3.075   8.686  11.734  1.00  0.00     0.198 A 
ATOM     85  F   UNL     1      -4.220   6.637  11.573  1.00  0.00    -0.203 F 
ATOM     86  F   UNL     1       0.321   9.413  12.762  1.00  0.00    -0.200 F 
ATOM     87  C   UNL     1      -1.925   9.399  12.035  1.00  0.00     0.200 A 
ATOM     88  F   UNL     1      -4.177   9.331  11.329  1.00  0.00    -0.200 F 
ATOM     89  F   UNL     1      -1.921  10.736  11.944  1.00  0.00    -0.200 F 
ENDBRANCH  55  79
BRANCH  67  90
ATOM     90  C   UNL     1      -1.463   2.197  17.622  1.00  0.00     0.064 A 
ATOM     91  C   UNL     1      -2.490   2.720  18.422  1.00  0.00     0.173 A 
ATOM     92  C   UNL     1      -0.253   1.857  18.246  1.00  0.00     0.173 A 
ATOM     93  F   UNL     1      -3.660   3.076  17.870  1.00  0.00    -0.203 F 
ATOM     94  C   UNL     1      -2.301   2.921  19.787  1.00  0.00     0.198 A 
ATOM     95  C   UNL     1      -0.079   2.031  19.616  1.00  0.00     0.198 A 
ATOM     96  F   UNL     1       0.759   1.347  17.527  1.00  0.00    -0.203 F 
ATOM     97  F   UNL     1      -3.278   3.471  20.522  1.00  0.00    -0.200 F 
ATOM     98  C   UNL     1      -1.099   2.571  20.383  1.00  0.00     0.200 A 
ATOM     99  F   UNL     1       1.079   1.680  20.192  1.00  0.00    -0.200 F 
ATOM    100  F   UNL     1      -0.921   2.762  21.698  1.00  0.00    -0.200 F 
ENDBRANCH  67  90
ENDBRANCH  41  42
ENDBRANCH  34  36
ENDBRANCH  33  34
ENDBRANCH  32  33
ENDBRANCH   1  32
TORSDOF 16
