REMARK SMILES O=C(OCCOC(=O)[C@H]1[C@H]2CC[C@H](C2)[C@@H]1C(=O)N1CC[NH+](C2CCCCC2)CC1)c1ccc(-c2c3nc(c(-c4c(F)c(F)c(F)c(F)c4F)c4ccc([nH]4)c(-c4c(F)c(F)c(F)c(F)c4F)c4nc(c(-c5c(F)c(F)c(F)c(F)c5F)c5ccc2[nH]5)C=C4)C=C3)cc1
REMARK SMILES IDX 4 1 3 2 2 3 1 4 30 5 31 6 92 7 32 8 91 9 33 10 34 11 35 12
REMARK SMILES IDX 85 13 36 14 90 15 84 16 86 17 37 18 89 19 83 20 82 21 38 23
REMARK SMILES IDX 70 24 50 25 69 26 51 27 54 28 68 29 87 30 52 31 53 32 67 34
REMARK SMILES IDX 88 35 55 36 39 37 40 38 48 39 41 40 42 41 46 42 49 43 43 44
REMARK SMILES IDX 44 45 47 46 45 47 71 48 72 49 80 50 73 51 74 52 78 53 81 54
REMARK SMILES IDX 75 55 76 56 79 57 77 58 56 59 57 60 65 61 58 62 59 63 63 64
REMARK SMILES IDX 66 65 60 66 61 67 64 68 62 69 5 70 6 71 7 72 8 73 9 74 10 75
REMARK SMILES IDX 15 76 11 77 14 78 13 79 12 80 16 81 17 82 18 83 19 84 29 85
REMARK SMILES IDX 20 86 28 87 21 88 22 90 23 91 27 92 24 93 26 94 25 95
REMARK H PARENT 86 22 54 33 21 89
REMARK Flexibility Score: inf
ROOT
ATOM      1  C   UNL     1      -2.075  -2.429  -2.099  1.00  0.00     0.275 C 
ENDROOT
BRANCH   1   2
ATOM      2  O   UNL     1      -1.834  -3.364  -3.160  1.00  0.00    -0.458 OA
BRANCH   2   3
ATOM      3  C   UNL     1      -1.094  -3.213  -4.280  1.00  0.00     0.338 C 
ATOM      4  O   UNL     1      -1.042  -4.138  -5.090  1.00  0.00    -0.246 OA
BRANCH   3   5
ATOM      5  C   UNL     1      -0.226  -2.026  -4.543  1.00  0.00     0.060 A 
ATOM      6  C   UNL     1      -0.518  -0.687  -4.279  1.00  0.00     0.016 A 
ATOM      7  C   UNL     1       0.985  -2.305  -5.180  1.00  0.00     0.016 A 
ATOM      8  C   UNL     1       0.418   0.333  -4.559  1.00  0.00     0.010 A 
ATOM      9  C   UNL     1       1.940  -1.306  -5.395  1.00  0.00     0.010 A 
ATOM     10  C   UNL     1       1.679   0.039  -5.092  1.00  0.00    -0.014 A 
BRANCH  10  11
ATOM     11  C   UNL     1       2.712   1.071  -5.441  1.00  0.00     0.031 A 
ATOM     12  C   UNL     1       3.307   1.056  -6.832  1.00  0.00     0.074 A 
ATOM     13  C   UNL     1       3.187   1.968  -4.549  1.00  0.00     0.049 A 
ATOM     14  N   UNL     1       4.371   1.661  -7.299  1.00  0.00    -0.248 NA
ATOM     15  C   UNL     1       2.633   0.196  -7.822  1.00  0.00     0.031 C 
ATOM     16  C   UNL     1       2.690   2.166  -3.191  1.00  0.00     0.029 A 
ATOM     17  N   UNL     1       4.218   2.882  -4.651  1.00  0.00    -0.354 N 
ATOM     18  C   UNL     1       4.479   1.248  -8.621  1.00  0.00     0.074 A 
ATOM     19  C   UNL     1       3.496   0.210  -8.824  1.00  0.00     0.031 C 
ATOM     20  C   UNL     1       3.393   3.146  -2.599  1.00  0.00     0.029 A 
ATOM     21  C   UNL     1       4.466   3.581  -3.487  1.00  0.00     0.049 A 
ATOM     22  H   UNL     1       4.731   3.023  -5.480  1.00  0.00     0.167 HD
ATOM     23  C   UNL     1       5.229   1.768  -9.622  1.00  0.00     0.037 A 
ATOM     24  C   UNL     1       5.472   4.428  -3.161  1.00  0.00     0.037 A 
ATOM     25  C   UNL     1       6.104   2.893  -9.463  1.00  0.00     0.049 A 
ATOM     26  C   UNL     1       6.526   4.715  -4.214  1.00  0.00     0.074 A 
ATOM     27  C   UNL     1       6.746   3.639 -10.434  1.00  0.00     0.029 A 
ATOM     28  N   UNL     1       6.443   3.441  -8.239  1.00  0.00    -0.354 N 
ATOM     29  N   UNL     1       6.507   4.438  -5.496  1.00  0.00    -0.248 NA
ATOM     30  C   UNL     1       7.745   5.423  -3.787  1.00  0.00     0.031 C 
ATOM     31  C   UNL     1       7.495   4.632  -9.791  1.00  0.00     0.029 A 
ATOM     32  C   UNL     1       7.312   4.502  -8.424  1.00  0.00     0.049 A 
ATOM     33  H   UNL     1       6.116   3.124  -7.366  1.00  0.00     0.167 HD
ATOM     34  C   UNL     1       7.600   5.098  -6.044  1.00  0.00     0.074 A 
ATOM     35  C   UNL     1       8.325   5.698  -4.947  1.00  0.00     0.031 C 
ATOM     36  C   UNL     1       7.929   5.234  -7.351  1.00  0.00     0.037 A 
BRANCH  23  37
ATOM     37  C   UNL     1       5.019   1.203 -10.996  1.00  0.00     0.064 A 
ATOM     38  C   UNL     1       3.798   1.388 -11.668  1.00  0.00     0.173 A 
ATOM     39  C   UNL     1       6.019   0.466 -11.643  1.00  0.00     0.173 A 
ATOM     40  F   UNL     1       2.808   2.085 -11.089  1.00  0.00    -0.203 F 
ATOM     41  C   UNL     1       3.563   0.801 -12.906  1.00  0.00     0.198 A 
ATOM     42  C   UNL     1       5.792  -0.090 -12.900  1.00  0.00     0.198 A 
ATOM     43  F   UNL     1       7.208   0.273 -11.053  1.00  0.00    -0.203 F 
ATOM     44  F   UNL     1       2.361   0.924 -13.485  1.00  0.00    -0.200 F 
ATOM     45  C   UNL     1       4.561   0.063 -13.522  1.00  0.00     0.200 A 
ATOM     46  F   UNL     1       6.761  -0.791 -13.506  1.00  0.00    -0.200 F 
ATOM     47  F   UNL     1       4.331  -0.509 -14.712  1.00  0.00    -0.200 F 
ENDBRANCH  23  37
BRANCH  24  48
ATOM     48  C   UNL     1       5.604   5.034  -1.791  1.00  0.00     0.064 A 
ATOM     49  C   UNL     1       5.835   6.404  -1.593  1.00  0.00     0.173 A 
ATOM     50  C   UNL     1       5.625   4.234  -0.642  1.00  0.00     0.173 A 
ATOM     51  F   UNL     1       5.824   7.244  -2.638  1.00  0.00    -0.203 F 
ATOM     52  C   UNL     1       6.159   6.920  -0.333  1.00  0.00     0.198 A 
ATOM     53  C   UNL     1       5.908   4.748   0.624  1.00  0.00     0.198 A 
ATOM     54  F   UNL     1       5.395   2.921  -0.749  1.00  0.00    -0.203 F 
ATOM     55  F   UNL     1       6.475   8.216  -0.203  1.00  0.00    -0.200 F 
ATOM     56  C   UNL     1       6.203   6.089   0.774  1.00  0.00     0.200 A 
ATOM     57  F   UNL     1       5.937   3.930   1.686  1.00  0.00    -0.200 F 
ATOM     58  F   UNL     1       6.550   6.572   1.975  1.00  0.00    -0.200 F 
ENDBRANCH  24  48
BRANCH  36  59
ATOM     59  C   UNL     1       8.935   6.280  -7.717  1.00  0.00     0.064 A 
ATOM     60  C   UNL     1      10.313   6.100  -7.560  1.00  0.00     0.173 A 
ATOM     61  C   UNL     1       8.489   7.471  -8.317  1.00  0.00     0.173 A 
ATOM     62  F   UNL     1      10.786   4.991  -6.973  1.00  0.00    -0.203 F 
ATOM     63  C   UNL     1      11.211   7.077  -7.988  1.00  0.00     0.198 A 
ATOM     64  C   UNL     1       9.388   8.431  -8.768  1.00  0.00     0.198 A 
ATOM     65  F   UNL     1       7.176   7.688  -8.493  1.00  0.00    -0.203 F 
ATOM     66  F   UNL     1      12.527   6.899  -7.806  1.00  0.00    -0.200 F 
ATOM     67  C   UNL     1      10.749   8.234  -8.601  1.00  0.00     0.200 A 
ATOM     68  F   UNL     1       8.938   9.540  -9.371  1.00  0.00    -0.200 F 
ATOM     69  F   UNL     1      11.617   9.160  -9.031  1.00  0.00    -0.200 F 
ENDBRANCH  36  59
ENDBRANCH  10  11
ENDBRANCH   3   5
ENDBRANCH   2   3
ENDBRANCH   1   2
BRANCH   1  70
ATOM     70  C   UNL     1      -1.024  -2.424  -0.995  1.00  0.00     0.274 C 
BRANCH  70  71
ATOM     71  O   UNL     1       0.328  -2.422  -1.470  1.00  0.00    -0.462 OA
BRANCH  71  72
ATOM     72  C   UNL     1       1.032  -3.559  -1.216  1.00  0.00     0.310 C 
ATOM     73  O   UNL     1       0.533  -4.623  -0.875  1.00  0.00    -0.252 OA
BRANCH  72  74
ATOM     74  C   UNL     1       2.529  -3.319  -1.213  1.00  0.00     0.115 C 
ATOM     75  C   UNL     1       3.348  -4.581  -1.564  1.00  0.00     0.004 C 
ATOM     76  C   UNL     1       3.093  -2.258  -2.196  1.00  0.00     0.096 C 
ATOM     77  C   UNL     1       3.030  -5.072  -2.988  1.00  0.00     0.005 C 
ATOM     78  C   UNL     1       4.734  -3.965  -1.739  1.00  0.00     0.009 C 
ATOM     79  C   UNL     1       4.276  -3.022  -2.850  1.00  0.00     0.003 C 
ATOM     80  C   UNL     1       3.767  -4.062  -3.864  1.00  0.00     0.005 C 
BRANCH  76  81
ATOM     81  C   UNL     1       3.301  -0.969  -1.377  1.00  0.00     0.227 C 
ATOM     82  O   UNL     1       2.306  -0.354  -0.977  1.00  0.00    -0.275 OA
ATOM     83  N   UNL     1       4.546  -0.656  -0.894  1.00  0.00    -0.331 N 
ATOM     84  C   UNL     1       4.684  -0.068   0.432  1.00  0.00     0.181 C 
ATOM     85  C   UNL     1       5.715  -0.423  -1.719  1.00  0.00     0.181 C 
ATOM     86  C   UNL     1       5.959  -0.589   1.137  1.00  0.00     0.284 C 
ATOM     87  C   UNL     1       6.952  -1.070  -1.077  1.00  0.00     0.284 C 
ATOM     88  N   UNL     1       7.198  -0.710   0.335  1.00  0.00    -0.330 N 
ATOM     89  H   UNL     1       7.669  -1.530   0.717  1.00  0.00     0.348 HD
BRANCH  88  90
ATOM     90  C   UNL     1       8.219   0.323   0.574  1.00  0.00     0.184 C 
ATOM     91  C   UNL     1       9.623  -0.222   0.236  1.00  0.00     0.065 C 
ATOM     92  C   UNL     1       7.921   1.649  -0.129  1.00  0.00     0.065 C 
ATOM     93  C   UNL     1      10.710   0.848   0.324  1.00  0.00     0.006 C 
ATOM     94  C   UNL     1       9.047   2.671  -0.056  1.00  0.00     0.006 C 
ATOM     95  C   UNL     1      10.359   2.063  -0.526  1.00  0.00     0.000 C 
ENDBRANCH  88  90
ENDBRANCH  76  81
ENDBRANCH  72  74
ENDBRANCH  71  72
ENDBRANCH  70  71
ENDBRANCH   1  70
TORSDOF 13
