REMARK SMILES O=C(OCCOC(=O)c1ccc(-c2c3nc(c(-c4c(F)c(F)c(F)c(F)c4F)c4ccc([nH]4)c(-c4c(F)c(F)c(F)c(F)c4F)c4nc(c(-c5c(F)c(F)c(F)c(F)c5F)c5ccc2[nH]5)C=C4)C=C3)cc1)C1=Cc2cc(Cl)cc(Cl)c2O[C@@H]1C(F)(F)F
REMARK SMILES IDX 5 1 4 2 3 3 2 4 1 5 72 6 73 7 83 8 74 9 82 10 75 11 81 12
REMARK SMILES IDX 76 13 79 14 77 15 78 16 80 17 84 18 85 19 86 20 87 21 6 22
REMARK SMILES IDX 7 23 8 24 9 25 10 26 71 27 11 28 70 29 12 30 13 31 14 32
REMARK SMILES IDX 64 33 15 34 69 35 63 36 65 37 16 38 68 39 62 40 61 41 17 43
REMARK SMILES IDX 49 44 29 45 48 46 30 47 33 48 47 49 66 50 31 51 32 52 46 54
REMARK SMILES IDX 67 55 34 56 18 57 19 58 27 59 20 60 21 61 25 62 28 63 22 64
REMARK SMILES IDX 23 65 26 66 24 67 50 68 51 69 59 70 52 71 53 72 57 73 60 74
REMARK SMILES IDX 54 75 55 76 58 77 56 78 35 79 36 80 44 81 37 82 38 83 42 84
REMARK SMILES IDX 45 85 39 86 40 87 43 88 41 89
REMARK H PARENT 65 42 33 53
REMARK Flexibility Score: inf
ROOT
ATOM      1  C   UNL     1       3.071   0.644  -2.478  1.00  0.00     0.275 C 
ENDROOT
BRANCH   1   2
ATOM      2  C   UNL     1       2.914  -0.473  -1.421  1.00  0.00     0.275 C 
BRANCH   2   3
ATOM      3  O   UNL     1       2.122  -0.066  -0.272  1.00  0.00    -0.459 OA
BRANCH   3   4
ATOM      4  C   UNL     1       2.496  -0.487   0.972  1.00  0.00     0.338 C 
ATOM      5  O   UNL     1       1.843  -1.288   1.622  1.00  0.00    -0.246 OA
BRANCH   4   6
ATOM      6  C   UNL     1       3.724   0.171   1.488  1.00  0.00     0.087 C 
ATOM      7  C   UNL     1       4.658  -0.600   2.064  1.00  0.00     0.027 C 
ATOM      8  C   UNL     1       4.187   1.444   0.869  1.00  0.00     0.316 C 
ATOM      9  C   UNL     1       5.923  -0.665   1.322  1.00  0.00     0.020 A 
ATOM     10  O   UNL     1       5.266   1.227  -0.061  1.00  0.00    -0.474 OA
ATOM     11  C   UNL     1       6.838  -1.694   1.570  1.00  0.00     0.032 A 
ATOM     12  C   UNL     1       6.105   0.171   0.206  1.00  0.00     0.146 A 
ATOM     13  C   UNL     1       7.873  -1.931   0.664  1.00  0.00     0.043 A 
ATOM     14  C   UNL     1       7.111  -0.118  -0.724  1.00  0.00     0.085 A 
ATOM     15  Cl  UNL     1       8.984  -3.212   0.958  1.00  0.00    -0.084 Cl
ATOM     16  C   UNL     1       7.989  -1.177  -0.502  1.00  0.00     0.045 A 
ATOM     17  Cl  UNL     1       7.229   0.755  -2.209  1.00  0.00    -0.080 Cl
BRANCH   8  18
ATOM     18  C   UNL     1       4.489   2.513   1.936  1.00  0.00     0.430 C 
ATOM     19  F   UNL     1       3.339   2.936   2.521  1.00  0.00    -0.167 F 
ATOM     20  F   UNL     1       5.294   2.067   2.925  1.00  0.00    -0.167 F 
ATOM     21  F   UNL     1       5.078   3.602   1.392  1.00  0.00    -0.167 F 
ENDBRANCH   8  18
ENDBRANCH   4   6
ENDBRANCH   3   4
ENDBRANCH   2   3
ENDBRANCH   1   2
BRANCH   1  22
ATOM     22  O   UNL     1       2.885   1.952  -1.917  1.00  0.00    -0.458 OA
BRANCH  22  23
ATOM     23  C   UNL     1       1.595   2.366  -1.897  1.00  0.00     0.338 C 
ATOM     24  O   UNL     1       0.668   1.881  -2.531  1.00  0.00    -0.246 OA
BRANCH  23  25
ATOM     25  C   UNL     1       1.405   3.347  -0.803  1.00  0.00     0.060 A 
ATOM     26  C   UNL     1       0.237   3.227  -0.044  1.00  0.00     0.016 A 
ATOM     27  C   UNL     1       2.353   4.325  -0.475  1.00  0.00     0.016 A 
ATOM     28  C   UNL     1      -0.014   4.113   1.001  1.00  0.00     0.010 A 
ATOM     29  C   UNL     1       2.111   5.197   0.598  1.00  0.00     0.010 A 
ATOM     30  C   UNL     1       0.904   5.126   1.315  1.00  0.00    -0.014 A 
BRANCH  30  31
ATOM     31  C   UNL     1       0.483   6.180   2.279  1.00  0.00     0.031 A 
ATOM     32  C   UNL     1       0.051   7.521   1.748  1.00  0.00     0.074 A 
ATOM     33  C   UNL     1       0.355   5.913   3.594  1.00  0.00     0.049 A 
ATOM     34  N   UNL     1      -0.569   8.498   2.361  1.00  0.00    -0.248 NA
ATOM     35  C   UNL     1       0.352   7.798   0.335  1.00  0.00     0.031 C 
ATOM     36  C   UNL     1       0.750   4.668   4.249  1.00  0.00     0.029 A 
ATOM     37  N   UNL     1      -0.170   6.674   4.612  1.00  0.00    -0.354 N 
ATOM     38  C   UNL     1      -0.772   9.477   1.398  1.00  0.00     0.074 A 
ATOM     39  C   UNL     1      -0.131   9.020   0.186  1.00  0.00     0.031 C 
ATOM     40  C   UNL     1       0.439   4.742   5.555  1.00  0.00     0.029 A 
ATOM     41  C   UNL     1      -0.182   6.037   5.829  1.00  0.00     0.049 A 
ATOM     42  H   UNL     1      -0.506   7.590   4.480  1.00  0.00     0.167 HD
ATOM     43  C   UNL     1      -1.468  10.635   1.495  1.00  0.00     0.037 A 
ATOM     44  C   UNL     1      -0.656   6.447   7.023  1.00  0.00     0.037 A 
ATOM     45  C   UNL     1      -2.081  11.117   2.703  1.00  0.00     0.049 A 
ATOM     46  C   UNL     1      -1.366   7.777   7.123  1.00  0.00     0.074 A 
ATOM     47  C   UNL     1      -2.797  12.283   2.904  1.00  0.00     0.029 A 
ATOM     48  N   UNL     1      -2.037  10.459   3.922  1.00  0.00    -0.354 N 
ATOM     49  N   UNL     1      -1.634   8.651   6.183  1.00  0.00    -0.248 NA
ATOM     50  C   UNL     1      -1.866   8.162   8.452  1.00  0.00     0.031 C 
ATOM     51  C   UNL     1      -3.145  12.355   4.257  1.00  0.00     0.029 A 
ATOM     52  C   UNL     1      -2.694  11.206   4.886  1.00  0.00     0.049 A 
ATOM     53  H   UNL     1      -1.603   9.589   4.080  1.00  0.00     0.167 HD
ATOM     54  C   UNL     1      -2.358   9.666   6.797  1.00  0.00     0.074 A 
ATOM     55  C   UNL     1      -2.513   9.287   8.185  1.00  0.00     0.031 C 
ATOM     56  C   UNL     1      -2.849  10.813   6.263  1.00  0.00     0.037 A 
BRANCH  43  57
ATOM     57  C   UNL     1      -1.603  11.453   0.244  1.00  0.00     0.064 A 
ATOM     58  C   UNL     1      -2.402  11.016  -0.826  1.00  0.00     0.173 A 
ATOM     59  C   UNL     1      -0.940  12.680   0.110  1.00  0.00     0.173 A 
ATOM     60  F   UNL     1      -3.044   9.840  -0.753  1.00  0.00    -0.203 F 
ATOM     61  C   UNL     1      -2.503  11.762  -1.996  1.00  0.00     0.198 A 
ATOM     62  C   UNL     1      -1.067  13.438  -1.051  1.00  0.00     0.198 A 
ATOM     63  F   UNL     1      -0.166  13.143   1.103  1.00  0.00    -0.203 F 
ATOM     64  F   UNL     1      -3.225  11.298  -3.025  1.00  0.00    -0.200 F 
ATOM     65  C   UNL     1      -1.840  12.975  -2.105  1.00  0.00     0.200 A 
ATOM     66  F   UNL     1      -0.434  14.615  -1.153  1.00  0.00    -0.200 F 
ATOM     67  F   UNL     1      -1.938  13.693  -3.233  1.00  0.00    -0.200 F 
ENDBRANCH  43  57
BRANCH  44  68
ATOM     68  C   UNL     1      -0.496   5.595   8.235  1.00  0.00     0.064 A 
ATOM     69  C   UNL     1      -1.605   5.046   8.896  1.00  0.00     0.173 A 
ATOM     70  C   UNL     1       0.769   5.382   8.803  1.00  0.00     0.173 A 
ATOM     71  F   UNL     1      -2.839   5.243   8.410  1.00  0.00    -0.203 F 
ATOM     72  C   UNL     1      -1.459   4.357  10.099  1.00  0.00     0.198 A 
ATOM     73  C   UNL     1       0.917   4.664   9.988  1.00  0.00     0.198 A 
ATOM     74  F   UNL     1       1.863   5.886   8.214  1.00  0.00    -0.203 F 
ATOM     75  F   UNL     1      -2.543   3.911  10.749  1.00  0.00    -0.200 F 
ATOM     76  C   UNL     1      -0.199   4.166  10.644  1.00  0.00     0.200 A 
ATOM     77  F   UNL     1       2.138   4.475  10.506  1.00  0.00    -0.200 F 
ATOM     78  F   UNL     1      -0.060   3.518  11.809  1.00  0.00    -0.200 F 
ENDBRANCH  44  68
BRANCH  56  79
ATOM     79  C   UNL     1      -3.627  11.724   7.173  1.00  0.00     0.064 A 
ATOM     80  C   UNL     1      -3.010  12.428   8.218  1.00  0.00     0.173 A 
ATOM     81  C   UNL     1      -5.004  11.917   6.978  1.00  0.00     0.173 A 
ATOM     82  F   UNL     1      -1.699  12.273   8.455  1.00  0.00    -0.203 F 
ATOM     83  C   UNL     1      -3.749  13.258   9.058  1.00  0.00     0.198 A 
ATOM     84  C   UNL     1      -5.732  12.777   7.796  1.00  0.00     0.198 A 
ATOM     85  F   UNL     1      -5.644  11.278   5.987  1.00  0.00    -0.203 F 
ATOM     86  F   UNL     1      -3.148  13.871  10.087  1.00  0.00    -0.200 F 
ATOM     87  C   UNL     1      -5.107  13.437   8.842  1.00  0.00     0.200 A 
ATOM     88  F   UNL     1      -7.041  12.962   7.575  1.00  0.00    -0.200 F 
ATOM     89  F   UNL     1      -5.814  14.240   9.648  1.00  0.00    -0.200 F 
ENDBRANCH  56  79
ENDBRANCH  30  31
ENDBRANCH  23  25
ENDBRANCH  22  23
ENDBRANCH   1  22
TORSDOF 12
