REMARK SMILES COc1ccccc1/C=C/C(=O)N(CC(=O)OCCOC(=O)c1ccc(-c2c3nc(c(-c4c(F)c(F)c(F)c(F)c4F)c4ccc([nH]4)c(-c4c(F)c(F)c(F)c(F)c4F)c4nc(c(-c5c(F)c(F)c(F)c(F)c5F)c5ccc2[nH]5)C=C4)C=C3)cc1)C(C)(C)C
REMARK SMILES IDX 17 1 15 2 16 3 14 4 13 5 11 6 12 7 10 8 9 9 8 10 3 11 4 12
REMARK SMILES IDX 5 13 7 14 6 15 2 16 1 17 86 18 87 19 88 20 89 21 18 22 19 23
REMARK SMILES IDX 20 24 21 25 22 26 23 27 24 28 85 29 25 30 84 31 26 32 27 33
REMARK SMILES IDX 28 34 78 35 29 36 83 37 77 38 79 39 30 40 82 41 76 42 75 43
REMARK SMILES IDX 31 45 63 46 43 47 62 48 44 49 47 50 61 51 80 52 45 53 46 54
REMARK SMILES IDX 60 56 81 57 48 58 32 59 33 60 41 61 34 62 35 63 39 64 42 65
REMARK SMILES IDX 36 66 37 67 40 68 38 69 64 70 65 71 73 72 66 73 67 74 71 75
REMARK SMILES IDX 74 76 68 77 69 78 72 79 70 80 49 81 50 82 58 83 51 84 52 85
REMARK SMILES IDX 56 86 59 87 53 88 54 89 57 90 55 91
REMARK H PARENT 79 44 47 55
REMARK Flexibility Score: inf
ROOT
ATOM      1  O   UNL     1       4.187  -2.549  -1.158  1.00  0.00    -0.461 OA
ENDROOT
BRANCH   1   2
ATOM      2  C   UNL     1       3.223  -1.972  -0.390  1.00  0.00     0.325 C 
ATOM      3  O   UNL     1       2.030  -2.256  -0.445  1.00  0.00    -0.250 OA
BRANCH   2   4
ATOM      4  C   UNL     1       3.764  -0.989   0.651  1.00  0.00     0.243 C 
BRANCH   4   5
ATOM      5  N   UNL     1       5.168  -0.564   0.514  1.00  0.00    -0.323 N 
BRANCH   5   6
ATOM      6  C   UNL     1       5.507   0.470  -0.366  1.00  0.00     0.247 C 
ATOM      7  O   UNL     1       6.654   0.795  -0.660  1.00  0.00    -0.270 OA
BRANCH   6   8
ATOM      8  C   UNL     1       4.414   1.359  -0.835  1.00  0.00     0.072 C 
ATOM      9  C   UNL     1       3.529   1.027  -1.784  1.00  0.00     0.017 C 
BRANCH   9  10
ATOM     10  C   UNL     1       2.443   1.942  -2.164  1.00  0.00     0.017 A 
ATOM     11  C   UNL     1       1.095   1.579  -2.015  1.00  0.00     0.126 A 
ATOM     12  C   UNL     1       0.073   2.438  -2.430  1.00  0.00     0.047 A 
ATOM     13  C   UNL     1       0.388   3.692  -2.950  1.00  0.00     0.004 A 
ATOM     14  C   UNL     1       2.744   3.207  -2.687  1.00  0.00     0.012 A 
ATOM     15  C   UNL     1       1.722   4.079  -3.070  1.00  0.00     0.001 A 
BRANCH  11  16
ATOM     16  O   UNL     1       0.771   0.345  -1.510  1.00  0.00    -0.496 OA
ATOM     17  C   UNL     1       0.208   0.466  -0.202  1.00  0.00     0.278 C 
ENDBRANCH  11  16
ENDBRANCH   9  10
ENDBRANCH   6   8
ENDBRANCH   5   6
BRANCH   5  18
ATOM     18  C   UNL     1       6.250  -1.216   1.341  1.00  0.00     0.035 C 
ATOM     19  C   UNL     1       7.290  -1.927   0.453  1.00  0.00     0.034 C 
ATOM     20  C   UNL     1       6.946  -0.142   2.211  1.00  0.00     0.034 C 
ATOM     21  C   UNL     1       5.731  -2.284   2.337  1.00  0.00     0.034 C 
ENDBRANCH   5  18
ENDBRANCH   4   5
ENDBRANCH   2   4
ENDBRANCH   1   2
BRANCH   1  22
ATOM     22  C   UNL     1       3.712  -3.554  -2.078  1.00  0.00     0.274 C 
BRANCH  22  23
ATOM     23  C   UNL     1       3.810  -4.953  -1.466  1.00  0.00     0.275 C 
BRANCH  23  24
ATOM     24  O   UNL     1       3.156  -4.977  -0.186  1.00  0.00    -0.458 OA
BRANCH  24  25
ATOM     25  C   UNL     1       3.873  -5.495   0.839  1.00  0.00     0.338 C 
ATOM     26  O   UNL     1       4.964  -6.043   0.766  1.00  0.00    -0.246 OA
BRANCH  25  27
ATOM     27  C   UNL     1       3.173  -5.286   2.125  1.00  0.00     0.060 A 
ATOM     28  C   UNL     1       2.416  -4.138   2.370  1.00  0.00     0.016 A 
ATOM     29  C   UNL     1       3.360  -6.214   3.150  1.00  0.00     0.016 A 
ATOM     30  C   UNL     1       1.907  -3.880   3.643  1.00  0.00     0.010 A 
ATOM     31  C   UNL     1       2.768  -6.005   4.399  1.00  0.00     0.010 A 
ATOM     32  C   UNL     1       2.050  -4.827   4.664  1.00  0.00    -0.014 A 
BRANCH  32  33
ATOM     33  C   UNL     1       1.435  -4.610   6.000  1.00  0.00     0.031 A 
ATOM     34  C   UNL     1       2.289  -4.589   7.237  1.00  0.00     0.074 A 
ATOM     35  C   UNL     1       0.099  -4.474   6.112  1.00  0.00     0.049 A 
ATOM     36  N   UNL     1       1.928  -4.643   8.495  1.00  0.00    -0.248 NA
ATOM     37  C   UNL     1       3.744  -4.512   7.033  1.00  0.00     0.031 C 
ATOM     38  C   UNL     1      -0.848  -4.444   4.996  1.00  0.00     0.029 A 
ATOM     39  N   UNL     1      -0.698  -4.350   7.224  1.00  0.00    -0.354 N 
ATOM     40  C   UNL     1       3.107  -4.662   9.228  1.00  0.00     0.074 A 
ATOM     41  C   UNL     1       4.197  -4.607   8.276  1.00  0.00     0.031 C 
ATOM     42  C   UNL     1      -2.091  -4.292   5.476  1.00  0.00     0.029 A 
ATOM     43  C   UNL     1      -2.038  -4.298   6.933  1.00  0.00     0.049 A 
ATOM     44  H   UNL     1      -0.342  -4.302   8.141  1.00  0.00     0.167 HD
ATOM     45  C   UNL     1       3.261  -4.726  10.572  1.00  0.00     0.037 A 
ATOM     46  C   UNL     1      -3.113  -4.307   7.744  1.00  0.00     0.037 A 
ATOM     47  C   UNL     1       2.175  -4.732  11.518  1.00  0.00     0.049 A 
ATOM     48  C   UNL     1      -2.916  -4.403   9.228  1.00  0.00     0.074 A 
ATOM     49  C   UNL     1       2.235  -4.765  12.901  1.00  0.00     0.029 A 
ATOM     50  N   UNL     1       0.832  -4.690  11.178  1.00  0.00    -0.354 N 
ATOM     51  N   UNL     1      -1.799  -4.470   9.909  1.00  0.00    -0.248 NA
ATOM     52  C   UNL     1      -4.130  -4.446  10.054  1.00  0.00     0.031 C 
ATOM     53  C   UNL     1       0.926  -4.772  13.397  1.00  0.00     0.029 A 
ATOM     54  C   UNL     1       0.053  -4.708  12.324  1.00  0.00     0.049 A 
ATOM     55  H   UNL     1       0.483  -4.654  10.258  1.00  0.00     0.167 HD
ATOM     56  C   UNL     1      -2.173  -4.558  11.242  1.00  0.00     0.074 A 
ATOM     57  C   UNL     1      -3.620  -4.515  11.276  1.00  0.00     0.031 C 
ATOM     58  C   UNL     1      -1.386  -4.669  12.339  1.00  0.00     0.037 A 
BRANCH  45  59
ATOM     59  C   UNL     1       4.657  -4.824  11.109  1.00  0.00     0.064 A 
ATOM     60  C   UNL     1       5.514  -3.715  11.146  1.00  0.00     0.173 A 
ATOM     61  C   UNL     1       5.122  -6.034  11.646  1.00  0.00     0.173 A 
ATOM     62  F   UNL     1       5.120  -2.540  10.632  1.00  0.00    -0.203 F 
ATOM     63  C   UNL     1       6.792  -3.818  11.691  1.00  0.00     0.198 A 
ATOM     64  C   UNL     1       6.392  -6.128  12.210  1.00  0.00     0.198 A 
ATOM     65  F   UNL     1       4.338  -7.123  11.638  1.00  0.00    -0.203 F 
ATOM     66  F   UNL     1       7.606  -2.753  11.690  1.00  0.00    -0.200 F 
ATOM     67  C   UNL     1       7.226  -5.021  12.229  1.00  0.00     0.200 A 
ATOM     68  F   UNL     1       6.806  -7.288  12.738  1.00  0.00    -0.200 F 
ATOM     69  F   UNL     1       8.453  -5.114  12.762  1.00  0.00    -0.200 F 
ENDBRANCH  45  59
BRANCH  46  70
ATOM     70  C   UNL     1      -4.474  -4.264   7.154  1.00  0.00     0.064 A 
ATOM     71  C   UNL     1      -5.265  -3.113   7.261  1.00  0.00     0.173 A 
ATOM     72  C   UNL     1      -4.999  -5.359   6.452  1.00  0.00     0.173 A 
ATOM     73  F   UNL     1      -4.812  -2.051   7.943  1.00  0.00    -0.203 F 
ATOM     74  C   UNL     1      -6.533  -3.059   6.688  1.00  0.00     0.198 A 
ATOM     75  C   UNL     1      -6.257  -5.294   5.858  1.00  0.00     0.198 A 
ATOM     76  F   UNL     1      -4.278  -6.482   6.323  1.00  0.00    -0.203 F 
ATOM     77  F   UNL     1      -7.282  -1.956   6.827  1.00  0.00    -0.200 F 
ATOM     78  C   UNL     1      -7.024  -4.146   5.979  1.00  0.00     0.200 A 
ATOM     79  F   UNL     1      -6.721  -6.341   5.162  1.00  0.00    -0.200 F 
ATOM     80  F   UNL     1      -8.239  -4.088   5.417  1.00  0.00    -0.200 F 
ENDBRANCH  46  70
BRANCH  58  81
ATOM     81  C   UNL     1      -2.077  -4.732  13.667  1.00  0.00     0.064 A 
ATOM     82  C   UNL     1      -2.723  -5.900  14.098  1.00  0.00     0.173 A 
ATOM     83  C   UNL     1      -2.076  -3.622  14.523  1.00  0.00     0.173 A 
ATOM     84  F   UNL     1      -2.765  -6.980  13.304  1.00  0.00    -0.203 F 
ATOM     85  C   UNL     1      -3.362  -5.945  15.334  1.00  0.00     0.198 A 
ATOM     86  C   UNL     1      -2.698  -3.678  15.766  1.00  0.00     0.198 A 
ATOM     87  F   UNL     1      -1.469  -2.484  14.153  1.00  0.00    -0.203 F 
ATOM     88  F   UNL     1      -4.010  -7.057  15.710  1.00  0.00    -0.200 F 
ATOM     89  C   UNL     1      -3.346  -4.837  16.168  1.00  0.00     0.200 A 
ATOM     90  F   UNL     1      -2.677  -2.609  16.573  1.00  0.00    -0.200 F 
ATOM     91  F   UNL     1      -3.963  -4.883  17.356  1.00  0.00    -0.200 F 
ENDBRANCH  58  81
ENDBRANCH  32  33
ENDBRANCH  25  27
ENDBRANCH  24  25
ENDBRANCH  23  24
ENDBRANCH  22  23
ENDBRANCH   1  22
TORSDOF 17
