REMARK SMILES O=C(OCCOC(=O)[C@@H]1C=C[C@H](NC(=O)[C@@H]2Cc3ccccc3O2)C1)c1ccc(-c2c3nc(c(-c4c(F)c(F)c(F)c(F)c4F)c4ccc([nH]4)c(-c4c(F)c(F)c(F)c(F)c4F)c4nc(c(-c5c(F)c(F)c(F)c(F)c5F)c5ccc2[nH]5)C=C4)C=C3)cc1
REMARK SMILES IDX 4 1 3 2 2 3 1 4 26 5 27 6 88 7 28 8 87 9 29 10 30 11 31 12
REMARK SMILES IDX 81 13 32 14 86 15 80 16 82 17 33 18 85 19 79 20 78 21 34 23
REMARK SMILES IDX 66 24 46 25 65 26 47 27 50 28 64 29 83 30 48 31 49 32 63 34
REMARK SMILES IDX 84 35 51 36 35 37 36 38 44 39 37 40 38 41 42 42 45 43 39 44
REMARK SMILES IDX 40 45 43 46 41 47 67 48 68 49 76 50 69 51 70 52 74 53 77 54
REMARK SMILES IDX 71 55 72 56 75 57 73 58 52 59 53 60 61 61 54 62 55 63 59 64
REMARK SMILES IDX 62 65 56 66 57 67 60 68 58 69 5 70 6 71 7 72 8 73 9 74 10 75
REMARK SMILES IDX 25 76 11 77 12 78 13 79 14 80 15 82 16 83 17 84 24 85 18 86
REMARK SMILES IDX 23 87 19 88 22 89 20 90 21 91
REMARK H PARENT 82 22 50 33 13 81
REMARK Flexibility Score: inf
ROOT
ATOM      1  C   UNL     1      10.615   2.757   3.847  1.00  0.00     0.275 C 
ENDROOT
BRANCH   1   2
ATOM      2  O   UNL     1       9.329   3.048   3.320  1.00  0.00    -0.458 OA
BRANCH   2   3
ATOM      3  C   UNL     1       8.293   2.286   3.697  1.00  0.00     0.338 C 
ATOM      4  O   UNL     1       7.261   2.822   4.073  1.00  0.00    -0.246 OA
BRANCH   3   5
ATOM      5  C   UNL     1       8.447   0.776   3.690  1.00  0.00     0.060 A 
ATOM      6  C   UNL     1       9.452  -0.148   3.332  1.00  0.00     0.016 A 
ATOM      7  C   UNL     1       7.390   0.192   4.286  1.00  0.00     0.016 A 
ATOM      8  C   UNL     1       9.369  -1.614   3.609  1.00  0.00     0.010 A 
ATOM      9  C   UNL     1       7.446  -1.182   4.572  1.00  0.00     0.010 A 
ATOM     10  C   UNL     1       8.311  -2.229   4.291  1.00  0.00    -0.014 A 
BRANCH  10  11
ATOM     11  C   UNL     1       8.006  -3.849   4.683  1.00  0.00     0.031 A 
ATOM     12  C   UNL     1       6.650  -4.840   4.934  1.00  0.00     0.074 A 
ATOM     13  C   UNL     1       9.059  -4.595   5.056  1.00  0.00     0.049 A 
ATOM     14  N   UNL     1       6.464  -6.146   4.651  1.00  0.00    -0.248 NA
ATOM     15  C   UNL     1       5.493  -4.404   5.720  1.00  0.00     0.031 C 
ATOM     16  C   UNL     1      10.396  -4.085   5.251  1.00  0.00     0.029 A 
ATOM     17  N   UNL     1       9.141  -5.937   5.374  1.00  0.00    -0.354 N 
ATOM     18  C   UNL     1       5.112  -6.497   4.953  1.00  0.00     0.074 A 
ATOM     19  C   UNL     1       4.526  -5.300   5.500  1.00  0.00     0.031 C 
ATOM     20  C   UNL     1      11.197  -5.104   5.574  1.00  0.00     0.029 A 
ATOM     21  C   UNL     1      10.412  -6.339   5.672  1.00  0.00     0.049 A 
ATOM     22  H   UNL     1       8.364  -6.542   5.385  1.00  0.00     0.167 HD
ATOM     23  C   UNL     1       4.389  -7.669   5.023  1.00  0.00     0.037 A 
ATOM     24  C   UNL     1      10.943  -7.534   5.990  1.00  0.00     0.037 A 
ATOM     25  C   UNL     1       4.919  -9.012   5.124  1.00  0.00     0.049 A 
ATOM     26  C   UNL     1      10.197  -8.839   6.056  1.00  0.00     0.074 A 
ATOM     27  C   UNL     1       4.245 -10.231   5.197  1.00  0.00     0.029 A 
ATOM     28  N   UNL     1       6.243  -9.295   5.368  1.00  0.00    -0.354 N 
ATOM     29  N   UNL     1       8.930  -9.100   5.889  1.00  0.00    -0.248 NA
ATOM     30  C   UNL     1      11.011 -10.036   6.345  1.00  0.00     0.031 C 
ATOM     31  C   UNL     1       5.159 -11.235   5.554  1.00  0.00     0.029 A 
ATOM     32  C   UNL     1       6.407 -10.649   5.624  1.00  0.00     0.049 A 
ATOM     33  H   UNL     1       6.970  -8.632   5.362  1.00  0.00     0.167 HD
ATOM     34  C   UNL     1       8.807 -10.487   6.011  1.00  0.00     0.074 A 
ATOM     35  C   UNL     1      10.121 -11.014   6.268  1.00  0.00     0.031 C 
ATOM     36  C   UNL     1       7.687 -11.241   5.894  1.00  0.00     0.037 A 
BRANCH  23  37
ATOM     37  C   UNL     1       2.858  -7.592   5.059  1.00  0.00     0.064 A 
ATOM     38  C   UNL     1       2.154  -7.288   3.881  1.00  0.00     0.173 A 
ATOM     39  C   UNL     1       2.088  -7.970   6.178  1.00  0.00     0.173 A 
ATOM     40  F   UNL     1       2.825  -6.999   2.757  1.00  0.00    -0.203 F 
ATOM     41  C   UNL     1       0.757  -7.314   3.834  1.00  0.00     0.198 A 
ATOM     42  C   UNL     1       0.689  -8.009   6.123  1.00  0.00     0.198 A 
ATOM     43  F   UNL     1       2.687  -8.339   7.320  1.00  0.00    -0.203 F 
ATOM     44  F   UNL     1       0.119  -7.008   2.695  1.00  0.00    -0.200 F 
ATOM     45  C   UNL     1       0.025  -7.670   4.955  1.00  0.00     0.200 A 
ATOM     46  F   UNL     1      -0.018  -8.389   7.199  1.00  0.00    -0.200 F 
ATOM     47  F   UNL     1      -1.316  -7.696   4.907  1.00  0.00    -0.200 F 
ENDBRANCH  23  37
BRANCH  24  48
ATOM     48  C   UNL     1      12.395  -7.543   6.261  1.00  0.00     0.064 A 
ATOM     49  C   UNL     1      13.289  -8.030   5.302  1.00  0.00     0.173 A 
ATOM     50  C   UNL     1      12.899  -7.039   7.466  1.00  0.00     0.173 A 
ATOM     51  F   UNL     1      12.827  -8.522   4.143  1.00  0.00    -0.203 F 
ATOM     52  C   UNL     1      14.652  -8.046   5.558  1.00  0.00     0.198 A 
ATOM     53  C   UNL     1      14.264  -7.023   7.703  1.00  0.00     0.198 A 
ATOM     54  F   UNL     1      12.063  -6.531   8.384  1.00  0.00    -0.203 F 
ATOM     55  F   UNL     1      15.492  -8.564   4.653  1.00  0.00    -0.200 F 
ATOM     56  C   UNL     1      15.138  -7.538   6.755  1.00  0.00     0.200 A 
ATOM     57  F   UNL     1      14.735  -6.505   8.845  1.00  0.00    -0.200 F 
ATOM     58  F   UNL     1      16.455  -7.549   6.998  1.00  0.00    -0.200 F 
ENDBRANCH  24  48
BRANCH  36  59
ATOM     59  C   UNL     1       7.794 -12.739   5.993  1.00  0.00     0.064 A 
ATOM     60  C   UNL     1       8.105 -13.397   7.193  1.00  0.00     0.173 A 
ATOM     61  C   UNL     1       7.534 -13.538   4.867  1.00  0.00     0.173 A 
ATOM     62  F   UNL     1       8.373 -12.691   8.302  1.00  0.00    -0.203 F 
ATOM     63  C   UNL     1       8.173 -14.790   7.256  1.00  0.00     0.198 A 
ATOM     64  C   UNL     1       7.578 -14.930   4.938  1.00  0.00     0.198 A 
ATOM     65  F   UNL     1       7.230 -12.969   3.691  1.00  0.00    -0.203 F 
ATOM     66  F   UNL     1       8.509 -15.393   8.405  1.00  0.00    -0.200 F 
ATOM     67  C   UNL     1       7.903 -15.555   6.131  1.00  0.00     0.200 A 
ATOM     68  F   UNL     1       7.306 -15.665   3.851  1.00  0.00    -0.200 F 
ATOM     69  F   UNL     1       7.961 -16.893   6.195  1.00  0.00    -0.200 F 
ENDBRANCH  36  59
ENDBRANCH  10  11
ENDBRANCH   3   5
ENDBRANCH   2   3
ENDBRANCH   1   2
BRANCH   1  70
ATOM     70  C   UNL     1      10.706   2.406   5.364  1.00  0.00     0.274 C 
BRANCH  70  71
ATOM     71  O   UNL     1       9.967   1.222   5.870  1.00  0.00    -0.462 OA
BRANCH  71  72
ATOM     72  C   UNL     1       9.068   1.406   6.894  1.00  0.00     0.312 C 
ATOM     73  O   UNL     1       8.875   2.517   7.388  1.00  0.00    -0.252 OA
BRANCH  72  74
ATOM     74  C   UNL     1       8.315   0.140   7.505  1.00  0.00     0.124 C 
ATOM     75  C   UNL     1       8.649  -1.308   7.311  1.00  0.00    -0.014 C 
ATOM     76  C   UNL     1       6.733   0.115   7.391  1.00  0.00     0.048 C 
ATOM     77  C   UNL     1       7.554  -2.103   7.212  1.00  0.00    -0.006 C 
ATOM     78  C   UNL     1       6.221  -1.361   7.168  1.00  0.00     0.106 C 
BRANCH  78  79
ATOM     79  N   UNL     1       4.981  -1.667   5.999  1.00  0.00    -0.347 N 
ATOM     80  C   UNL     1       4.512  -1.989   4.639  1.00  0.00     0.261 C 
ATOM     81  H   UNL     1       4.148  -1.582   6.517  1.00  0.00     0.164 HD
ATOM     82  O   UNL     1       3.272  -2.080   4.575  1.00  0.00    -0.271 OA
BRANCH  80  83
ATOM     83  C   UNL     1       5.386  -2.364   3.126  1.00  0.00     0.266 C 
ATOM     84  C   UNL     1       5.464  -1.164   2.144  1.00  0.00     0.095 C 
ATOM     85  O   UNL     1       5.694  -3.476   2.209  1.00  0.00    -0.480 OA
ATOM     86  C   UNL     1       6.667  -1.566   1.346  1.00  0.00    -0.002 A 
ATOM     87  C   UNL     1       6.747  -2.951   1.413  1.00  0.00     0.123 A 
ATOM     88  C   UNL     1       7.646  -0.805   0.700  1.00  0.00     0.008 A 
ATOM     89  C   UNL     1       7.837  -3.615   0.845  1.00  0.00     0.047 A 
ATOM     90  C   UNL     1       8.766  -1.454   0.162  1.00  0.00     0.001 A 
ATOM     91  C   UNL     1       8.861  -2.852   0.232  1.00  0.00     0.004 A 
ENDBRANCH  80  83
ENDBRANCH  78  79
ENDBRANCH  72  74
ENDBRANCH  71  72
ENDBRANCH  70  71
ENDBRANCH   1  70
TORSDOF 13
