REMARK SMILES C[C@H]1[C@H](C(=O)OCCOC(=O)c2ccc(-c3c4nc(c(-c5c(F)c(F)c(F)c(F)c5F)c5ccc([nH]5)c(-c5c(F)c(F)c(F)c(F)c5F)c5nc(c(-c6c(F)c(F)c(F)c(F)c6F)c6ccc3[nH]6)C=C5)C=C4)cc2)CC[N@@H+]1Cc1cscn1
REMARK SMILES IDX 7 1 6 2 4 3 5 4 3 5 1 6 2 7 77 8 75 9 76 10 78 12 79 13
REMARK SMILES IDX 80 14 83 15 81 16 82 17 8 18 9 19 10 20 11 21 12 22 13 23
REMARK SMILES IDX 74 24 14 25 73 26 15 27 16 28 17 29 67 30 18 31 72 32 66 33
REMARK SMILES IDX 68 34 19 35 71 36 65 37 64 38 20 40 52 41 32 42 51 43 33 44
REMARK SMILES IDX 36 45 50 46 69 47 34 48 35 49 49 51 70 52 37 53 21 54 22 55
REMARK SMILES IDX 30 56 23 57 24 58 28 59 31 60 25 61 26 62 29 63 27 64 53 65
REMARK SMILES IDX 54 66 62 67 55 68 56 69 60 70 63 71 57 72 58 73 61 74 59 75
REMARK SMILES IDX 38 76 39 77 47 78 40 79 41 80 45 81 48 82 42 83 43 84 46 85
REMARK SMILES IDX 44 86
REMARK H PARENT 77 11 68 39 36 50
REMARK Flexibility Score: inf
ROOT
ATOM      1  C   UNL     1      -0.385   3.074   3.284  1.00  0.00     0.274 C 
ENDROOT
BRANCH   1   2
ATOM      2  O   UNL     1      -0.291   1.984   2.348  1.00  0.00    -0.462 OA
BRANCH   2   3
ATOM      3  C   UNL     1      -0.735   2.197   1.089  1.00  0.00     0.315 C 
ATOM      4  O   UNL     1      -1.280   3.230   0.711  1.00  0.00    -0.252 OA
BRANCH   3   5
ATOM      5  C   UNL     1      -0.493   1.036   0.142  1.00  0.00     0.162 C 
ATOM      6  C   UNL     1       1.668  -0.211  -0.252  1.00  0.00     0.076 C 
ATOM      7  C   UNL     1       0.417  -0.100   0.634  1.00  0.00     0.195 C 
ATOM      8  N   UNL     1      -0.351  -1.345   0.466  1.00  0.00    -0.327 N 
ATOM      9  C   UNL     1      -1.811   0.389  -0.253  1.00  0.00     0.083 C 
ATOM     10  C   UNL     1      -1.479  -1.079  -0.416  1.00  0.00     0.263 C 
ATOM     11  H   UNL     1       0.238  -2.040   0.009  1.00  0.00     0.348 HD
BRANCH   8  12
ATOM     12  C   UNL     1      -0.659  -2.054   1.715  1.00  0.00     0.320 C 
BRANCH  12  13
ATOM     13  C   UNL     1      -1.444  -1.274   2.735  1.00  0.00     0.105 A 
ATOM     14  C   UNL     1      -2.802  -1.005   2.723  1.00  0.00     0.096 A 
ATOM     15  N   UNL     1      -0.785  -0.815   3.873  1.00  0.00    -0.244 NA
ATOM     16  S   UNL     1      -3.251  -0.107   4.112  1.00  0.00    -0.130 S 
ATOM     17  C   UNL     1      -1.633  -0.199   4.665  1.00  0.00     0.176 A 
ENDBRANCH  12  13
ENDBRANCH   8  12
ENDBRANCH   3   5
ENDBRANCH   2   3
ENDBRANCH   1   2
BRANCH   1  18
ATOM     18  C   UNL     1       1.002   3.646   3.578  1.00  0.00     0.275 C 
BRANCH  18  19
ATOM     19  O   UNL     1       1.524   4.332   2.426  1.00  0.00    -0.458 OA
BRANCH  19  20
ATOM     20  C   UNL     1       2.269   3.567   1.597  1.00  0.00     0.338 C 
ATOM     21  O   UNL     1       2.603   2.406   1.743  1.00  0.00    -0.246 OA
BRANCH  20  22
ATOM     22  C   UNL     1       2.537   4.323   0.371  1.00  0.00     0.060 A 
ATOM     23  C   UNL     1       1.848   3.970  -0.791  1.00  0.00     0.016 A 
ATOM     24  C   UNL     1       3.515   5.314   0.349  1.00  0.00     0.016 A 
ATOM     25  C   UNL     1       2.145   4.590  -1.997  1.00  0.00     0.010 A 
ATOM     26  C   UNL     1       3.799   5.953  -0.858  1.00  0.00     0.010 A 
ATOM     27  C   UNL     1       3.124   5.585  -2.037  1.00  0.00    -0.014 A 
BRANCH  27  28
ATOM     28  C   UNL     1       3.491   6.223  -3.318  1.00  0.00     0.031 A 
ATOM     29  C   UNL     1       4.832   5.932  -3.918  1.00  0.00     0.074 A 
ATOM     30  C   UNL     1       2.640   7.078  -3.911  1.00  0.00     0.049 A 
ATOM     31  N   UNL     1       5.461   6.553  -4.880  1.00  0.00    -0.248 NA
ATOM     32  C   UNL     1       5.567   4.792  -3.348  1.00  0.00     0.031 C 
ATOM     33  C   UNL     1       1.282   7.372  -3.454  1.00  0.00     0.029 A 
ATOM     34  N   UNL     1       2.804   7.876  -5.014  1.00  0.00    -0.354 N 
ATOM     35  C   UNL     1       6.685   5.910  -5.000  1.00  0.00     0.074 A 
ATOM     36  C   UNL     1       6.710   4.848  -4.018  1.00  0.00     0.031 C 
ATOM     37  C   UNL     1       0.743   8.303  -4.258  1.00  0.00     0.029 A 
ATOM     38  C   UNL     1       1.742   8.716  -5.237  1.00  0.00     0.049 A 
ATOM     39  H   UNL     1       3.604   7.849  -5.587  1.00  0.00     0.167 HD
ATOM     40  C   UNL     1       7.696   6.198  -5.852  1.00  0.00     0.037 A 
ATOM     41  C   UNL     1       1.617   9.743  -6.098  1.00  0.00     0.037 A 
ATOM     42  C   UNL     1       7.638   7.245  -6.837  1.00  0.00     0.049 A 
ATOM     43  C   UNL     1       2.777  10.085  -6.993  1.00  0.00     0.074 A 
ATOM     44  C   UNL     1       8.601   7.626  -7.754  1.00  0.00     0.029 A 
ATOM     45  N   UNL     1       6.544   8.077  -7.034  1.00  0.00    -0.354 N 
ATOM     46  N   UNL     1       3.951   9.508  -7.079  1.00  0.00    -0.248 NA
ATOM     47  C   UNL     1       2.603  11.228  -7.899  1.00  0.00     0.031 C 
ATOM     48  C   UNL     1       8.104   8.712  -8.482  1.00  0.00     0.029 A 
ATOM     49  C   UNL     1       6.814   8.979  -8.050  1.00  0.00     0.049 A 
ATOM     50  H   UNL     1       5.702   8.033  -6.527  1.00  0.00     0.167 HD
ATOM     51  C   UNL     1       4.645  10.195  -8.064  1.00  0.00     0.074 A 
ATOM     52  C   UNL     1       3.759  11.235  -8.548  1.00  0.00     0.031 C 
ATOM     53  C   UNL     1       5.901   9.986  -8.527  1.00  0.00     0.037 A 
BRANCH  40  54
ATOM     54  C   UNL     1       8.960   5.402  -5.726  1.00  0.00     0.064 A 
ATOM     55  C   UNL     1       9.040   4.066  -6.141  1.00  0.00     0.173 A 
ATOM     56  C   UNL     1      10.119   5.999  -5.204  1.00  0.00     0.173 A 
ATOM     57  F   UNL     1       7.956   3.445  -6.631  1.00  0.00    -0.203 F 
ATOM     58  C   UNL     1      10.228   3.348  -6.018  1.00  0.00     0.198 A 
ATOM     59  C   UNL     1      11.311   5.287  -5.107  1.00  0.00     0.198 A 
ATOM     60  F   UNL     1      10.096   7.276  -4.793  1.00  0.00    -0.203 F 
ATOM     61  F   UNL     1      10.271   2.059  -6.382  1.00  0.00    -0.200 F 
ATOM     62  C   UNL     1      11.363   3.961  -5.508  1.00  0.00     0.200 A 
ATOM     63  F   UNL     1      12.409   5.883  -4.622  1.00  0.00    -0.200 F 
ATOM     64  F   UNL     1      12.506   3.270  -5.396  1.00  0.00    -0.200 F 
ENDBRANCH  40  54
BRANCH  41  65
ATOM     65  C   UNL     1       0.365  10.541  -6.119  1.00  0.00     0.064 A 
ATOM     66  C   UNL     1      -0.511  10.478  -7.210  1.00  0.00     0.173 A 
ATOM     67  C   UNL     1       0.010  11.370  -5.044  1.00  0.00     0.173 A 
ATOM     68  F   UNL     1      -0.203   9.718  -8.272  1.00  0.00    -0.203 F 
ATOM     69  C   UNL     1      -1.690  11.220  -7.230  1.00  0.00     0.198 A 
ATOM     70  C   UNL     1      -1.182  12.090  -5.052  1.00  0.00     0.198 A 
ATOM     71  F   UNL     1       0.814  11.465  -3.975  1.00  0.00    -0.203 F 
ATOM     72  F   UNL     1      -2.493  11.170  -8.301  1.00  0.00    -0.200 F 
ATOM     73  C   UNL     1      -2.029  12.019  -6.148  1.00  0.00     0.200 A 
ATOM     74  F   UNL     1      -1.511  12.850  -3.999  1.00  0.00    -0.200 F 
ATOM     75  F   UNL     1      -3.167  12.725  -6.164  1.00  0.00    -0.200 F 
ENDBRANCH  41  65
BRANCH  53  76
ATOM     76  C   UNL     1       6.374  10.857  -9.650  1.00  0.00     0.064 A 
ATOM     77  C   UNL     1       6.778  12.181  -9.433  1.00  0.00     0.173 A 
ATOM     78  C   UNL     1       6.493  10.331 -10.945  1.00  0.00     0.173 A 
ATOM     79  F   UNL     1       6.668  12.730  -8.214  1.00  0.00    -0.203 F 
ATOM     80  C   UNL     1       7.280  12.952 -10.478  1.00  0.00     0.198 A 
ATOM     81  C   UNL     1       7.017  11.097 -11.982  1.00  0.00     0.198 A 
ATOM     82  F   UNL     1       6.123   9.067 -11.198  1.00  0.00    -0.203 F 
ATOM     83  F   UNL     1       7.637  14.225 -10.257  1.00  0.00    -0.200 F 
ATOM     84  C   UNL     1       7.407  12.407 -11.748  1.00  0.00     0.200 A 
ATOM     85  F   UNL     1       7.150  10.566 -13.204  1.00  0.00    -0.200 F 
ATOM     86  F   UNL     1       7.905  13.146 -12.748  1.00  0.00    -0.200 F 
ENDBRANCH  53  76
ENDBRANCH  27  28
ENDBRANCH  20  22
ENDBRANCH  19  20
ENDBRANCH  18  19
ENDBRANCH   1  18
TORSDOF 13
