REMARK SMILES CC1(C)[C@H](C(=O)Nc2cccc3[nH]ccc23)[C@H]1C(=O)OCCOC(=O)c1ccc(-c2c3nc(c(-c4c(F)c(F)c(F)c(F)c4F)c4ccc([nH]4)c(-c4c(F)c(F)c(F)c(F)c4F)c4nc(c(-c5c(F)c(F)c(F)c(F)c5F)c5ccc2[nH]5)C=C4)C=C3)cc1
REMARK SMILES IDX 21 1 20 2 18 3 19 4 17 5 1 6 2 7 3 8 4 9 5 10 6 11 7 12 8 14
REMARK SMILES IDX 9 15 16 16 10 17 12 18 15 19 11 20 13 21 14 22 22 24 23 25
REMARK SMILES IDX 24 26 25 27 26 28 27 29 88 30 28 31 87 32 29 33 30 34 31 35
REMARK SMILES IDX 81 36 32 37 86 38 80 39 82 40 33 41 85 42 79 43 78 44 34 46
REMARK SMILES IDX 66 47 46 48 65 49 47 50 50 51 64 52 83 53 48 54 49 55 63 57
REMARK SMILES IDX 84 58 51 59 35 60 36 61 44 62 37 63 38 64 42 65 45 66 39 67
REMARK SMILES IDX 40 68 43 69 41 70 67 71 68 72 76 73 69 74 70 75 74 76 77 77
REMARK SMILES IDX 71 78 72 79 75 80 73 81 52 82 53 83 61 84 54 85 55 86 59 87
REMARK SMILES IDX 62 88 56 89 57 90 60 91 58 92
REMARK H PARENT 7 13 13 23 82 45 50 56
REMARK Flexibility Score: inf
ROOT
ATOM      1  C   UNL     1      -2.059  -3.162   2.383  1.00  0.00     0.274 C 
ENDROOT
BRANCH   1   2
ATOM      2  O   UNL     1      -1.293  -2.288   1.537  1.00  0.00    -0.462 OA
BRANCH   2   3
ATOM      3  C   UNL     1      -1.942  -1.239   0.977  1.00  0.00     0.310 C 
ATOM      4  O   UNL     1      -3.141  -1.014   1.035  1.00  0.00    -0.252 OA
BRANCH   3   5
ATOM      5  C   UNL     1      -1.014  -0.258   0.372  1.00  0.00     0.118 C 
ATOM      6  C   UNL     1       0.703  -2.039  -0.570  1.00  0.00     0.013 C 
ATOM      7  C   UNL     1       0.291  -0.607  -0.327  1.00  0.00    -0.009 C 
ATOM      8  C   UNL     1       1.466   0.254   0.060  1.00  0.00     0.013 C 
ATOM      9  C   UNL     1      -0.929  -0.118  -1.119  1.00  0.00     0.100 C 
BRANCH   9  10
ATOM     10  C   UNL     1      -1.068   1.177  -1.855  1.00  0.00     0.228 C 
ATOM     11  O   UNL     1      -0.877   1.178  -3.066  1.00  0.00    -0.274 OA
ATOM     12  N   UNL     1      -1.724   2.214  -1.228  1.00  0.00    -0.325 N 
ATOM     13  H   UNL     1      -2.693   2.290  -1.383  1.00  0.00     0.169 HD
BRANCH  12  14
ATOM     14  C   UNL     1      -1.130   3.177  -0.384  1.00  0.00     0.050 A 
ATOM     15  C   UNL     1       0.256   3.251  -0.219  1.00  0.00     0.027 A 
ATOM     16  C   UNL     1      -1.928   4.134   0.290  1.00  0.00     0.023 A 
ATOM     17  C   UNL     1       0.841   4.111   0.707  1.00  0.00     0.004 A 
ATOM     18  C   UNL     1      -1.313   5.002   1.201  1.00  0.00     0.047 A 
ATOM     19  C   UNL     1      -3.317   4.460   0.298  1.00  0.00     0.030 A 
ATOM     20  C   UNL     1       0.060   4.982   1.463  1.00  0.00     0.027 A 
ATOM     21  N   UNL     1      -2.297   5.798   1.747  1.00  0.00    -0.361 N 
ATOM     22  C   UNL     1      -3.507   5.499   1.181  1.00  0.00     0.083 A 
ATOM     23  H   UNL     1      -2.151   6.481   2.441  1.00  0.00     0.166 HD
ENDBRANCH  12  14
ENDBRANCH   9  10
ENDBRANCH   3   5
ENDBRANCH   2   3
ENDBRANCH   1   2
BRANCH   1  24
ATOM     24  C   UNL     1      -1.512  -3.088   3.808  1.00  0.00     0.275 C 
BRANCH  24  25
ATOM     25  O   UNL     1      -1.772  -1.787   4.373  1.00  0.00    -0.458 OA
BRANCH  25  26
ATOM     26  C   UNL     1      -0.749  -0.908   4.279  1.00  0.00     0.338 C 
ATOM     27  O   UNL     1       0.370  -1.101   3.835  1.00  0.00    -0.246 OA
BRANCH  26  28
ATOM     28  C   UNL     1      -1.202   0.419   4.711  1.00  0.00     0.060 A 
ATOM     29  C   UNL     1      -1.679   1.293   3.741  1.00  0.00     0.016 A 
ATOM     30  C   UNL     1      -1.010   0.857   6.020  1.00  0.00     0.016 A 
ATOM     31  C   UNL     1      -1.867   2.634   4.048  1.00  0.00     0.010 A 
ATOM     32  C   UNL     1      -1.279   2.195   6.344  1.00  0.00     0.010 A 
ATOM     33  C   UNL     1      -1.663   3.112   5.349  1.00  0.00    -0.014 A 
BRANCH  33  34
ATOM     34  C   UNL     1      -1.793   4.573   5.621  1.00  0.00     0.031 A 
ATOM     35  C   UNL     1      -0.613   5.365   6.122  1.00  0.00     0.074 A 
ATOM     36  C   UNL     1      -2.948   5.217   5.352  1.00  0.00     0.049 A 
ATOM     37  N   UNL     1      -0.552   6.624   6.482  1.00  0.00    -0.248 NA
ATOM     38  C   UNL     1       0.667   4.650   6.239  1.00  0.00     0.031 C 
ATOM     39  C   UNL     1      -4.159   4.592   4.822  1.00  0.00     0.029 A 
ATOM     40  N   UNL     1      -3.284   6.545   5.467  1.00  0.00    -0.354 N 
ATOM     41  C   UNL     1       0.749   6.832   6.926  1.00  0.00     0.074 A 
ATOM     42  C   UNL     1       1.446   5.572   6.785  1.00  0.00     0.031 C 
ATOM     43  C   UNL     1      -5.088   5.537   4.614  1.00  0.00     0.029 A 
ATOM     44  C   UNL     1      -4.571   6.822   5.069  1.00  0.00     0.049 A 
ATOM     45  H   UNL     1      -2.663   7.232   5.801  1.00  0.00     0.167 HD
ATOM     46  C   UNL     1       1.311   7.968   7.407  1.00  0.00     0.037 A 
ATOM     47  C   UNL     1      -5.270   7.973   5.094  1.00  0.00     0.037 A 
ATOM     48  C   UNL     1       0.637   9.238   7.500  1.00  0.00     0.049 A 
ATOM     49  C   UNL     1      -4.628   9.216   5.643  1.00  0.00     0.074 A 
ATOM     50  C   UNL     1       1.133  10.446   7.959  1.00  0.00     0.029 A 
ATOM     51  N   UNL     1      -0.675   9.467   7.116  1.00  0.00    -0.354 N 
ATOM     52  N   UNL     1      -3.408   9.388   6.090  1.00  0.00    -0.248 NA
ATOM     53  C   UNL     1      -5.466  10.422   5.705  1.00  0.00     0.031 C 
ATOM     54  C   UNL     1       0.111  11.398   7.887  1.00  0.00     0.029 A 
ATOM     55  C   UNL     1      -1.007  10.795   7.336  1.00  0.00     0.049 A 
ATOM     56  H   UNL     1      -1.281   8.788   6.742  1.00  0.00     0.167 HD
ATOM     57  C   UNL     1      -3.329  10.719   6.476  1.00  0.00     0.074 A 
ATOM     58  C   UNL     1      -4.614  11.318   6.184  1.00  0.00     0.031 C 
ATOM     59  C   UNL     1      -2.287  11.383   7.033  1.00  0.00     0.037 A 
BRANCH  46  60
ATOM     60  C   UNL     1       2.725   7.888   7.906  1.00  0.00     0.064 A 
ATOM     61  C   UNL     1       3.816   7.760   7.034  1.00  0.00     0.173 A 
ATOM     62  C   UNL     1       2.993   7.991   9.281  1.00  0.00     0.173 A 
ATOM     63  F   UNL     1       3.613   7.645   5.713  1.00  0.00    -0.203 F 
ATOM     64  C   UNL     1       5.120   7.713   7.521  1.00  0.00     0.198 A 
ATOM     65  C   UNL     1       4.300   7.973   9.762  1.00  0.00     0.198 A 
ATOM     66  F   UNL     1       1.986   8.123  10.157  1.00  0.00    -0.203 F 
ATOM     67  F   UNL     1       6.145   7.546   6.673  1.00  0.00    -0.200 F 
ATOM     68  C   UNL     1       5.362   7.828   8.883  1.00  0.00     0.200 A 
ATOM     69  F   UNL     1       4.530   8.099  11.076  1.00  0.00    -0.200 F 
ATOM     70  F   UNL     1       6.618   7.792   9.348  1.00  0.00    -0.200 F 
ENDBRANCH  46  60
BRANCH  47  71
ATOM     71  C   UNL     1      -6.672   8.000   4.600  1.00  0.00     0.064 A 
ATOM     72  C   UNL     1      -7.013   8.709   3.440  1.00  0.00     0.173 A 
ATOM     73  C   UNL     1      -7.699   7.324   5.276  1.00  0.00     0.173 A 
ATOM     74  F   UNL     1      -6.070   9.391   2.773  1.00  0.00    -0.203 F 
ATOM     75  C   UNL     1      -8.328   8.753   2.983  1.00  0.00     0.198 A 
ATOM     76  C   UNL     1      -9.008   7.340   4.799  1.00  0.00     0.198 A 
ATOM     77  F   UNL     1      -7.426   6.631   6.391  1.00  0.00    -0.203 F 
ATOM     78  F   UNL     1      -8.634   9.477   1.898  1.00  0.00    -0.200 F 
ATOM     79  C   UNL     1      -9.323   8.061   3.658  1.00  0.00     0.200 A 
ATOM     80  F   UNL     1      -9.962   6.657   5.446  1.00  0.00    -0.200 F 
ATOM     81  F   UNL     1     -10.586   8.096   3.214  1.00  0.00    -0.200 F 
ENDBRANCH  47  71
BRANCH  59  82
ATOM     82  C   UNL     1      -2.480  12.842   7.330  1.00  0.00     0.064 A 
ATOM     83  C   UNL     1      -3.299  13.277   8.381  1.00  0.00     0.173 A 
ATOM     84  C   UNL     1      -1.815  13.815   6.568  1.00  0.00     0.173 A 
ATOM     85  F   UNL     1      -3.969  12.387   9.128  1.00  0.00    -0.203 F 
ATOM     86  C   UNL     1      -3.468  14.635   8.642  1.00  0.00     0.198 A 
ATOM     87  C   UNL     1      -1.964  15.170   6.850  1.00  0.00     0.198 A 
ATOM     88  F   UNL     1      -1.015  13.451   5.555  1.00  0.00    -0.203 F 
ATOM     89  F   UNL     1      -4.295  15.030   9.620  1.00  0.00    -0.200 F 
ATOM     90  C   UNL     1      -2.796  15.579   7.880  1.00  0.00     0.200 A 
ATOM     91  F   UNL     1      -1.304  16.081   6.120  1.00  0.00    -0.200 F 
ATOM     92  F   UNL     1      -2.958  16.885   8.134  1.00  0.00    -0.200 F 
ENDBRANCH  59  82
ENDBRANCH  33  34
ENDBRANCH  26  28
ENDBRANCH  25  26
ENDBRANCH  24  25
ENDBRANCH   1  24
TORSDOF 13
