REMARK SMILES CCc1cccc(CC)c1N1/C(=[NH+]/C(=O)CCCC(=O)OCCOC(=O)c2ccc(-c3c4nc(c(-c5c(F)c(F)c(F)c(F)c5F)c5ccc([nH]5)c(-c5c(F)c(F)c(F)c(F)c5F)c5nc(c(-c6c(F)c(F)c(F)c(F)c6F)c6ccc3[nH]6)C=C5)C=C4)cc2)S[C@@H]2CS(=O)(=O)C[C@@H]21
REMARK SMILES IDX 21 1 19 2 20 3 18 4 17 5 16 6 14 7 11 8 12 9 97 10 13 11
REMARK SMILES IDX 90 12 91 13 96 14 92 16 93 17 15 18 94 19 95 20 10 21 3 22
REMARK SMILES IDX 4 23 5 24 7 25 6 26 2 27 1 28 8 29 9 30 22 31 23 32 24 33
REMARK SMILES IDX 25 34 26 35 27 36 28 37 89 38 29 39 88 40 30 41 31 42 32 43
REMARK SMILES IDX 82 44 33 45 87 46 81 47 83 48 34 49 86 50 80 51 79 52 35 54
REMARK SMILES IDX 67 55 47 56 66 57 48 58 51 59 65 60 84 61 49 62 50 63 64 65
REMARK SMILES IDX 85 66 52 67 36 68 37 69 45 70 38 71 39 72 43 73 46 74 40 75
REMARK SMILES IDX 41 76 44 77 42 78 68 79 69 80 77 81 70 82 71 83 75 84 78 85
REMARK SMILES IDX 72 86 73 87 76 88 74 89 53 90 54 91 62 92 55 93 56 94 60 95
REMARK SMILES IDX 63 96 57 97 58 98 61 99 59 100
REMARK H PARENT 13 15 83 53 51 64
REMARK Flexibility Score: inf
ROOT
ATOM      1  O   UNL     1      -3.232  -1.207   1.987  1.00  0.00    -0.462 OA
ENDROOT
BRANCH   1   2
ATOM      2  C   UNL     1      -2.622  -1.258   0.782  1.00  0.00     0.305 C 
ATOM      3  O   UNL     1      -2.472  -2.279   0.120  1.00  0.00    -0.252 OA
BRANCH   2   4
ATOM      4  C   UNL     1      -2.177   0.099   0.283  1.00  0.00     0.123 C 
BRANCH   4   5
ATOM      5  C   UNL     1      -2.641   1.350   1.009  1.00  0.00     0.024 C 
BRANCH   5   6
ATOM      6  C   UNL     1      -2.262   1.459   2.481  1.00  0.00     0.128 C 
BRANCH   6   7
ATOM      7  C   UNL     1      -0.770   1.398   2.763  1.00  0.00     0.307 C 
ATOM      8  N   UNL     1       1.910  -0.948   1.811  1.00  0.00    -0.216 N 
ATOM      9  C   UNL     1       1.138   0.049   2.434  1.00  0.00     0.319 C 
ATOM     10  C   UNL     1       3.372  -0.887   2.088  1.00  0.00     0.212 C 
ATOM     11  N   UNL     1      -0.136   0.247   2.324  1.00  0.00    -0.204 N 
ATOM     12  S   UNL     1       2.224   1.086   3.393  1.00  0.00    -0.029 SA
ATOM     13  C   UNL     1       3.685   0.554   2.507  1.00  0.00     0.120 C 
ATOM     14  C   UNL     1       4.286  -1.247   0.918  1.00  0.00     0.188 C 
ATOM     15  H   UNL     1      -0.684  -0.456   1.907  1.00  0.00     0.316 HD
ATOM     16  C   UNL     1       3.923   1.366   1.249  1.00  0.00     0.156 C 
ATOM     17  S   UNL     1       4.978   0.282   0.321  1.00  0.00     0.155 S 
ATOM     18  O   UNL     1      -0.255   2.376   3.300  1.00  0.00    -0.247 OA
ATOM     19  O   UNL     1       4.712   0.427  -1.091  1.00  0.00    -0.229 OA
ATOM     20  O   UNL     1       6.316   0.407   0.865  1.00  0.00    -0.229 OA
BRANCH   8  21
ATOM     21  C   UNL     1       1.425  -2.183   1.297  1.00  0.00     0.134 A 
ATOM     22  C   UNL     1       0.990  -2.324  -0.053  1.00  0.00    -0.001 A 
ATOM     23  C   UNL     1       0.704  -3.623  -0.555  1.00  0.00     0.008 A 
ATOM     24  C   UNL     1       0.891  -4.770   0.193  1.00  0.00     0.001 A 
ATOM     25  C   UNL     1       1.527  -3.379   2.089  1.00  0.00    -0.001 A 
ATOM     26  C   UNL     1       1.311  -4.646   1.502  1.00  0.00     0.008 A 
BRANCH  22  27
ATOM     27  C   UNL     1       0.759  -1.270  -1.124  1.00  0.00     0.036 C 
ATOM     28  C   UNL     1       1.247   0.153  -1.001  1.00  0.00     0.009 C 
ENDBRANCH  22  27
BRANCH  25  29
ATOM     29  C   UNL     1       1.907  -3.394   3.562  1.00  0.00     0.036 C 
ATOM     30  C   UNL     1       0.963  -4.210   4.445  1.00  0.00     0.009 C 
ENDBRANCH  25  29
ENDBRANCH   8  21
ENDBRANCH   6   7
ENDBRANCH   5   6
ENDBRANCH   4   5
ENDBRANCH   2   4
ENDBRANCH   1   2
BRANCH   1  31
ATOM     31  C   UNL     1      -3.865  -2.412   2.446  1.00  0.00     0.274 C 
BRANCH  31  32
ATOM     32  C   UNL     1      -5.355  -2.375   2.103  1.00  0.00     0.275 C 
BRANCH  32  33
ATOM     33  O   UNL     1      -5.569  -2.501   0.683  1.00  0.00    -0.458 OA
BRANCH  33  34
ATOM     34  C   UNL     1      -5.664  -1.333   0.007  1.00  0.00     0.338 C 
ATOM     35  O   UNL     1      -5.646  -0.202   0.464  1.00  0.00    -0.246 OA
BRANCH  34  36
ATOM     36  C   UNL     1      -5.696  -1.592  -1.438  1.00  0.00     0.060 A 
ATOM     37  C   UNL     1      -4.552  -1.338  -2.194  1.00  0.00     0.016 A 
ATOM     38  C   UNL     1      -6.883  -1.961  -2.061  1.00  0.00     0.016 A 
ATOM     39  C   UNL     1      -4.587  -1.403  -3.578  1.00  0.00     0.010 A 
ATOM     40  C   UNL     1      -6.908  -2.083  -3.453  1.00  0.00     0.010 A 
ATOM     41  C   UNL     1      -5.765  -1.788  -4.219  1.00  0.00    -0.014 A 
BRANCH  41  42
ATOM     42  C   UNL     1      -5.801  -1.862  -5.696  1.00  0.00     0.031 A 
ATOM     43  C   UNL     1      -6.667  -0.910  -6.465  1.00  0.00     0.074 A 
ATOM     44  C   UNL     1      -5.055  -2.782  -6.334  1.00  0.00     0.049 A 
ATOM     45  N   UNL     1      -6.968  -0.909  -7.737  1.00  0.00    -0.248 NA
ATOM     46  C   UNL     1      -7.285   0.181  -5.696  1.00  0.00     0.031 C 
ATOM     47  C   UNL     1      -4.130  -3.716  -5.689  1.00  0.00     0.029 A 
ATOM     48  N   UNL     1      -4.967  -3.093  -7.666  1.00  0.00    -0.354 N 
ATOM     49  C   UNL     1      -7.839   0.157  -7.916  1.00  0.00     0.074 A 
ATOM     50  C   UNL     1      -8.030   0.771  -6.620  1.00  0.00     0.031 C 
ATOM     51  C   UNL     1      -3.569  -4.496  -6.625  1.00  0.00     0.029 A 
ATOM     52  C   UNL     1      -4.150  -4.167  -7.922  1.00  0.00     0.049 A 
ATOM     53  H   UNL     1      -5.441  -2.594  -8.370  1.00  0.00     0.167 HD
ATOM     54  C   UNL     1      -8.422   0.576  -9.063  1.00  0.00     0.037 A 
ATOM     55  C   UNL     1      -3.936  -4.841  -9.066  1.00  0.00     0.037 A 
ATOM     56  C   UNL     1      -8.201  -0.039 -10.347  1.00  0.00     0.049 A 
ATOM     57  C   UNL     1      -4.654  -4.399 -10.312  1.00  0.00     0.074 A 
ATOM     58  C   UNL     1      -8.727   0.317 -11.576  1.00  0.00     0.029 A 
ATOM     59  N   UNL     1      -7.386  -1.142 -10.564  1.00  0.00    -0.354 N 
ATOM     60  N   UNL     1      -5.486  -3.400 -10.477  1.00  0.00    -0.248 NA
ATOM     61  C   UNL     1      -4.409  -5.184 -11.529  1.00  0.00     0.031 C 
ATOM     62  C   UNL     1      -8.277  -0.606 -12.526  1.00  0.00     0.029 A 
ATOM     63  C   UNL     1      -7.418  -1.498 -11.902  1.00  0.00     0.049 A 
ATOM     64  H   UNL     1      -6.863  -1.603  -9.869  1.00  0.00     0.167 HD
ATOM     65  C   UNL     1      -5.842  -3.416 -11.818  1.00  0.00     0.074 A 
ATOM     66  C   UNL     1      -5.123  -4.518 -12.425  1.00  0.00     0.031 C 
ATOM     67  C   UNL     1      -6.686  -2.593 -12.487  1.00  0.00     0.037 A 
BRANCH  54  68
ATOM     68  C   UNL     1      -9.385   1.725  -8.976  1.00  0.00     0.064 A 
ATOM     69  C   UNL     1      -8.961   3.034  -8.704  1.00  0.00     0.173 A 
ATOM     70  C   UNL     1     -10.755   1.514  -9.201  1.00  0.00     0.173 A 
ATOM     71  F   UNL     1      -7.666   3.289  -8.466  1.00  0.00    -0.203 F 
ATOM     72  C   UNL     1      -9.875   4.083  -8.632  1.00  0.00     0.198 A 
ATOM     73  C   UNL     1     -11.661   2.570  -9.162  1.00  0.00     0.198 A 
ATOM     74  F   UNL     1     -11.215   0.282  -9.469  1.00  0.00    -0.203 F 
ATOM     75  F   UNL     1      -9.454   5.316  -8.320  1.00  0.00    -0.200 F 
ATOM     76  C   UNL     1     -11.222   3.852  -8.869  1.00  0.00     0.200 A 
ATOM     77  F   UNL     1     -12.960   2.346  -9.404  1.00  0.00    -0.200 F 
ATOM     78  F   UNL     1     -12.098   4.864  -8.808  1.00  0.00    -0.200 F 
ENDBRANCH  54  68
BRANCH  55  79
ATOM     79  C   UNL     1      -3.031  -6.020  -9.075  1.00  0.00     0.064 A 
ATOM     80  C   UNL     1      -1.818  -5.994  -9.776  1.00  0.00     0.173 A 
ATOM     81  C   UNL     1      -3.360  -7.197  -8.384  1.00  0.00     0.173 A 
ATOM     82  F   UNL     1      -1.469  -4.900 -10.469  1.00  0.00    -0.203 F 
ATOM     83  C   UNL     1      -0.978  -7.106  -9.802  1.00  0.00     0.198 A 
ATOM     84  C   UNL     1      -2.503  -8.296  -8.383  1.00  0.00     0.198 A 
ATOM     85  F   UNL     1      -4.508  -7.275  -7.695  1.00  0.00    -0.203 F 
ATOM     86  F   UNL     1       0.152  -7.071 -10.520  1.00  0.00    -0.200 F 
ATOM     87  C   UNL     1      -1.318  -8.253  -9.100  1.00  0.00     0.200 A 
ATOM     88  F   UNL     1      -2.828  -9.395  -7.689  1.00  0.00    -0.200 F 
ATOM     89  F   UNL     1      -0.506  -9.319  -9.121  1.00  0.00    -0.200 F 
ENDBRANCH  55  79
BRANCH  67  90
ATOM     90  C   UNL     1      -6.843  -2.824 -13.962  1.00  0.00     0.064 A 
ATOM     91  C   UNL     1      -7.534  -3.934 -14.468  1.00  0.00     0.173 A 
ATOM     92  C   UNL     1      -6.333  -1.893 -14.880  1.00  0.00     0.173 A 
ATOM     93  F   UNL     1      -8.026  -4.861 -13.632  1.00  0.00    -0.203 F 
ATOM     94  C   UNL     1      -7.688  -4.116 -15.839  1.00  0.00     0.198 A 
ATOM     95  C   UNL     1      -6.518  -2.060 -16.249  1.00  0.00     0.198 A 
ATOM     96  F   UNL     1      -5.669  -0.810 -14.448  1.00  0.00    -0.203 F 
ATOM     97  F   UNL     1      -8.309  -5.210 -16.302  1.00  0.00    -0.200 F 
ATOM     98  C   UNL     1      -7.189  -3.175 -16.728  1.00  0.00     0.200 A 
ATOM     99  F   UNL     1      -6.050  -1.141 -17.105  1.00  0.00    -0.200 F 
ATOM    100  F   UNL     1      -7.349  -3.347 -18.047  1.00  0.00    -0.200 F 
ENDBRANCH  67  90
ENDBRANCH  41  42
ENDBRANCH  34  36
ENDBRANCH  33  34
ENDBRANCH  32  33
ENDBRANCH  31  32
ENDBRANCH   1  31
TORSDOF 17
