REMARK SMILES N#CNC(=O)[C@H]1C[C@@H]1C(=O)OCCOC(=O)c1ccc(-c2c3nc(c(-c4c(F)c(F)c(F)c(F)c4F)c4ccc([nH]4)c(-c4c(F)c(F)c(F)c(F)c4F)c4nc(c(-c5c(F)c(F)c(F)c(F)c5F)c5ccc2[nH]5)C=C4)C=C3)cc1
REMARK SMILES IDX 12 1 11 2 9 3 10 4 8 5 6 6 7 7 4 8 3 9 5 11 2 12 1 13 13 14
REMARK SMILES IDX 14 15 15 16 16 17 17 18 18 19 79 20 19 21 78 22 20 23 21 24
REMARK SMILES IDX 22 25 72 26 23 27 77 28 71 29 73 30 24 31 76 32 70 33 69 34
REMARK SMILES IDX 25 36 57 37 37 38 56 39 38 40 41 41 55 42 74 43 39 44 40 45
REMARK SMILES IDX 54 47 75 48 42 49 26 50 27 51 35 52 28 53 29 54 33 55 36 56
REMARK SMILES IDX 30 57 31 58 34 59 32 60 58 61 59 62 67 63 60 64 61 65 65 66
REMARK SMILES IDX 68 67 62 68 63 69 66 70 64 71 43 72 44 73 52 74 45 75 46 76
REMARK SMILES IDX 50 77 53 78 47 79 48 80 51 81 49 82
REMARK H PARENT 3 10 73 35 41 46
REMARK Flexibility Score: inf
ROOT
ATOM      1  C   UNL     1       6.133   5.410  -1.520  1.00  0.00     0.274 C 
ENDROOT
BRANCH   1   2
ATOM      2  O   UNL     1       5.074   4.771  -2.265  1.00  0.00    -0.462 OA
BRANCH   2   3
ATOM      3  C   UNL     1       5.189   3.433  -2.461  1.00  0.00     0.309 C 
ATOM      4  O   UNL     1       6.168   2.751  -2.188  1.00  0.00    -0.252 OA
BRANCH   3   5
ATOM      5  C   UNL     1       3.933   2.824  -2.999  1.00  0.00     0.112 C 
ATOM      6  C   UNL     1       3.655   1.348  -2.757  1.00  0.00     0.094 C 
ATOM      7  C   UNL     1       4.028   1.837  -4.137  1.00  0.00     0.030 C 
BRANCH   6   8
ATOM      8  C   UNL     1       2.336   0.696  -2.583  1.00  0.00     0.236 C 
ATOM      9  N   UNL     1       1.361   1.216  -1.789  1.00  0.00    -0.262 N 
ATOM     10  H   UNL     1       0.583   0.614  -1.750  1.00  0.00     0.182 HD
ATOM     11  O   UNL     1       2.147  -0.393  -3.119  1.00  0.00    -0.274 OA
BRANCH   9  12
ATOM     12  C   UNL     1       1.157   2.307  -1.047  1.00  0.00     0.183 C 
ATOM     13  N   UNL     1       0.825   3.188  -0.377  1.00  0.00    -0.172 NA
ENDBRANCH   9  12
ENDBRANCH   6   8
ENDBRANCH   3   5
ENDBRANCH   2   3
ENDBRANCH   1   2
BRANCH   1  14
ATOM     14  C   UNL     1       5.681   5.743  -0.091  1.00  0.00     0.275 C 
BRANCH  14  15
ATOM     15  O   UNL     1       5.540   4.555   0.717  1.00  0.00    -0.458 OA
BRANCH  15  16
ATOM     16  C   UNL     1       4.311   4.002   0.640  1.00  0.00     0.338 C 
ATOM     17  O   UNL     1       3.375   4.415  -0.023  1.00  0.00    -0.246 OA
BRANCH  16  18
ATOM     18  C   UNL     1       4.254   2.695   1.310  1.00  0.00     0.060 A 
ATOM     19  C   UNL     1       4.381   1.573   0.499  1.00  0.00     0.016 A 
ATOM     20  C   UNL     1       3.858   2.551   2.633  1.00  0.00     0.016 A 
ATOM     21  C   UNL     1       3.992   0.320   0.949  1.00  0.00     0.010 A 
ATOM     22  C   UNL     1       3.598   1.264   3.131  1.00  0.00     0.010 A 
ATOM     23  C   UNL     1       3.626   0.136   2.285  1.00  0.00    -0.014 A 
BRANCH  23  24
ATOM     24  C   UNL     1       3.289  -1.231   2.778  1.00  0.00     0.031 A 
ATOM     25  C   UNL     1       1.964  -1.510   3.434  1.00  0.00     0.074 A 
ATOM     26  C   UNL     1       4.179  -2.236   2.635  1.00  0.00     0.049 A 
ATOM     27  N   UNL     1       1.552  -2.592   4.048  1.00  0.00    -0.248 NA
ATOM     28  C   UNL     1       0.976  -0.422   3.411  1.00  0.00     0.031 C 
ATOM     29  C   UNL     1       5.485  -2.124   1.983  1.00  0.00     0.029 A 
ATOM     30  N   UNL     1       4.123  -3.550   3.033  1.00  0.00    -0.354 N 
ATOM     31  C   UNL     1       0.281  -2.298   4.527  1.00  0.00     0.074 A 
ATOM     32  C   UNL     1       0.001  -0.927   4.152  1.00  0.00     0.031 C 
ATOM     33  C   UNL     1       6.093  -3.317   2.000  1.00  0.00     0.029 A 
ATOM     34  C   UNL     1       5.270  -4.253   2.755  1.00  0.00     0.049 A 
ATOM     35  H   UNL     1       3.339  -3.949   3.474  1.00  0.00     0.167 HD
ATOM     36  C   UNL     1      -0.569  -3.097   5.219  1.00  0.00     0.037 A 
ATOM     37  C   UNL     1       5.654  -5.494   3.111  1.00  0.00     0.037 A 
ATOM     38  C   UNL     1      -0.286  -4.466   5.574  1.00  0.00     0.049 A 
ATOM     39  C   UNL     1       4.726  -6.339   3.933  1.00  0.00     0.074 A 
ATOM     40  C   UNL     1      -1.095  -5.369   6.242  1.00  0.00     0.029 A 
ATOM     41  N   UNL     1       0.904  -5.128   5.302  1.00  0.00    -0.354 N 
ATOM     42  N   UNL     1       3.530  -6.052   4.386  1.00  0.00    -0.248 NA
ATOM     43  C   UNL     1       5.203  -7.678   4.300  1.00  0.00     0.031 C 
ATOM     44  C   UNL     1      -0.365  -6.544   6.450  1.00  0.00     0.029 A 
ATOM     45  C   UNL     1       0.867  -6.412   5.829  1.00  0.00     0.049 A 
ATOM     46  H   UNL     1       1.664  -4.743   4.808  1.00  0.00     0.167 HD
ATOM     47  C   UNL     1       3.099  -7.182   5.067  1.00  0.00     0.074 A 
ATOM     48  C   UNL     1       4.158  -8.163   4.955  1.00  0.00     0.031 C 
ATOM     49  C   UNL     1       1.928  -7.384   5.722  1.00  0.00     0.037 A 
BRANCH  36  50
ATOM     50  C   UNL     1      -1.861  -2.486   5.695  1.00  0.00     0.064 A 
ATOM     51  C   UNL     1      -2.864  -2.058   4.811  1.00  0.00     0.173 A 
ATOM     52  C   UNL     1      -2.096  -2.322   7.070  1.00  0.00     0.173 A 
ATOM     53  F   UNL     1      -2.696  -2.185   3.485  1.00  0.00    -0.203 F 
ATOM     54  C   UNL     1      -4.019  -1.436   5.280  1.00  0.00     0.198 A 
ATOM     55  C   UNL     1      -3.272  -1.741   7.538  1.00  0.00     0.198 A 
ATOM     56  F   UNL     1      -1.183  -2.724   7.967  1.00  0.00    -0.203 F 
ATOM     57  F   UNL     1      -4.922  -0.960   4.410  1.00  0.00    -0.200 F 
ATOM     58  C   UNL     1      -4.224  -1.281   6.642  1.00  0.00     0.200 A 
ATOM     59  F   UNL     1      -3.477  -1.614   8.856  1.00  0.00    -0.200 F 
ATOM     60  F   UNL     1      -5.334  -0.679   7.092  1.00  0.00    -0.200 F 
ENDBRANCH  36  50
BRANCH  37  61
ATOM     61  C   UNL     1       7.003  -5.981   2.717  1.00  0.00     0.064 A 
ATOM     62  C   UNL     1       7.157  -7.017   1.788  1.00  0.00     0.173 A 
ATOM     63  C   UNL     1       8.168  -5.393   3.237  1.00  0.00     0.173 A 
ATOM     64  F   UNL     1       6.076  -7.627   1.280  1.00  0.00    -0.203 F 
ATOM     65  C   UNL     1       8.423  -7.450   1.397  1.00  0.00     0.198 A 
ATOM     66  C   UNL     1       9.431  -5.801   2.817  1.00  0.00     0.198 A 
ATOM     67  F   UNL     1       8.076  -4.394   4.127  1.00  0.00    -0.203 F 
ATOM     68  F   UNL     1       8.543  -8.469   0.534  1.00  0.00    -0.200 F 
ATOM     69  C   UNL     1       9.558  -6.834   1.903  1.00  0.00     0.200 A 
ATOM     70  F   UNL     1      10.523  -5.187   3.292  1.00  0.00    -0.200 F 
ATOM     71  F   UNL     1      10.774  -7.238   1.510  1.00  0.00    -0.200 F 
ENDBRANCH  37  61
BRANCH  49  72
ATOM     72  C   UNL     1       1.707  -8.740   6.334  1.00  0.00     0.064 A 
ATOM     73  C   UNL     1       2.449  -9.192   7.436  1.00  0.00     0.173 A 
ATOM     74  C   UNL     1       0.713  -9.591   5.824  1.00  0.00     0.173 A 
ATOM     75  F   UNL     1       3.422  -8.427   7.955  1.00  0.00    -0.203 F 
ATOM     76  C   UNL     1       2.229 -10.455   7.980  1.00  0.00     0.198 A 
ATOM     77  C   UNL     1       0.467 -10.835   6.397  1.00  0.00     0.198 A 
ATOM     78  F   UNL     1      -0.032  -9.210   4.776  1.00  0.00    -0.203 F 
ATOM     79  F   UNL     1       2.994 -10.889   8.992  1.00  0.00    -0.200 F 
ATOM     80  C   UNL     1       1.232 -11.271   7.467  1.00  0.00     0.200 A 
ATOM     81  F   UNL     1      -0.511 -11.613   5.912  1.00  0.00    -0.200 F 
ATOM     82  F   UNL     1       1.015 -12.482   7.998  1.00  0.00    -0.200 F 
ENDBRANCH  49  72
ENDBRANCH  23  24
ENDBRANCH  16  18
ENDBRANCH  15  16
ENDBRANCH  14  15
ENDBRANCH   1  14
TORSDOF 13
