REMARK SMILES C[C@@]1(C(=O)N[C@@H](CO)C(=O)OCCOC(=O)c2ccc(-c3c4nc(c(-c5c(F)c(F)c(F)c(F)c5F)c5ccc([nH]5)c(-c5c(F)c(F)c(F)c(F)c5F)c5nc(c(-c6c(F)c(F)c(F)c(F)c6F)c6ccc3[nH]6)C=C5)C=C4)cc2)CCCO1
REMARK SMILES IDX 12 1 11 2 9 3 10 4 6 5 5 6 3 7 4 8 2 10 1 11 80 12 83 13
REMARK SMILES IDX 81 14 82 15 7 16 8 17 13 19 14 20 15 21 16 22 17 23 18 24
REMARK SMILES IDX 79 25 19 26 78 27 20 28 21 29 22 30 72 31 23 32 77 33 71 34
REMARK SMILES IDX 73 35 24 36 76 37 70 38 69 39 25 41 57 42 37 43 56 44 38 45
REMARK SMILES IDX 41 46 55 47 74 48 39 49 40 50 54 52 75 53 42 54 26 55 27 56
REMARK SMILES IDX 35 57 28 58 29 59 33 60 36 61 30 62 31 63 34 64 32 65 58 66
REMARK SMILES IDX 59 67 67 68 60 69 61 70 65 71 68 72 62 73 63 74 66 75 64 76
REMARK SMILES IDX 43 77 44 78 52 79 45 80 46 81 50 82 53 83 47 84 48 85 51 86
REMARK SMILES IDX 49 87
REMARK H PARENT 5 9 8 18 73 40 41 51
REMARK Flexibility Score: inf
ROOT
ATOM      1  C   UNL     1      -1.686   1.743   6.685  1.00  0.00     0.274 C 
ENDROOT
BRANCH   1   2
ATOM      2  O   UNL     1      -1.811   1.656   5.251  1.00  0.00    -0.460 OA
BRANCH   2   3
ATOM      3  C   UNL     1      -1.410   2.746   4.540  1.00  0.00     0.331 C 
ATOM      4  O   UNL     1      -0.980   3.787   5.024  1.00  0.00    -0.250 OA
BRANCH   3   5
ATOM      5  C   UNL     1      -1.599   2.551   3.033  1.00  0.00     0.218 C 
BRANCH   5   6
ATOM      6  N   UNL     1      -1.757   1.145   2.651  1.00  0.00    -0.338 N 
ATOM      7  C   UNL     1      -1.167   0.430   1.650  1.00  0.00     0.252 C 
ATOM      8  O   UNL     1      -1.495  -0.756   1.549  1.00  0.00    -0.272 OA
ATOM      9  H   UNL     1      -2.390   0.634   3.207  1.00  0.00     0.164 HD
BRANCH   7  10
ATOM     10  C   UNL     1      -0.086   1.066   0.726  1.00  0.00     0.143 C 
ATOM     11  C   UNL     1       0.180   0.134  -0.467  1.00  0.00     0.053 C 
ATOM     12  C   UNL     1       1.226   1.311   1.481  1.00  0.00     0.048 C 
ATOM     13  O   UNL     1      -0.495   2.344   0.209  1.00  0.00    -0.365 OA
ATOM     14  C   UNL     1       1.593   2.753   1.190  1.00  0.00     0.032 C 
ATOM     15  C   UNL     1       0.675   3.154   0.062  1.00  0.00     0.162 C 
ENDBRANCH   7  10
ENDBRANCH   5   6
BRANCH   5  16
ATOM     16  C   UNL     1      -2.798   3.389   2.580  1.00  0.00     0.193 C 
BRANCH  16  17
ATOM     17  O   UNL     1      -4.029   2.814   3.024  1.00  0.00    -0.394 OA
ATOM     18  H   UNL     1      -4.126   1.926   2.647  1.00  0.00     0.210 HD
ENDBRANCH  16  17
ENDBRANCH   5  16
ENDBRANCH   3   5
ENDBRANCH   2   3
ENDBRANCH   1   2
BRANCH   1  19
ATOM     19  C   UNL     1      -0.605   0.778   7.156  1.00  0.00     0.275 C 
BRANCH  19  20
ATOM     20  O   UNL     1       0.655   1.188   6.593  1.00  0.00    -0.458 OA
BRANCH  20  21
ATOM     21  C   UNL     1       1.368   0.220   5.975  1.00  0.00     0.338 C 
ATOM     22  O   UNL     1       1.096  -0.966   5.902  1.00  0.00    -0.246 OA
BRANCH  21  23
ATOM     23  C   UNL     1       2.580   0.800   5.361  1.00  0.00     0.060 A 
ATOM     24  C   UNL     1       2.534   2.024   4.693  1.00  0.00     0.016 A 
ATOM     25  C   UNL     1       3.756   0.047   5.348  1.00  0.00     0.016 A 
ATOM     26  C   UNL     1       3.631   2.434   3.928  1.00  0.00     0.010 A 
ATOM     27  C   UNL     1       4.881   0.512   4.656  1.00  0.00     0.010 A 
ATOM     28  C   UNL     1       4.821   1.688   3.889  1.00  0.00    -0.014 A 
BRANCH  28  29
ATOM     29  C   UNL     1       5.965   2.083   3.004  1.00  0.00     0.031 A 
ATOM     30  C   UNL     1       6.569   1.081   2.044  1.00  0.00     0.074 A 
ATOM     31  C   UNL     1       6.471   3.333   3.014  1.00  0.00     0.049 A 
ATOM     32  N   UNL     1       7.709   1.132   1.399  1.00  0.00    -0.248 NA
ATOM     33  C   UNL     1       5.796  -0.144   1.787  1.00  0.00     0.031 C 
ATOM     34  C   UNL     1       5.984   4.445   3.829  1.00  0.00     0.029 A 
ATOM     35  N   UNL     1       7.509   3.884   2.296  1.00  0.00    -0.354 N 
ATOM     36  C   UNL     1       7.833  -0.087   0.743  1.00  0.00     0.074 A 
ATOM     37  C   UNL     1       6.637  -0.847   1.041  1.00  0.00     0.031 C 
ATOM     38  C   UNL     1       6.669   5.555   3.516  1.00  0.00     0.029 A 
ATOM     39  C   UNL     1       7.723   5.214   2.567  1.00  0.00     0.049 A 
ATOM     40  H   UNL     1       8.047   3.373   1.649  1.00  0.00     0.167 HD
ATOM     41  C   UNL     1       8.854  -0.536  -0.027  1.00  0.00     0.037 A 
ATOM     42  C   UNL     1       8.686   6.059   2.149  1.00  0.00     0.037 A 
ATOM     43  C   UNL     1      10.001   0.248  -0.408  1.00  0.00     0.049 A 
ATOM     44  C   UNL     1       9.796   5.551   1.273  1.00  0.00     0.074 A 
ATOM     45  C   UNL     1      11.093  -0.129  -1.173  1.00  0.00     0.029 A 
ATOM     46  N   UNL     1      10.181   1.585  -0.090  1.00  0.00    -0.354 N 
ATOM     47  N   UNL     1       9.979   4.350   0.786  1.00  0.00    -0.248 NA
ATOM     48  C   UNL     1      10.855   6.510   0.925  1.00  0.00     0.031 C 
ATOM     49  C   UNL     1      11.939   0.978  -1.310  1.00  0.00     0.029 A 
ATOM     50  C   UNL     1      11.359   2.050  -0.654  1.00  0.00     0.049 A 
ATOM     51  H   UNL     1       9.564   2.124   0.456  1.00  0.00     0.167 HD
ATOM     52  C   UNL     1      11.180   4.402   0.092  1.00  0.00     0.074 A 
ATOM     53  C   UNL     1      11.663   5.763   0.185  1.00  0.00     0.031 C 
ATOM     54  C   UNL     1      11.834   3.403  -0.548  1.00  0.00     0.037 A 
BRANCH  41  55
ATOM     55  C   UNL     1       8.808  -1.963  -0.489  1.00  0.00     0.064 A 
ATOM     56  C   UNL     1       7.975  -2.381  -1.534  1.00  0.00     0.173 A 
ATOM     57  C   UNL     1       9.668  -2.913   0.088  1.00  0.00     0.173 A 
ATOM     58  F   UNL     1       7.127  -1.514  -2.107  1.00  0.00    -0.203 F 
ATOM     59  C   UNL     1       7.993  -3.702  -1.977  1.00  0.00     0.198 A 
ATOM     60  C   UNL     1       9.701  -4.225  -0.374  1.00  0.00     0.198 A 
ATOM     61  F   UNL     1      10.492  -2.560   1.086  1.00  0.00    -0.203 F 
ATOM     62  F   UNL     1       7.166  -4.088  -2.959  1.00  0.00    -0.200 F 
ATOM     63  C   UNL     1       8.861  -4.620  -1.403  1.00  0.00     0.200 A 
ATOM     64  F   UNL     1      10.550  -5.106   0.173  1.00  0.00    -0.200 F 
ATOM     65  F   UNL     1       8.886  -5.886  -1.842  1.00  0.00    -0.200 F 
ENDBRANCH  41  55
BRANCH  42  66
ATOM     66  C   UNL     1       8.675   7.470   2.612  1.00  0.00     0.064 A 
ATOM     67  C   UNL     1       8.387   8.515   1.724  1.00  0.00     0.173 A 
ATOM     68  C   UNL     1       8.935   7.800   3.950  1.00  0.00     0.173 A 
ATOM     69  F   UNL     1       8.164   8.251   0.429  1.00  0.00    -0.203 F 
ATOM     70  C   UNL     1       8.360   9.839   2.159  1.00  0.00     0.198 A 
ATOM     71  C   UNL     1       8.876   9.120   4.390  1.00  0.00     0.198 A 
ATOM     72  F   UNL     1       9.219   6.835   4.837  1.00  0.00    -0.203 F 
ATOM     73  F   UNL     1       8.115  10.824   1.284  1.00  0.00    -0.200 F 
ATOM     74  C   UNL     1       8.593  10.139   3.493  1.00  0.00     0.200 A 
ATOM     75  F   UNL     1       9.087   9.403   5.682  1.00  0.00    -0.200 F 
ATOM     76  F   UNL     1       8.550  11.410   3.914  1.00  0.00    -0.200 F 
ENDBRANCH  42  66
BRANCH  54  77
ATOM     77  C   UNL     1      13.142   3.745  -1.194  1.00  0.00     0.064 A 
ATOM     78  C   UNL     1      14.306   3.915  -0.430  1.00  0.00     0.173 A 
ATOM     79  C   UNL     1      13.239   3.882  -2.585  1.00  0.00     0.173 A 
ATOM     80  F   UNL     1      14.258   3.809   0.906  1.00  0.00    -0.203 F 
ATOM     81  C   UNL     1      15.519   4.230  -1.037  1.00  0.00     0.198 A 
ATOM     82  C   UNL     1      14.457   4.179  -3.191  1.00  0.00     0.198 A 
ATOM     83  F   UNL     1      12.153   3.728  -3.357  1.00  0.00    -0.203 F 
ATOM     84  F   UNL     1      16.612   4.425  -0.286  1.00  0.00    -0.200 F 
ATOM     85  C   UNL     1      15.594   4.358  -2.416  1.00  0.00     0.200 A 
ATOM     86  F   UNL     1      14.530   4.299  -4.523  1.00  0.00    -0.200 F 
ATOM     87  F   UNL     1      16.762   4.663  -2.999  1.00  0.00    -0.200 F 
ENDBRANCH  54  77
ENDBRANCH  28  29
ENDBRANCH  21  23
ENDBRANCH  20  21
ENDBRANCH  19  20
ENDBRANCH   1  19
TORSDOF 15
