REMARK SMILES O=C(OCCOC(=O)c1cc(Cl)cc(Cl)c1O)c1ccc(-c2c3nc(c(-c4c(F)c(F)c(F)c(F)c4F)c4ccc([nH]4)c(-c4c(F)c(F)c(F)c(F)c4F)c4nc(c(-c5c(F)c(F)c(F)c(F)c5F)c5ccc2[nH]5)C=C4)C=C3)cc1
REMARK SMILES IDX 4 1 3 2 2 3 1 4 18 5 19 6 80 7 20 8 79 9 21 10 22 11 23 12
REMARK SMILES IDX 73 13 24 14 78 15 72 16 74 17 25 18 77 19 71 20 70 21 26 23
REMARK SMILES IDX 58 24 38 25 57 26 39 27 42 28 56 29 75 30 40 31 41 32 55 34
REMARK SMILES IDX 76 35 43 36 27 37 28 38 36 39 29 40 30 41 34 42 37 43 31 44
REMARK SMILES IDX 32 45 35 46 33 47 59 48 60 49 68 50 61 51 62 52 66 53 69 54
REMARK SMILES IDX 63 55 64 56 67 57 65 58 44 59 45 60 53 61 46 62 47 63 51 64
REMARK SMILES IDX 54 65 48 66 49 67 52 68 50 69 5 70 6 71 7 72 8 73 9 74 10 75
REMARK SMILES IDX 16 76 11 77 14 78 12 79 13 80 15 81 17 82
REMARK H PARENT 74 22 42 33 17 83
REMARK Flexibility Score: inf
ROOT
ATOM      1  C   UNL     1       4.144   0.500  -1.532  1.00  0.00     0.275 C 
ENDROOT
BRANCH   1   2
ATOM      2  O   UNL     1       3.133  -0.463  -1.187  1.00  0.00    -0.458 OA
BRANCH   2   3
ATOM      3  C   UNL     1       2.954  -1.195  -0.063  1.00  0.00     0.338 C 
ATOM      4  O   UNL     1       2.087  -2.066  -0.059  1.00  0.00    -0.246 OA
BRANCH   3   5
ATOM      5  C   UNL     1       3.654  -0.906   1.226  1.00  0.00     0.060 A 
ATOM      6  C   UNL     1       4.926  -0.348   1.354  1.00  0.00     0.016 A 
ATOM      7  C   UNL     1       2.959  -1.232   2.407  1.00  0.00     0.016 A 
ATOM      8  C   UNL     1       5.456  -0.038   2.606  1.00  0.00     0.010 A 
ATOM      9  C   UNL     1       3.477  -0.916   3.666  1.00  0.00     0.010 A 
ATOM     10  C   UNL     1       4.736  -0.316   3.768  1.00  0.00    -0.014 A 
BRANCH  10  11
ATOM     11  C   UNL     1       5.396  -0.137   5.076  1.00  0.00     0.031 A 
ATOM     12  C   UNL     1       5.937  -1.350   5.766  1.00  0.00     0.074 A 
ATOM     13  C   UNL     1       5.593   1.091   5.588  1.00  0.00     0.049 A 
ATOM     14  N   UNL     1       6.606  -1.434   6.885  1.00  0.00    -0.248 NA
ATOM     15  C   UNL     1       5.730  -2.639   5.085  1.00  0.00     0.031 C 
ATOM     16  C   UNL     1       5.212   2.344   4.942  1.00  0.00     0.029 A 
ATOM     17  N   UNL     1       6.160   1.487   6.772  1.00  0.00    -0.354 N 
ATOM     18  C   UNL     1       6.936  -2.774   7.017  1.00  0.00     0.074 A 
ATOM     19  C   UNL     1       6.332  -3.480   5.910  1.00  0.00     0.031 C 
ATOM     20  C   UNL     1       5.497   3.368   5.764  1.00  0.00     0.029 A 
ATOM     21  C   UNL     1       6.068   2.839   6.995  1.00  0.00     0.049 A 
ATOM     22  H   UNL     1       6.590   0.864   7.401  1.00  0.00     0.167 HD
ATOM     23  C   UNL     1       7.711  -3.354   7.961  1.00  0.00     0.037 A 
ATOM     24  C   UNL     1       6.391   3.562   8.084  1.00  0.00     0.037 A 
ATOM     25  C   UNL     1       8.280  -2.642   9.072  1.00  0.00     0.049 A 
ATOM     26  C   UNL     1       7.091   2.866   9.217  1.00  0.00     0.074 A 
ATOM     27  C   UNL     1       9.073  -3.125  10.094  1.00  0.00     0.029 A 
ATOM     28  N   UNL     1       8.090  -1.287   9.313  1.00  0.00    -0.354 N 
ATOM     29  N   UNL     1       7.436   1.605   9.320  1.00  0.00    -0.248 NA
ATOM     30  C   UNL     1       7.488   3.694  10.362  1.00  0.00     0.031 C 
ATOM     31  C   UNL     1       9.312  -2.076  10.988  1.00  0.00     0.029 A 
ATOM     32  C   UNL     1       8.722  -0.924  10.491  1.00  0.00     0.049 A 
ATOM     33  H   UNL     1       7.582  -0.675   8.733  1.00  0.00     0.167 HD
ATOM     34  C   UNL     1       8.139   1.496  10.510  1.00  0.00     0.074 A 
ATOM     35  C   UNL     1       8.160   2.821  11.099  1.00  0.00     0.031 C 
ATOM     36  C   UNL     1       8.732   0.405  11.053  1.00  0.00     0.037 A 
BRANCH  23  37
ATOM     37  C   UNL     1       7.949  -4.828   7.829  1.00  0.00     0.064 A 
ATOM     38  C   UNL     1       8.743  -5.356   6.798  1.00  0.00     0.173 A 
ATOM     39  C   UNL     1       7.352  -5.726   8.723  1.00  0.00     0.173 A 
ATOM     40  F   UNL     1       9.316  -4.539   5.900  1.00  0.00    -0.203 F 
ATOM     41  C   UNL     1       8.900  -6.731   6.647  1.00  0.00     0.198 A 
ATOM     42  C   UNL     1       7.535  -7.100   8.587  1.00  0.00     0.198 A 
ATOM     43  F   UNL     1       6.579  -5.274   9.721  1.00  0.00    -0.203 F 
ATOM     44  F   UNL     1       9.610  -7.214   5.618  1.00  0.00    -0.200 F 
ATOM     45  C   UNL     1       8.300  -7.601   7.544  1.00  0.00     0.200 A 
ATOM     46  F   UNL     1       6.957  -7.940   9.457  1.00  0.00    -0.200 F 
ATOM     47  F   UNL     1       8.446  -8.925   7.395  1.00  0.00    -0.200 F 
ENDBRANCH  23  37
BRANCH  24  48
ATOM     48  C   UNL     1       6.051   5.007   8.150  1.00  0.00     0.064 A 
ATOM     49  C   UNL     1       7.038   5.999   8.100  1.00  0.00     0.173 A 
ATOM     50  C   UNL     1       4.716   5.422   8.286  1.00  0.00     0.173 A 
ATOM     51  F   UNL     1       8.329   5.653   7.992  1.00  0.00    -0.203 F 
ATOM     52  C   UNL     1       6.707   7.350   8.202  1.00  0.00     0.198 A 
ATOM     53  C   UNL     1       4.384   6.773   8.365  1.00  0.00     0.198 A 
ATOM     54  F   UNL     1       3.734   4.511   8.347  1.00  0.00    -0.203 F 
ATOM     55  F   UNL     1       7.675   8.277   8.194  1.00  0.00    -0.200 F 
ATOM     56  C   UNL     1       5.381   7.736   8.330  1.00  0.00     0.200 A 
ATOM     57  F   UNL     1       3.102   7.142   8.485  1.00  0.00    -0.200 F 
ATOM     58  F   UNL     1       5.066   9.034   8.432  1.00  0.00    -0.200 F 
ENDBRANCH  24  48
BRANCH  36  59
ATOM     59  C   UNL     1       9.501   0.608  12.324  1.00  0.00     0.064 A 
ATOM     60  C   UNL     1       8.861   0.860  13.544  1.00  0.00     0.173 A 
ATOM     61  C   UNL     1      10.901   0.501  12.322  1.00  0.00     0.173 A 
ATOM     62  F   UNL     1       7.526   0.989  13.593  1.00  0.00    -0.203 F 
ATOM     63  C   UNL     1       9.596   1.022  14.715  1.00  0.00     0.198 A 
ATOM     64  C   UNL     1      11.629   0.627  13.500  1.00  0.00     0.198 A 
ATOM     65  F   UNL     1      11.560   0.255  11.179  1.00  0.00    -0.203 F 
ATOM     66  F   UNL     1       8.968   1.313  15.862  1.00  0.00    -0.200 F 
ATOM     67  C   UNL     1      10.977   0.895  14.694  1.00  0.00     0.200 A 
ATOM     68  F   UNL     1      12.962   0.488  13.479  1.00  0.00    -0.200 F 
ATOM     69  F   UNL     1      11.682   1.039  15.824  1.00  0.00    -0.200 F 
ENDBRANCH  36  59
ENDBRANCH  10  11
ENDBRANCH   3   5
ENDBRANCH   2   3
ENDBRANCH   1   2
BRANCH   1  70
ATOM     70  C   UNL     1       3.867   1.938  -1.077  1.00  0.00     0.275 C 
BRANCH  70  71
ATOM     71  O   UNL     1       3.385   2.074   0.271  1.00  0.00    -0.458 OA
BRANCH  71  72
ATOM     72  C   UNL     1       2.037   2.002   0.403  1.00  0.00     0.342 C 
ATOM     73  O   UNL     1       1.225   1.777  -0.481  1.00  0.00    -0.246 OA
BRANCH  72  74
ATOM     74  C   UNL     1       1.643   2.056   1.821  1.00  0.00     0.104 A 
ATOM     75  C   UNL     1       2.157   3.045   2.665  1.00  0.00     0.040 A 
ATOM     76  C   UNL     1       0.733   1.109   2.314  1.00  0.00     0.148 A 
ATOM     77  C   UNL     1       1.772   3.065   4.006  1.00  0.00     0.043 A 
ATOM     78  C   UNL     1       0.433   1.092   3.682  1.00  0.00     0.085 A 
ATOM     79  Cl  UNL     1       2.279   4.359   5.021  1.00  0.00    -0.084 Cl
ATOM     80  C   UNL     1       0.953   2.068   4.530  1.00  0.00     0.045 A 
ATOM     81  Cl  UNL     1      -0.565  -0.139   4.368  1.00  0.00    -0.080 Cl
BRANCH  76  82
ATOM     82  O   UNL     1       0.157   0.162   1.507  1.00  0.00    -0.505 OA
ATOM     83  H   UNL     1       0.343   0.153   0.589  1.00  0.00     0.293 HD
ENDBRANCH  76  82
ENDBRANCH  72  74
ENDBRANCH  71  72
ENDBRANCH  70  71
ENDBRANCH   1  70
TORSDOF 12
