REMARK SMILES CSCC[C@H](C(=O)OCCOC(=O)c1ccc(-c2c3nc(c(-c4c(F)c(F)c(F)c(F)c4F)c4ccc([nH]4)c(-c4c(F)c(F)c(F)c(F)c4F)c4nc(c(-c5c(F)c(F)c(F)c(F)c5F)c5ccc2[nH]5)C=C4)C=C3)cc1)N1C(=O)/C(=C/c2ccc3ncccc3c2)SC1=S
REMARK SMILES IDX 9 1 8 2 6 3 7 4 5 5 4 6 3 7 2 8 1 9 77 10 78 11 93 12 79 13
REMARK SMILES IDX 80 14 92 15 94 16 81 17 82 18 83 19 91 20 84 21 90 22 85 23
REMARK SMILES IDX 89 24 86 25 88 26 87 27 10 28 11 29 12 30 13 31 14 32 15 33
REMARK SMILES IDX 76 34 16 35 75 36 17 37 18 38 19 39 69 40 20 41 74 42 68 43
REMARK SMILES IDX 70 44 21 45 73 46 67 47 66 48 22 50 54 51 34 52 53 53 35 54
REMARK SMILES IDX 38 55 52 56 71 57 36 58 37 59 51 61 72 62 39 63 23 64 24 65
REMARK SMILES IDX 32 66 25 67 26 68 30 69 33 70 27 71 28 72 31 73 29 74 55 75
REMARK SMILES IDX 56 76 64 77 57 78 58 79 62 80 65 81 59 82 60 83 63 84 61 85
REMARK SMILES IDX 40 86 41 87 49 88 42 89 43 90 47 91 50 92 44 93 45 94 48 95
REMARK SMILES IDX 46 96
REMARK H PARENT 70 49 38 60
REMARK Flexibility Score: inf
ROOT
ATOM      1  C   UNL     1       0.121  -2.755   4.768  1.00  0.00     0.274 C 
ENDROOT
BRANCH   1   2
ATOM      2  O   UNL     1       0.700  -3.163   3.517  1.00  0.00    -0.461 OA
BRANCH   2   3
ATOM      3  C   UNL     1       0.160  -2.648   2.382  1.00  0.00     0.329 C 
ATOM      4  O   UNL     1      -0.815  -1.907   2.353  1.00  0.00    -0.250 OA
BRANCH   3   5
ATOM      5  C   UNL     1       0.827  -3.206   1.118  1.00  0.00     0.202 C 
BRANCH   5   6
ATOM      6  C   UNL     1       2.369  -3.144   1.180  1.00  0.00     0.048 C 
BRANCH   6   7
ATOM      7  C   UNL     1       3.179  -3.961   0.173  1.00  0.00     0.072 C 
BRANCH   7   8
ATOM      8  S   UNL     1       3.146  -3.329  -1.534  1.00  0.00    -0.165 SA
ATOM      9  C   UNL     1       1.741  -4.243  -2.205  1.00  0.00     0.085 C 
ENDBRANCH   7   8
ENDBRANCH   6   7
ENDBRANCH   5   6
BRANCH   5  10
ATOM     10  N   UNL     1       0.208  -4.516   0.875  1.00  0.00    -0.278 N 
ATOM     11  C   UNL     1       0.718  -5.642   1.498  1.00  0.00     0.266 C 
ATOM     12  C   UNL     1      -0.944  -4.705   0.130  1.00  0.00     0.149 C 
ATOM     13  O   UNL     1       1.591  -5.683   2.350  1.00  0.00    -0.268 OA
ATOM     14  C   UNL     1       0.110  -6.848   0.903  1.00  0.00     0.081 C 
ATOM     15  S   UNL     1      -1.284  -6.424   0.001  1.00  0.00    -0.054 SA
ATOM     16  S   UNL     1      -1.913  -3.572  -0.618  1.00  0.00    -0.052 S 
ATOM     17  C   UNL     1       0.746  -8.025   0.954  1.00  0.00     0.029 C 
BRANCH  17  18
ATOM     18  C   UNL     1       0.361  -9.156   0.116  1.00  0.00    -0.024 A 
ATOM     19  C   UNL     1      -0.355 -10.228   0.635  1.00  0.00     0.010 A 
ATOM     20  C   UNL     1       0.653  -9.112  -1.252  1.00  0.00     0.018 A 
ATOM     21  C   UNL     1      -0.804 -11.236  -0.225  1.00  0.00     0.029 A 
ATOM     22  C   UNL     1       0.180 -10.112  -2.109  1.00  0.00     0.001 A 
ATOM     23  C   UNL     1      -0.565 -11.193  -1.594  1.00  0.00     0.070 A 
ATOM     24  C   UNL     1       0.408 -10.053  -3.489  1.00  0.00     0.012 A 
ATOM     25  N   UNL     1      -1.054 -12.160  -2.388  1.00  0.00    -0.256 NA
ATOM     26  C   UNL     1      -0.107 -11.044  -4.310  1.00  0.00     0.021 A 
ATOM     27  C   UNL     1      -0.824 -12.067  -3.717  1.00  0.00     0.112 A 
ENDBRANCH  17  18
ENDBRANCH   5  10
ENDBRANCH   3   5
ENDBRANCH   2   3
ENDBRANCH   1   2
BRANCH   1  28
ATOM     28  C   UNL     1       0.974  -1.677   5.438  1.00  0.00     0.275 C 
BRANCH  28  29
ATOM     29  O   UNL     1       0.911  -0.437   4.709  1.00  0.00    -0.458 OA
BRANCH  29  30
ATOM     30  C   UNL     1       1.851  -0.290   3.748  1.00  0.00     0.338 C 
ATOM     31  O   UNL     1       2.761  -1.051   3.473  1.00  0.00    -0.246 OA
BRANCH  30  32
ATOM     32  C   UNL     1       1.546   0.900   2.947  1.00  0.00     0.060 A 
ATOM     33  C   UNL     1       1.264   0.738   1.586  1.00  0.00     0.016 A 
ATOM     34  C   UNL     1       1.627   2.169   3.516  1.00  0.00     0.016 A 
ATOM     35  C   UNL     1       1.079   1.852   0.775  1.00  0.00     0.010 A 
ATOM     36  C   UNL     1       1.441   3.286   2.704  1.00  0.00     0.010 A 
ATOM     37  C   UNL     1       1.185   3.131   1.329  1.00  0.00    -0.014 A 
BRANCH  37  38
ATOM     38  C   UNL     1       1.114   4.328   0.468  1.00  0.00     0.031 A 
ATOM     39  C   UNL     1       2.377   5.064   0.143  1.00  0.00     0.074 A 
ATOM     40  C   UNL     1      -0.075   4.767   0.024  1.00  0.00     0.049 A 
ATOM     41  N   UNL     1       2.535   6.239  -0.406  1.00  0.00    -0.248 NA
ATOM     42  C   UNL     1       3.634   4.385   0.498  1.00  0.00     0.031 C 
ATOM     43  C   UNL     1      -1.355   4.093   0.233  1.00  0.00     0.029 A 
ATOM     44  N   UNL     1      -0.397   5.904  -0.671  1.00  0.00    -0.354 N 
ATOM     45  C   UNL     1       3.905   6.457  -0.432  1.00  0.00     0.074 A 
ATOM     46  C   UNL     1       4.535   5.296   0.160  1.00  0.00     0.031 C 
ATOM     47  C   UNL     1      -2.333   4.845  -0.299  1.00  0.00     0.029 A 
ATOM     48  C   UNL     1      -1.749   6.072  -0.835  1.00  0.00     0.049 A 
ATOM     49  H   UNL     1       0.273   6.535  -1.017  1.00  0.00     0.167 HD
ATOM     50  C   UNL     1       4.570   7.538  -0.904  1.00  0.00     0.037 A 
ATOM     51  C   UNL     1      -2.436   7.123  -1.320  1.00  0.00     0.037 A 
ATOM     52  C   UNL     1       3.927   8.678  -1.501  1.00  0.00     0.049 A 
ATOM     53  C   UNL     1      -1.679   8.336  -1.788  1.00  0.00     0.074 A 
ATOM     54  C   UNL     1       4.503   9.823  -2.021  1.00  0.00     0.029 A 
ATOM     55  N   UNL     1       2.554   8.813  -1.656  1.00  0.00    -0.354 N 
ATOM     56  N   UNL     1      -0.386   8.553  -1.795  1.00  0.00    -0.248 NA
ATOM     57  C   UNL     1      -2.478   9.453  -2.310  1.00  0.00     0.031 C 
ATOM     58  C   UNL     1       3.476  10.669  -2.455  1.00  0.00     0.029 A 
ATOM     59  C   UNL     1       2.263  10.030  -2.249  1.00  0.00     0.049 A 
ATOM     60  H   UNL     1       1.886   8.143  -1.384  1.00  0.00     0.167 HD
ATOM     61  C   UNL     1      -0.212   9.815  -2.344  1.00  0.00     0.074 A 
ATOM     62  C   UNL     1      -1.534  10.316  -2.662  1.00  0.00     0.031 C 
ATOM     63  C   UNL     1       0.937  10.498  -2.568  1.00  0.00     0.037 A 
BRANCH  50  64
ATOM     64  C   UNL     1       6.062   7.549  -0.752  1.00  0.00     0.064 A 
ATOM     65  C   UNL     1       6.892   6.722  -1.524  1.00  0.00     0.173 A 
ATOM     66  C   UNL     1       6.670   8.409   0.175  1.00  0.00     0.173 A 
ATOM     67  F   UNL     1       6.358   5.870  -2.411  1.00  0.00    -0.203 F 
ATOM     68  C   UNL     1       8.274   6.736  -1.352  1.00  0.00     0.198 A 
ATOM     69  C   UNL     1       8.054   8.440   0.325  1.00  0.00     0.198 A 
ATOM     70  F   UNL     1       5.921   9.221   0.937  1.00  0.00    -0.203 F 
ATOM     71  F   UNL     1       9.044   5.902  -2.064  1.00  0.00    -0.200 F 
ATOM     72  C   UNL     1       8.854   7.598  -0.433  1.00  0.00     0.200 A 
ATOM     73  F   UNL     1       8.613   9.279   1.208  1.00  0.00    -0.200 F 
ATOM     74  F   UNL     1      10.184   7.610  -0.270  1.00  0.00    -0.200 F 
ENDBRANCH  50  64
BRANCH  51  75
ATOM     75  C   UNL     1      -3.918   7.076  -1.358  1.00  0.00     0.064 A 
ATOM     76  C   UNL     1      -4.603   6.964  -2.575  1.00  0.00     0.173 A 
ATOM     77  C   UNL     1      -4.679   7.120  -0.180  1.00  0.00     0.173 A 
ATOM     78  F   UNL     1      -3.919   6.942  -3.728  1.00  0.00    -0.203 F 
ATOM     79  C   UNL     1      -5.995   6.906  -2.613  1.00  0.00     0.198 A 
ATOM     80  C   UNL     1      -6.069   7.037  -0.218  1.00  0.00     0.198 A 
ATOM     81  F   UNL     1      -4.069   7.227   1.010  1.00  0.00    -0.203 F 
ATOM     82  F   UNL     1      -6.627   6.832  -3.792  1.00  0.00    -0.200 F 
ATOM     83  C   UNL     1      -6.726   6.934  -1.434  1.00  0.00     0.200 A 
ATOM     84  F   UNL     1      -6.770   7.054   0.924  1.00  0.00    -0.200 F 
ATOM     85  F   UNL     1      -8.063   6.869  -1.472  1.00  0.00    -0.200 F 
ENDBRANCH  51  75
BRANCH  63  86
ATOM     86  C   UNL     1       0.821  11.838  -3.231  1.00  0.00     0.064 A 
ATOM     87  C   UNL     1       0.364  12.966  -2.535  1.00  0.00     0.173 A 
ATOM     88  C   UNL     1       1.224  12.002  -4.565  1.00  0.00     0.173 A 
ATOM     89  F   UNL     1      -0.047  12.854  -1.263  1.00  0.00    -0.203 F 
ATOM     90  C   UNL     1       0.298  14.209  -3.158  1.00  0.00     0.198 A 
ATOM     91  C   UNL     1       1.181  13.251  -5.176  1.00  0.00     0.198 A 
ATOM     92  F   UNL     1       1.674  10.953  -5.269  1.00  0.00    -0.203 F 
ATOM     93  F   UNL     1      -0.176  15.268  -2.488  1.00  0.00    -0.200 F 
ATOM     94  C   UNL     1       0.714  14.352  -4.474  1.00  0.00     0.200 A 
ATOM     95  F   UNL     1       1.593  13.390  -6.444  1.00  0.00    -0.200 F 
ATOM     96  F   UNL     1       0.659  15.552  -5.069  1.00  0.00    -0.200 F 
ENDBRANCH  63  86
ENDBRANCH  37  38
ENDBRANCH  30  32
ENDBRANCH  29  30
ENDBRANCH  28  29
ENDBRANCH   1  28
TORSDOF 16
