REMARK SMILES O=C(Cc1ccn(-c2ccccc2F)c1)OCCOC(=O)c1ccc(-c2c3nc(c(-c4c(F)c(F)c(F)c(F)c4F)c4ccc([nH]4)c(-c4c(F)c(F)c(F)c(F)c4F)c4nc(c(-c5c(F)c(F)c(F)c(F)c5F)c5ccc2[nH]5)C=C4)C=C3)cc1
REMARK SMILES IDX 17 1 16 2 2 3 1 4 3 5 4 6 5 7 15 8 6 9 7 10 8 11 9 12 13 13
REMARK SMILES IDX 10 14 12 15 14 16 11 17 18 18 19 19 20 20 21 21 22 22 23 23
REMARK SMILES IDX 84 24 24 25 83 26 25 27 26 28 27 29 77 30 28 31 82 32 76 33
REMARK SMILES IDX 78 34 29 35 81 36 75 37 74 38 30 40 62 41 42 42 61 43 43 44
REMARK SMILES IDX 46 45 60 46 79 47 44 48 45 49 59 51 80 52 47 53 31 54 32 55
REMARK SMILES IDX 40 56 33 57 34 58 38 59 41 60 35 61 36 62 39 63 37 64 63 65
REMARK SMILES IDX 64 66 72 67 65 68 66 69 70 70 73 71 67 72 68 73 71 74 69 75
REMARK SMILES IDX 48 76 49 77 57 78 50 79 51 80 55 81 58 82 52 83 53 84 56 85
REMARK SMILES IDX 54 86
REMARK H PARENT 78 39 46 50
REMARK Flexibility Score: inf
ROOT
ATOM      1  C   UNL     1       4.322  -1.164  -0.347  1.00  0.00     0.274 C 
ENDROOT
BRANCH   1   2
ATOM      2  O   UNL     1       2.890  -1.204  -0.124  1.00  0.00    -0.462 OA
BRANCH   2   3
ATOM      3  C   UNL     1       2.123  -0.339   0.590  1.00  0.00     0.310 C 
ATOM      4  O   UNL     1       0.903  -0.506   0.637  1.00  0.00    -0.252 OA
BRANCH   3   5
ATOM      5  C   UNL     1       2.756   0.828   1.328  1.00  0.00     0.159 C 
BRANCH   5   6
ATOM      6  C   UNL     1       3.691   0.445   2.417  1.00  0.00    -0.019 A 
ATOM      7  C   UNL     1       4.534   1.298   3.185  1.00  0.00     0.024 A 
ATOM      8  C   UNL     1       3.926  -0.833   2.869  1.00  0.00     0.095 A 
ATOM      9  C   UNL     1       5.241   0.504   4.068  1.00  0.00     0.091 A 
ATOM     10  N   UNL     1       4.922  -0.804   3.804  1.00  0.00    -0.321 N 
BRANCH  10  11
ATOM     11  C   UNL     1       5.391  -1.963   4.424  1.00  0.00     0.081 A 
ATOM     12  C   UNL     1       5.055  -2.195   5.756  1.00  0.00     0.030 A 
ATOM     13  C   UNL     1       5.936  -2.973   3.628  1.00  0.00     0.147 A 
ATOM     14  C   UNL     1       5.242  -3.475   6.275  1.00  0.00     0.002 A 
ATOM     15  C   UNL     1       6.158  -4.233   4.159  1.00  0.00     0.041 A 
ATOM     16  F   UNL     1       6.242  -2.744   2.341  1.00  0.00    -0.205 F 
ATOM     17  C   UNL     1       5.791  -4.490   5.481  1.00  0.00     0.003 A 
ENDBRANCH  10  11
ENDBRANCH   5   6
ENDBRANCH   3   5
ENDBRANCH   2   3
ENDBRANCH   1   2
BRANCH   1  18
ATOM     18  C   UNL     1       4.690  -0.475  -1.648  1.00  0.00     0.275 C 
BRANCH  18  19
ATOM     19  O   UNL     1       4.412   0.914  -1.532  1.00  0.00    -0.458 OA
BRANCH  19  20
ATOM     20  C   UNL     1       3.160   1.253  -1.909  1.00  0.00     0.338 C 
ATOM     21  O   UNL     1       2.257   0.520  -2.247  1.00  0.00    -0.246 OA
BRANCH  20  22
ATOM     22  C   UNL     1       3.065   2.709  -1.939  1.00  0.00     0.060 A 
ATOM     23  C   UNL     1       1.788   3.237  -2.135  1.00  0.00     0.016 A 
ATOM     24  C   UNL     1       4.237   3.459  -2.098  1.00  0.00     0.016 A 
ATOM     25  C   UNL     1       1.690   4.468  -2.731  1.00  0.00     0.010 A 
ATOM     26  C   UNL     1       4.145   4.664  -2.741  1.00  0.00     0.010 A 
ATOM     27  C   UNL     1       2.873   5.117  -3.101  1.00  0.00    -0.014 A 
BRANCH  27  28
ATOM     28  C   UNL     1       2.752   6.389  -3.794  1.00  0.00     0.031 A 
ATOM     29  C   UNL     1       2.664   7.521  -2.753  1.00  0.00     0.074 A 
ATOM     30  C   UNL     1       2.700   6.273  -5.160  1.00  0.00     0.049 A 
ATOM     31  N   UNL     1       2.178   8.712  -2.869  1.00  0.00    -0.248 NA
ATOM     32  C   UNL     1       3.143   7.289  -1.353  1.00  0.00     0.031 C 
ATOM     33  C   UNL     1       2.853   5.007  -5.931  1.00  0.00     0.029 A 
ATOM     34  N   UNL     1       2.493   7.167  -6.185  1.00  0.00    -0.354 N 
ATOM     35  C   UNL     1       2.485   9.421  -1.688  1.00  0.00     0.074 A 
ATOM     36  C   UNL     1       2.981   8.468  -0.751  1.00  0.00     0.031 C 
ATOM     37  C   UNL     1       2.623   5.202  -7.250  1.00  0.00     0.029 A 
ATOM     38  C   UNL     1       2.329   6.601  -7.483  1.00  0.00     0.049 A 
ATOM     39  H   UNL     1       2.461   8.139  -6.031  1.00  0.00     0.167 HD
ATOM     40  C   UNL     1       2.427  10.783  -1.624  1.00  0.00     0.037 A 
ATOM     41  C   UNL     1       1.927   7.230  -8.635  1.00  0.00     0.037 A 
ATOM     42  C   UNL     1       1.910  11.291  -2.850  1.00  0.00     0.049 A 
ATOM     43  C   UNL     1       1.914   8.650  -8.266  1.00  0.00     0.074 A 
ATOM     44  C   UNL     1       0.646  11.225  -3.376  1.00  0.00     0.029 A 
ATOM     45  N   UNL     1       2.815  11.521  -3.858  1.00  0.00    -0.354 N 
ATOM     46  N   UNL     1       2.979   9.362  -8.046  1.00  0.00    -0.248 NA
ATOM     47  C   UNL     1       0.622   9.286  -7.992  1.00  0.00     0.031 C 
ATOM     48  C   UNL     1       0.889  10.890  -4.722  1.00  0.00     0.029 A 
ATOM     49  C   UNL     1       2.245  11.071  -5.022  1.00  0.00     0.049 A 
ATOM     50  H   UNL     1       3.705  11.930  -3.762  1.00  0.00     0.167 HD
ATOM     51  C   UNL     1       2.480  10.389  -7.285  1.00  0.00     0.074 A 
ATOM     52  C   UNL     1       1.060  10.465  -7.561  1.00  0.00     0.031 C 
ATOM     53  C   UNL     1       3.104  10.725  -6.126  1.00  0.00     0.037 A 
BRANCH  40  54
ATOM     54  C   UNL     1       2.979  11.772  -0.646  1.00  0.00     0.064 A 
ATOM     55  C   UNL     1       4.199  11.600   0.017  1.00  0.00     0.173 A 
ATOM     56  C   UNL     1       2.451  13.087  -0.664  1.00  0.00     0.173 A 
ATOM     57  F   UNL     1       4.792  10.400   0.078  1.00  0.00    -0.203 F 
ATOM     58  C   UNL     1       4.894  12.692   0.545  1.00  0.00     0.198 A 
ATOM     59  C   UNL     1       3.168  14.176  -0.181  1.00  0.00     0.198 A 
ATOM     60  F   UNL     1       1.262  13.342  -1.235  1.00  0.00    -0.203 F 
ATOM     61  F   UNL     1       6.089  12.501   1.122  1.00  0.00    -0.200 F 
ATOM     62  C   UNL     1       4.401  13.980   0.408  1.00  0.00     0.200 A 
ATOM     63  F   UNL     1       2.692  15.418  -0.353  1.00  0.00    -0.200 F 
ATOM     64  F   UNL     1       5.128  15.031   0.811  1.00  0.00    -0.200 F 
ENDBRANCH  40  54
BRANCH  41  65
ATOM     65  C   UNL     1       1.420   6.908 -10.028  1.00  0.00     0.064 A 
ATOM     66  C   UNL     1       0.860   7.955 -10.825  1.00  0.00     0.173 A 
ATOM     67  C   UNL     1       1.303   5.638 -10.602  1.00  0.00     0.173 A 
ATOM     68  F   UNL     1       1.044   9.247 -10.519  1.00  0.00    -0.203 F 
ATOM     69  C   UNL     1       0.071   7.735 -11.953  1.00  0.00     0.198 A 
ATOM     70  C   UNL     1       0.565   5.422 -11.787  1.00  0.00     0.198 A 
ATOM     71  F   UNL     1       1.891   4.575 -10.043  1.00  0.00    -0.203 F 
ATOM     72  F   UNL     1      -0.544   8.770 -12.546  1.00  0.00    -0.200 F 
ATOM     73  C   UNL     1      -0.096   6.459 -12.426  1.00  0.00     0.200 A 
ATOM     74  F   UNL     1       0.472   4.186 -12.298  1.00  0.00    -0.200 F 
ATOM     75  F   UNL     1      -0.875   6.235 -13.493  1.00  0.00    -0.200 F 
ENDBRANCH  41  65
BRANCH  53  76
ATOM     76  C   UNL     1       4.573  10.341  -6.056  1.00  0.00     0.064 A 
ATOM     77  C   UNL     1       5.115   9.406  -5.156  1.00  0.00     0.173 A 
ATOM     78  C   UNL     1       5.472  10.864  -6.998  1.00  0.00     0.173 A 
ATOM     79  F   UNL     1       4.367   8.869  -4.199  1.00  0.00    -0.203 F 
ATOM     80  C   UNL     1       6.454   9.002  -5.200  1.00  0.00     0.198 A 
ATOM     81  C   UNL     1       6.813  10.467  -7.044  1.00  0.00     0.198 A 
ATOM     82  F   UNL     1       5.053  11.783  -7.881  1.00  0.00    -0.203 F 
ATOM     83  F   UNL     1       6.915   8.108  -4.310  1.00  0.00    -0.200 F 
ATOM     84  C   UNL     1       7.303   9.534  -6.147  1.00  0.00     0.200 A 
ATOM     85  F   UNL     1       7.636  11.004  -7.955  1.00  0.00    -0.200 F 
ATOM     86  F   UNL     1       8.593   9.168  -6.179  1.00  0.00    -0.200 F 
ENDBRANCH  53  76
ENDBRANCH  27  28
ENDBRANCH  20  22
ENDBRANCH  19  20
ENDBRANCH  18  19
ENDBRANCH   1  18
TORSDOF 13
