REMARK SMILES CCCCOc1ccc(-c2nc(C)c(C(=O)OCCOC(=O)c3ccc(-c4c5nc(c(-c6c(F)c(F)c(F)c(F)c6F)c6ccc([nH]6)c(-c6c(F)c(F)c(F)c(F)c6F)c6nc(c(-c7c(F)c(F)c(F)c(F)c7F)c7ccc4[nH]7)C=C6)C=C5)cc3)s2)cc1
REMARK SMILES IDX 17 1 15 2 16 3 14 4 10 5 11 6 86 7 12 8 13 9 9 10 6 11 7 12
REMARK SMILES IDX 88 13 8 14 87 15 5 16 4 17 3 18 2 19 1 20 18 21 19 22 20 23
REMARK SMILES IDX 21 24 22 25 23 26 24 27 85 28 25 29 84 30 26 31 27 32 28 33
REMARK SMILES IDX 78 34 29 35 83 36 77 37 79 38 30 39 82 40 76 41 75 42 31 44
REMARK SMILES IDX 63 45 43 46 62 47 44 48 47 49 61 50 80 51 45 52 46 53 60 55
REMARK SMILES IDX 81 56 48 57 32 58 33 59 41 60 34 61 35 62 39 63 42 64 36 65
REMARK SMILES IDX 37 66 40 67 38 68 64 69 65 70 73 71 66 72 67 73 71 74 74 75
REMARK SMILES IDX 68 76 69 77 72 78 70 79 49 80 50 81 58 82 51 83 52 84 56 85
REMARK SMILES IDX 59 86 53 87 54 88 57 89 55 90
REMARK H PARENT 79 43 47 54
REMARK Flexibility Score: inf
ROOT
ATOM      1  O   UNL     1      -7.365   3.567   3.897  1.00  0.00    -0.458 OA
ENDROOT
BRANCH   1   2
ATOM      2  C   UNL     1      -7.333   3.151   2.597  1.00  0.00     0.350 C 
ATOM      3  O   UNL     1      -7.979   3.683   1.705  1.00  0.00    -0.245 OA
BRANCH   2   4
ATOM      4  C   UNL     1      -6.381   2.069   2.413  1.00  0.00     0.135 A 
ATOM      5  C   UNL     1      -4.700   0.624   1.394  1.00  0.00     0.124 A 
ATOM      6  N   UNL     1      -4.774   0.378   2.682  1.00  0.00    -0.240 NA
ATOM      7  S   UNL     1      -5.899   1.692   0.799  1.00  0.00    -0.106 S 
ATOM      8  C   UNL     1      -5.732   1.201   3.281  1.00  0.00     0.064 A 
ATOM      9  C   UNL     1      -5.925   1.023   4.745  1.00  0.00     0.068 C 
BRANCH   5  10
ATOM     10  C   UNL     1      -3.707   0.099   0.457  1.00  0.00     0.011 A 
ATOM     11  C   UNL     1      -1.908  -0.792  -1.506  1.00  0.00     0.119 A 
ATOM     12  C   UNL     1      -2.839  -1.679  -0.966  1.00  0.00     0.047 A 
ATOM     13  C   UNL     1      -1.881   0.530  -1.080  1.00  0.00     0.047 A 
ATOM     14  C   UNL     1      -3.737  -1.233   0.019  1.00  0.00     0.015 A 
ATOM     15  C   UNL     1      -2.747   0.968  -0.082  1.00  0.00     0.015 A 
BRANCH  11  16
ATOM     16  O   UNL     1      -1.119  -1.151  -2.563  1.00  0.00    -0.494 OA
BRANCH  16  17
ATOM     17  C   UNL     1       0.133  -1.725  -2.170  1.00  0.00     0.229 C 
BRANCH  17  18
ATOM     18  C   UNL     1       1.314  -0.819  -2.551  1.00  0.00     0.041 C 
BRANCH  18  19
ATOM     19  C   UNL     1       1.543   0.430  -1.694  1.00  0.00     0.000 C 
ATOM     20  C   UNL     1       1.583   0.190  -0.192  1.00  0.00     0.004 C 
ENDBRANCH  18  19
ENDBRANCH  17  18
ENDBRANCH  16  17
ENDBRANCH  11  16
ENDBRANCH   5  10
ENDBRANCH   2   4
ENDBRANCH   1   2
BRANCH   1  21
ATOM     21  C   UNL     1      -8.199   4.706   4.195  1.00  0.00     0.275 C 
BRANCH  21  22
ATOM     22  C   UNL     1      -7.379   5.990   4.359  1.00  0.00     0.275 C 
BRANCH  22  23
ATOM     23  O   UNL     1      -6.874   6.472   3.100  1.00  0.00    -0.458 OA
BRANCH  23  24
ATOM     24  C   UNL     1      -5.642   6.023   2.771  1.00  0.00     0.338 C 
ATOM     25  O   UNL     1      -4.926   5.281   3.422  1.00  0.00    -0.246 OA
BRANCH  24  26
ATOM     26  C   UNL     1      -5.310   6.446   1.404  1.00  0.00     0.060 A 
ATOM     27  C   UNL     1      -5.234   5.455   0.427  1.00  0.00     0.016 A 
ATOM     28  C   UNL     1      -4.983   7.766   1.099  1.00  0.00     0.016 A 
ATOM     29  C   UNL     1      -4.804   5.761  -0.858  1.00  0.00     0.010 A 
ATOM     30  C   UNL     1      -4.581   8.082  -0.204  1.00  0.00     0.010 A 
ATOM     31  C   UNL     1      -4.476   7.080  -1.189  1.00  0.00    -0.014 A 
BRANCH  31  32
ATOM     32  C   UNL     1      -3.994   7.404  -2.555  1.00  0.00     0.031 A 
ATOM     33  C   UNL     1      -2.583   7.877  -2.757  1.00  0.00     0.074 A 
ATOM     34  C   UNL     1      -4.820   7.273  -3.610  1.00  0.00     0.049 A 
ATOM     35  N   UNL     1      -2.014   8.358  -3.832  1.00  0.00    -0.248 NA
ATOM     36  C   UNL     1      -1.694   7.805  -1.587  1.00  0.00     0.031 C 
ATOM     37  C   UNL     1      -6.191   6.763  -3.550  1.00  0.00     0.029 A 
ATOM     38  N   UNL     1      -4.632   7.567  -4.937  1.00  0.00    -0.354 N 
ATOM     39  C   UNL     1      -0.715   8.679  -3.462  1.00  0.00     0.074 A 
ATOM     40  C   UNL     1      -0.583   8.353  -2.058  1.00  0.00     0.031 C 
ATOM     41  C   UNL     1      -6.719   6.780  -4.783  1.00  0.00     0.029 A 
ATOM     42  C   UNL     1      -5.755   7.370  -5.705  1.00  0.00     0.049 A 
ATOM     43  H   UNL     1      -3.776   7.888  -5.304  1.00  0.00     0.167 HD
ATOM     44  C   UNL     1       0.274   9.199  -4.229  1.00  0.00     0.037 A 
ATOM     45  C   UNL     1      -5.995   7.678  -6.994  1.00  0.00     0.037 A 
ATOM     46  C   UNL     1       0.132   9.498  -5.630  1.00  0.00     0.049 A 
ATOM     47  C   UNL     1      -4.908   8.332  -7.803  1.00  0.00     0.074 A 
ATOM     48  C   UNL     1       1.076  10.012  -6.502  1.00  0.00     0.029 A 
ATOM     49  N   UNL     1      -1.032   9.314  -6.364  1.00  0.00    -0.354 N 
ATOM     50  N   UNL     1      -3.686   8.646  -7.446  1.00  0.00    -0.248 NA
ATOM     51  C   UNL     1      -5.234   8.682  -9.192  1.00  0.00     0.031 C 
ATOM     52  C   UNL     1       0.466  10.198  -7.746  1.00  0.00     0.029 A 
ATOM     53  C   UNL     1      -0.837   9.733  -7.671  1.00  0.00     0.049 A 
ATOM     54  H   UNL     1      -1.871   8.941  -6.009  1.00  0.00     0.167 HD
ATOM     55  C   UNL     1      -3.088   9.198  -8.570  1.00  0.00     0.074 A 
ATOM     56  C   UNL     1      -4.080   9.171  -9.625  1.00  0.00     0.031 C 
ATOM     57  C   UNL     1      -1.830   9.680  -8.715  1.00  0.00     0.037 A 
BRANCH  44  58
ATOM     58  C   UNL     1       1.582   9.519  -3.562  1.00  0.00     0.064 A 
ATOM     59  C   UNL     1       2.448   8.518  -3.099  1.00  0.00     0.173 A 
ATOM     60  C   UNL     1       1.990  10.854  -3.417  1.00  0.00     0.173 A 
ATOM     61  F   UNL     1       2.104   7.225  -3.203  1.00  0.00    -0.203 F 
ATOM     62  C   UNL     1       3.658   8.842  -2.487  1.00  0.00     0.198 A 
ATOM     63  C   UNL     1       3.215  11.174  -2.837  1.00  0.00     0.198 A 
ATOM     64  F   UNL     1       1.205  11.853  -3.849  1.00  0.00    -0.203 F 
ATOM     65  F   UNL     1       4.444   7.870  -2.005  1.00  0.00    -0.200 F 
ATOM     66  C   UNL     1       4.043  10.168  -2.364  1.00  0.00     0.200 A 
ATOM     67  F   UNL     1       3.592  12.456  -2.734  1.00  0.00    -0.200 F 
ATOM     68  F   UNL     1       5.210  10.478  -1.782  1.00  0.00    -0.200 F 
ENDBRANCH  44  58
BRANCH  45  69
ATOM     69  C   UNL     1      -7.334   7.407  -7.584  1.00  0.00     0.064 A 
ATOM     70  C   UNL     1      -7.497   6.458  -8.602  1.00  0.00     0.173 A 
ATOM     71  C   UNL     1      -8.477   8.094  -7.145  1.00  0.00     0.173 A 
ATOM     72  F   UNL     1      -6.433   5.792  -9.073  1.00  0.00    -0.203 F 
ATOM     73  C   UNL     1      -8.747   6.220  -9.170  1.00  0.00     0.198 A 
ATOM     74  C   UNL     1      -9.731   7.830  -7.689  1.00  0.00     0.198 A 
ATOM     75  F   UNL     1      -8.377   9.014  -6.174  1.00  0.00    -0.203 F 
ATOM     76  F   UNL     1      -8.866   5.343 -10.177  1.00  0.00    -0.200 F 
ATOM     77  C   UNL     1      -9.864   6.899  -8.708  1.00  0.00     0.200 A 
ATOM     78  F   UNL     1     -10.809   8.478  -7.229  1.00  0.00    -0.200 F 
ATOM     79  F   UNL     1     -11.066   6.665  -9.251  1.00  0.00    -0.200 F 
ENDBRANCH  45  69
BRANCH  57  80
ATOM     80  C   UNL     1      -1.424  10.167 -10.076  1.00  0.00     0.064 A 
ATOM     81  C   UNL     1      -1.912  11.368 -10.611  1.00  0.00     0.173 A 
ATOM     82  C   UNL     1      -0.473   9.454 -10.823  1.00  0.00     0.173 A 
ATOM     83  F   UNL     1      -2.834  12.078  -9.944  1.00  0.00    -0.203 F 
ATOM     84  C   UNL     1      -1.472  11.830 -11.848  1.00  0.00     0.198 A 
ATOM     85  C   UNL     1      -0.011   9.935 -12.044  1.00  0.00     0.198 A 
ATOM     86  F   UNL     1       0.030   8.302 -10.354  1.00  0.00    -0.203 F 
ATOM     87  F   UNL     1      -1.979  12.961 -12.357  1.00  0.00    -0.200 F 
ATOM     88  C   UNL     1      -0.514  11.120 -12.558  1.00  0.00     0.200 A 
ATOM     89  F   UNL     1       0.927   9.257 -12.719  1.00  0.00    -0.200 F 
ATOM     90  F   UNL     1      -0.077  11.579 -13.739  1.00  0.00    -0.200 F 
ENDBRANCH  57  80
ENDBRANCH  31  32
ENDBRANCH  24  26
ENDBRANCH  23  24
ENDBRANCH  22  23
ENDBRANCH  21  22
ENDBRANCH   1  21
TORSDOF 16
