REMARK SMILES C=CCN(CC(=O)OCCOC(=O)c1ccc(-c2c3nc(c(-c4c(F)c(F)c(F)c(F)c4F)c4ccc([nH]4)c(-c4c(F)c(F)c(F)c(F)c4F)c4nc(c(-c5c(F)c(F)c(F)c(F)c5F)c5ccc2[nH]5)C=C4)C=C3)cc1)C(=O)[C@@H]1Oc2ccccc2O[C@H]1C
REMARK SMILES IDX 9 1 8 2 6 3 7 4 5 5 4 6 3 7 2 8 1 9 77 10 78 11 79 12 80 13
REMARK SMILES IDX 88 14 81 15 87 16 89 17 82 18 86 19 83 20 85 21 84 22 10 23
REMARK SMILES IDX 11 24 12 25 13 26 14 27 15 28 76 29 16 30 75 31 17 32 18 33
REMARK SMILES IDX 19 34 69 35 20 36 74 37 68 38 70 39 21 40 73 41 67 42 66 43
REMARK SMILES IDX 22 45 54 46 34 47 53 48 35 49 38 50 52 51 71 52 36 53 37 54
REMARK SMILES IDX 51 56 72 57 39 58 23 59 24 60 32 61 25 62 26 63 30 64 33 65
REMARK SMILES IDX 27 66 28 67 31 68 29 69 55 70 56 71 64 72 57 73 58 74 62 75
REMARK SMILES IDX 65 76 59 77 60 78 63 79 61 80 40 81 41 82 49 83 42 84 43 85
REMARK SMILES IDX 47 86 50 87 44 88 45 89 48 90 46 91
REMARK H PARENT 70 44 38 55
REMARK Flexibility Score: inf
ROOT
ATOM      1  C   UNL     1      -5.999   0.824  -2.570  1.00  0.00     0.274 C 
ENDROOT
BRANCH   1   2
ATOM      2  O   UNL     1      -4.589   0.685  -2.274  1.00  0.00    -0.461 OA
BRANCH   2   3
ATOM      3  C   UNL     1      -3.826   0.138  -3.258  1.00  0.00     0.325 C 
ATOM      4  O   UNL     1      -4.280  -0.329  -4.300  1.00  0.00    -0.250 OA
BRANCH   3   5
ATOM      5  C   UNL     1      -2.318   0.134  -2.973  1.00  0.00     0.242 C 
BRANCH   5   6
ATOM      6  N   UNL     1      -1.826   0.768  -1.741  1.00  0.00    -0.325 N 
BRANCH   6   7
ATOM      7  C   UNL     1      -1.298  -0.150  -0.748  1.00  0.00     0.147 C 
BRANCH   7   8
ATOM      8  C   UNL     1       0.159  -0.381  -1.037  1.00  0.00    -0.014 C 
ATOM      9  C   UNL     1       1.145  -0.234  -0.142  1.00  0.00     0.006 C 
ENDBRANCH   7   8
ENDBRANCH   6   7
BRANCH   6  10
ATOM     10  C   UNL     1      -1.442   2.112  -1.792  1.00  0.00     0.268 C 
ATOM     11  O   UNL     1      -1.129   2.620  -2.879  1.00  0.00    -0.270 OA
BRANCH  10  12
ATOM     12  C   UNL     1      -1.527   3.035  -0.523  1.00  0.00     0.302 C 
ATOM     13  O   UNL     1      -1.102   2.477   0.719  1.00  0.00    -0.473 OA
ATOM     14  C   UNL     1      -2.937   3.688  -0.529  1.00  0.00     0.221 C 
ATOM     15  C   UNL     1      -2.115   2.215   1.595  1.00  0.00     0.162 A 
ATOM     16  O   UNL     1      -3.507   3.958   0.755  1.00  0.00    -0.482 OA
ATOM     17  C   UNL     1      -2.940   5.023  -1.284  1.00  0.00     0.057 C 
ATOM     18  C   UNL     1      -1.905   1.209   2.534  1.00  0.00     0.050 A 
ATOM     19  C   UNL     1      -3.337   2.867   1.549  1.00  0.00     0.161 A 
ATOM     20  C   UNL     1      -2.967   0.763   3.320  1.00  0.00     0.004 A 
ATOM     21  C   UNL     1      -4.398   2.447   2.342  1.00  0.00     0.050 A 
ATOM     22  C   UNL     1      -4.221   1.364   3.203  1.00  0.00     0.004 A 
ENDBRANCH  10  12
ENDBRANCH   6  10
ENDBRANCH   5   6
ENDBRANCH   3   5
ENDBRANCH   2   3
ENDBRANCH   1   2
BRANCH   1  23
ATOM     23  C   UNL     1      -6.378   2.232  -3.059  1.00  0.00     0.275 C 
BRANCH  23  24
ATOM     24  O   UNL     1      -5.782   2.578  -4.328  1.00  0.00    -0.458 OA
BRANCH  24  25
ATOM     25  C   UNL     1      -4.536   3.069  -4.183  1.00  0.00     0.338 C 
ATOM     26  O   UNL     1      -3.930   3.175  -3.135  1.00  0.00    -0.246 OA
BRANCH  25  27
ATOM     27  C   UNL     1      -3.875   3.494  -5.403  1.00  0.00     0.060 A 
ATOM     28  C   UNL     1      -2.837   2.697  -5.895  1.00  0.00     0.016 A 
ATOM     29  C   UNL     1      -4.054   4.806  -5.836  1.00  0.00     0.016 A 
ATOM     30  C   UNL     1      -1.965   3.214  -6.840  1.00  0.00     0.010 A 
ATOM     31  C   UNL     1      -3.201   5.314  -6.809  1.00  0.00     0.010 A 
ATOM     32  C   UNL     1      -2.160   4.517  -7.316  1.00  0.00    -0.014 A 
BRANCH  32  33
ATOM     33  C   UNL     1      -1.409   4.982  -8.493  1.00  0.00     0.031 A 
ATOM     34  C   UNL     1      -0.291   5.962  -8.378  1.00  0.00     0.074 A 
ATOM     35  C   UNL     1      -1.850   4.542  -9.684  1.00  0.00     0.049 A 
ATOM     36  N   UNL     1       0.346   6.588  -9.333  1.00  0.00    -0.248 NA
ATOM     37  C   UNL     1       0.171   6.290  -7.022  1.00  0.00     0.031 C 
ATOM     38  C   UNL     1      -2.942   3.581  -9.864  1.00  0.00     0.029 A 
ATOM     39  N   UNL     1      -1.474   4.868 -10.956  1.00  0.00    -0.354 N 
ATOM     40  C   UNL     1       1.275   7.398  -8.698  1.00  0.00     0.074 A 
ATOM     41  C   UNL     1       1.118   7.186  -7.273  1.00  0.00     0.031 C 
ATOM     42  C   UNL     1      -3.175   3.425 -11.173  1.00  0.00     0.029 A 
ATOM     43  C   UNL     1      -2.279   4.304 -11.911  1.00  0.00     0.049 A 
ATOM     44  H   UNL     1      -0.706   5.447 -11.165  1.00  0.00     0.167 HD
ATOM     45  C   UNL     1       2.167   8.241  -9.272  1.00  0.00     0.037 A 
ATOM     46  C   UNL     1      -2.322   4.510 -13.237  1.00  0.00     0.037 A 
ATOM     47  C   UNL     1       2.298   8.421 -10.696  1.00  0.00     0.049 A 
ATOM     48  C   UNL     1      -1.337   5.457 -13.843  1.00  0.00     0.074 A 
ATOM     49  C   UNL     1       3.200   9.207 -11.391  1.00  0.00     0.029 A 
ATOM     50  N   UNL     1       1.490   7.806 -11.645  1.00  0.00    -0.354 N 
ATOM     51  N   UNL     1      -0.440   6.200 -13.242  1.00  0.00    -0.248 NA
ATOM     52  C   UNL     1      -1.360   5.590 -15.302  1.00  0.00     0.031 C 
ATOM     53  C   UNL     1       2.916   9.094 -12.758  1.00  0.00     0.029 A 
ATOM     54  C   UNL     1       1.858   8.212 -12.918  1.00  0.00     0.049 A 
ATOM     55  H   UNL     1       0.762   7.175 -11.443  1.00  0.00     0.167 HD
ATOM     56  C   UNL     1       0.221   6.884 -14.246  1.00  0.00     0.074 A 
ATOM     57  C   UNL     1      -0.377   6.459 -15.499  1.00  0.00     0.031 C 
ATOM     58  C   UNL     1       1.233   7.778 -14.142  1.00  0.00     0.037 A 
BRANCH  45  59
ATOM     59  C   UNL     1       3.049   9.048  -8.368  1.00  0.00     0.064 A 
ATOM     60  C   UNL     1       4.142   8.476  -7.701  1.00  0.00     0.173 A 
ATOM     61  C   UNL     1       2.830  10.425  -8.209  1.00  0.00     0.173 A 
ATOM     62  F   UNL     1       4.391   7.163  -7.815  1.00  0.00    -0.203 F 
ATOM     63  C   UNL     1       4.976   9.251  -6.897  1.00  0.00     0.198 A 
ATOM     64  C   UNL     1       3.675  11.200  -7.419  1.00  0.00     0.198 A 
ATOM     65  F   UNL     1       1.801  11.021  -8.830  1.00  0.00    -0.203 F 
ATOM     66  F   UNL     1       6.001   8.680  -6.250  1.00  0.00    -0.200 F 
ATOM     67  C   UNL     1       4.745  10.612  -6.761  1.00  0.00     0.200 A 
ATOM     68  F   UNL     1       3.456  12.516  -7.296  1.00  0.00    -0.200 F 
ATOM     69  F   UNL     1       5.553  11.358  -5.995  1.00  0.00    -0.200 F 
ENDBRANCH  45  59
BRANCH  46  70
ATOM     70  C   UNL     1      -3.349   3.799 -14.030  1.00  0.00     0.064 A 
ATOM     71  C   UNL     1      -3.018   2.666 -14.781  1.00  0.00     0.173 A 
ATOM     72  C   UNL     1      -4.702   4.164 -13.946  1.00  0.00     0.173 A 
ATOM     73  F   UNL     1      -1.737   2.285 -14.887  1.00  0.00    -0.203 F 
ATOM     74  C   UNL     1      -4.005   1.914 -15.413  1.00  0.00     0.198 A 
ATOM     75  C   UNL     1      -5.690   3.400 -14.562  1.00  0.00     0.198 A 
ATOM     76  F   UNL     1      -5.066   5.230 -13.218  1.00  0.00    -0.203 F 
ATOM     77  F   UNL     1      -3.666   0.831 -16.124  1.00  0.00    -0.200 F 
ATOM     78  C   UNL     1      -5.340   2.275 -15.294  1.00  0.00     0.200 A 
ATOM     79  F   UNL     1      -6.979   3.738 -14.425  1.00  0.00    -0.200 F 
ATOM     80  F   UNL     1      -6.291   1.533 -15.877  1.00  0.00    -0.200 F 
ENDBRANCH  46  70
BRANCH  58  81
ATOM     81  C   UNL     1       1.753   8.343 -15.425  1.00  0.00     0.064 A 
ATOM     82  C   UNL     1       1.068   9.362 -16.099  1.00  0.00     0.173 A 
ATOM     83  C   UNL     1       2.955   7.873 -15.972  1.00  0.00     0.173 A 
ATOM     84  F   UNL     1      -0.096   9.825 -15.619  1.00  0.00    -0.203 F 
ATOM     85  C   UNL     1       1.562   9.883 -17.290  1.00  0.00     0.198 A 
ATOM     86  C   UNL     1       3.455   8.407 -17.154  1.00  0.00     0.198 A 
ATOM     87  F   UNL     1       3.640   6.896 -15.359  1.00  0.00    -0.203 F 
ATOM     88  F   UNL     1       0.876  10.833 -17.940  1.00  0.00    -0.200 F 
ATOM     89  C   UNL     1       2.757   9.408 -17.814  1.00  0.00     0.200 A 
ATOM     90  F   UNL     1       4.609   7.950 -17.659  1.00  0.00    -0.200 F 
ATOM     91  F   UNL     1       3.231   9.910 -18.963  1.00  0.00    -0.200 F 
ENDBRANCH  58  81
ENDBRANCH  32  33
ENDBRANCH  25  27
ENDBRANCH  24  25
ENDBRANCH  23  24
ENDBRANCH   1  23
TORSDOF 16
