REMARK SMILES COc1cccc(N2C(=O)/C(=C/c3ccccc3C(=O)OCCOC(=O)c3ccc(-c4c5nc(c(-c6c(F)c(F)c(F)c(F)c6F)c6ccc([nH]6)c(-c6c(F)c(F)c(F)c(F)c6F)c6nc(c(-c7c(F)c(F)c(F)c(F)c7F)c7ccc4[nH]7)C=C6)C=C5)cc3)SC2=S)c1
REMARK SMILES IDX 22 1 21 2 19 3 20 4 18 5 13 6 14 7 15 8 17 9 16 10 12 11
REMARK SMILES IDX 8 12 9 13 91 14 10 15 11 16 90 17 92 18 7 19 3 20 4 21 93 22
REMARK SMILES IDX 5 23 6 24 2 25 1 26 23 27 24 28 25 29 26 30 27 31 28 32
REMARK SMILES IDX 89 33 29 34 88 35 30 36 31 37 32 38 82 39 33 40 87 41 81 42
REMARK SMILES IDX 83 43 34 44 86 45 80 46 79 47 35 49 67 50 47 51 66 52 48 53
REMARK SMILES IDX 51 54 65 55 84 56 49 57 50 58 64 60 85 61 52 62 36 63 37 64
REMARK SMILES IDX 45 65 38 66 39 67 43 68 46 69 40 70 41 71 44 72 42 73 68 74
REMARK SMILES IDX 69 75 77 76 70 77 71 78 75 79 78 80 72 81 73 82 76 83 74 84
REMARK SMILES IDX 53 85 54 86 62 87 55 88 56 89 60 90 63 91 57 92 58 93 61 94
REMARK SMILES IDX 59 95
REMARK H PARENT 83 48 51 59
REMARK Flexibility Score: inf
ROOT
ATOM      1  C   UNL     1       5.274  -7.673  -1.767  1.00  0.00     0.275 C 
ENDROOT
BRANCH   1   2
ATOM      2  O   UNL     1       6.046  -7.082  -2.834  1.00  0.00    -0.458 OA
BRANCH   2   3
ATOM      3  C   UNL     1       7.308  -6.681  -2.527  1.00  0.00     0.338 C 
ATOM      4  O   UNL     1       7.890  -6.893  -1.479  1.00  0.00    -0.246 OA
BRANCH   3   5
ATOM      5  C   UNL     1       7.948  -5.960  -3.666  1.00  0.00     0.067 A 
ATOM      6  C   UNL     1       7.274  -5.016  -4.467  1.00  0.00    -0.010 A 
ATOM      7  C   UNL     1       7.973  -4.381  -5.505  1.00  0.00     0.009 A 
ATOM      8  C   UNL     1       9.321  -4.665  -5.738  1.00  0.00     0.001 A 
ATOM      9  C   UNL     1       9.314  -6.202  -3.885  1.00  0.00     0.016 A 
ATOM     10  C   UNL     1       9.992  -5.574  -4.928  1.00  0.00     0.001 A 
BRANCH   6  11
ATOM     11  C   UNL     1       5.862  -4.659  -4.275  1.00  0.00     0.030 C 
ATOM     12  N   UNL     1       3.610  -3.815  -1.603  1.00  0.00    -0.261 N 
ATOM     13  C   UNL     1       3.877  -4.085  -2.941  1.00  0.00     0.270 C 
ATOM     14  C   UNL     1       4.713  -3.650  -0.774  1.00  0.00     0.152 C 
ATOM     15  O   UNL     1       3.075  -4.269  -3.848  1.00  0.00    -0.268 OA
ATOM     16  C   UNL     1       5.346  -4.136  -3.155  1.00  0.00     0.081 C 
ATOM     17  S   UNL     1       6.176  -3.612  -1.749  1.00  0.00    -0.054 SA
ATOM     18  S   UNL     1       4.795  -3.604   0.897  1.00  0.00    -0.051 S 
BRANCH  12  19
ATOM     19  C   UNL     1       2.261  -3.687  -1.169  1.00  0.00     0.054 A 
ATOM     20  C   UNL     1       0.539  -2.373  -0.074  1.00  0.00     0.120 A 
ATOM     21  C   UNL     1      -0.405  -3.348  -0.386  1.00  0.00     0.046 A 
ATOM     22  C   UNL     1       1.874  -2.561  -0.431  1.00  0.00     0.073 A 
ATOM     23  C   UNL     1      -0.034  -4.473  -1.121  1.00  0.00     0.006 A 
ATOM     24  C   UNL     1       1.291  -4.630  -1.533  1.00  0.00     0.027 A 
BRANCH  20  25
ATOM     25  O   UNL     1       0.080  -1.271   0.595  1.00  0.00    -0.497 OA
ATOM     26  C   UNL     1       0.694  -0.048   0.189  1.00  0.00     0.278 C 
ENDBRANCH  20  25
ENDBRANCH  12  19
ENDBRANCH   6  11
ENDBRANCH   3   5
ENDBRANCH   2   3
ENDBRANCH   1   2
BRANCH   1  27
ATOM     27  C   UNL     1       5.025  -9.157  -2.020  1.00  0.00     0.275 C 
BRANCH  27  28
ATOM     28  O   UNL     1       6.265  -9.877  -1.939  1.00  0.00    -0.458 OA
BRANCH  28  29
ATOM     29  C   UNL     1       6.802 -10.228  -3.127  1.00  0.00     0.338 C 
ATOM     30  O   UNL     1       6.319 -10.100  -4.240  1.00  0.00    -0.246 OA
BRANCH  29  31
ATOM     31  C   UNL     1       8.165 -10.719  -2.908  1.00  0.00     0.060 A 
ATOM     32  C   UNL     1       9.180  -9.777  -2.767  1.00  0.00     0.016 A 
ATOM     33  C   UNL     1       8.468 -12.073  -2.990  1.00  0.00     0.016 A 
ATOM     34  C   UNL     1      10.512 -10.166  -2.790  1.00  0.00     0.010 A 
ATOM     35  C   UNL     1       9.807 -12.475  -2.928  1.00  0.00     0.010 A 
ATOM     36  C   UNL     1      10.844 -11.523  -2.865  1.00  0.00    -0.014 A 
BRANCH  36  37
ATOM     37  C   UNL     1      12.271 -11.938  -2.942  1.00  0.00     0.031 A 
ATOM     38  C   UNL     1      12.758 -12.704  -4.142  1.00  0.00     0.074 A 
ATOM     39  C   UNL     1      13.134 -11.615  -1.959  1.00  0.00     0.049 A 
ATOM     40  N   UNL     1      13.890 -13.337  -4.319  1.00  0.00    -0.248 NA
ATOM     41  C   UNL     1      11.843 -12.782  -5.293  1.00  0.00     0.031 C 
ATOM     42  C   UNL     1      12.811 -10.820  -0.772  1.00  0.00     0.029 A 
ATOM     43  N   UNL     1      14.464 -11.917  -1.801  1.00  0.00    -0.354 N 
ATOM     44  C   UNL     1      13.793 -13.944  -5.565  1.00  0.00     0.074 A 
ATOM     45  C   UNL     1      12.499 -13.596  -6.109  1.00  0.00     0.031 C 
ATOM     46  C   UNL     1      13.915 -10.678  -0.023  1.00  0.00     0.029 A 
ATOM     47  C   UNL     1      14.998 -11.447  -0.625  1.00  0.00     0.049 A 
ATOM     48  H   UNL     1      14.986 -12.422  -2.466  1.00  0.00     0.167 HD
ATOM     49  C   UNL     1      14.705 -14.725  -6.190  1.00  0.00     0.037 A 
ATOM     50  C   UNL     1      16.205 -11.656  -0.066  1.00  0.00     0.037 A 
ATOM     51  C   UNL     1      16.020 -15.004  -5.674  1.00  0.00     0.049 A 
ATOM     52  C   UNL     1      17.191 -12.545  -0.774  1.00  0.00     0.074 A 
ATOM     53  C   UNL     1      17.029 -15.759  -6.245  1.00  0.00     0.029 A 
ATOM     54  N   UNL     1      16.514 -14.518  -4.473  1.00  0.00    -0.354 N 
ATOM     55  N   UNL     1      17.073 -13.160  -1.925  1.00  0.00    -0.248 NA
ATOM     56  C   UNL     1      18.471 -12.786  -0.094  1.00  0.00     0.031 C 
ATOM     57  C   UNL     1      18.122 -15.760  -5.373  1.00  0.00     0.029 A 
ATOM     58  C   UNL     1      17.810 -14.968  -4.280  1.00  0.00     0.049 A 
ATOM     59  H   UNL     1      16.018 -13.939  -3.850  1.00  0.00     0.167 HD
ATOM     60  C   UNL     1      18.264 -13.844  -2.116  1.00  0.00     0.074 A 
ATOM     61  C   UNL     1      19.102 -13.553  -0.971  1.00  0.00     0.031 C 
ATOM     62  C   UNL     1      18.631 -14.650  -3.141  1.00  0.00     0.037 A 
BRANCH  49  63
ATOM     63  C   UNL     1      14.312 -15.370  -7.486  1.00  0.00     0.064 A 
ATOM     64  C   UNL     1      14.218 -14.646  -8.682  1.00  0.00     0.173 A 
ATOM     65  C   UNL     1      14.092 -16.756  -7.538  1.00  0.00     0.173 A 
ATOM     66  F   UNL     1      14.405 -13.318  -8.684  1.00  0.00    -0.203 F 
ATOM     67  C   UNL     1      13.909 -15.284  -9.882  1.00  0.00     0.198 A 
ATOM     68  C   UNL     1      13.809 -17.394  -8.743  1.00  0.00     0.198 A 
ATOM     69  F   UNL     1      14.173 -17.496  -6.422  1.00  0.00    -0.203 F 
ATOM     70  F   UNL     1      13.796 -14.568 -11.009  1.00  0.00    -0.200 F 
ATOM     71  C   UNL     1      13.714 -16.657  -9.913  1.00  0.00     0.200 A 
ATOM     72  F   UNL     1      13.635 -18.723  -8.771  1.00  0.00    -0.200 F 
ATOM     73  F   UNL     1      13.434 -17.271 -11.071  1.00  0.00    -0.200 F 
ENDBRANCH  49  63
BRANCH  50  74
ATOM     74  C   UNL     1      16.529 -11.065   1.259  1.00  0.00     0.064 A 
ATOM     75  C   UNL     1      17.528 -10.090   1.392  1.00  0.00     0.173 A 
ATOM     76  C   UNL     1      15.865 -11.479   2.424  1.00  0.00     0.173 A 
ATOM     77  F   UNL     1      18.212  -9.681   0.313  1.00  0.00    -0.203 F 
ATOM     78  C   UNL     1      17.863  -9.568   2.640  1.00  0.00     0.198 A 
ATOM     79  C   UNL     1      16.176 -10.930   3.666  1.00  0.00     0.198 A 
ATOM     80  F   UNL     1      14.904 -12.412   2.355  1.00  0.00    -0.203 F 
ATOM     81  F   UNL     1      18.859  -8.678   2.746  1.00  0.00    -0.200 F 
ATOM     82  C   UNL     1      17.182  -9.983   3.775  1.00  0.00     0.200 A 
ATOM     83  F   UNL     1      15.506 -11.325   4.757  1.00  0.00    -0.200 F 
ATOM     84  F   UNL     1      17.503  -9.479   4.974  1.00  0.00    -0.200 F 
ENDBRANCH  50  74
BRANCH  62  85
ATOM     85  C   UNL     1      20.011 -15.234  -3.091  1.00  0.00     0.064 A 
ATOM     86  C   UNL     1      20.338 -16.271  -2.206  1.00  0.00     0.173 A 
ATOM     87  C   UNL     1      21.007 -14.770  -3.962  1.00  0.00     0.173 A 
ATOM     88  F   UNL     1      19.422 -16.735  -1.343  1.00  0.00    -0.203 F 
ATOM     89  C   UNL     1      21.623 -16.805  -2.177  1.00  0.00     0.198 A 
ATOM     90  C   UNL     1      22.283 -15.325  -3.950  1.00  0.00     0.198 A 
ATOM     91  F   UNL     1      20.740 -13.784  -4.832  1.00  0.00    -0.203 F 
ATOM     92  F   UNL     1      21.929 -17.762  -1.290  1.00  0.00    -0.200 F 
ATOM     93  C   UNL     1      22.592 -16.336  -3.053  1.00  0.00     0.200 A 
ATOM     94  F   UNL     1      23.214 -14.880  -4.804  1.00  0.00    -0.200 F 
ATOM     95  F   UNL     1      23.827 -16.855  -3.026  1.00  0.00    -0.200 F 
ENDBRANCH  62  85
ENDBRANCH  36  37
ENDBRANCH  29  31
ENDBRANCH  28  29
ENDBRANCH  27  28
ENDBRANCH   1  27
TORSDOF 14
