REMARK SMILES Cc1ccc(S(=O)(=O)N(CC(=O)OCCOC(=O)c2ccc(-c3c4nc(c(-c5c(F)c(F)c(F)c(F)c5F)c5ccc([nH]5)c(-c5c(F)c(F)c(F)c(F)c5F)c5nc(c(-c6c(F)c(F)c(F)c(F)c6F)c6ccc3[nH]6)C=C5)C=C4)cc2)c2cc(Cl)cc(Cl)c2)cc1
REMARK SMILES IDX 14 1 13 2 11 3 12 4 10 5 9 6 6 7 7 8 8 9 5 10 1 11 2 12 3 13
REMARK SMILES IDX 91 14 4 15 90 16 82 17 83 18 89 19 84 20 87 21 85 22 86 23
REMARK SMILES IDX 88 24 15 25 16 26 17 27 18 28 19 29 20 30 81 31 21 32 80 33
REMARK SMILES IDX 22 34 23 35 24 36 74 37 25 38 79 39 73 40 75 41 26 42 78 43
REMARK SMILES IDX 72 44 71 45 27 47 59 48 39 49 58 50 40 51 43 52 57 53 76 54
REMARK SMILES IDX 41 55 42 56 56 58 77 59 44 60 28 61 29 62 37 63 30 64 31 65
REMARK SMILES IDX 35 66 38 67 32 68 33 69 36 70 34 71 60 72 61 73 69 74 62 75
REMARK SMILES IDX 63 76 67 77 70 78 64 79 65 80 68 81 66 82 45 83 46 84 54 85
REMARK SMILES IDX 47 86 48 87 52 88 55 89 49 90 50 91 53 92 51 93
REMARK H PARENT 75 46 43 57
REMARK Flexibility Score: inf
ROOT
ATOM      1  C   UNL     1      -4.692   3.440  -4.674  1.00  0.00     0.274 C 
ENDROOT
BRANCH   1   2
ATOM      2  O   UNL     1      -4.027   2.622  -3.692  1.00  0.00    -0.461 OA
BRANCH   2   3
ATOM      3  C   UNL     1      -4.847   1.906  -2.878  1.00  0.00     0.326 C 
ATOM      4  O   UNL     1      -6.036   1.925  -3.054  1.00  0.00    -0.250 OA
BRANCH   3   5
ATOM      5  C   UNL     1      -4.053   1.073  -1.878  1.00  0.00     0.258 C 
BRANCH   5   6
ATOM      6  N   UNL     1      -4.538   0.654  -0.512  1.00  0.00    -0.255 N 
BRANCH   6   7
ATOM      7  S   UNL     1      -3.851  -0.828   0.052  1.00  0.00     0.264 S 
ATOM      8  O   UNL     1      -4.098  -1.813  -0.983  1.00  0.00    -0.201 OA
ATOM      9  O   UNL     1      -4.239  -1.067   1.425  1.00  0.00    -0.201 OA
BRANCH   7  10
ATOM     10  C   UNL     1      -2.080  -0.562   0.100  1.00  0.00     0.088 A 
ATOM     11  C   UNL     1       2.207  -0.128   0.266  1.00  0.00     0.044 C 
ATOM     12  C   UNL     1       0.711  -0.261   0.195  1.00  0.00    -0.051 A 
ATOM     13  C   UNL     1       0.143  -1.497  -0.136  1.00  0.00     0.005 A 
ATOM     14  C   UNL     1      -0.133   0.815   0.507  1.00  0.00     0.005 A 
ATOM     15  C   UNL     1      -1.245  -1.646  -0.194  1.00  0.00     0.022 A 
ATOM     16  C   UNL     1      -1.528   0.667   0.469  1.00  0.00     0.022 A 
ENDBRANCH   7  10
ENDBRANCH   6   7
BRANCH   6  17
ATOM     17  C   UNL     1      -5.917   0.879  -0.091  1.00  0.00     0.055 A 
ATOM     18  C   UNL     1      -7.000   0.802  -0.960  1.00  0.00     0.047 A 
ATOM     19  C   UNL     1      -6.200   1.153   1.251  1.00  0.00     0.047 A 
ATOM     20  C   UNL     1      -8.236   1.351  -0.610  1.00  0.00     0.044 A 
ATOM     21  C   UNL     1      -7.495   1.515   1.644  1.00  0.00     0.044 A 
ATOM     22  Cl  UNL     1      -9.422   1.631  -1.828  1.00  0.00    -0.084 Cl
ATOM     23  C   UNL     1      -8.495   1.708   0.701  1.00  0.00     0.041 A 
ATOM     24  Cl  UNL     1      -7.858   1.730   3.312  1.00  0.00    -0.084 Cl
ENDBRANCH   6  17
ENDBRANCH   5   6
ENDBRANCH   3   5
ENDBRANCH   2   3
ENDBRANCH   1   2
BRANCH   1  25
ATOM     25  C   UNL     1      -5.967   4.280  -4.314  1.00  0.00     0.275 C 
BRANCH  25  26
ATOM     26  O   UNL     1      -6.412   4.696  -2.964  1.00  0.00    -0.458 OA
BRANCH  26  27
ATOM     27  C   UNL     1      -5.897   4.931  -1.735  1.00  0.00     0.338 C 
ATOM     28  O   UNL     1      -6.590   5.115  -0.745  1.00  0.00    -0.246 OA
BRANCH  27  29
ATOM     29  C   UNL     1      -4.442   4.930  -1.606  1.00  0.00     0.060 A 
ATOM     30  C   UNL     1      -3.765   4.489  -0.453  1.00  0.00     0.016 A 
ATOM     31  C   UNL     1      -3.744   5.312  -2.724  1.00  0.00     0.016 A 
ATOM     32  C   UNL     1      -2.373   4.360  -0.489  1.00  0.00     0.010 A 
ATOM     33  C   UNL     1      -2.476   4.840  -2.868  1.00  0.00     0.010 A 
ATOM     34  C   UNL     1      -1.745   4.507  -1.725  1.00  0.00    -0.014 A 
BRANCH  34  35
ATOM     35  C   UNL     1      -0.336   4.765  -1.973  1.00  0.00     0.031 A 
ATOM     36  C   UNL     1       0.655   3.723  -2.241  1.00  0.00     0.074 A 
ATOM     37  C   UNL     1      -0.150   6.048  -2.369  1.00  0.00     0.049 A 
ATOM     38  N   UNL     1       1.916   3.884  -2.027  1.00  0.00    -0.248 NA
ATOM     39  C   UNL     1       0.317   2.421  -2.811  1.00  0.00     0.031 C 
ATOM     40  C   UNL     1       0.872   6.646  -3.207  1.00  0.00     0.029 A 
ATOM     41  N   UNL     1      -1.025   7.117  -2.103  1.00  0.00    -0.354 N 
ATOM     42  C   UNL     1       2.560   2.880  -2.714  1.00  0.00     0.074 A 
ATOM     43  C   UNL     1       1.535   1.918  -3.057  1.00  0.00     0.031 C 
ATOM     44  C   UNL     1       0.740   7.988  -3.141  1.00  0.00     0.029 A 
ATOM     45  C   UNL     1      -0.286   8.291  -2.146  1.00  0.00     0.049 A 
ATOM     46  H   UNL     1      -1.990   7.045  -1.918  1.00  0.00     0.167 HD
ATOM     47  C   UNL     1       3.841   3.065  -3.147  1.00  0.00     0.037 A 
ATOM     48  C   UNL     1      -0.126   8.939  -0.956  1.00  0.00     0.037 A 
ATOM     49  C   UNL     1       4.234   4.464  -2.981  1.00  0.00     0.049 A 
ATOM     50  C   UNL     1       1.303   8.823  -0.503  1.00  0.00     0.074 A 
ATOM     51  C   UNL     1       4.206   5.514  -3.886  1.00  0.00     0.029 A 
ATOM     52  N   UNL     1       4.338   5.039  -1.717  1.00  0.00    -0.354 N 
ATOM     53  N   UNL     1       2.103   7.865  -0.878  1.00  0.00    -0.248 NA
ATOM     54  C   UNL     1       1.940   9.782   0.386  1.00  0.00     0.031 C 
ATOM     55  C   UNL     1       4.228   6.726  -3.159  1.00  0.00     0.029 A 
ATOM     56  C   UNL     1       4.285   6.420  -1.810  1.00  0.00     0.049 A 
ATOM     57  H   UNL     1       4.436   4.535  -0.877  1.00  0.00     0.167 HD
ATOM     58  C   UNL     1       3.341   8.083  -0.357  1.00  0.00     0.074 A 
ATOM     59  C   UNL     1       3.188   9.286   0.444  1.00  0.00     0.031 C 
ATOM     60  C   UNL     1       4.399   7.268  -0.635  1.00  0.00     0.037 A 
BRANCH  47  61
ATOM     61  C   UNL     1       4.567   2.090  -4.046  1.00  0.00     0.064 A 
ATOM     62  C   UNL     1       5.468   2.523  -5.043  1.00  0.00     0.173 A 
ATOM     63  C   UNL     1       4.423   0.693  -3.939  1.00  0.00     0.173 A 
ATOM     64  F   UNL     1       5.765   3.817  -5.209  1.00  0.00    -0.203 F 
ATOM     65  C   UNL     1       6.104   1.637  -5.918  1.00  0.00     0.198 A 
ATOM     66  C   UNL     1       5.038  -0.193  -4.835  1.00  0.00     0.198 A 
ATOM     67  F   UNL     1       3.698   0.151  -2.950  1.00  0.00    -0.203 F 
ATOM     68  F   UNL     1       6.938   2.113  -6.854  1.00  0.00    -0.200 F 
ATOM     69  C   UNL     1       5.872   0.281  -5.829  1.00  0.00     0.200 A 
ATOM     70  F   UNL     1       4.815  -1.510  -4.727  1.00  0.00    -0.200 F 
ATOM     71  F   UNL     1       6.461  -0.564  -6.685  1.00  0.00    -0.200 F 
ENDBRANCH  47  61
BRANCH  48  72
ATOM     72  C   UNL     1      -1.329   8.811  -0.057  1.00  0.00     0.064 A 
ATOM     73  C   UNL     1      -2.580   9.274  -0.529  1.00  0.00     0.173 A 
ATOM     74  C   UNL     1      -1.355   7.956   1.054  1.00  0.00     0.173 A 
ATOM     75  F   UNL     1      -2.634  10.064  -1.615  1.00  0.00    -0.203 F 
ATOM     76  C   UNL     1      -3.786   8.838   0.024  1.00  0.00     0.198 A 
ATOM     77  C   UNL     1      -2.568   7.532   1.615  1.00  0.00     0.198 A 
ATOM     78  F   UNL     1      -0.217   7.451   1.549  1.00  0.00    -0.203 F 
ATOM     79  F   UNL     1      -4.949   9.220  -0.524  1.00  0.00    -0.200 F 
ATOM     80  C   UNL     1      -3.779   7.955   1.087  1.00  0.00     0.200 A 
ATOM     81  F   UNL     1      -2.563   6.653   2.628  1.00  0.00    -0.200 F 
ATOM     82  F   UNL     1      -4.933   7.485   1.581  1.00  0.00    -0.200 F 
ENDBRANCH  48  72
BRANCH  60  83
ATOM     83  C   UNL     1       5.698   7.305   0.105  1.00  0.00     0.064 A 
ATOM     84  C   UNL     1       5.785   7.614   1.470  1.00  0.00     0.173 A 
ATOM     85  C   UNL     1       6.891   6.874  -0.517  1.00  0.00     0.173 A 
ATOM     86  F   UNL     1       4.693   7.912   2.188  1.00  0.00    -0.203 F 
ATOM     87  C   UNL     1       7.000   7.574   2.150  1.00  0.00     0.198 A 
ATOM     88  C   UNL     1       8.088   6.773   0.182  1.00  0.00     0.198 A 
ATOM     89  F   UNL     1       6.920   6.515  -1.809  1.00  0.00    -0.203 F 
ATOM     90  F   UNL     1       7.046   7.930   3.441  1.00  0.00    -0.200 F 
ATOM     91  C   UNL     1       8.147   7.143   1.510  1.00  0.00     0.200 A 
ATOM     92  F   UNL     1       9.178   6.296  -0.435  1.00  0.00    -0.200 F 
ATOM     93  F   UNL     1       9.304   7.064   2.179  1.00  0.00    -0.200 F 
ENDBRANCH  60  83
ENDBRANCH  34  35
ENDBRANCH  27  29
ENDBRANCH  26  27
ENDBRANCH  25  26
ENDBRANCH   1  25
TORSDOF 15
