REMARK SMILES Cc1cc(F)ccc1OC1(C(=O)OCCOC(=O)c2ccc(-c3c4nc(c(-c5c(F)c(F)c(F)c(F)c5F)c5ccc([nH]5)c(-c5c(F)c(F)c(F)c(F)c5F)c5nc(c(-c6c(F)c(F)c(F)c(F)c6F)c6ccc3[nH]6)C=C5)C=C4)cc2)CCN(C(=O)[C@H]2CCOC2)CC1
REMARK SMILES IDX 14 1 13 2 11 3 12 4 10 5 82 6 93 7 83 8 92 9 84 10 85 11
REMARK SMILES IDX 86 12 9 13 8 14 1 15 2 16 3 17 4 18 7 19 5 20 6 21 87 22
REMARK SMILES IDX 88 23 91 24 89 25 90 26 15 27 16 28 17 29 18 30 19 31 20 32
REMARK SMILES IDX 81 33 21 34 80 35 22 36 23 37 24 38 74 39 25 40 79 41 73 42
REMARK SMILES IDX 75 43 26 44 78 45 72 46 71 47 27 49 59 50 39 51 58 52 40 53
REMARK SMILES IDX 43 54 57 55 76 56 41 57 42 58 56 60 77 61 44 62 28 63 29 64
REMARK SMILES IDX 37 65 30 66 31 67 35 68 38 69 32 70 33 71 36 72 34 73 60 74
REMARK SMILES IDX 61 75 69 76 62 77 63 78 67 79 70 80 64 81 65 82 68 83 66 84
REMARK SMILES IDX 45 85 46 86 54 87 47 88 48 89 52 90 55 91 49 92 50 93 53 94
REMARK SMILES IDX 51 95
REMARK H PARENT 75 48 43 59
REMARK Flexibility Score: inf
ROOT
ATOM      1  C   UNL     1      10.454   7.162   2.490  1.00  0.00     0.274 C 
ENDROOT
BRANCH   1   2
ATOM      2  O   UNL     1       9.505   6.869   1.439  1.00  0.00    -0.459 OA
BRANCH   2   3
ATOM      3  C   UNL     1       8.391   7.654   1.271  1.00  0.00     0.350 C 
ATOM      4  O   UNL     1       8.067   8.536   2.049  1.00  0.00    -0.247 OA
BRANCH   3   5
ATOM      5  C   UNL     1       7.581   7.250  -0.018  1.00  0.00     0.209 C 
ATOM      6  C   UNL     1       8.609   6.757  -1.069  1.00  0.00     0.082 C 
ATOM      7  C   UNL     1       6.648   6.118   0.389  1.00  0.00     0.082 C 
ATOM      8  C   UNL     1       8.106   5.851  -2.166  1.00  0.00     0.124 C 
ATOM      9  C   UNL     1       6.074   5.318  -0.768  1.00  0.00     0.124 C 
ATOM     10  N   UNL     1       7.035   4.930  -1.804  1.00  0.00    -0.342 N 
ATOM     11  C   UNL     1       6.817   3.910  -2.734  1.00  0.00     0.228 C 
ATOM     12  O   UNL     1       7.547   3.781  -3.721  1.00  0.00    -0.274 OA
BRANCH   5  13
ATOM     13  O   UNL     1       6.979   8.448  -0.553  1.00  0.00    -0.475 OA
BRANCH  13  14
ATOM     14  C   UNL     1       5.684   8.885  -0.621  1.00  0.00     0.124 A 
ATOM     15  C   UNL     1       5.251   7.827  -2.935  1.00  0.00     0.048 C 
ATOM     16  C   UNL     1       4.916   8.741  -1.801  1.00  0.00    -0.006 A 
ATOM     17  C   UNL     1       3.815   9.587  -2.046  1.00  0.00     0.046 A 
ATOM     18  C   UNL     1       3.516  10.617  -1.176  1.00  0.00     0.123 A 
ATOM     19  C   UNL     1       5.331   9.921   0.262  1.00  0.00     0.050 A 
ATOM     20  F   UNL     1       2.541  11.481  -1.489  1.00  0.00    -0.207 F 
ATOM     21  C   UNL     1       4.261  10.790  -0.021  1.00  0.00     0.043 A 
ENDBRANCH  13  14
ENDBRANCH   5  13
BRANCH  11  22
ATOM     22  C   UNL     1       5.628   2.989  -2.546  1.00  0.00     0.107 C 
ATOM     23  C   UNL     1       4.398   3.505  -3.264  1.00  0.00     0.044 C 
ATOM     24  C   UNL     1       5.846   1.649  -3.226  1.00  0.00     0.173 C 
ATOM     25  C   UNL     1       3.629   2.242  -3.596  1.00  0.00     0.161 C 
ATOM     26  O   UNL     1       4.546   1.144  -3.558  1.00  0.00    -0.381 OA
ENDBRANCH  11  22
ENDBRANCH   3   5
ENDBRANCH   2   3
ENDBRANCH   1   2
BRANCH   1  27
ATOM     27  C   UNL     1      11.627   8.027   2.013  1.00  0.00     0.275 C 
BRANCH  27  28
ATOM     28  O   UNL     1      11.222   9.396   1.877  1.00  0.00    -0.458 OA
BRANCH  28  29
ATOM     29  C   UNL     1      10.730   9.664   0.656  1.00  0.00     0.338 C 
ATOM     30  O   UNL     1      10.675   8.904  -0.304  1.00  0.00    -0.246 OA
BRANCH  29  31
ATOM     31  C   UNL     1      10.264  11.036   0.537  1.00  0.00     0.060 A 
ATOM     32  C   UNL     1       8.950  11.230   0.092  1.00  0.00     0.016 A 
ATOM     33  C   UNL     1      11.236  12.022   0.424  1.00  0.00     0.016 A 
ATOM     34  C   UNL     1       8.635  12.355  -0.650  1.00  0.00     0.010 A 
ATOM     35  C   UNL     1      10.922  13.143  -0.316  1.00  0.00     0.010 A 
ATOM     36  C   UNL     1       9.657  13.254  -0.927  1.00  0.00    -0.014 A 
BRANCH  36  37
ATOM     37  C   UNL     1       9.532  14.301  -1.924  1.00  0.00     0.031 A 
ATOM     38  C   UNL     1       8.903  15.590  -1.597  1.00  0.00     0.074 A 
ATOM     39  C   UNL     1      10.149  14.126  -3.112  1.00  0.00     0.049 A 
ATOM     40  N   UNL     1       8.488  16.441  -2.476  1.00  0.00    -0.248 NA
ATOM     41  C   UNL     1       8.649  15.999  -0.221  1.00  0.00     0.031 C 
ATOM     42  C   UNL     1      10.650  15.173  -3.992  1.00  0.00     0.029 A 
ATOM     43  N   UNL     1      10.389  12.936  -3.809  1.00  0.00    -0.354 N 
ATOM     44  C   UNL     1       8.237  17.615  -1.807  1.00  0.00     0.074 A 
ATOM     45  C   UNL     1       8.235  17.256  -0.404  1.00  0.00     0.031 C 
ATOM     46  C   UNL     1      10.985  14.635  -5.176  1.00  0.00     0.029 A 
ATOM     47  C   UNL     1      10.485  13.272  -5.180  1.00  0.00     0.049 A 
ATOM     48  H   UNL     1      10.476  12.036  -3.419  1.00  0.00     0.167 HD
ATOM     49  C   UNL     1       8.263  18.799  -2.487  1.00  0.00     0.037 A 
ATOM     50  C   UNL     1       9.604  12.799  -6.119  1.00  0.00     0.037 A 
ATOM     51  C   UNL     1       8.514  18.602  -3.913  1.00  0.00     0.049 A 
ATOM     52  C   UNL     1       8.873  13.859  -6.894  1.00  0.00     0.074 A 
ATOM     53  C   UNL     1       9.685  18.660  -4.652  1.00  0.00     0.029 A 
ATOM     54  N   UNL     1       7.567  17.987  -4.728  1.00  0.00    -0.354 N 
ATOM     55  N   UNL     1       8.683  15.063  -6.446  1.00  0.00    -0.248 NA
ATOM     56  C   UNL     1       8.178  13.596  -8.149  1.00  0.00     0.031 C 
ATOM     57  C   UNL     1       9.447  18.073  -5.912  1.00  0.00     0.029 A 
ATOM     58  C   UNL     1       8.131  17.651  -5.946  1.00  0.00     0.049 A 
ATOM     59  H   UNL     1       6.631  17.816  -4.474  1.00  0.00     0.167 HD
ATOM     60  C   UNL     1       7.820  15.714  -7.280  1.00  0.00     0.074 A 
ATOM     61  C   UNL     1       7.556  14.770  -8.349  1.00  0.00     0.031 C 
ATOM     62  C   UNL     1       7.378  16.969  -6.986  1.00  0.00     0.037 A 
BRANCH  49  63
ATOM     63  C   UNL     1       8.491  20.112  -1.766  1.00  0.00     0.064 A 
ATOM     64  C   UNL     1       9.346  21.101  -2.300  1.00  0.00     0.173 A 
ATOM     65  C   UNL     1       7.972  20.405  -0.493  1.00  0.00     0.173 A 
ATOM     66  F   UNL     1       9.794  21.042  -3.559  1.00  0.00    -0.203 F 
ATOM     67  C   UNL     1       9.784  22.195  -1.552  1.00  0.00     0.198 A 
ATOM     68  C   UNL     1       8.447  21.473   0.276  1.00  0.00     0.198 A 
ATOM     69  F   UNL     1       6.976  19.675   0.028  1.00  0.00    -0.203 F 
ATOM     70  F   UNL     1      10.629  23.078  -2.102  1.00  0.00    -0.200 F 
ATOM     71  C   UNL     1       9.373  22.354  -0.246  1.00  0.00     0.200 A 
ATOM     72  F   UNL     1       8.013  21.633   1.534  1.00  0.00    -0.200 F 
ATOM     73  F   UNL     1       9.847  23.365   0.494  1.00  0.00    -0.200 F 
ENDBRANCH  49  63
BRANCH  50  74
ATOM     74  C   UNL     1       8.879  11.588  -5.666  1.00  0.00     0.064 A 
ATOM     75  C   UNL     1       9.620  10.425  -5.406  1.00  0.00     0.173 A 
ATOM     76  C   UNL     1       7.639  11.768  -5.031  1.00  0.00     0.173 A 
ATOM     77  F   UNL     1      10.795  10.216  -6.017  1.00  0.00    -0.203 F 
ATOM     78  C   UNL     1       9.235   9.582  -4.384  1.00  0.00     0.198 A 
ATOM     79  C   UNL     1       7.272  10.935  -3.998  1.00  0.00     0.198 A 
ATOM     80  F   UNL     1       6.864  12.826  -5.307  1.00  0.00    -0.203 F 
ATOM     81  F   UNL     1      10.005   8.546  -4.025  1.00  0.00    -0.200 F 
ATOM     82  C   UNL     1       8.100   9.882  -3.656  1.00  0.00     0.200 A 
ATOM     83  F   UNL     1       6.179  11.209  -3.274  1.00  0.00    -0.200 F 
ATOM     84  F   UNL     1       7.832   9.158  -2.581  1.00  0.00    -0.200 F 
ENDBRANCH  50  74
BRANCH  62  85
ATOM     85  C   UNL     1       6.319  17.703  -7.753  1.00  0.00     0.064 A 
ATOM     86  C   UNL     1       5.231  17.074  -8.379  1.00  0.00     0.173 A 
ATOM     87  C   UNL     1       6.331  19.114  -7.803  1.00  0.00     0.173 A 
ATOM     88  F   UNL     1       5.042  15.751  -8.281  1.00  0.00    -0.203 F 
ATOM     89  C   UNL     1       4.277  17.800  -9.092  1.00  0.00     0.198 A 
ATOM     90  C   UNL     1       5.347  19.839  -8.469  1.00  0.00     0.198 A 
ATOM     91  F   UNL     1       7.292  19.827  -7.197  1.00  0.00    -0.203 F 
ATOM     92  F   UNL     1       3.290  17.153  -9.728  1.00  0.00    -0.200 F 
ATOM     93  C   UNL     1       4.333  19.181  -9.136  1.00  0.00     0.200 A 
ATOM     94  F   UNL     1       5.385  21.179  -8.457  1.00  0.00    -0.200 F 
ATOM     95  F   UNL     1       3.403  19.876  -9.803  1.00  0.00    -0.200 F 
ENDBRANCH  62  85
ENDBRANCH  36  37
ENDBRANCH  29  31
ENDBRANCH  28  29
ENDBRANCH  27  28
ENDBRANCH   1  27
TORSDOF 14
