REMARK SMILES COc1ccc(OC)c(/C=N/[NH+]=C2/NC(=O)[C@@H](CC(=O)OCCOC(=O)c3ccc(-c4c5nc(c(-c6c(F)c(F)c(F)c(F)c6F)c6ccc([nH]6)c(-c6c(F)c(F)c(F)c(F)c6F)c6nc(c(-c7c(F)c(F)c(F)c(F)c7F)c7ccc4[nH]7)C=C6)C=C5)cc3)S2)c1
REMARK SMILES IDX 22 1 21 2 19 3 20 4 18 5 17 6 12 7 13 8 14 10 90 11 15 12
REMARK SMILES IDX 16 14 11 15 10 16 9 17 3 18 4 19 91 20 5 21 6 22 2 23 1 24
REMARK SMILES IDX 7 25 8 26 23 27 24 28 25 29 26 30 27 31 28 32 89 33 29 34
REMARK SMILES IDX 88 35 30 36 31 37 32 38 82 39 33 40 87 41 81 42 83 43 34 44
REMARK SMILES IDX 86 45 80 46 79 47 35 49 67 50 47 51 66 52 48 53 51 54 65 55
REMARK SMILES IDX 84 56 49 57 50 58 64 60 85 61 52 62 36 63 37 64 45 65 38 66
REMARK SMILES IDX 39 67 43 68 46 69 40 70 41 71 44 72 42 73 68 74 69 75 77 76
REMARK SMILES IDX 70 77 71 78 75 79 78 80 72 81 73 82 76 83 74 84 53 85 54 86
REMARK SMILES IDX 62 87 55 88 56 89 60 90 63 91 57 92 58 93 61 94 59 95
REMARK H PARENT 12 9 14 13 83 48 51 59
REMARK Flexibility Score: inf
ROOT
ATOM      1  C   UNL     1       8.676   1.946  -2.656  1.00  0.00     0.274 C 
ENDROOT
BRANCH   1   2
ATOM      2  O   UNL     1       8.818   0.596  -3.153  1.00  0.00    -0.462 OA
BRANCH   2   3
ATOM      3  C   UNL     1       9.031  -0.366  -2.223  1.00  0.00     0.307 C 
ATOM      4  O   UNL     1       8.990  -0.176  -1.011  1.00  0.00    -0.252 OA
BRANCH   3   5
ATOM      5  C   UNL     1       9.470  -1.695  -2.798  1.00  0.00     0.150 C 
BRANCH   5   6
ATOM      6  C   UNL     1       8.881  -2.179  -4.114  1.00  0.00     0.184 C 
ATOM      7  N   UNL     1       5.647  -1.040  -5.904  1.00  0.00    -0.142 N 
ATOM      8  C   UNL     1       6.767  -1.413  -5.384  1.00  0.00     0.337 C 
ATOM      9  H   UNL     1       5.612  -0.378  -6.632  1.00  0.00     0.343 HD
ATOM     10  N   UNL     1       7.920  -0.878  -5.855  1.00  0.00    -0.202 N 
ATOM     11  S   UNL     1       7.093  -2.536  -4.096  1.00  0.00    -0.020 SA
ATOM     12  C   UNL     1       9.094  -1.213  -5.254  1.00  0.00     0.322 C 
ATOM     13  H   UNL     1       7.908  -0.258  -6.620  1.00  0.00     0.316 HD
ATOM     14  O   UNL     1      10.186  -0.777  -5.598  1.00  0.00    -0.246 OA
BRANCH   7  15
ATOM     15  N   UNL     1       4.487  -1.619  -5.385  1.00  0.00    -0.093 NA
ATOM     16  C   UNL     1       3.704  -0.698  -4.917  1.00  0.00     0.170 C 
BRANCH  16  17
ATOM     17  C   UNL     1       2.330  -0.968  -4.478  1.00  0.00     0.042 A 
ATOM     18  C   UNL     1       0.783  -1.004  -2.617  1.00  0.00     0.119 A 
ATOM     19  C   UNL     1      -0.232  -1.435  -3.462  1.00  0.00     0.050 A 
ATOM     20  C   UNL     1       2.065  -0.781  -3.114  1.00  0.00     0.060 A 
ATOM     21  C   UNL     1       0.031  -1.599  -4.824  1.00  0.00     0.051 A 
ATOM     22  C   UNL     1       1.305  -1.345  -5.354  1.00  0.00     0.128 A 
BRANCH  18  23
ATOM     23  O   UNL     1       0.527  -0.917  -1.277  1.00  0.00    -0.497 OA
ATOM     24  C   UNL     1       0.335   0.440  -0.879  1.00  0.00     0.278 C 
ENDBRANCH  18  23
BRANCH  22  25
ATOM     25  O   UNL     1       1.365  -1.528  -6.708  1.00  0.00    -0.496 OA
ATOM     26  C   UNL     1       2.267  -0.715  -7.450  1.00  0.00     0.278 C 
ENDBRANCH  22  25
ENDBRANCH  16  17
ENDBRANCH   7  15
ENDBRANCH   5   6
ENDBRANCH   3   5
ENDBRANCH   2   3
ENDBRANCH   1   2
BRANCH   1  27
ATOM     27  C   UNL     1       7.221   2.377  -2.446  1.00  0.00     0.275 C 
BRANCH  27  28
ATOM     28  O   UNL     1       6.577   1.627  -1.398  1.00  0.00    -0.458 OA
BRANCH  28  29
ATOM     29  C   UNL     1       5.955   0.519  -1.853  1.00  0.00     0.338 C 
ATOM     30  O   UNL     1       5.859   0.178  -3.017  1.00  0.00    -0.246 OA
BRANCH  29  31
ATOM     31  C   UNL     1       5.387  -0.292  -0.773  1.00  0.00     0.060 A 
ATOM     32  C   UNL     1       5.877  -1.589  -0.577  1.00  0.00     0.016 A 
ATOM     33  C   UNL     1       4.239   0.146  -0.114  1.00  0.00     0.016 A 
ATOM     34  C   UNL     1       5.204  -2.466   0.268  1.00  0.00     0.010 A 
ATOM     35  C   UNL     1       3.556  -0.740   0.718  1.00  0.00     0.010 A 
ATOM     36  C   UNL     1       4.028  -2.051   0.902  1.00  0.00    -0.014 A 
BRANCH  36  37
ATOM     37  C   UNL     1       3.328  -2.952   1.837  1.00  0.00     0.031 A 
ATOM     38  C   UNL     1       2.213  -3.839   1.380  1.00  0.00     0.074 A 
ATOM     39  C   UNL     1       3.687  -2.906   3.131  1.00  0.00     0.049 A 
ATOM     40  N   UNL     1       1.450  -4.631   2.091  1.00  0.00    -0.248 NA
ATOM     41  C   UNL     1       1.911  -3.837  -0.058  1.00  0.00     0.031 C 
ATOM     42  C   UNL     1       4.762  -2.071   3.668  1.00  0.00     0.029 A 
ATOM     43  N   UNL     1       3.166  -3.538   4.226  1.00  0.00    -0.354 N 
ATOM     44  C   UNL     1       0.583  -5.230   1.188  1.00  0.00     0.074 A 
ATOM     45  C   UNL     1       0.896  -4.691  -0.120  1.00  0.00     0.031 C 
ATOM     46  C   UNL     1       4.784  -2.199   5.003  1.00  0.00     0.029 A 
ATOM     47  C   UNL     1       3.721  -3.115   5.406  1.00  0.00     0.049 A 
ATOM     48  H   UNL     1       2.464  -4.227   4.173  1.00  0.00     0.167 HD
ATOM     49  C   UNL     1      -0.379  -6.150   1.438  1.00  0.00     0.037 A 
ATOM     50  C   UNL     1       3.390  -3.411   6.674  1.00  0.00     0.037 A 
ATOM     51  C   UNL     1      -0.692  -6.662   2.749  1.00  0.00     0.049 A 
ATOM     52  C   UNL     1       2.296  -4.401   6.930  1.00  0.00     0.074 A 
ATOM     53  C   UNL     1      -1.612  -7.633   3.104  1.00  0.00     0.029 A 
ATOM     54  N   UNL     1      -0.100  -6.225   3.927  1.00  0.00    -0.354 N 
ATOM     55  N   UNL     1       1.520  -5.011   6.068  1.00  0.00    -0.248 NA
ATOM     56  C   UNL     1       2.044  -4.761   8.331  1.00  0.00     0.031 C 
ATOM     57  C   UNL     1      -1.605  -7.756   4.500  1.00  0.00     0.029 A 
ATOM     58  C   UNL     1      -0.654  -6.888   5.012  1.00  0.00     0.049 A 
ATOM     59  H   UNL     1       0.609  -5.545   3.983  1.00  0.00     0.167 HD
ATOM     60  C   UNL     1       0.697  -5.838   6.814  1.00  0.00     0.074 A 
ATOM     61  C   UNL     1       1.075  -5.657   8.203  1.00  0.00     0.031 C 
ATOM     62  C   UNL     1      -0.279  -6.677   6.387  1.00  0.00     0.037 A 
BRANCH  49  63
ATOM     63  C   UNL     1      -1.172  -6.663   0.273  1.00  0.00     0.064 A 
ATOM     64  C   UNL     1      -0.622  -7.576  -0.639  1.00  0.00     0.173 A 
ATOM     65  C   UNL     1      -2.513  -6.289   0.101  1.00  0.00     0.173 A 
ATOM     66  F   UNL     1       0.657  -7.964  -0.519  1.00  0.00    -0.203 F 
ATOM     67  C   UNL     1      -1.383  -8.086  -1.689  1.00  0.00     0.198 A 
ATOM     68  C   UNL     1      -3.276  -6.815  -0.939  1.00  0.00     0.198 A 
ATOM     69  F   UNL     1      -3.088  -5.426   0.952  1.00  0.00    -0.203 F 
ATOM     70  F   UNL     1      -0.832  -8.942  -2.561  1.00  0.00    -0.200 F 
ATOM     71  C   UNL     1      -2.710  -7.710  -1.834  1.00  0.00     0.200 A 
ATOM     72  F   UNL     1      -4.561  -6.460  -1.071  1.00  0.00    -0.200 F 
ATOM     73  F   UNL     1      -3.444  -8.211  -2.837  1.00  0.00    -0.200 F 
ENDBRANCH  49  63
BRANCH  50  74
ATOM     74  C   UNL     1       4.123  -2.746   7.774  1.00  0.00     0.064 A 
ATOM     75  C   UNL     1       5.124  -3.418   8.484  1.00  0.00     0.173 A 
ATOM     76  C   UNL     1       3.894  -1.394   8.073  1.00  0.00     0.173 A 
ATOM     77  F   UNL     1       5.365  -4.713   8.235  1.00  0.00    -0.203 F 
ATOM     78  C   UNL     1       5.877  -2.760   9.453  1.00  0.00     0.198 A 
ATOM     79  C   UNL     1       4.660  -0.733   9.030  1.00  0.00     0.198 A 
ATOM     80  F   UNL     1       2.952  -0.709   7.409  1.00  0.00    -0.203 F 
ATOM     81  F   UNL     1       6.826  -3.425  10.125  1.00  0.00    -0.200 F 
ATOM     82  C   UNL     1       5.651  -1.417   9.718  1.00  0.00     0.200 A 
ATOM     83  F   UNL     1       4.450   0.568   9.272  1.00  0.00    -0.200 F 
ATOM     84  F   UNL     1       6.392  -0.780  10.635  1.00  0.00    -0.200 F 
ENDBRANCH  50  74
BRANCH  62  85
ATOM     85  C   UNL     1      -0.998  -7.461   7.440  1.00  0.00     0.064 A 
ATOM     86  C   UNL     1      -1.965  -6.862   8.261  1.00  0.00     0.173 A 
ATOM     87  C   UNL     1      -0.725  -8.823   7.626  1.00  0.00     0.173 A 
ATOM     88  F   UNL     1      -2.244  -5.556   8.131  1.00  0.00    -0.203 F 
ATOM     89  C   UNL     1      -2.617  -7.596   9.247  1.00  0.00     0.198 A 
ATOM     90  C   UNL     1      -1.393  -9.559   8.600  1.00  0.00     0.198 A 
ATOM     91  F   UNL     1       0.192  -9.439   6.865  1.00  0.00    -0.203 F 
ATOM     92  F   UNL     1      -3.506  -6.994  10.050  1.00  0.00    -0.200 F 
ATOM     93  C   UNL     1      -2.333  -8.943   9.413  1.00  0.00     0.200 A 
ATOM     94  F   UNL     1      -1.122 -10.862   8.758  1.00  0.00    -0.200 F 
ATOM     95  F   UNL     1      -2.959  -9.647  10.367  1.00  0.00    -0.200 F 
ENDBRANCH  62  85
ENDBRANCH  36  37
ENDBRANCH  29  31
ENDBRANCH  28  29
ENDBRANCH  27  28
ENDBRANCH   1  27
TORSDOF 16
