REMARK SMILES CC(C)(O)C#Cc1ccc(C(=O)N[C@@H](CCC(N)=O)C(=O)OCCOC(=O)c2ccc(-c3c4nc(c(-c5c(F)c(F)c(F)c(F)c5F)c5ccc([nH]5)c(-c5c(F)c(F)c(F)c(F)c5F)c5nc(c(-c6c(F)c(F)c(F)c(F)c6F)c6ccc3[nH]6)C=C5)C=C4)cc2)s1
REMARK SMILES IDX 22 1 20 2 21 3 14 4 13 5 11 6 12 7 10 9 7 10 8 11 91 12 9 13
REMARK SMILES IDX 6 14 5 15 2 16 1 17 3 18 4 19 15 21 16 22 17 23 18 24 19 25
REMARK SMILES IDX 23 28 24 29 25 30 26 31 27 32 28 33 29 34 90 35 30 36 89 37
REMARK SMILES IDX 31 38 32 39 33 40 83 41 34 42 88 43 82 44 84 45 35 46 87 47
REMARK SMILES IDX 81 48 80 49 36 51 68 52 48 53 67 54 49 55 52 56 66 57 85 58
REMARK SMILES IDX 50 59 51 60 65 62 86 63 53 64 37 65 38 66 46 67 39 68 40 69
REMARK SMILES IDX 44 70 47 71 41 72 42 73 45 74 43 75 69 76 70 77 78 78 71 79
REMARK SMILES IDX 72 80 76 81 79 82 73 83 74 84 77 85 75 86 54 87 55 88 63 89
REMARK SMILES IDX 56 90 57 91 61 92 64 93 58 94 59 95 62 96 60 97
REMARK H PARENT 13 8 4 20 18 26 18 27 84 50 52 61
REMARK Flexibility Score: inf
ROOT
ATOM      1  O   UNL     1      -2.600  -8.496   1.249  1.00  0.00    -0.461 OA
ENDROOT
BRANCH   1   2
ATOM      2  C   UNL     1      -2.208  -7.271   0.822  1.00  0.00     0.328 C 
ATOM      3  O   UNL     1      -2.959  -6.314   0.654  1.00  0.00    -0.250 OA
BRANCH   2   4
ATOM      4  C   UNL     1      -0.738  -7.245   0.392  1.00  0.00     0.193 C 
BRANCH   4   5
ATOM      5  N   UNL     1       0.235  -8.114   1.071  1.00  0.00    -0.338 N 
ATOM      6  C   UNL     1       1.438  -7.860   1.709  1.00  0.00     0.262 C 
ATOM      7  O   UNL     1       1.984  -8.832   2.238  1.00  0.00    -0.268 OA
ATOM      8  H   UNL     1      -0.019  -9.065   1.072  1.00  0.00     0.164 HD
BRANCH   6   9
ATOM      9  C   UNL     1       2.011  -6.522   1.848  1.00  0.00     0.093 A 
ATOM     10  C   UNL     1       2.282  -4.082   1.877  1.00  0.00     0.078 A 
ATOM     11  C   UNL     1       3.010  -4.667   2.888  1.00  0.00     0.030 A 
ATOM     12  S   UNL     1       1.807  -5.248   0.727  1.00  0.00    -0.121 S 
ATOM     13  C   UNL     1       2.880  -6.094   2.850  1.00  0.00     0.027 A 
BRANCH  10  14
ATOM     14  C   UNL     1       1.909  -2.719   1.761  1.00  0.00    -0.053 C 
ATOM     15  C   UNL     1       1.415  -1.626   1.617  1.00  0.00    -0.063 C 
BRANCH  15  16
ATOM     16  C   UNL     1       0.729  -0.355   1.366  1.00  0.00     0.120 C 
ATOM     17  C   UNL     1       1.071   0.145  -0.036  1.00  0.00     0.056 C 
ATOM     18  C   UNL     1       1.093   0.675   2.432  1.00  0.00     0.056 C 
BRANCH  16  19
ATOM     19  O   UNL     1      -0.680  -0.580   1.430  1.00  0.00    -0.378 OA
ATOM     20  H   UNL     1      -1.148   0.254   1.266  1.00  0.00     0.212 HD
ENDBRANCH  16  19
ENDBRANCH  15  16
ENDBRANCH  10  14
ENDBRANCH   6   9
ENDBRANCH   4   5
BRANCH   4  21
ATOM     21  C   UNL     1      -0.706  -7.478  -1.129  1.00  0.00     0.047 C 
BRANCH  21  22
ATOM     22  C   UNL     1      -0.991  -8.915  -1.598  1.00  0.00     0.102 C 
BRANCH  22  23
ATOM     23  C   UNL     1      -2.372  -9.475  -1.320  1.00  0.00     0.217 C 
ATOM     24  N   UNL     1      -3.425  -8.782  -1.833  1.00  0.00    -0.370 N 
ATOM     25  O   UNL     1      -2.559 -10.509  -0.687  1.00  0.00    -0.275 OA
ATOM     26  H   UNL     1      -3.268  -7.953  -2.340  1.00  0.00     0.159 HD
ATOM     27  H   UNL     1      -4.343  -9.110  -1.696  1.00  0.00     0.159 HD
ENDBRANCH  22  23
ENDBRANCH  21  22
ENDBRANCH   4  21
ENDBRANCH   2   4
ENDBRANCH   1   2
BRANCH   1  28
ATOM     28  C   UNL     1      -3.966  -8.610   1.681  1.00  0.00     0.274 C 
BRANCH  28  29
ATOM     29  C   UNL     1      -4.002  -8.541   3.192  1.00  0.00     0.275 C 
BRANCH  29  30
ATOM     30  O   UNL     1      -3.480  -7.282   3.610  1.00  0.00    -0.458 OA
BRANCH  30  31
ATOM     31  C   UNL     1      -2.142  -7.257   3.805  1.00  0.00     0.338 C 
ATOM     32  O   UNL     1      -1.320  -8.101   3.492  1.00  0.00    -0.246 OA
BRANCH  31  33
ATOM     33  C   UNL     1      -1.827  -6.163   4.715  1.00  0.00     0.060 A 
ATOM     34  C   UNL     1      -0.473  -5.968   4.999  1.00  0.00     0.016 A 
ATOM     35  C   UNL     1      -2.843  -5.813   5.606  1.00  0.00     0.016 A 
ATOM     36  C   UNL     1      -0.125  -5.737   6.309  1.00  0.00     0.010 A 
ATOM     37  C   UNL     1      -2.495  -5.589   6.902  1.00  0.00     0.010 A 
ATOM     38  C   UNL     1      -1.150  -5.683   7.258  1.00  0.00    -0.014 A 
BRANCH  38  39
ATOM     39  C   UNL     1      -0.847  -5.466   8.654  1.00  0.00     0.031 A 
ATOM     40  C   UNL     1      -0.506  -4.035   8.836  1.00  0.00     0.074 A 
ATOM     41  C   UNL     1      -1.065  -6.415   9.589  1.00  0.00     0.049 A 
ATOM     42  N   UNL     1       0.677  -3.535   8.983  1.00  0.00    -0.248 NA
ATOM     43  C   UNL     1      -1.523  -3.026   8.463  1.00  0.00     0.031 C 
ATOM     44  C   UNL     1      -1.603  -7.770   9.413  1.00  0.00     0.029 A 
ATOM     45  N   UNL     1      -0.940  -6.322  10.948  1.00  0.00    -0.354 N 
ATOM     46  C   UNL     1       0.468  -2.160   9.026  1.00  0.00     0.074 A 
ATOM     47  C   UNL     1      -0.768  -1.933   8.345  1.00  0.00     0.031 C 
ATOM     48  C   UNL     1      -1.989  -8.269  10.613  1.00  0.00     0.029 A 
ATOM     49  C   UNL     1      -1.622  -7.330  11.653  1.00  0.00     0.049 A 
ATOM     50  H   UNL     1      -0.418  -5.615  11.392  1.00  0.00     0.167 HD
ATOM     51  C   UNL     1       1.041  -1.435  10.026  1.00  0.00     0.037 A 
ATOM     52  C   UNL     1      -1.901  -7.296  12.988  1.00  0.00     0.037 A 
ATOM     53  C   UNL     1       2.150  -2.180  10.585  1.00  0.00     0.049 A 
ATOM     54  C   UNL     1      -0.974  -6.294  13.586  1.00  0.00     0.074 A 
ATOM     55  C   UNL     1       3.329  -2.707  10.095  1.00  0.00     0.029 A 
ATOM     56  N   UNL     1       1.891  -2.848  11.755  1.00  0.00    -0.354 N 
ATOM     57  N   UNL     1       0.321  -6.455  13.623  1.00  0.00    -0.248 NA
ATOM     58  C   UNL     1      -1.442  -4.916  13.608  1.00  0.00     0.031 C 
ATOM     59  C   UNL     1       3.502  -3.948  10.782  1.00  0.00     0.029 A 
ATOM     60  C   UNL     1       2.487  -4.075  11.730  1.00  0.00     0.049 A 
ATOM     61  H   UNL     1       1.355  -2.495  12.501  1.00  0.00     0.167 HD
ATOM     62  C   UNL     1       0.828  -5.237  13.192  1.00  0.00     0.074 A 
ATOM     63  C   UNL     1      -0.310  -4.315  13.232  1.00  0.00     0.031 C 
ATOM     64  C   UNL     1       2.031  -5.175  12.546  1.00  0.00     0.037 A 
BRANCH  51  65
ATOM     65  C   UNL     1       0.285  -0.397  10.854  1.00  0.00     0.064 A 
ATOM     66  C   UNL     1       0.985   0.208  11.919  1.00  0.00     0.173 A 
ATOM     67  C   UNL     1      -1.119  -0.211  10.889  1.00  0.00     0.173 A 
ATOM     68  F   UNL     1       2.323   0.134  11.983  1.00  0.00    -0.203 F 
ATOM     69  C   UNL     1       0.327   0.801  12.999  1.00  0.00     0.198 A 
ATOM     70  C   UNL     1      -1.769   0.411  11.953  1.00  0.00     0.198 A 
ATOM     71  F   UNL     1      -1.953  -0.674   9.957  1.00  0.00    -0.203 F 
ATOM     72  F   UNL     1       1.036   1.225  14.053  1.00  0.00    -0.200 F 
ATOM     73  C   UNL     1      -1.051   0.881  13.026  1.00  0.00     0.200 A 
ATOM     74  F   UNL     1      -3.108   0.474  11.955  1.00  0.00    -0.200 F 
ATOM     75  F   UNL     1      -1.688   1.379  14.093  1.00  0.00    -0.200 F 
ENDBRANCH  51  65
BRANCH  52  76
ATOM     76  C   UNL     1      -3.128  -7.741  13.708  1.00  0.00     0.064 A 
ATOM     77  C   UNL     1      -3.167  -7.835  15.114  1.00  0.00     0.173 A 
ATOM     78  C   UNL     1      -4.373  -7.785  13.055  1.00  0.00     0.173 A 
ATOM     79  F   UNL     1      -2.035  -7.741  15.828  1.00  0.00    -0.203 F 
ATOM     80  C   UNL     1      -4.376  -7.950  15.816  1.00  0.00     0.198 A 
ATOM     81  C   UNL     1      -5.578  -7.899  13.755  1.00  0.00     0.198 A 
ATOM     82  F   UNL     1      -4.456  -7.615  11.728  1.00  0.00    -0.203 F 
ATOM     83  F   UNL     1      -4.376  -7.979  17.157  1.00  0.00    -0.200 F 
ATOM     84  C   UNL     1      -5.581  -7.971  15.136  1.00  0.00     0.200 A 
ATOM     85  F   UNL     1      -6.739  -7.870  13.086  1.00  0.00    -0.200 F 
ATOM     86  F   UNL     1      -6.742  -8.015  15.806  1.00  0.00    -0.200 F 
ENDBRANCH  52  76
BRANCH  64  87
ATOM     87  C   UNL     1       2.896  -6.404  12.558  1.00  0.00     0.064 A 
ATOM     88  C   UNL     1       2.579  -7.614  11.915  1.00  0.00     0.173 A 
ATOM     89  C   UNL     1       4.171  -6.288  13.125  1.00  0.00     0.173 A 
ATOM     90  F   UNL     1       1.415  -7.766  11.270  1.00  0.00    -0.203 F 
ATOM     91  C   UNL     1       3.491  -8.670  11.878  1.00  0.00     0.198 A 
ATOM     92  C   UNL     1       5.090  -7.328  13.056  1.00  0.00     0.198 A 
ATOM     93  F   UNL     1       4.543  -5.135  13.703  1.00  0.00    -0.203 F 
ATOM     94  F   UNL     1       3.168  -9.819  11.265  1.00  0.00    -0.200 F 
ATOM     95  C   UNL     1       4.748  -8.522  12.443  1.00  0.00     0.200 A 
ATOM     96  F   UNL     1       6.321  -7.158  13.557  1.00  0.00    -0.200 F 
ATOM     97  F   UNL     1       5.641  -9.520  12.375  1.00  0.00    -0.200 F 
ENDBRANCH  64  87
ENDBRANCH  38  39
ENDBRANCH  31  33
ENDBRANCH  30  31
ENDBRANCH  29  30
ENDBRANCH  28  29
ENDBRANCH   1  28
TORSDOF 19
