REMARK SMILES [NH3+][C@@]1(C(=O)OCCOC(=O)c2ccc(-c3c4nc(c(-c5c(F)c(F)c(F)c(F)c5F)c5ccc([nH]5)c(-c5c(F)c(F)c(F)c(F)c5F)c5nc(c(-c6c(F)c(F)c(F)c(F)c6F)c6ccc3[nH]6)C=C5)C=C4)cc2)CC[C@H](SC2CCOCC2)C1
REMARK SMILES IDX 6 1 5 2 3 3 4 4 2 5 74 6 84 7 75 8 76 9 1 10 77 14 78 15
REMARK SMILES IDX 79 16 83 17 80 18 82 19 81 20 7 21 8 22 9 23 10 24 11 25
REMARK SMILES IDX 12 26 73 27 13 28 72 29 14 30 15 31 16 32 66 33 17 34 71 35
REMARK SMILES IDX 65 36 67 37 18 38 70 39 64 40 63 41 19 43 51 44 31 45 50 46
REMARK SMILES IDX 32 47 35 48 49 49 68 50 33 51 34 52 48 54 69 55 36 56 20 57
REMARK SMILES IDX 21 58 29 59 22 60 23 61 27 62 30 63 24 64 25 65 28 66 26 67
REMARK SMILES IDX 52 68 53 69 61 70 54 71 55 72 59 73 62 74 56 75 57 76 60 77
REMARK SMILES IDX 58 78 37 79 38 80 46 81 39 82 40 83 44 84 47 85 41 86 42 87
REMARK SMILES IDX 45 88 43 89
REMARK H PARENT 1 11 1 12 1 13 67 42 35 53
REMARK Flexibility Score: inf
ROOT
ATOM      1  C   UNL     1      -2.737  -1.222   2.351  1.00  0.00     0.274 C 
ENDROOT
BRANCH   1   2
ATOM      2  O   UNL     1      -1.318  -1.414   2.208  1.00  0.00    -0.457 OA
BRANCH   2   3
ATOM      3  C   UNL     1      -0.789  -1.267   0.964  1.00  0.00     0.368 C 
ATOM      4  O   UNL     1      -1.453  -1.021  -0.038  1.00  0.00    -0.245 OA
BRANCH   3   5
ATOM      5  C   UNL     1       0.758  -1.489   0.950  1.00  0.00     0.193 C 
ATOM      6  C   UNL     1       1.044  -2.860   0.336  1.00  0.00     0.082 C 
ATOM      7  C   UNL     1       1.411  -1.572   2.339  1.00  0.00     0.095 C 
ATOM      8  C   UNL     1       0.836  -3.807   1.509  1.00  0.00     0.022 C 
ATOM      9  C   UNL     1       1.440  -3.070   2.707  1.00  0.00     0.054 C 
BRANCH   5  10
ATOM     10  N   UNL     1       1.401  -0.419   0.154  1.00  0.00    -0.343 N 
ATOM     11  H   UNL     1       0.963  -0.370  -0.766  1.00  0.00     0.345 HD
ATOM     12  H   UNL     1       2.394  -0.625   0.047  1.00  0.00     0.345 HD
ATOM     13  H   UNL     1       1.288   0.475   0.632  1.00  0.00     0.345 HD
ENDBRANCH   5  10
BRANCH   9  14
ATOM     14  S   UNL     1       0.579  -3.366   4.290  1.00  0.00    -0.155 SA
BRANCH  14  15
ATOM     15  C   UNL     1       0.902  -5.141   4.630  1.00  0.00     0.051 C 
ATOM     16  C   UNL     1       2.348  -5.581   4.412  1.00  0.00     0.043 C 
ATOM     17  C   UNL     1      -0.075  -6.063   3.899  1.00  0.00     0.043 C 
ATOM     18  C   UNL     1       2.489  -7.057   4.762  1.00  0.00     0.161 C 
ATOM     19  C   UNL     1       0.215  -7.513   4.263  1.00  0.00     0.161 C 
ATOM     20  O   UNL     1       1.578  -7.839   3.990  1.00  0.00    -0.381 OA
ENDBRANCH  14  15
ENDBRANCH   9  14
ENDBRANCH   3   5
ENDBRANCH   2   3
ENDBRANCH   1   2
BRANCH   1  21
ATOM     21  C   UNL     1      -3.032   0.118   3.021  1.00  0.00     0.275 C 
BRANCH  21  22
ATOM     22  O   UNL     1      -2.679   1.204   2.147  1.00  0.00    -0.458 OA
BRANCH  22  23
ATOM     23  C   UNL     1      -1.484   1.781   2.400  1.00  0.00     0.338 C 
ATOM     24  O   UNL     1      -0.700   1.533   3.299  1.00  0.00    -0.246 OA
BRANCH  23  25
ATOM     25  C   UNL     1      -1.198   2.774   1.361  1.00  0.00     0.060 A 
ATOM     26  C   UNL     1      -0.616   2.349   0.168  1.00  0.00     0.016 A 
ATOM     27  C   UNL     1      -1.374   4.130   1.625  1.00  0.00     0.016 A 
ATOM     28  C   UNL     1      -0.131   3.283  -0.740  1.00  0.00     0.010 A 
ATOM     29  C   UNL     1      -0.956   5.066   0.677  1.00  0.00     0.010 A 
ATOM     30  C   UNL     1      -0.305   4.651  -0.500  1.00  0.00    -0.014 A 
BRANCH  30  31
ATOM     31  C   UNL     1       0.217   5.660  -1.452  1.00  0.00     0.031 A 
ATOM     32  C   UNL     1       1.274   6.625  -1.003  1.00  0.00     0.074 A 
ATOM     33  C   UNL     1      -0.270   5.730  -2.704  1.00  0.00     0.049 A 
ATOM     34  N   UNL     1       1.670   7.741  -1.560  1.00  0.00    -0.248 NA
ATOM     35  C   UNL     1       1.972   6.297   0.250  1.00  0.00     0.031 C 
ATOM     36  C   UNL     1      -1.247   4.811  -3.287  1.00  0.00     0.029 A 
ATOM     37  N   UNL     1      -0.016   6.630  -3.708  1.00  0.00    -0.354 N 
ATOM     38  C   UNL     1       2.610   8.280  -0.694  1.00  0.00     0.074 A 
ATOM     39  C   UNL     1       2.747   7.360   0.414  1.00  0.00     0.031 C 
ATOM     40  C   UNL     1      -1.507   5.189  -4.547  1.00  0.00     0.029 A 
ATOM     41  C   UNL     1      -0.779   6.422  -4.830  1.00  0.00     0.049 A 
ATOM     42  H   UNL     1       0.648   7.353  -3.632  1.00  0.00     0.167 HD
ATOM     43  C   UNL     1       3.281   9.450  -0.813  1.00  0.00     0.037 A 
ATOM     44  C   UNL     1      -0.920   7.171  -5.939  1.00  0.00     0.037 A 
ATOM     45  C   UNL     1       3.175  10.331  -1.946  1.00  0.00     0.049 A 
ATOM     46  C   UNL     1      -0.173   8.469  -6.047  1.00  0.00     0.074 A 
ATOM     47  C   UNL     1       3.807  11.542  -2.164  1.00  0.00     0.029 A 
ATOM     48  N   UNL     1       2.395  10.078  -3.065  1.00  0.00    -0.354 N 
ATOM     49  N   UNL     1       0.644   9.023  -5.186  1.00  0.00    -0.248 NA
ATOM     50  C   UNL     1      -0.388   9.257  -7.268  1.00  0.00     0.031 C 
ATOM     51  C   UNL     1       3.397  12.031  -3.409  1.00  0.00     0.029 A 
ATOM     52  C   UNL     1       2.530  11.110  -3.977  1.00  0.00     0.049 A 
ATOM     53  H   UNL     1       1.829   9.282  -3.191  1.00  0.00     0.167 HD
ATOM     54  C   UNL     1       1.045  10.221  -5.758  1.00  0.00     0.074 A 
ATOM     55  C   UNL     1       0.391  10.308  -7.049  1.00  0.00     0.031 C 
ATOM     56  C   UNL     1       1.873  11.168  -5.257  1.00  0.00     0.037 A 
BRANCH  43  57
ATOM     57  C   UNL     1       4.150   9.867   0.333  1.00  0.00     0.064 A 
ATOM     58  C   UNL     1       5.405   9.287   0.562  1.00  0.00     0.173 A 
ATOM     59  C   UNL     1       3.724  10.883   1.203  1.00  0.00     0.173 A 
ATOM     60  F   UNL     1       5.847   8.300  -0.231  1.00  0.00    -0.203 F 
ATOM     61  C   UNL     1       6.196   9.698   1.632  1.00  0.00     0.198 A 
ATOM     62  C   UNL     1       4.526  11.305   2.259  1.00  0.00     0.198 A 
ATOM     63  F   UNL     1       2.530  11.468   1.025  1.00  0.00    -0.203 F 
ATOM     64  F   UNL     1       7.378   9.107   1.856  1.00  0.00    -0.200 F 
ATOM     65  C   UNL     1       5.759  10.710   2.476  1.00  0.00     0.200 A 
ATOM     66  F   UNL     1       4.104  12.286   3.069  1.00  0.00    -0.200 F 
ATOM     67  F   UNL     1       6.523  11.105   3.503  1.00  0.00    -0.200 F 
ENDBRANCH  43  57
BRANCH  44  68
ATOM     68  C   UNL     1      -1.851   6.724  -7.003  1.00  0.00     0.064 A 
ATOM     69  C   UNL     1      -1.368   6.214  -8.214  1.00  0.00     0.173 A 
ATOM     70  C   UNL     1      -3.241   6.759  -6.812  1.00  0.00     0.173 A 
ATOM     71  F   UNL     1      -0.048   6.185  -8.448  1.00  0.00    -0.203 F 
ATOM     72  C   UNL     1      -2.241   5.750  -9.195  1.00  0.00     0.198 A 
ATOM     73  C   UNL     1      -4.112   6.274  -7.785  1.00  0.00     0.198 A 
ATOM     74  F   UNL     1      -3.750   7.239  -5.668  1.00  0.00    -0.203 F 
ATOM     75  F   UNL     1      -1.756   5.286 -10.355  1.00  0.00    -0.200 F 
ATOM     76  C   UNL     1      -3.611   5.771  -8.976  1.00  0.00     0.200 A 
ATOM     77  F   UNL     1      -5.433   6.285  -7.564  1.00  0.00    -0.200 F 
ATOM     78  F   UNL     1      -4.449   5.311  -9.915  1.00  0.00    -0.200 F 
ENDBRANCH  44  68
BRANCH  56  79
ATOM     79  C   UNL     1       2.137  12.365  -6.115  1.00  0.00     0.064 A 
ATOM     80  C   UNL     1       1.215  13.417  -6.199  1.00  0.00     0.173 A 
ATOM     81  C   UNL     1       3.345  12.481  -6.818  1.00  0.00     0.173 A 
ATOM     82  F   UNL     1       0.042  13.339  -5.553  1.00  0.00    -0.203 F 
ATOM     83  C   UNL     1       1.490  14.543  -6.968  1.00  0.00     0.198 A 
ATOM     84  C   UNL     1       3.622  13.615  -7.574  1.00  0.00     0.198 A 
ATOM     85  F   UNL     1       4.255  11.497  -6.764  1.00  0.00    -0.203 F 
ATOM     86  F   UNL     1       0.587  15.529  -7.056  1.00  0.00    -0.200 F 
ATOM     87  C   UNL     1       2.695  14.644  -7.650  1.00  0.00     0.200 A 
ATOM     88  F   UNL     1       4.787  13.714  -8.229  1.00  0.00    -0.200 F 
ATOM     89  F   UNL     1       2.960  15.732  -8.386  1.00  0.00    -0.200 F 
ENDBRANCH  56  79
ENDBRANCH  30  31
ENDBRANCH  23  25
ENDBRANCH  22  23
ENDBRANCH  21  22
ENDBRANCH   1  21
TORSDOF 14
