REMARK SMILES Cc1ccc(C2=NN(C(=O)CCC(=O)OCCOC(=O)c3ccc(-c4c5nc(c(-c6c(F)c(F)c(F)c(F)c6F)c6ccc([nH]6)c(-c6c(F)c(F)c(F)c(F)c6F)c6nc(c(-c7c(F)c(F)c(F)c(F)c7F)c7ccc4[nH]7)C=C6)C=C5)cc3)[C@H](C[C@@H]3C=c4cccc(C)c4=NC3=O)C2)cc1
REMARK SMILES IDX 15 1 13 2 14 3 12 4 11 5 9 6 10 7 8 8 6 9 7 10 98 11 84 12
REMARK SMILES IDX 5 13 1 14 2 15 3 16 100 17 4 18 99 19 85 20 86 21 87 22
REMARK SMILES IDX 96 23 88 24 95 25 97 26 89 27 94 28 90 29 92 30 91 31 93 32
REMARK SMILES IDX 16 33 17 34 18 35 19 36 20 37 21 38 22 39 83 40 23 41 82 42
REMARK SMILES IDX 24 43 25 44 26 45 76 46 27 47 81 48 75 49 77 50 28 51 80 52
REMARK SMILES IDX 74 53 73 54 29 56 61 57 41 58 60 59 42 60 45 61 59 62 78 63
REMARK SMILES IDX 43 64 44 65 58 67 79 68 46 69 30 70 31 71 39 72 32 73 33 74
REMARK SMILES IDX 37 75 40 76 34 77 35 78 38 79 36 80 62 81 63 82 71 83 64 84
REMARK SMILES IDX 65 85 69 86 72 87 66 88 67 89 70 90 68 91 47 92 48 93 56 94
REMARK SMILES IDX 49 95 50 96 54 97 57 98 51 99 52 100 55 101 53 102
REMARK H PARENT 77 55 45 66
REMARK Flexibility Score: inf
ROOT
ATOM      1  O   UNL     1      -5.425   1.648  -0.302  1.00  0.00    -0.462 OA
ENDROOT
BRANCH   1   2
ATOM      2  C   UNL     1      -6.479   0.927   0.116  1.00  0.00     0.306 C 
ATOM      3  O   UNL     1      -7.311   0.402  -0.599  1.00  0.00    -0.252 OA
BRANCH   2   4
ATOM      4  C   UNL     1      -6.463   0.660   1.582  1.00  0.00     0.132 C 
BRANCH   4   5
ATOM      5  C   UNL     1      -6.676  -0.829   1.757  1.00  0.00     0.114 C 
BRANCH   5   6
ATOM      6  C   UNL     1      -5.343  -1.540   1.803  1.00  0.00     0.243 C 
ATOM      7  O   UNL     1      -4.982  -1.976   2.904  1.00  0.00    -0.273 OA
BRANCH   6   8
ATOM      8  N   UNL     1      -4.524  -1.602   0.677  1.00  0.00    -0.230 N 
ATOM      9  C   UNL     1      -2.555  -1.134  -0.088  1.00  0.00     0.070 C 
ATOM     10  N   UNL     1      -3.208  -1.340   1.002  1.00  0.00    -0.174 NA
ATOM     11  C   UNL     1      -3.290  -1.371  -1.355  1.00  0.00     0.086 C 
ATOM     12  C   UNL     1      -4.718  -1.514  -0.809  1.00  0.00     0.118 C 
BRANCH   9  13
ATOM     13  C   UNL     1      -1.153  -0.748  -0.093  1.00  0.00    -0.002 A 
ATOM     14  C   UNL     1       2.997   0.262   0.017  1.00  0.00     0.044 C 
ATOM     15  C   UNL     1       1.536  -0.073  -0.014  1.00  0.00    -0.051 A 
ATOM     16  C   UNL     1       1.144  -1.420  -0.002  1.00  0.00     0.004 A 
ATOM     17  C   UNL     1       0.561   0.935  -0.052  1.00  0.00     0.004 A 
ATOM     18  C   UNL     1      -0.203  -1.761  -0.036  1.00  0.00     0.010 A 
ATOM     19  C   UNL     1      -0.793   0.600  -0.088  1.00  0.00     0.010 A 
ENDBRANCH   9  13
BRANCH  12  20
ATOM     20  C   UNL     1      -5.449  -2.605  -1.627  1.00  0.00     0.045 C 
BRANCH  20  21
ATOM     21  C   UNL     1      -6.938  -2.793  -1.326  1.00  0.00     0.106 C 
ATOM     22  C   UNL     1      -7.080  -3.522  -0.039  1.00  0.00    -0.003 C 
ATOM     23  C   UNL     1      -7.715  -3.473  -2.472  1.00  0.00     0.253 C 
ATOM     24  C   UNL     1      -8.058  -4.378   0.216  1.00  0.00    -0.003 A 
ATOM     25  N   UNL     1      -8.711  -4.380  -2.167  1.00  0.00    -0.212 NA
ATOM     26  O   UNL     1      -7.461  -3.176  -3.639  1.00  0.00    -0.272 OA
ATOM     27  C   UNL     1      -8.316  -4.855   1.548  1.00  0.00     0.010 A 
ATOM     28  C   UNL     1      -8.866  -4.806  -0.954  1.00  0.00     0.077 A 
ATOM     29  C   UNL     1      -9.290  -5.745   1.754  1.00  0.00     0.001 A 
ATOM     30  C   UNL     1      -9.858  -5.890  -0.633  1.00  0.00    -0.025 A 
ATOM     31  C   UNL     1     -10.023  -6.298   0.640  1.00  0.00     0.005 A 
ATOM     32  C   UNL     1     -10.529  -6.552  -1.792  1.00  0.00     0.047 C 
ENDBRANCH  20  21
ENDBRANCH  12  20
ENDBRANCH   6   8
ENDBRANCH   5   6
ENDBRANCH   4   5
ENDBRANCH   2   4
ENDBRANCH   1   2
BRANCH   1  33
ATOM     33  C   UNL     1      -5.042   1.804  -1.688  1.00  0.00     0.274 C 
BRANCH  33  34
ATOM     34  C   UNL     1      -5.719   1.171  -2.953  1.00  0.00     0.275 C 
BRANCH  34  35
ATOM     35  O   UNL     1      -7.086   0.668  -3.090  1.00  0.00    -0.458 OA
BRANCH  35  36
ATOM     36  C   UNL     1      -8.339   1.208  -2.934  1.00  0.00     0.338 C 
ATOM     37  O   UNL     1      -9.350   0.661  -3.296  1.00  0.00    -0.246 OA
BRANCH  36  38
ATOM     38  C   UNL     1      -8.396   2.461  -2.159  1.00  0.00     0.060 A 
ATOM     39  C   UNL     1      -9.110   2.539  -0.942  1.00  0.00     0.016 A 
ATOM     40  C   UNL     1      -7.467   3.404  -2.502  1.00  0.00     0.016 A 
ATOM     41  C   UNL     1      -8.724   3.471   0.036  1.00  0.00     0.010 A 
ATOM     42  C   UNL     1      -6.954   4.129  -1.466  1.00  0.00     0.010 A 
ATOM     43  C   UNL     1      -7.586   4.233  -0.207  1.00  0.00    -0.014 A 
BRANCH  43  44
ATOM     44  C   UNL     1      -7.013   5.320   0.597  1.00  0.00     0.031 A 
ATOM     45  C   UNL     1      -6.356   5.228   1.920  1.00  0.00     0.074 A 
ATOM     46  C   UNL     1      -6.885   6.451  -0.137  1.00  0.00     0.049 A 
ATOM     47  N   UNL     1      -6.129   6.253   2.673  1.00  0.00    -0.248 NA
ATOM     48  C   UNL     1      -5.846   4.003   2.513  1.00  0.00     0.031 C 
ATOM     49  C   UNL     1      -6.034   7.609   0.038  1.00  0.00     0.029 A 
ATOM     50  N   UNL     1      -7.608   6.749  -1.305  1.00  0.00    -0.354 N 
ATOM     51  C   UNL     1      -5.229   5.885   3.655  1.00  0.00     0.074 A 
ATOM     52  C   UNL     1      -5.159   4.448   3.576  1.00  0.00     0.031 C 
ATOM     53  C   UNL     1      -6.485   8.590  -0.770  1.00  0.00     0.029 A 
ATOM     54  C   UNL     1      -7.734   8.126  -1.367  1.00  0.00     0.049 A 
ATOM     55  H   UNL     1      -7.959   6.099  -1.956  1.00  0.00     0.167 HD
ATOM     56  C   UNL     1      -4.528   6.852   4.319  1.00  0.00     0.037 A 
ATOM     57  C   UNL     1      -8.989   8.630  -1.188  1.00  0.00     0.037 A 
ATOM     58  C   UNL     1      -4.858   8.166   3.779  1.00  0.00     0.049 A 
ATOM     59  C   UNL     1      -9.016   9.477   0.047  1.00  0.00     0.074 A 
ATOM     60  C   UNL     1      -4.224   8.957   2.835  1.00  0.00     0.029 A 
ATOM     61  N   UNL     1      -6.143   8.670   3.925  1.00  0.00    -0.354 N 
ATOM     62  N   UNL     1      -8.249   9.273   1.081  1.00  0.00    -0.248 NA
ATOM     63  C   UNL     1      -9.843  10.666   0.170  1.00  0.00     0.031 C 
ATOM     64  C   UNL     1      -5.159   9.914   2.370  1.00  0.00     0.029 A 
ATOM     65  C   UNL     1      -6.351   9.714   3.047  1.00  0.00     0.049 A 
ATOM     66  H   UNL     1      -6.811   8.331   4.565  1.00  0.00     0.167 HD
ATOM     67  C   UNL     1      -8.380  10.324   1.942  1.00  0.00     0.074 A 
ATOM     68  C   UNL     1      -9.416  11.151   1.348  1.00  0.00     0.031 C 
ATOM     69  C   UNL     1      -7.600  10.454   3.053  1.00  0.00     0.037 A 
BRANCH  56  70
ATOM     70  C   UNL     1      -3.357   6.632   5.259  1.00  0.00     0.064 A 
ATOM     71  C   UNL     1      -2.332   7.603   5.389  1.00  0.00     0.173 A 
ATOM     72  C   UNL     1      -3.196   5.501   6.079  1.00  0.00     0.173 A 
ATOM     73  F   UNL     1      -2.377   8.766   4.728  1.00  0.00    -0.203 F 
ATOM     74  C   UNL     1      -1.212   7.422   6.205  1.00  0.00     0.198 A 
ATOM     75  C   UNL     1      -2.056   5.305   6.875  1.00  0.00     0.198 A 
ATOM     76  F   UNL     1      -4.158   4.573   6.172  1.00  0.00    -0.203 F 
ATOM     77  F   UNL     1      -0.278   8.382   6.275  1.00  0.00    -0.200 F 
ATOM     78  C   UNL     1      -1.061   6.263   6.932  1.00  0.00     0.200 A 
ATOM     79  F   UNL     1      -1.931   4.181   7.595  1.00  0.00    -0.200 F 
ATOM     80  F   UNL     1       0.024   6.078   7.697  1.00  0.00    -0.200 F 
ENDBRANCH  56  70
BRANCH  57  81
ATOM     81  C   UNL     1     -10.064   7.676  -1.643  1.00  0.00     0.064 A 
ATOM     82  C   UNL     1     -10.064   7.270  -2.999  1.00  0.00     0.173 A 
ATOM     83  C   UNL     1     -10.786   6.872  -0.747  1.00  0.00     0.173 A 
ATOM     84  F   UNL     1      -9.354   7.965  -3.903  1.00  0.00    -0.203 F 
ATOM     85  C   UNL     1     -10.663   6.079  -3.414  1.00  0.00     0.198 A 
ATOM     86  C   UNL     1     -11.403   5.686  -1.172  1.00  0.00     0.198 A 
ATOM     87  F   UNL     1     -10.816   7.170   0.559  1.00  0.00    -0.203 F 
ATOM     88  F   UNL     1     -10.533   5.672  -4.685  1.00  0.00    -0.200 F 
ATOM     89  C   UNL     1     -11.318   5.278  -2.496  1.00  0.00     0.200 A 
ATOM     90  F   UNL     1     -12.020   4.896  -0.281  1.00  0.00    -0.200 F 
ATOM     91  F   UNL     1     -11.834   4.101  -2.878  1.00  0.00    -0.200 F 
ENDBRANCH  57  81
BRANCH  69  92
ATOM     92  C   UNL     1      -7.879  11.362   4.217  1.00  0.00     0.064 A 
ATOM     93  C   UNL     1      -9.170  11.778   4.572  1.00  0.00     0.173 A 
ATOM     94  C   UNL     1      -6.853  11.680   5.141  1.00  0.00     0.173 A 
ATOM     95  F   UNL     1     -10.240  11.441   3.841  1.00  0.00    -0.203 F 
ATOM     96  C   UNL     1      -9.412  12.500   5.740  1.00  0.00     0.198 A 
ATOM     97  C   UNL     1      -7.111  12.338   6.339  1.00  0.00     0.198 A 
ATOM     98  F   UNL     1      -5.576  11.325   4.933  1.00  0.00    -0.203 F 
ATOM     99  F   UNL     1     -10.658  12.907   6.016  1.00  0.00    -0.200 F 
ATOM    100  C   UNL     1      -8.389  12.762   6.632  1.00  0.00     0.200 A 
ATOM    101  F   UNL     1      -6.117  12.531   7.218  1.00  0.00    -0.200 F 
ATOM    102  F   UNL     1      -8.640  13.398   7.782  1.00  0.00    -0.200 F 
ENDBRANCH  69  92
ENDBRANCH  43  44
ENDBRANCH  36  38
ENDBRANCH  35  36
ENDBRANCH  34  35
ENDBRANCH  33  34
ENDBRANCH   1  33
TORSDOF 17
