REMARK SMILES C[C@@H]1CCC[C@H](C)[N@H+]1Cc1cc2c(cc1Cl)C=C(C(=O)OCCOC(=O)c1ccc(-c3c4nc(c(-c5c(F)c(F)c(F)c(F)c5F)c5ccc([nH]5)c(-c5c(F)c(F)c(F)c(F)c5F)c5nc(c(-c6c(F)c(F)c(F)c(F)c6F)c6ccc3[nH]6)C=C5)C=C4)cc1)[C@@H](C(F)(F)F)O2
REMARK SMILES IDX 22 1 21 2 19 3 20 4 18 5 10 6 11 7 15 8 12 9 14 10 16 11
REMARK SMILES IDX 13 12 95 13 17 14 90 15 9 16 8 17 7 18 6 19 5 20 4 21 2 22
REMARK SMILES IDX 3 24 1 25 91 26 92 27 93 28 94 29 23 30 24 31 25 32 26 33
REMARK SMILES IDX 27 34 28 35 89 36 29 37 88 38 30 39 31 40 32 41 82 42 33 43
REMARK SMILES IDX 87 44 81 45 83 46 34 47 86 48 80 49 79 50 35 52 67 53 47 54
REMARK SMILES IDX 66 55 48 56 51 57 65 58 84 59 49 60 50 61 64 63 85 64 52 65
REMARK SMILES IDX 36 66 37 67 45 68 38 69 39 70 43 71 46 72 40 73 41 74 44 75
REMARK SMILES IDX 42 76 68 77 69 78 77 79 70 80 71 81 75 82 78 83 72 84 73 85
REMARK SMILES IDX 76 86 74 87 53 88 54 89 62 90 55 91 56 92 60 93 63 94 57 95
REMARK SMILES IDX 58 96 61 97 59 98
REMARK H PARENT 8 23 83 51 51 62
REMARK Flexibility Score: inf
ROOT
ATOM      1  C   UNL     1      -5.984   8.073  -3.695  1.00  0.00     0.275 C 
ENDROOT
BRANCH   1   2
ATOM      2  O   UNL     1      -5.199   6.863  -3.770  1.00  0.00    -0.459 OA
BRANCH   2   3
ATOM      3  C   UNL     1      -3.981   7.003  -4.347  1.00  0.00     0.338 C 
ATOM      4  O   UNL     1      -3.497   8.046  -4.753  1.00  0.00    -0.246 OA
BRANCH   3   5
ATOM      5  C   UNL     1      -3.244   5.721  -4.368  1.00  0.00     0.087 C 
ATOM      6  C   UNL     1       0.360   2.223  -3.959  1.00  0.00     0.029 A 
ATOM      7  C   UNL     1      -1.053   2.184  -3.985  1.00  0.00     0.058 A 
ATOM      8  C   UNL     1       0.989   3.434  -4.290  1.00  0.00     0.050 A 
ATOM      9  C   UNL     1      -1.804   3.347  -4.187  1.00  0.00     0.128 A 
ATOM     10  C   UNL     1       0.240   4.601  -4.444  1.00  0.00     0.033 A 
ATOM     11  Cl  UNL     1       2.693   3.585  -4.525  1.00  0.00    -0.084 Cl
ATOM     12  C   UNL     1      -1.150   4.564  -4.355  1.00  0.00     0.019 A 
ATOM     13  O   UNL     1      -3.169   3.241  -4.130  1.00  0.00    -0.475 OA
ATOM     14  C   UNL     1      -1.908   5.799  -4.362  1.00  0.00     0.027 C 
ATOM     15  C   UNL     1      -3.957   4.406  -4.525  1.00  0.00     0.316 C 
BRANCH   6  16
ATOM     16  C   UNL     1       1.133   0.992  -3.519  1.00  0.00     0.301 C 
BRANCH  16  17
ATOM     17  N   UNL     1       1.383   0.835  -2.068  1.00  0.00    -0.327 N 
ATOM     18  C   UNL     1       0.541  -0.567  -0.210  1.00  0.00     0.075 C 
ATOM     19  C   UNL     1       0.201   0.504  -1.259  1.00  0.00     0.181 C 
ATOM     20  C   UNL     1      -0.467   1.718  -0.593  1.00  0.00     0.065 C 
ATOM     21  C   UNL     1       0.521   2.643   0.106  1.00  0.00     0.012 C 
ATOM     22  C   UNL     1       2.333   1.792  -1.481  1.00  0.00     0.181 C 
ATOM     23  H   UNL     1       1.916  -0.033  -2.017  1.00  0.00     0.348 HD
ATOM     24  C   UNL     1       1.669   3.014  -0.824  1.00  0.00     0.065 C 
ATOM     25  C   UNL     1       3.298   1.107  -0.502  1.00  0.00     0.075 C 
ENDBRANCH  16  17
ENDBRANCH   6  16
BRANCH  15  26
ATOM     26  C   UNL     1      -4.438   4.264  -5.980  1.00  0.00     0.430 C 
ATOM     27  F   UNL     1      -5.069   3.086  -6.190  1.00  0.00    -0.167 F 
ATOM     28  F   UNL     1      -5.318   5.245  -6.300  1.00  0.00    -0.167 F 
ATOM     29  F   UNL     1      -3.417   4.342  -6.866  1.00  0.00    -0.167 F 
ENDBRANCH  15  26
ENDBRANCH   3   5
ENDBRANCH   2   3
ENDBRANCH   1   2
BRANCH   1  30
ATOM     30  C   UNL     1      -5.934   8.715  -2.306  1.00  0.00     0.275 C 
BRANCH  30  31
ATOM     31  O   UNL     1      -4.600   9.152  -1.985  1.00  0.00    -0.458 OA
BRANCH  31  32
ATOM     32  C   UNL     1      -3.982   8.468  -0.998  1.00  0.00     0.338 C 
ATOM     33  O   UNL     1      -4.426   7.539  -0.338  1.00  0.00    -0.246 OA
BRANCH  32  34
ATOM     34  C   UNL     1      -2.597   8.938  -0.869  1.00  0.00     0.060 A 
ATOM     35  C   UNL     1      -2.212   9.808   0.147  1.00  0.00     0.016 A 
ATOM     36  C   UNL     1      -1.641   8.383  -1.716  1.00  0.00     0.016 A 
ATOM     37  C   UNL     1      -0.857  10.140   0.284  1.00  0.00     0.010 A 
ATOM     38  C   UNL     1      -0.288   8.661  -1.539  1.00  0.00     0.010 A 
ATOM     39  C   UNL     1       0.123   9.558  -0.546  1.00  0.00    -0.014 A 
BRANCH  39  40
ATOM     40  C   UNL     1       1.573   9.853  -0.357  1.00  0.00     0.031 A 
ATOM     41  C   UNL     1       2.393  10.480  -1.456  1.00  0.00     0.074 A 
ATOM     42  C   UNL     1       2.173   9.509   0.800  1.00  0.00     0.049 A 
ATOM     43  N   UNL     1       3.655  10.838  -1.444  1.00  0.00    -0.248 NA
ATOM     44  C   UNL     1       1.727  10.699  -2.748  1.00  0.00     0.031 C 
ATOM     45  C   UNL     1       1.530   8.796   1.903  1.00  0.00     0.029 A 
ATOM     46  N   UNL     1       3.454   9.726   1.248  1.00  0.00    -0.354 N 
ATOM     47  C   UNL     1       3.931  11.304  -2.723  1.00  0.00     0.074 A 
ATOM     48  C   UNL     1       2.729  11.121  -3.506  1.00  0.00     0.031 C 
ATOM     49  C   UNL     1       2.391   8.701   2.927  1.00  0.00     0.029 A 
ATOM     50  C   UNL     1       3.656   9.322   2.545  1.00  0.00     0.049 A 
ATOM     51  H   UNL     1       4.158  10.132   0.692  1.00  0.00     0.167 HD
ATOM     52  C   UNL     1       5.069  11.871  -3.195  1.00  0.00     0.037 A 
ATOM     53  C   UNL     1       4.729   9.463   3.348  1.00  0.00     0.037 A 
ATOM     54  C   UNL     1       6.248  12.103  -2.404  1.00  0.00     0.049 A 
ATOM     55  C   UNL     1       5.956  10.157   2.829  1.00  0.00     0.074 A 
ATOM     56  C   UNL     1       7.417  12.751  -2.765  1.00  0.00     0.029 A 
ATOM     57  N   UNL     1       6.405  11.700  -1.086  1.00  0.00    -0.354 N 
ATOM     58  N   UNL     1       6.172  10.677   1.646  1.00  0.00    -0.248 NA
ATOM     59  C   UNL     1       7.088  10.289   3.759  1.00  0.00     0.031 C 
ATOM     60  C   UNL     1       8.292  12.716  -1.674  1.00  0.00     0.029 A 
ATOM     61  C   UNL     1       7.655  12.079  -0.622  1.00  0.00     0.049 A 
ATOM     62  H   UNL     1       5.728  11.218  -0.558  1.00  0.00     0.167 HD
ATOM     63  C   UNL     1       7.454  11.207   1.690  1.00  0.00     0.074 A 
ATOM     64  C   UNL     1       7.962  10.965   3.025  1.00  0.00     0.031 C 
ATOM     65  C   UNL     1       8.148  11.831   0.708  1.00  0.00     0.037 A 
BRANCH  52  66
ATOM     66  C   UNL     1       5.081  12.322  -4.629  1.00  0.00     0.064 A 
ATOM     67  C   UNL     1       4.315  13.419  -5.054  1.00  0.00     0.173 A 
ATOM     68  C   UNL     1       5.900  11.689  -5.576  1.00  0.00     0.173 A 
ATOM     69  F   UNL     1       3.512  14.057  -4.189  1.00  0.00    -0.203 F 
ATOM     70  C   UNL     1       4.342  13.843  -6.380  1.00  0.00     0.198 A 
ATOM     71  C   UNL     1       5.948  12.136  -6.895  1.00  0.00     0.198 A 
ATOM     72  F   UNL     1       6.664  10.645  -5.221  1.00  0.00    -0.203 F 
ATOM     73  F   UNL     1       3.564  14.862  -6.771  1.00  0.00    -0.200 F 
ATOM     74  C   UNL     1       5.164  13.207  -7.297  1.00  0.00     0.200 A 
ATOM     75  F   UNL     1       6.755  11.531  -7.777  1.00  0.00    -0.200 F 
ATOM     76  F   UNL     1       5.196  13.622  -8.571  1.00  0.00    -0.200 F 
ENDBRANCH  52  66
BRANCH  53  77
ATOM     77  C   UNL     1       4.643   9.011   4.761  1.00  0.00     0.064 A 
ATOM     78  C   UNL     1       4.523   9.947   5.798  1.00  0.00     0.173 A 
ATOM     79  C   UNL     1       4.626   7.652   5.101  1.00  0.00     0.173 A 
ATOM     80  F   UNL     1       4.551  11.259   5.522  1.00  0.00    -0.203 F 
ATOM     81  C   UNL     1       4.391   9.540   7.123  1.00  0.00     0.198 A 
ATOM     82  C   UNL     1       4.471   7.245   6.424  1.00  0.00     0.198 A 
ATOM     83  F   UNL     1       4.730   6.719   4.143  1.00  0.00    -0.203 F 
ATOM     84  F   UNL     1       4.298  10.455   8.097  1.00  0.00    -0.200 F 
ATOM     85  C   UNL     1       4.356   8.189   7.434  1.00  0.00     0.200 A 
ATOM     86  F   UNL     1       4.423   5.939   6.721  1.00  0.00    -0.200 F 
ATOM     87  F   UNL     1       4.210   7.797   8.707  1.00  0.00    -0.200 F 
ENDBRANCH  53  77
BRANCH  65  88
ATOM     88  C   UNL     1       9.535  12.303   1.030  1.00  0.00     0.064 A 
ATOM     89  C   UNL     1      10.604  11.401   1.136  1.00  0.00     0.173 A 
ATOM     90  C   UNL     1       9.811  13.672   1.157  1.00  0.00     0.173 A 
ATOM     91  F   UNL     1      10.386  10.082   1.035  1.00  0.00    -0.203 F 
ATOM     92  C   UNL     1      11.899  11.854   1.367  1.00  0.00     0.198 A 
ATOM     93  C   UNL     1      11.112  14.123   1.363  1.00  0.00     0.198 A 
ATOM     94  F   UNL     1       8.823  14.574   1.056  1.00  0.00    -0.203 F 
ATOM     95  F   UNL     1      12.902  10.974   1.492  1.00  0.00    -0.200 F 
ATOM     96  C   UNL     1      12.154  13.214   1.471  1.00  0.00     0.200 A 
ATOM     97  F   UNL     1      11.359  15.437   1.451  1.00  0.00    -0.200 F 
ATOM     98  F   UNL     1      13.405  13.648   1.677  1.00  0.00    -0.200 F 
ENDBRANCH  65  88
ENDBRANCH  39  40
ENDBRANCH  32  34
ENDBRANCH  31  32
ENDBRANCH  30  31
ENDBRANCH   1  30
TORSDOF 14
