REMARK SMILES Cc1ncc(CO)c([C@H]2[NH2+][C@@H](C(=O)OCCOC(=O)c3ccc(-c4c5nc(c(-c6c(F)c(F)c(F)c(F)c6F)c6ccc([nH]6)c(-c6c(F)c(F)c(F)c(F)c6F)c6nc(c(-c7c(F)c(F)c(F)c(F)c7F)c7ccc4[nH]7)C=C6)C=C5)cc3)Cc3[nH]cnc32)c1O
REMARK SMILES IDX 15 1 14 2 12 3 13 4 11 5 9 6 10 7 88 8 84 11 87 12 83 13
REMARK SMILES IDX 85 14 86 15 8 17 1 18 2 19 3 20 89 21 4 22 5 23 90 24 6 26
REMARK SMILES IDX 7 27 16 29 17 30 18 31 19 32 20 33 21 34 82 35 22 36 81 37
REMARK SMILES IDX 23 38 24 39 25 40 75 41 26 42 80 43 74 44 76 45 27 46 79 47
REMARK SMILES IDX 73 48 72 49 28 51 60 52 40 53 59 54 41 55 44 56 58 57 77 58
REMARK SMILES IDX 42 59 43 60 57 62 78 63 45 64 29 65 30 66 38 67 31 68 32 69
REMARK SMILES IDX 36 70 39 71 33 72 34 73 37 74 35 75 61 76 62 77 70 78 63 79
REMARK SMILES IDX 64 80 68 81 71 82 65 83 66 84 69 85 67 86 46 87 47 88 55 89
REMARK SMILES IDX 48 90 49 91 53 92 56 93 50 94 51 95 54 96 52 97
REMARK H PARENT 10 9 10 10 85 16 90 25 7 28 76 50 44 61
REMARK Flexibility Score: inf
ROOT
ATOM      1  C   UNL     1      -5.044   3.818   3.062  1.00  0.00     0.274 C 
ENDROOT
BRANCH   1   2
ATOM      2  O   UNL     1      -4.128   4.042   1.975  1.00  0.00    -0.458 OA
BRANCH   2   3
ATOM      3  C   UNL     1      -2.880   4.514   2.300  1.00  0.00     0.365 C 
ATOM      4  O   UNL     1      -2.526   4.840   3.415  1.00  0.00    -0.245 OA
BRANCH   3   5
ATOM      5  C   UNL     1      -1.987   4.467   1.051  1.00  0.00     0.300 C 
ATOM      6  C   UNL     1      -0.464   3.044  -0.217  1.00  0.00     0.270 C 
ATOM      7  N   UNL     1      -1.085   3.274   1.122  1.00  0.00    -0.323 N 
ATOM      8  C   UNL     1       0.311   4.280  -0.573  1.00  0.00     0.124 A 
ATOM      9  H   UNL     1      -0.353   3.442   1.813  1.00  0.00     0.347 HD
ATOM     10  H   UNL     1      -1.625   2.453   1.395  1.00  0.00     0.347 HD
ATOM     11  C   UNL     1      -0.077   5.524  -0.096  1.00  0.00     0.051 A 
ATOM     12  N   UNL     1       1.274   4.436  -1.538  1.00  0.00    -0.235 NA
ATOM     13  C   UNL     1      -1.176   5.774   0.885  1.00  0.00     0.133 C 
ATOM     14  N   UNL     1       0.694   6.439  -0.741  1.00  0.00    -0.348 N 
ATOM     15  C   UNL     1       1.495   5.734  -1.600  1.00  0.00     0.197 A 
ATOM     16  H   UNL     1       0.679   7.416  -0.615  1.00  0.00     0.167 HD
BRANCH   6  17
ATOM     17  C   UNL     1       0.224   1.688  -0.239  1.00  0.00     0.066 A 
ATOM     18  C   UNL     1      -1.230  -1.882  -0.208  1.00  0.00     0.071 C 
ATOM     19  C   UNL     1      -0.264  -0.735  -0.211  1.00  0.00     0.079 A 
ATOM     20  N   UNL     1       1.035  -1.045  -0.055  1.00  0.00    -0.257 NA
ATOM     21  C   UNL     1      -0.682   0.590  -0.335  1.00  0.00     0.146 A 
ATOM     22  C   UNL     1       1.908  -0.011   0.004  1.00  0.00     0.118 A 
ATOM     23  C   UNL     1       1.577   1.357  -0.029  1.00  0.00     0.009 A 
BRANCH  21  24
ATOM     24  O   UNL     1      -2.028   0.848  -0.469  1.00  0.00    -0.505 OA
ATOM     25  H   UNL     1      -2.637   0.139  -0.533  1.00  0.00     0.293 HD
ENDBRANCH  21  24
BRANCH  23  26
ATOM     26  C   UNL     1       2.720   2.320   0.133  1.00  0.00     0.194 C 
BRANCH  26  27
ATOM     27  O   UNL     1       3.587   1.882   1.186  1.00  0.00    -0.392 OA
ATOM     28  H   UNL     1       3.090   1.841   2.018  1.00  0.00     0.211 HD
ENDBRANCH  26  27
ENDBRANCH  23  26
ENDBRANCH   6  17
ENDBRANCH   3   5
ENDBRANCH   2   3
ENDBRANCH   1   2
BRANCH   1  29
ATOM     29  C   UNL     1      -5.044   2.353   3.477  1.00  0.00     0.275 C 
BRANCH  29  30
ATOM     30  O   UNL     1      -3.804   2.002   4.091  1.00  0.00    -0.458 OA
BRANCH  30  31
ATOM     31  C   UNL     1      -2.888   1.456   3.266  1.00  0.00     0.338 C 
ATOM     32  O   UNL     1      -2.928   1.392   2.042  1.00  0.00    -0.246 OA
BRANCH  31  33
ATOM     33  C   UNL     1      -1.885   0.734   4.053  1.00  0.00     0.060 A 
ATOM     34  C   UNL     1      -0.751   0.270   3.380  1.00  0.00     0.016 A 
ATOM     35  C   UNL     1      -2.229   0.266   5.325  1.00  0.00     0.016 A 
ATOM     36  C   UNL     1      -0.072  -0.816   3.885  1.00  0.00     0.010 A 
ATOM     37  C   UNL     1      -1.547  -0.812   5.836  1.00  0.00     0.010 A 
ATOM     38  C   UNL     1      -0.533  -1.390   5.069  1.00  0.00    -0.014 A 
BRANCH  38  39
ATOM     39  C   UNL     1       0.086  -2.617   5.521  1.00  0.00     0.031 A 
ATOM     40  C   UNL     1       1.427  -2.455   6.132  1.00  0.00     0.074 A 
ATOM     41  C   UNL     1      -0.610  -3.769   5.532  1.00  0.00     0.049 A 
ATOM     42  N   UNL     1       2.513  -3.102   5.863  1.00  0.00    -0.248 NA
ATOM     43  C   UNL     1       1.596  -1.378   7.122  1.00  0.00     0.031 C 
ATOM     44  C   UNL     1      -2.030  -3.966   5.224  1.00  0.00     0.029 A 
ATOM     45  N   UNL     1      -0.216  -4.993   5.970  1.00  0.00    -0.354 N 
ATOM     46  C   UNL     1       3.473  -2.615   6.744  1.00  0.00     0.074 A 
ATOM     47  C   UNL     1       2.892  -1.479   7.410  1.00  0.00     0.031 C 
ATOM     48  C   UNL     1      -2.423  -5.162   5.713  1.00  0.00     0.029 A 
ATOM     49  C   UNL     1      -1.266  -5.844   6.271  1.00  0.00     0.049 A 
ATOM     50  H   UNL     1       0.729  -5.252   6.064  1.00  0.00     0.167 HD
ATOM     51  C   UNL     1       4.612  -3.305   7.012  1.00  0.00     0.037 A 
ATOM     52  C   UNL     1      -1.194  -6.970   7.022  1.00  0.00     0.037 A 
ATOM     53  C   UNL     1       4.915  -4.256   5.978  1.00  0.00     0.049 A 
ATOM     54  C   UNL     1       0.237  -7.373   7.091  1.00  0.00     0.074 A 
ATOM     55  C   UNL     1       5.164  -4.149   4.622  1.00  0.00     0.029 A 
ATOM     56  N   UNL     1       4.653  -5.585   6.202  1.00  0.00    -0.354 N 
ATOM     57  N   UNL     1       0.914  -7.843   6.080  1.00  0.00    -0.248 NA
ATOM     58  C   UNL     1       1.042  -6.835   8.181  1.00  0.00     0.031 C 
ATOM     59  C   UNL     1       4.556  -5.299   4.043  1.00  0.00     0.029 A 
ATOM     60  C   UNL     1       4.014  -6.054   5.082  1.00  0.00     0.049 A 
ATOM     61  H   UNL     1       4.880  -6.101   7.009  1.00  0.00     0.167 HD
ATOM     62  C   UNL     1       2.177  -7.282   6.208  1.00  0.00     0.074 A 
ATOM     63  C   UNL     1       2.226  -6.756   7.569  1.00  0.00     0.031 C 
ATOM     64  C   UNL     1       2.957  -7.036   5.116  1.00  0.00     0.037 A 
BRANCH  51  65
ATOM     65  C   UNL     1       5.264  -3.336   8.367  1.00  0.00     0.064 A 
ATOM     66  C   UNL     1       6.541  -3.913   8.508  1.00  0.00     0.173 A 
ATOM     67  C   UNL     1       4.565  -3.093   9.570  1.00  0.00     0.173 A 
ATOM     68  F   UNL     1       7.279  -4.208   7.428  1.00  0.00    -0.203 F 
ATOM     69  C   UNL     1       7.046  -4.282   9.756  1.00  0.00     0.198 A 
ATOM     70  C   UNL     1       5.096  -3.411  10.817  1.00  0.00     0.198 A 
ATOM     71  F   UNL     1       3.302  -2.648   9.581  1.00  0.00    -0.203 F 
ATOM     72  F   UNL     1       8.209  -4.943   9.833  1.00  0.00    -0.200 F 
ATOM     73  C   UNL     1       6.321  -4.036  10.909  1.00  0.00     0.200 A 
ATOM     74  F   UNL     1       4.370  -3.181  11.920  1.00  0.00    -0.200 F 
ATOM     75  F   UNL     1       6.776  -4.446  12.100  1.00  0.00    -0.200 F 
ENDBRANCH  51  65
BRANCH  52  76
ATOM     76  C   UNL     1      -2.238  -7.543   7.904  1.00  0.00     0.064 A 
ATOM     77  C   UNL     1      -2.151  -8.864   8.370  1.00  0.00     0.173 A 
ATOM     78  C   UNL     1      -3.231  -6.737   8.500  1.00  0.00     0.173 A 
ATOM     79  F   UNL     1      -1.201  -9.684   7.899  1.00  0.00    -0.203 F 
ATOM     80  C   UNL     1      -3.001  -9.347   9.372  1.00  0.00     0.198 A 
ATOM     81  C   UNL     1      -4.090  -7.225   9.486  1.00  0.00     0.198 A 
ATOM     82  F   UNL     1      -3.335  -5.434   8.206  1.00  0.00    -0.203 F 
ATOM     83  F   UNL     1      -2.850 -10.597   9.831  1.00  0.00    -0.200 F 
ATOM     84  C   UNL     1      -3.967  -8.526   9.930  1.00  0.00     0.200 A 
ATOM     85  F   UNL     1      -4.997  -6.407  10.038  1.00  0.00    -0.200 F 
ATOM     86  F   UNL     1      -4.751  -8.974  10.921  1.00  0.00    -0.200 F 
ENDBRANCH  52  76
BRANCH  64  87
ATOM     87  C   UNL     1       2.522  -7.603   3.795  1.00  0.00     0.064 A 
ATOM     88  C   UNL     1       1.318  -7.254   3.159  1.00  0.00     0.173 A 
ATOM     89  C   UNL     1       3.422  -8.401   3.076  1.00  0.00     0.173 A 
ATOM     90  F   UNL     1       0.455  -6.407   3.731  1.00  0.00    -0.203 F 
ATOM     91  C   UNL     1       1.008  -7.726   1.885  1.00  0.00     0.198 A 
ATOM     92  C   UNL     1       3.127  -8.839   1.788  1.00  0.00     0.198 A 
ATOM     93  F   UNL     1       4.614  -8.716   3.607  1.00  0.00    -0.203 F 
ATOM     94  F   UNL     1      -0.157  -7.392   1.311  1.00  0.00    -0.200 F 
ATOM     95  C   UNL     1       1.916  -8.512   1.198  1.00  0.00     0.200 A 
ATOM     96  F   UNL     1       4.029  -9.559   1.107  1.00  0.00    -0.200 F 
ATOM     97  F   UNL     1       1.636  -8.935  -0.042  1.00  0.00    -0.200 F 
ENDBRANCH  64  87
ENDBRANCH  38  39
ENDBRANCH  31  33
ENDBRANCH  30  31
ENDBRANCH  29  30
ENDBRANCH   1  29
TORSDOF 15
