REMARK SMILES Cc1cc(C(F)(F)CC(C)(C)CC(=O)OCCOC(=O)c2ccc(-c3c4nc(c(-c5c(F)c(F)c(F)c(F)c5F)c5ccc([nH]5)c(-c5c(F)c(F)c(F)c(F)c5F)c5nc(c(-c6c(F)c(F)c(F)c(F)c6F)c6ccc3[nH]6)C=C5)C=C4)cc2)sc1Br
REMARK SMILES IDX 16 1 15 2 13 3 14 4 12 5 9 6 10 7 11 8 8 9 5 10 6 11 7 12
REMARK SMILES IDX 4 13 1 14 2 15 3 16 85 17 84 18 86 19 17 20 18 21 19 22
REMARK SMILES IDX 20 23 21 24 22 25 83 26 23 27 82 28 24 29 25 30 26 31 76 32
REMARK SMILES IDX 27 33 81 34 75 35 77 36 28 37 80 38 74 39 73 40 29 42 61 43
REMARK SMILES IDX 41 44 60 45 42 46 45 47 59 48 78 49 43 50 44 51 58 53 79 54
REMARK SMILES IDX 46 55 30 56 31 57 39 58 32 59 33 60 37 61 40 62 34 63 35 64
REMARK SMILES IDX 38 65 36 66 62 67 63 68 71 69 64 70 65 71 69 72 72 73 66 74
REMARK SMILES IDX 67 75 70 76 68 77 47 78 48 79 56 80 49 81 50 82 54 83 57 84
REMARK SMILES IDX 51 85 52 86 55 87 53 88
REMARK H PARENT 77 41 45 52
REMARK Flexibility Score: inf
ROOT
ATOM      1  C   UNL     1       0.325  -8.850  -3.059  1.00  0.00     0.274 C 
ENDROOT
BRANCH   1   2
ATOM      2  O   UNL     1       0.446  -7.417  -2.912  1.00  0.00    -0.462 OA
BRANCH   2   3
ATOM      3  C   UNL     1      -0.570  -6.783  -2.273  1.00  0.00     0.306 C 
ATOM      4  O   UNL     1      -1.601  -7.344  -1.904  1.00  0.00    -0.252 OA
BRANCH   3   5
ATOM      5  C   UNL     1      -0.404  -5.273  -2.181  1.00  0.00     0.129 C 
BRANCH   5   6
ATOM      6  C   UNL     1       0.958  -4.533  -1.994  1.00  0.00    -0.019 C 
ATOM      7  C   UNL     1       0.661  -3.045  -2.299  1.00  0.00     0.012 C 
ATOM      8  C   UNL     1       1.995  -4.993  -3.041  1.00  0.00     0.012 C 
BRANCH   6   9
ATOM      9  C   UNL     1       1.651  -4.644  -0.594  1.00  0.00     0.090 C 
BRANCH   9  10
ATOM     10  C   UNL     1       0.882  -4.327   0.696  1.00  0.00     0.282 C 
ATOM     11  F   UNL     1       1.594  -4.860   1.735  1.00  0.00    -0.200 F 
ATOM     12  F   UNL     1      -0.298  -5.003   0.679  1.00  0.00    -0.200 F 
BRANCH  10  13
ATOM     13  C   UNL     1       0.648  -2.870   0.989  1.00  0.00     0.075 A 
ATOM     14  C   UNL     1       1.207   0.810   0.466  1.00  0.00     0.046 C 
ATOM     15  C   UNL     1       0.727  -0.515   0.954  1.00  0.00    -0.025 A 
ATOM     16  C   UNL     1       1.377  -1.752   0.621  1.00  0.00     0.026 A 
ATOM     17  C   UNL     1      -0.384  -0.766   1.731  1.00  0.00     0.073 A 
ATOM     18  S   UNL     1      -0.680  -2.414   1.981  1.00  0.00    -0.127 S 
ATOM     19  Br  UNL     1      -1.520   0.550   2.443  1.00  0.00    -0.039 Br
ENDBRANCH  10  13
ENDBRANCH   9  10
ENDBRANCH   6   9
ENDBRANCH   5   6
ENDBRANCH   3   5
ENDBRANCH   2   3
ENDBRANCH   1   2
BRANCH   1  20
ATOM     20  C   UNL     1       1.052  -9.631  -1.960  1.00  0.00     0.275 C 
BRANCH  20  21
ATOM     21  O   UNL     1       0.319  -9.715  -0.727  1.00  0.00    -0.458 OA
BRANCH  21  22
ATOM     22  C   UNL     1       0.481  -8.618   0.041  1.00  0.00     0.338 C 
ATOM     23  O   UNL     1       0.986  -7.565  -0.304  1.00  0.00    -0.246 OA
BRANCH  22  24
ATOM     24  C   UNL     1       0.259  -8.859   1.464  1.00  0.00     0.060 A 
ATOM     25  C   UNL     1       0.044  -7.715   2.237  1.00  0.00     0.016 A 
ATOM     26  C   UNL     1       0.731 -10.045   2.024  1.00  0.00     0.016 A 
ATOM     27  C   UNL     1       0.522  -7.675   3.527  1.00  0.00     0.010 A 
ATOM     28  C   UNL     1       1.149 -10.023   3.342  1.00  0.00     0.010 A 
ATOM     29  C   UNL     1       1.132  -8.814   4.054  1.00  0.00    -0.014 A 
BRANCH  29  30
ATOM     30  C   UNL     1       1.660  -8.724   5.413  1.00  0.00     0.031 A 
ATOM     31  C   UNL     1       0.650  -8.434   6.476  1.00  0.00     0.074 A 
ATOM     32  C   UNL     1       2.930  -9.074   5.698  1.00  0.00     0.049 A 
ATOM     33  N   UNL     1       0.772  -7.722   7.553  1.00  0.00    -0.248 NA
ATOM     34  C   UNL     1      -0.700  -8.998   6.282  1.00  0.00     0.031 C 
ATOM     35  C   UNL     1       3.933  -9.615   4.774  1.00  0.00     0.029 A 
ATOM     36  N   UNL     1       3.535  -9.187   6.916  1.00  0.00    -0.354 N 
ATOM     37  C   UNL     1      -0.431  -7.873   8.242  1.00  0.00     0.074 A 
ATOM     38  C   UNL     1      -1.331  -8.582   7.374  1.00  0.00     0.031 C 
ATOM     39  C   UNL     1       4.889 -10.244   5.489  1.00  0.00     0.029 A 
ATOM     40  C   UNL     1       4.614 -10.057   6.903  1.00  0.00     0.049 A 
ATOM     41  H   UNL     1       3.236  -8.701   7.719  1.00  0.00     0.167 HD
ATOM     42  C   UNL     1      -0.560  -7.589   9.563  1.00  0.00     0.037 A 
ATOM     43  C   UNL     1       5.161 -10.685   7.970  1.00  0.00     0.037 A 
ATOM     44  C   UNL     1       0.367  -6.586  10.001  1.00  0.00     0.049 A 
ATOM     45  C   UNL     1       4.718  -9.989   9.200  1.00  0.00     0.074 A 
ATOM     46  C   UNL     1       0.619  -5.277   9.632  1.00  0.00     0.029 A 
ATOM     47  N   UNL     1       1.413  -6.938  10.813  1.00  0.00    -0.354 N 
ATOM     48  N   UNL     1       5.120  -8.808   9.576  1.00  0.00    -0.248 NA
ATOM     49  C   UNL     1       3.523 -10.484   9.869  1.00  0.00     0.031 C 
ATOM     50  C   UNL     1       2.015  -5.087   9.842  1.00  0.00     0.029 A 
ATOM     51  C   UNL     1       2.519  -6.295  10.321  1.00  0.00     0.049 A 
ATOM     52  H   UNL     1       1.378  -7.535  11.595  1.00  0.00     0.167 HD
ATOM     53  C   UNL     1       4.025  -8.252  10.217  1.00  0.00     0.074 A 
ATOM     54  C   UNL     1       3.124  -9.366  10.477  1.00  0.00     0.031 C 
ATOM     55  C   UNL     1       3.821  -6.903  10.226  1.00  0.00     0.037 A 
BRANCH  42  56
ATOM     56  C   UNL     1      -1.345  -8.467  10.505  1.00  0.00     0.064 A 
ATOM     57  C   UNL     1      -1.595  -8.035  11.821  1.00  0.00     0.173 A 
ATOM     58  C   UNL     1      -1.612  -9.833  10.251  1.00  0.00     0.173 A 
ATOM     59  F   UNL     1      -1.343  -6.768  12.183  1.00  0.00    -0.203 F 
ATOM     60  C   UNL     1      -2.022  -8.917  12.817  1.00  0.00     0.198 A 
ATOM     61  C   UNL     1      -2.093 -10.695  11.233  1.00  0.00     0.198 A 
ATOM     62  F   UNL     1      -1.318 -10.409   9.078  1.00  0.00    -0.203 F 
ATOM     63  F   UNL     1      -2.131  -8.487  14.082  1.00  0.00    -0.200 F 
ATOM     64  C   UNL     1      -2.269 -10.246  12.524  1.00  0.00     0.200 A 
ATOM     65  F   UNL     1      -2.307 -11.984  10.932  1.00  0.00    -0.200 F 
ATOM     66  F   UNL     1      -2.624 -11.103  13.489  1.00  0.00    -0.200 F 
ENDBRANCH  42  56
BRANCH  43  67
ATOM     67  C   UNL     1       5.813 -12.014   8.002  1.00  0.00     0.064 A 
ATOM     68  C   UNL     1       6.664 -12.376   9.056  1.00  0.00     0.173 A 
ATOM     69  C   UNL     1       5.440 -13.045   7.115  1.00  0.00     0.173 A 
ATOM     70  F   UNL     1       7.017 -11.471   9.979  1.00  0.00    -0.203 F 
ATOM     71  C   UNL     1       7.121 -13.689   9.210  1.00  0.00     0.198 A 
ATOM     72  C   UNL     1       5.912 -14.349   7.257  1.00  0.00     0.198 A 
ATOM     73  F   UNL     1       4.542 -12.831   6.143  1.00  0.00    -0.203 F 
ATOM     74  F   UNL     1       7.890 -14.009  10.260  1.00  0.00    -0.200 F 
ATOM     75  C   UNL     1       6.746 -14.673   8.310  1.00  0.00     0.200 A 
ATOM     76  F   UNL     1       5.513 -15.298   6.399  1.00  0.00    -0.200 F 
ATOM     77  F   UNL     1       7.153 -15.939   8.479  1.00  0.00    -0.200 F 
ENDBRANCH  43  67
BRANCH  55  78
ATOM     78  C   UNL     1       4.954  -6.023   9.791  1.00  0.00     0.064 A 
ATOM     79  C   UNL     1       5.478  -6.030   8.488  1.00  0.00     0.173 A 
ATOM     80  C   UNL     1       5.431  -5.048  10.677  1.00  0.00     0.173 A 
ATOM     81  F   UNL     1       4.992  -6.861   7.556  1.00  0.00    -0.203 F 
ATOM     82  C   UNL     1       6.476  -5.137   8.107  1.00  0.00     0.198 A 
ATOM     83  C   UNL     1       6.403  -4.133  10.284  1.00  0.00     0.198 A 
ATOM     84  F   UNL     1       4.918  -4.954  11.914  1.00  0.00    -0.203 F 
ATOM     85  F   UNL     1       6.974  -5.174   6.862  1.00  0.00    -0.200 F 
ATOM     86  C   UNL     1       6.935  -4.186   9.004  1.00  0.00     0.200 A 
ATOM     87  F   UNL     1       6.809  -3.182  11.137  1.00  0.00    -0.200 F 
ATOM     88  F   UNL     1       7.869  -3.302   8.628  1.00  0.00    -0.200 F 
ENDBRANCH  55  78
ENDBRANCH  29  30
ENDBRANCH  22  24
ENDBRANCH  21  22
ENDBRANCH  20  21
ENDBRANCH   1  20
TORSDOF 15
