REMARK SMILES C[C@H](CCC(=O)OCCOC(=O)c1ccc(-c2c3nc(c(-c4c(F)c(F)c(F)c(F)c4F)c4ccc([nH]4)c(-c4c(F)c(F)c(F)c(F)c4F)c4nc(c(-c5c(F)c(F)c(F)c(F)c5F)c5ccc2[nH]5)C=C4)C=C3)cc1)NC(=O)OC(C)(C)C
REMARK SMILES IDX 7 1 5 2 6 3 4 4 3 5 2 6 1 7 76 8 77 9 78 11 79 12 80 13
REMARK SMILES IDX 81 14 82 15 83 16 8 17 9 18 10 19 11 20 12 21 13 22 14 23
REMARK SMILES IDX 75 24 15 25 74 26 16 27 17 28 18 29 68 30 19 31 73 32 67 33
REMARK SMILES IDX 69 34 20 35 72 36 66 37 65 38 21 40 53 41 33 42 52 43 34 44
REMARK SMILES IDX 37 45 51 46 70 47 35 48 36 49 50 51 71 52 38 53 22 54 23 55
REMARK SMILES IDX 31 56 24 57 25 58 29 59 32 60 26 61 27 62 30 63 28 64 54 65
REMARK SMILES IDX 55 66 63 67 56 68 57 69 61 70 64 71 58 72 59 73 62 74 60 75
REMARK SMILES IDX 39 76 40 77 48 78 41 79 42 80 46 81 49 82 43 83 44 84 47 85
REMARK SMILES IDX 45 86
REMARK H PARENT 76 10 69 39 37 50
REMARK Flexibility Score: inf
ROOT
ATOM      1  O   UNL     1       0.781  -3.055   0.756  1.00  0.00    -0.462 OA
ENDROOT
BRANCH   1   2
ATOM      2  C   UNL     1       0.321  -2.209   1.703  1.00  0.00     0.305 C 
ATOM      3  O   UNL     1       0.301  -2.441   2.904  1.00  0.00    -0.252 OA
BRANCH   2   4
ATOM      4  C   UNL     1      -0.220  -0.931   1.110  1.00  0.00     0.125 C 
BRANCH   4   5
ATOM      5  C   UNL     1       0.577  -0.325  -0.053  1.00  0.00     0.036 C 
BRANCH   5   6
ATOM      6  C   UNL     1       0.303  -0.852  -1.475  1.00  0.00     0.083 C 
ATOM      7  C   UNL     1       1.096  -2.084  -1.901  1.00  0.00     0.031 C 
BRANCH   6   8
ATOM      8  N   UNL     1      -1.120  -1.068  -1.670  1.00  0.00    -0.319 N 
ATOM      9  C   UNL     1      -1.902  -0.578  -2.662  1.00  0.00     0.407 C 
ATOM     10  H   UNL     1      -1.569  -1.637  -1.004  1.00  0.00     0.167 HD
ATOM     11  O   UNL     1      -3.116  -0.729  -2.624  1.00  0.00    -0.225 OA
BRANCH   9  12
ATOM     12  O   UNL     1      -1.195   0.025  -3.639  1.00  0.00    -0.444 OA
BRANCH  12  13
ATOM     13  C   UNL     1      -1.869   0.529  -4.816  1.00  0.00     0.106 C 
ATOM     14  C   UNL     1      -2.692  -0.562  -5.512  1.00  0.00     0.056 C 
ATOM     15  C   UNL     1      -2.712   1.755  -4.456  1.00  0.00     0.056 C 
ATOM     16  C   UNL     1      -0.736   0.955  -5.760  1.00  0.00     0.056 C 
ENDBRANCH  12  13
ENDBRANCH   9  12
ENDBRANCH   6   8
ENDBRANCH   5   6
ENDBRANCH   4   5
ENDBRANCH   2   4
ENDBRANCH   1   2
BRANCH   1  17
ATOM     17  C   UNL     1       1.400  -4.275   1.202  1.00  0.00     0.274 C 
BRANCH  17  18
ATOM     18  C   UNL     1       2.922  -4.122   1.239  1.00  0.00     0.275 C 
BRANCH  18  19
ATOM     19  O   UNL     1       3.316  -3.218   2.288  1.00  0.00    -0.458 OA
BRANCH  19  20
ATOM     20  C   UNL     1       3.637  -1.966   1.891  1.00  0.00     0.338 C 
ATOM     21  O   UNL     1       3.708  -1.539   0.753  1.00  0.00    -0.246 OA
BRANCH  20  22
ATOM     22  C   UNL     1       3.780  -1.108   3.074  1.00  0.00     0.060 A 
ATOM     23  C   UNL     1       2.777  -0.177   3.350  1.00  0.00     0.016 A 
ATOM     24  C   UNL     1       4.929  -1.167   3.861  1.00  0.00     0.016 A 
ATOM     25  C   UNL     1       2.909   0.699   4.421  1.00  0.00     0.010 A 
ATOM     26  C   UNL     1       5.058  -0.295   4.945  1.00  0.00     0.010 A 
ATOM     27  C   UNL     1       4.051   0.646   5.228  1.00  0.00    -0.014 A 
BRANCH  27  28
ATOM     28  C   UNL     1       4.202   1.601   6.352  1.00  0.00     0.031 A 
ATOM     29  C   UNL     1       5.222   2.697   6.268  1.00  0.00     0.074 A 
ATOM     30  C   UNL     1       3.413   1.481   7.436  1.00  0.00     0.049 A 
ATOM     31  N   UNL     1       5.576   3.572   7.175  1.00  0.00    -0.248 NA
ATOM     32  C   UNL     1       5.944   2.825   4.993  1.00  0.00     0.031 C 
ATOM     33  C   UNL     1       2.359   0.480   7.604  1.00  0.00     0.029 A 
ATOM     34  N   UNL     1       3.380   2.201   8.603  1.00  0.00    -0.354 N 
ATOM     35  C   UNL     1       6.575   4.338   6.589  1.00  0.00     0.074 A 
ATOM     36  C   UNL     1       6.789   3.811   5.258  1.00  0.00     0.031 C 
ATOM     37  C   UNL     1       1.782   0.650   8.804  1.00  0.00     0.029 A 
ATOM     38  C   UNL     1       2.463   1.731   9.510  1.00  0.00     0.049 A 
ATOM     39  H   UNL     1       3.958   2.980   8.773  1.00  0.00     0.167 HD
ATOM     40  C   UNL     1       7.246   5.389   7.119  1.00  0.00     0.037 A 
ATOM     41  C   UNL     1       2.226   2.107  10.781  1.00  0.00     0.037 A 
ATOM     42  C   UNL     1       7.016   5.906   8.444  1.00  0.00     0.049 A 
ATOM     43  C   UNL     1       3.038   3.231  11.368  1.00  0.00     0.074 A 
ATOM     44  C   UNL     1       7.631   6.974   9.073  1.00  0.00     0.029 A 
ATOM     45  N   UNL     1       6.099   5.385   9.348  1.00  0.00    -0.354 N 
ATOM     46  N   UNL     1       3.976   3.957  10.809  1.00  0.00    -0.248 NA
ATOM     47  C   UNL     1       2.759   3.586  12.766  1.00  0.00     0.031 C 
ATOM     48  C   UNL     1       7.130   7.062  10.377  1.00  0.00     0.029 A 
ATOM     49  C   UNL     1       6.153   6.093  10.539  1.00  0.00     0.049 A 
ATOM     50  H   UNL     1       5.499   4.626   9.168  1.00  0.00     0.167 HD
ATOM     51  C   UNL     1       4.378   4.871  11.773  1.00  0.00     0.074 A 
ATOM     52  C   UNL     1       3.567   4.620  12.947  1.00  0.00     0.031 C 
ATOM     53  C   UNL     1       5.332   5.832  11.695  1.00  0.00     0.037 A 
BRANCH  40  54
ATOM     54  C   UNL     1       8.316   6.029   6.281  1.00  0.00     0.064 A 
ATOM     55  C   UNL     1       8.013   6.780   5.135  1.00  0.00     0.173 A 
ATOM     56  C   UNL     1       9.666   5.919   6.652  1.00  0.00     0.173 A 
ATOM     57  F   UNL     1       6.741   6.908   4.728  1.00  0.00    -0.203 F 
ATOM     58  C   UNL     1       9.021   7.373   4.379  1.00  0.00     0.198 A 
ATOM     59  C   UNL     1      10.668   6.540   5.912  1.00  0.00     0.198 A 
ATOM     60  F   UNL     1      10.013   5.216   7.740  1.00  0.00    -0.203 F 
ATOM     61  F   UNL     1       8.711   8.045   3.261  1.00  0.00    -0.200 F 
ATOM     62  C   UNL     1      10.347   7.260   4.772  1.00  0.00     0.200 A 
ATOM     63  F   UNL     1      11.946   6.441   6.303  1.00  0.00    -0.200 F 
ATOM     64  F   UNL     1      11.314   7.840   4.048  1.00  0.00    -0.200 F 
ENDBRANCH  40  54
BRANCH  41  65
ATOM     65  C   UNL     1       1.196   1.402  11.589  1.00  0.00     0.064 A 
ATOM     66  C   UNL     1       0.038   2.062  12.023  1.00  0.00     0.173 A 
ATOM     67  C   UNL     1       1.357   0.058  11.963  1.00  0.00     0.173 A 
ATOM     68  F   UNL     1      -0.153   3.353  11.713  1.00  0.00    -0.203 F 
ATOM     69  C   UNL     1      -0.905   1.414  12.819  1.00  0.00     0.198 A 
ATOM     70  C   UNL     1       0.396  -0.598  12.728  1.00  0.00     0.198 A 
ATOM     71  F   UNL     1       2.447  -0.622  11.576  1.00  0.00    -0.203 F 
ATOM     72  F   UNL     1      -1.974   2.087  13.268  1.00  0.00    -0.200 F 
ATOM     73  C   UNL     1      -0.729   0.083  13.165  1.00  0.00     0.200 A 
ATOM     74  F   UNL     1       0.564  -1.889  13.047  1.00  0.00    -0.200 F 
ATOM     75  F   UNL     1      -1.637  -0.539  13.930  1.00  0.00    -0.200 F 
ENDBRANCH  41  65
BRANCH  53  76
ATOM     76  C   UNL     1       5.519   6.711  12.899  1.00  0.00     0.064 A 
ATOM     77  C   UNL     1       6.075   6.226  14.092  1.00  0.00     0.173 A 
ATOM     78  C   UNL     1       5.164   8.068  12.845  1.00  0.00     0.173 A 
ATOM     79  F   UNL     1       6.418   4.933  14.200  1.00  0.00    -0.203 F 
ATOM     80  C   UNL     1       6.236   7.058  15.197  1.00  0.00     0.198 A 
ATOM     81  C   UNL     1       5.361   8.906  13.939  1.00  0.00     0.198 A 
ATOM     82  F   UNL     1       4.636   8.586  11.726  1.00  0.00    -0.203 F 
ATOM     83  F   UNL     1       6.714   6.558  16.345  1.00  0.00    -0.200 F 
ATOM     84  C   UNL     1       5.887   8.398  15.117  1.00  0.00     0.200 A 
ATOM     85  F   UNL     1       5.040  10.204  13.854  1.00  0.00    -0.200 F 
ATOM     86  F   UNL     1       6.050   9.198  16.179  1.00  0.00    -0.200 F 
ENDBRANCH  53  76
ENDBRANCH  27  28
ENDBRANCH  20  22
ENDBRANCH  19  20
ENDBRANCH  18  19
ENDBRANCH  17  18
ENDBRANCH   1  17
TORSDOF 16
