REMARK SMILES [NH3+][C@@]1(C(=O)OCCOC(=O)c2ccc(-c3c4nc(c(-c5c(F)c(F)c(F)c(F)c5F)c5ccc([nH]5)c(-c5c(F)c(F)c(F)c(F)c5F)c5nc(c(-c6c(F)c(F)c(F)c(F)c6F)c6ccc3[nH]6)C=C5)C=C4)cc2)CC[C@@H]([N@H+]2CC[C@H]([NH+]3CCOCC3)C2)C1
REMARK SMILES IDX 6 1 5 2 3 3 4 4 2 5 74 6 88 7 75 8 76 9 1 10 77 14 78 15
REMARK SMILES IDX 87 16 79 18 80 19 81 20 82 21 86 22 83 24 85 25 84 26 7 27
REMARK SMILES IDX 8 28 9 29 10 30 11 31 12 32 73 33 13 34 72 35 14 36 15 37
REMARK SMILES IDX 16 38 66 39 17 40 71 41 65 42 67 43 18 44 70 45 64 46 63 47
REMARK SMILES IDX 19 49 51 50 31 51 50 52 32 53 35 54 49 55 68 56 33 57 34 58
REMARK SMILES IDX 48 60 69 61 36 62 20 63 21 64 29 65 22 66 23 67 27 68 30 69
REMARK SMILES IDX 24 70 25 71 28 72 26 73 52 74 53 75 61 76 54 77 55 78 59 79
REMARK SMILES IDX 62 80 56 81 57 82 60 83 58 84 37 85 38 86 46 87 39 88 40 89
REMARK SMILES IDX 44 90 47 91 41 92 42 93 45 94 43 95
REMARK H PARENT 1 11 1 12 1 13 77 17 81 23 67 48 35 59
REMARK Flexibility Score: inf
ROOT
ATOM      1  C   UNL     1      -2.607   0.074   2.856  1.00  0.00     0.274 C 
ENDROOT
BRANCH   1   2
ATOM      2  O   UNL     1      -1.357   0.710   2.521  1.00  0.00    -0.457 OA
BRANCH   2   3
ATOM      3  C   UNL     1      -0.334  -0.112   2.149  1.00  0.00     0.368 C 
ATOM      4  O   UNL     1      -0.392  -1.336   2.194  1.00  0.00    -0.245 OA
BRANCH   3   5
ATOM      5  C   UNL     1       0.927   0.686   1.688  1.00  0.00     0.198 C 
ATOM      6  C   UNL     1       1.903   0.759   2.867  1.00  0.00     0.087 C 
ATOM      7  C   UNL     1       0.634   2.143   1.283  1.00  0.00     0.145 C 
ATOM      8  C   UNL     1       1.553   2.071   3.549  1.00  0.00     0.072 C 
ATOM      9  C   UNL     1       1.185   3.034   2.411  1.00  0.00     0.191 C 
BRANCH   5  10
ATOM     10  N   UNL     1       1.575  -0.020   0.554  1.00  0.00    -0.343 N 
ATOM     11  H   UNL     1       1.770  -0.985   0.821  1.00  0.00     0.345 HD
ATOM     12  H   UNL     1       2.449   0.450   0.316  1.00  0.00     0.345 HD
ATOM     13  H   UNL     1       0.953  -0.009  -0.254  1.00  0.00     0.345 HD
ENDBRANCH   5  10
BRANCH   9  14
ATOM     14  N   UNL     1       2.296   3.899   2.011  1.00  0.00    -0.327 N 
ATOM     15  C   UNL     1       3.506   3.288   1.476  1.00  0.00     0.269 C 
ATOM     16  C   UNL     1       1.905   4.992   1.103  1.00  0.00     0.328 C 
ATOM     17  H   UNL     1       2.549   4.248   2.936  1.00  0.00     0.348 HD
ATOM     18  C   UNL     1       4.254   4.488   0.918  1.00  0.00     0.132 C 
ATOM     19  C   UNL     1       3.144   5.271   0.214  1.00  0.00     0.245 C 
BRANCH  19  20
ATOM     20  N   UNL     1       3.392   6.639  -0.261  1.00  0.00    -0.324 N 
ATOM     21  C   UNL     1       4.704   6.833  -0.911  1.00  0.00     0.291 C 
ATOM     22  C   UNL     1       3.161   7.748   0.677  1.00  0.00     0.291 C 
ATOM     23  H   UNL     1       2.645   6.699  -0.953  1.00  0.00     0.348 HD
ATOM     24  C   UNL     1       5.860   7.193   0.045  1.00  0.00     0.221 C 
ATOM     25  C   UNL     1       4.321   7.997   1.646  1.00  0.00     0.221 C 
ATOM     26  O   UNL     1       5.527   8.275   0.924  1.00  0.00    -0.370 OA
ENDBRANCH  19  20
ENDBRANCH   9  14
ENDBRANCH   3   5
ENDBRANCH   2   3
ENDBRANCH   1   2
BRANCH   1  27
ATOM     27  C   UNL     1      -3.592   0.199   1.695  1.00  0.00     0.275 C 
BRANCH  27  28
ATOM     28  O   UNL     1      -3.115  -0.560   0.570  1.00  0.00    -0.458 OA
BRANCH  28  29
ATOM     29  C   UNL     1      -2.798   0.147  -0.537  1.00  0.00     0.338 C 
ATOM     30  O   UNL     1      -2.921   1.344  -0.726  1.00  0.00    -0.246 OA
BRANCH  29  31
ATOM     31  C   UNL     1      -2.206  -0.762  -1.529  1.00  0.00     0.060 A 
ATOM     32  C   UNL     1      -0.964  -1.331  -1.264  1.00  0.00     0.016 A 
ATOM     33  C   UNL     1      -2.831  -0.981  -2.755  1.00  0.00     0.016 A 
ATOM     34  C   UNL     1      -0.300  -2.060  -2.244  1.00  0.00     0.010 A 
ATOM     35  C   UNL     1      -2.213  -1.808  -3.700  1.00  0.00     0.010 A 
ATOM     36  C   UNL     1      -0.934  -2.345  -3.459  1.00  0.00    -0.014 A 
BRANCH  36  37
ATOM     37  C   UNL     1      -0.278  -3.232  -4.456  1.00  0.00     0.031 A 
ATOM     38  C   UNL     1       0.019  -2.732  -5.841  1.00  0.00     0.074 A 
ATOM     39  C   UNL     1       0.041  -4.498  -4.121  1.00  0.00     0.049 A 
ATOM     40  N   UNL     1       0.380  -3.405  -6.904  1.00  0.00    -0.248 NA
ATOM     41  C   UNL     1      -0.116  -1.284  -6.063  1.00  0.00     0.031 C 
ATOM     42  C   UNL     1      -0.144  -5.097  -2.797  1.00  0.00     0.029 A 
ATOM     43  N   UNL     1       0.586  -5.514  -4.868  1.00  0.00    -0.354 N 
ATOM     44  C   UNL     1       0.469  -2.474  -7.930  1.00  0.00     0.074 A 
ATOM     45  C   UNL     1       0.129  -1.186  -7.363  1.00  0.00     0.031 C 
ATOM     46  C   UNL     1       0.299  -6.362  -2.819  1.00  0.00     0.029 A 
ATOM     47  C   UNL     1       0.710  -6.694  -4.177  1.00  0.00     0.049 A 
ATOM     48  H   UNL     1       0.860  -5.406  -5.808  1.00  0.00     0.167 HD
ATOM     49  C   UNL     1       0.799  -2.683  -9.227  1.00  0.00     0.037 A 
ATOM     50  C   UNL     1       1.056  -7.925  -4.597  1.00  0.00     0.037 A 
ATOM     51  C   UNL     1       1.179  -3.960  -9.773  1.00  0.00     0.049 A 
ATOM     52  C   UNL     1       1.358  -8.143  -6.051  1.00  0.00     0.074 A 
ATOM     53  C   UNL     1       1.558  -4.268 -11.068  1.00  0.00     0.029 A 
ATOM     54  N   UNL     1       1.239  -5.141  -9.047  1.00  0.00    -0.354 N 
ATOM     55  N   UNL     1       1.379  -7.271  -7.028  1.00  0.00    -0.248 NA
ATOM     56  C   UNL     1       1.650  -9.522  -6.466  1.00  0.00     0.031 C 
ATOM     57  C   UNL     1       1.816  -5.642 -11.134  1.00  0.00     0.029 A 
ATOM     58  C   UNL     1       1.627  -6.184  -9.873  1.00  0.00     0.049 A 
ATOM     59  H   UNL     1       1.036  -5.225  -8.088  1.00  0.00     0.167 HD
ATOM     60  C   UNL     1       1.674  -7.992  -8.174  1.00  0.00     0.074 A 
ATOM     61  C   UNL     1       1.853  -9.371  -7.768  1.00  0.00     0.031 C 
ATOM     62  C   UNL     1       1.777  -7.552  -9.451  1.00  0.00     0.037 A 
BRANCH  49  63
ATOM     63  C   UNL     1       0.731  -1.511 -10.158  1.00  0.00     0.064 A 
ATOM     64  C   UNL     1       1.712  -0.510 -10.161  1.00  0.00     0.173 A 
ATOM     65  C   UNL     1      -0.311  -1.415 -11.093  1.00  0.00     0.173 A 
ATOM     66  F   UNL     1       2.720  -0.551  -9.277  1.00  0.00    -0.203 F 
ATOM     67  C   UNL     1       1.643   0.555 -11.056  1.00  0.00     0.198 A 
ATOM     68  C   UNL     1      -0.366  -0.360 -11.999  1.00  0.00     0.198 A 
ATOM     69  F   UNL     1      -1.273  -2.349 -11.132  1.00  0.00    -0.203 F 
ATOM     70  F   UNL     1       2.574   1.519 -11.020  1.00  0.00    -0.200 F 
ATOM     71  C   UNL     1       0.609   0.626 -11.977  1.00  0.00     0.200 A 
ATOM     72  F   UNL     1      -1.362  -0.297 -12.894  1.00  0.00    -0.200 F 
ATOM     73  F   UNL     1       0.548   1.649 -12.842  1.00  0.00    -0.200 F 
ENDBRANCH  49  63
BRANCH  50  74
ATOM     74  C   UNL     1       1.058  -9.054  -3.633  1.00  0.00     0.064 A 
ATOM     75  C   UNL     1       2.257  -9.642  -3.212  1.00  0.00     0.173 A 
ATOM     76  C   UNL     1      -0.140  -9.547  -3.093  1.00  0.00     0.173 A 
ATOM     77  F   UNL     1       3.424  -9.222  -3.722  1.00  0.00    -0.203 F 
ATOM     78  C   UNL     1       2.258 -10.681  -2.283  1.00  0.00     0.198 A 
ATOM     79  C   UNL     1      -0.136 -10.567  -2.145  1.00  0.00     0.198 A 
ATOM     80  F   UNL     1      -1.314  -9.019  -3.469  1.00  0.00    -0.203 F 
ATOM     81  F   UNL     1       3.416 -11.246  -1.915  1.00  0.00    -0.200 F 
ATOM     82  C   UNL     1       1.063 -11.135  -1.743  1.00  0.00     0.200 A 
ATOM     83  F   UNL     1      -1.291 -10.994  -1.618  1.00  0.00    -0.200 F 
ATOM     84  F   UNL     1       1.067 -12.125  -0.840  1.00  0.00    -0.200 F 
ENDBRANCH  50  74
BRANCH  62  85
ATOM     85  C   UNL     1       2.084  -8.577 -10.498  1.00  0.00     0.064 A 
ATOM     86  C   UNL     1       1.092  -9.447 -10.971  1.00  0.00     0.173 A 
ATOM     87  C   UNL     1       3.367  -8.668 -11.056  1.00  0.00     0.173 A 
ATOM     88  F   UNL     1      -0.144  -9.407 -10.451  1.00  0.00    -0.203 F 
ATOM     89  C   UNL     1       1.377 -10.383 -11.960  1.00  0.00     0.198 A 
ATOM     90  C   UNL     1       3.644  -9.593 -12.059  1.00  0.00     0.198 A 
ATOM     91  F   UNL     1       4.347  -7.855 -10.635  1.00  0.00    -0.203 F 
ATOM     92  F   UNL     1       0.424 -11.228 -12.376  1.00  0.00    -0.200 F 
ATOM     93  C   UNL     1       2.651 -10.451 -12.507  1.00  0.00     0.200 A 
ATOM     94  F   UNL     1       4.872  -9.655 -12.590  1.00  0.00    -0.200 F 
ATOM     95  F   UNL     1       2.923 -11.351 -13.462  1.00  0.00    -0.200 F 
ENDBRANCH  62  85
ENDBRANCH  36  37
ENDBRANCH  29  31
ENDBRANCH  28  29
ENDBRANCH  27  28
ENDBRANCH   1  27
TORSDOF 14
