REMARK SMILES N#Cc1ccccc1S(=O)(=O)N1CCC(C(=O)OCCOC(=O)c2ccc(-c3c4nc(c(-c5c(F)c(F)c(F)c(F)c5F)c5ccc([nH]5)c(-c5c(F)c(F)c(F)c(F)c5F)c5nc(c(-c6c(F)c(F)c(F)c(F)c6F)c6ccc3[nH]6)C=C5)C=C4)cc2)CC1
REMARK SMILES IDX 19 1 18 2 16 3 17 4 15 5 12 6 13 7 88 8 14 9 87 10 9 11
REMARK SMILES IDX 10 12 11 13 8 14 3 15 4 16 5 17 7 18 6 19 2 20 1 21 20 22
REMARK SMILES IDX 21 23 22 24 23 25 24 26 25 27 86 28 26 29 85 30 27 31 28 32
REMARK SMILES IDX 29 33 79 34 30 35 84 36 78 37 80 38 31 39 83 40 77 41 76 42
REMARK SMILES IDX 32 44 64 45 44 46 63 47 45 48 48 49 62 50 81 51 46 52 47 53
REMARK SMILES IDX 61 55 82 56 49 57 33 58 34 59 42 60 35 61 36 62 40 63 43 64
REMARK SMILES IDX 37 65 38 66 41 67 39 68 65 69 66 70 74 71 67 72 68 73 72 74
REMARK SMILES IDX 75 75 69 76 70 77 73 78 71 79 50 80 51 81 59 82 52 83 53 84
REMARK SMILES IDX 57 85 60 86 54 87 55 88 58 89 56 90
REMARK H PARENT 80 43 48 54
REMARK Flexibility Score: inf
ROOT
ATOM      1  C   UNL     1      -8.504  -1.713  -0.523  1.00  0.00     0.274 C 
ENDROOT
BRANCH   1   2
ATOM      2  O   UNL     1      -7.094  -1.952  -0.360  1.00  0.00    -0.462 OA
BRANCH   2   3
ATOM      3  C   UNL     1      -6.271  -1.168  -1.098  1.00  0.00     0.309 C 
ATOM      4  O   UNL     1      -6.641  -0.361  -1.944  1.00  0.00    -0.252 OA
BRANCH   3   5
ATOM      5  C   UNL     1      -4.808  -1.363  -0.767  1.00  0.00     0.102 C 
ATOM      6  N   UNL     1      -2.141  -2.296  -0.319  1.00  0.00    -0.198 NA
ATOM      7  C   UNL     1      -3.020  -2.082   0.856  1.00  0.00     0.103 C 
ATOM      8  C   UNL     1      -2.572  -1.927  -1.684  1.00  0.00     0.103 C 
ATOM      9  C   UNL     1      -4.508  -2.089   0.534  1.00  0.00     0.032 C 
ATOM     10  C   UNL     1      -4.072  -2.068  -1.891  1.00  0.00     0.032 C 
BRANCH   6  11
ATOM     11  S   UNL     1      -0.495  -2.546  -0.036  1.00  0.00     0.244 S 
ATOM     12  O   UNL     1       0.011  -3.267  -1.188  1.00  0.00    -0.207 OA
ATOM     13  O   UNL     1      -0.351  -3.089   1.298  1.00  0.00    -0.207 OA
BRANCH  11  14
ATOM     14  C   UNL     1       0.430  -1.018  -0.015  1.00  0.00     0.100 A 
ATOM     15  C   UNL     1      -0.060   0.287   0.036  1.00  0.00     0.072 A 
ATOM     16  C   UNL     1       0.852   1.366   0.051  1.00  0.00     0.021 A 
ATOM     17  C   UNL     1       2.228   1.157   0.026  1.00  0.00     0.001 A 
ATOM     18  C   UNL     1       1.830  -1.213  -0.038  1.00  0.00     0.023 A 
ATOM     19  C   UNL     1       2.719  -0.138  -0.015  1.00  0.00     0.001 A 
BRANCH  15  20
ATOM     20  C   UNL     1      -1.431   0.674   0.085  1.00  0.00     0.101 C 
ATOM     21  N   UNL     1      -2.507   1.098   0.114  1.00  0.00    -0.192 NA
ENDBRANCH  15  20
ENDBRANCH  11  14
ENDBRANCH   6  11
ENDBRANCH   3   5
ENDBRANCH   2   3
ENDBRANCH   1   2
BRANCH   1  22
ATOM     22  C   UNL     1      -9.052  -0.871   0.632  1.00  0.00     0.275 C 
BRANCH  22  23
ATOM     23  O   UNL     1      -8.511   0.466   0.621  1.00  0.00    -0.458 OA
BRANCH  23  24
ATOM     24  C   UNL     1      -7.475   0.675   1.465  1.00  0.00     0.338 C 
ATOM     25  O   UNL     1      -6.965  -0.125   2.230  1.00  0.00    -0.246 OA
BRANCH  24  26
ATOM     26  C   UNL     1      -6.955   2.039   1.292  1.00  0.00     0.060 A 
ATOM     27  C   UNL     1      -5.749   2.205   0.615  1.00  0.00     0.016 A 
ATOM     28  C   UNL     1      -7.574   3.127   1.905  1.00  0.00     0.016 A 
ATOM     29  C   UNL     1      -5.133   3.452   0.569  1.00  0.00     0.010 A 
ATOM     30  C   UNL     1      -6.972   4.389   1.831  1.00  0.00     0.010 A 
ATOM     31  C   UNL     1      -5.736   4.558   1.179  1.00  0.00    -0.014 A 
BRANCH  31  32
ATOM     32  C   UNL     1      -5.055   5.878   1.163  1.00  0.00     0.031 A 
ATOM     33  C   UNL     1      -4.515   6.463   2.438  1.00  0.00     0.074 A 
ATOM     34  C   UNL     1      -4.910   6.546   0.004  1.00  0.00     0.049 A 
ATOM     35  N   UNL     1      -3.994   7.645   2.654  1.00  0.00    -0.248 NA
ATOM     36  C   UNL     1      -4.575   5.606   3.631  1.00  0.00     0.031 C 
ATOM     37  C   UNL     1      -5.345   6.064  -1.307  1.00  0.00     0.029 A 
ATOM     38  N   UNL     1      -4.365   7.779  -0.257  1.00  0.00    -0.354 N 
ATOM     39  C   UNL     1      -3.692   7.685   4.008  1.00  0.00     0.074 A 
ATOM     40  C   UNL     1      -4.103   6.415   4.569  1.00  0.00     0.031 C 
ATOM     41  C   UNL     1      -5.048   6.988  -2.234  1.00  0.00     0.029 A 
ATOM     42  C   UNL     1      -4.459   8.150  -1.576  1.00  0.00     0.049 A 
ATOM     43  H   UNL     1      -3.946   8.341   0.434  1.00  0.00     0.167 HD
ATOM     44  C   UNL     1      -3.121   8.689   4.716  1.00  0.00     0.037 A 
ATOM     45  C   UNL     1      -4.141   9.311  -2.180  1.00  0.00     0.037 A 
ATOM     46  C   UNL     1      -2.694   9.943   4.148  1.00  0.00     0.049 A 
ATOM     47  C   UNL     1      -3.568  10.434  -1.360  1.00  0.00     0.074 A 
ATOM     48  C   UNL     1      -2.083  11.013   4.778  1.00  0.00     0.029 A 
ATOM     49  N   UNL     1      -2.837  10.295   2.813  1.00  0.00    -0.354 N 
ATOM     50  N   UNL     1      -3.288  10.466  -0.080  1.00  0.00    -0.248 NA
ATOM     51  C   UNL     1      -3.275  11.688  -2.069  1.00  0.00     0.031 C 
ATOM     52  C   UNL     1      -1.902  12.032   3.836  1.00  0.00     0.029 A 
ATOM     53  C   UNL     1      -2.349  11.576   2.606  1.00  0.00     0.049 A 
ATOM     54  H   UNL     1      -3.227   9.720   2.116  1.00  0.00     0.167 HD
ATOM     55  C   UNL     1      -2.765  11.728   0.166  1.00  0.00     0.074 A 
ATOM     56  C   UNL     1      -2.751  12.428  -1.102  1.00  0.00     0.031 C 
ATOM     57  C   UNL     1      -2.337  12.260   1.337  1.00  0.00     0.037 A 
BRANCH  44  58
ATOM     58  C   UNL     1      -2.953   8.490   6.196  1.00  0.00     0.064 A 
ATOM     59  C   UNL     1      -2.012   7.592   6.722  1.00  0.00     0.173 A 
ATOM     60  C   UNL     1      -3.723   9.236   7.101  1.00  0.00     0.173 A 
ATOM     61  F   UNL     1      -1.257   6.847   5.900  1.00  0.00    -0.203 F 
ATOM     62  C   UNL     1      -1.869   7.428   8.098  1.00  0.00     0.198 A 
ATOM     63  C   UNL     1      -3.556   9.092   8.476  1.00  0.00     0.198 A 
ATOM     64  F   UNL     1      -4.631  10.116   6.653  1.00  0.00    -0.203 F 
ATOM     65  F   UNL     1      -0.997   6.530   8.577  1.00  0.00    -0.200 F 
ATOM     66  C   UNL     1      -2.636   8.182   8.973  1.00  0.00     0.200 A 
ATOM     67  F   UNL     1      -4.287   9.833   9.320  1.00  0.00    -0.200 F 
ATOM     68  F   UNL     1      -2.492   8.028  10.297  1.00  0.00    -0.200 F 
ENDBRANCH  44  58
BRANCH  45  69
ATOM     69  C   UNL     1      -4.381   9.475  -3.637  1.00  0.00     0.064 A 
ATOM     70  C   UNL     1      -3.313   9.590  -4.537  1.00  0.00     0.173 A 
ATOM     71  C   UNL     1      -5.683   9.524  -4.160  1.00  0.00     0.173 A 
ATOM     72  F   UNL     1      -2.051   9.575  -4.083  1.00  0.00    -0.203 F 
ATOM     73  C   UNL     1      -3.538   9.761  -5.902  1.00  0.00     0.198 A 
ATOM     74  C   UNL     1      -5.905   9.664  -5.527  1.00  0.00     0.198 A 
ATOM     75  F   UNL     1      -6.740   9.422  -3.341  1.00  0.00    -0.203 F 
ATOM     76  F   UNL     1      -2.499   9.912  -6.734  1.00  0.00    -0.200 F 
ATOM     77  C   UNL     1      -4.833   9.790  -6.396  1.00  0.00     0.200 A 
ATOM     78  F   UNL     1      -7.158   9.679  -6.002  1.00  0.00    -0.200 F 
ATOM     79  F   UNL     1      -5.047   9.948  -7.710  1.00  0.00    -0.200 F 
ENDBRANCH  45  69
BRANCH  57  80
ATOM     80  C   UNL     1      -1.783  13.655   1.297  1.00  0.00     0.064 A 
ATOM     81  C   UNL     1      -2.610  14.771   1.102  1.00  0.00     0.173 A 
ATOM     82  C   UNL     1      -0.411  13.880   1.488  1.00  0.00     0.173 A 
ATOM     83  F   UNL     1      -3.926  14.609   0.897  1.00  0.00    -0.203 F 
ATOM     84  C   UNL     1      -2.080  16.059   1.073  1.00  0.00     0.198 A 
ATOM     85  C   UNL     1       0.111  15.170   1.490  1.00  0.00     0.198 A 
ATOM     86  F   UNL     1       0.422  12.847   1.684  1.00  0.00    -0.203 F 
ATOM     87  F   UNL     1      -2.881  17.106   0.835  1.00  0.00    -0.200 F 
ATOM     88  C   UNL     1      -0.722  16.258   1.275  1.00  0.00     0.200 A 
ATOM     89  F   UNL     1       1.421  15.361   1.698  1.00  0.00    -0.200 F 
ATOM     90  F   UNL     1      -0.214  17.498   1.253  1.00  0.00    -0.200 F 
ENDBRANCH  57  80
ENDBRANCH  31  32
ENDBRANCH  24  26
ENDBRANCH  23  24
ENDBRANCH  22  23
ENDBRANCH   1  22
TORSDOF 14
