REMARK SMILES O=C(OCCOC(=O)c1cc(N2CCN(c3ccc(F)cc3)CC2)ccc1NC(=O)C1CCCC1)c1ccc(-c2c3nc(c(-c4c(F)c(F)c(F)c(F)c4F)c4ccc([nH]4)c(-c4c(F)c(F)c(F)c(F)c4F)c4nc(c(-c5c(F)c(F)c(F)c(F)c5F)c5ccc2[nH]5)C=C4)C=C3)cc1
REMARK SMILES IDX 4 1 3 2 2 3 1 4 36 5 37 6 98 7 38 8 97 9 39 10 40 11 41 12
REMARK SMILES IDX 91 13 42 14 96 15 90 16 92 17 43 18 95 19 89 20 88 21 44 23
REMARK SMILES IDX 76 24 56 25 75 26 57 27 60 28 74 29 93 30 58 31 59 32 73 34
REMARK SMILES IDX 94 35 61 36 45 37 46 38 54 39 47 40 48 41 52 42 55 43 49 44
REMARK SMILES IDX 50 45 53 46 51 47 77 48 78 49 86 50 79 51 80 52 84 53 87 54
REMARK SMILES IDX 81 55 82 56 85 57 83 58 62 59 63 60 71 61 64 62 65 63 69 64
REMARK SMILES IDX 72 65 66 66 67 67 70 68 68 69 5 70 6 71 7 72 8 73 9 74 10 75
REMARK SMILES IDX 27 76 11 77 26 78 25 79 28 80 29 81 30 83 31 84 32 85 35 86
REMARK SMILES IDX 33 87 34 88 12 89 13 90 24 91 14 92 23 93 15 94 16 95 17 96
REMARK SMILES IDX 22 97 18 98 21 99 19 100 20 101
REMARK H PARENT 92 22 60 33 28 82
REMARK Flexibility Score: inf
ROOT
ATOM      1  C   UNL     1       3.890   1.363  -0.808  1.00  0.00     0.275 C 
ENDROOT
BRANCH   1   2
ATOM      2  O   UNL     1       2.830   0.436  -1.107  1.00  0.00    -0.458 OA
BRANCH   2   3
ATOM      3  C   UNL     1       2.701  -0.878  -0.806  1.00  0.00     0.338 C 
ATOM      4  O   UNL     1       1.740  -1.501  -1.257  1.00  0.00    -0.246 OA
BRANCH   3   5
ATOM      5  C   UNL     1       3.604  -1.599   0.143  1.00  0.00     0.060 A 
ATOM      6  C   UNL     1       4.954  -1.316   0.351  1.00  0.00     0.016 A 
ATOM      7  C   UNL     1       3.039  -2.665   0.868  1.00  0.00     0.016 A 
ATOM      8  C   UNL     1       5.698  -2.002   1.312  1.00  0.00     0.010 A 
ATOM      9  C   UNL     1       3.782  -3.358   1.833  1.00  0.00     0.010 A 
ATOM     10  C   UNL     1       5.121  -3.018   2.072  1.00  0.00    -0.014 A 
BRANCH  10  11
ATOM     11  C   UNL     1       5.973  -3.809   2.993  1.00  0.00     0.031 A 
ATOM     12  C   UNL     1       6.362  -5.197   2.582  1.00  0.00     0.074 A 
ATOM     13  C   UNL     1       6.501  -3.269   4.111  1.00  0.00     0.049 A 
ATOM     14  N   UNL     1       7.141  -6.043   3.200  1.00  0.00    -0.248 NA
ATOM     15  C   UNL     1       5.884  -5.664   1.268  1.00  0.00     0.031 C 
ATOM     16  C   UNL     1       6.391  -1.870   4.511  1.00  0.00     0.029 A 
ATOM     17  N   UNL     1       7.215  -3.838   5.140  1.00  0.00    -0.354 N 
ATOM     18  C   UNL     1       7.346  -7.078   2.302  1.00  0.00     0.074 A 
ATOM     19  C   UNL     1       6.502  -6.830   1.155  1.00  0.00     0.031 C 
ATOM     20  C   UNL     1       6.895  -1.716   5.749  1.00  0.00     0.029 A 
ATOM     21  C   UNL     1       7.356  -3.005   6.231  1.00  0.00     0.049 A 
ATOM     22  H   UNL     1       7.588  -4.748   5.102  1.00  0.00     0.167 HD
ATOM     23  C   UNL     1       8.231  -8.095   2.399  1.00  0.00     0.037 A 
ATOM     24  C   UNL     1       7.756  -3.283   7.487  1.00  0.00     0.037 A 
ATOM     25  C   UNL     1       9.025  -8.349   3.570  1.00  0.00     0.049 A 
ATOM     26  C   UNL     1       8.420  -4.601   7.714  1.00  0.00     0.074 A 
ATOM     27  C   UNL     1       9.935  -9.364   3.798  1.00  0.00     0.029 A 
ATOM     28  N   UNL     1       8.980  -7.584   4.730  1.00  0.00    -0.354 N 
ATOM     29  N   UNL     1       8.609  -5.579   6.866  1.00  0.00    -0.248 NA
ATOM     30  C   UNL     1       9.025  -4.803   9.033  1.00  0.00     0.031 C 
ATOM     31  C   UNL     1      10.391  -9.251   5.117  1.00  0.00     0.029 A 
ATOM     32  C   UNL     1       9.812  -8.132   5.693  1.00  0.00     0.049 A 
ATOM     33  H   UNL     1       8.437  -6.772   4.849  1.00  0.00     0.167 HD
ATOM     34  C   UNL     1       9.439  -6.476   7.511  1.00  0.00     0.074 A 
ATOM     35  C   UNL     1       9.671  -5.944   8.842  1.00  0.00     0.031 C 
ATOM     36  C   UNL     1      10.006  -7.604   7.020  1.00  0.00     0.037 A 
BRANCH  23  37
ATOM     37  C   UNL     1       8.382  -8.979   1.199  1.00  0.00     0.064 A 
ATOM     38  C   UNL     1       8.994  -8.513   0.022  1.00  0.00     0.173 A 
ATOM     39  C   UNL     1       7.916 -10.300   1.216  1.00  0.00     0.173 A 
ATOM     40  F   UNL     1       9.436  -7.248  -0.054  1.00  0.00    -0.203 F 
ATOM     41  C   UNL     1       9.111  -9.330  -1.098  1.00  0.00     0.198 A 
ATOM     42  C   UNL     1       8.057 -11.123   0.102  1.00  0.00     0.198 A 
ATOM     43  F   UNL     1       7.317 -10.790   2.311  1.00  0.00    -0.203 F 
ATOM     44  F   UNL     1       9.654  -8.848  -2.225  1.00  0.00    -0.200 F 
ATOM     45  C   UNL     1       8.648 -10.636  -1.056  1.00  0.00     0.200 A 
ATOM     46  F   UNL     1       7.612 -12.386   0.144  1.00  0.00    -0.200 F 
ATOM     47  F   UNL     1       8.760 -11.424  -2.135  1.00  0.00    -0.200 F 
ENDBRANCH  23  37
BRANCH  24  48
ATOM     48  C   UNL     1       7.560  -2.340   8.621  1.00  0.00     0.064 A 
ATOM     49  C   UNL     1       8.533  -1.413   9.005  1.00  0.00     0.173 A 
ATOM     50  C   UNL     1       6.400  -2.416   9.412  1.00  0.00     0.173 A 
ATOM     51  F   UNL     1       9.709  -1.378   8.362  1.00  0.00    -0.203 F 
ATOM     52  C   UNL     1       8.331  -0.567  10.099  1.00  0.00     0.198 A 
ATOM     53  C   UNL     1       6.166  -1.527  10.459  1.00  0.00     0.198 A 
ATOM     54  F   UNL     1       5.507  -3.394   9.198  1.00  0.00    -0.203 F 
ATOM     55  F   UNL     1       9.307   0.263  10.490  1.00  0.00    -0.200 F 
ATOM     56  C   UNL     1       7.136  -0.604  10.805  1.00  0.00     0.200 A 
ATOM     57  F   UNL     1       5.016  -1.587  11.144  1.00  0.00    -0.200 F 
ATOM     58  F   UNL     1       6.938   0.220  11.844  1.00  0.00    -0.200 F 
ENDBRANCH  24  48
BRANCH  36  59
ATOM     59  C   UNL     1      10.979  -8.295   7.923  1.00  0.00     0.064 A 
ATOM     60  C   UNL     1      10.568  -8.954   9.089  1.00  0.00     0.173 A 
ATOM     61  C   UNL     1      12.351  -8.264   7.627  1.00  0.00     0.173 A 
ATOM     62  F   UNL     1       9.269  -8.981   9.427  1.00  0.00    -0.203 F 
ATOM     63  C   UNL     1      11.500  -9.518   9.952  1.00  0.00     0.198 A 
ATOM     64  C   UNL     1      13.275  -8.866   8.471  1.00  0.00     0.198 A 
ATOM     65  F   UNL     1      12.793  -7.641   6.524  1.00  0.00    -0.203 F 
ATOM     66  F   UNL     1      11.093 -10.069  11.104  1.00  0.00    -0.200 F 
ATOM     67  C   UNL     1      12.851  -9.480   9.640  1.00  0.00     0.200 A 
ATOM     68  F   UNL     1      14.579  -8.838   8.162  1.00  0.00    -0.200 F 
ATOM     69  F   UNL     1      13.748 -10.021  10.476  1.00  0.00    -0.200 F 
ENDBRANCH  36  59
ENDBRANCH  10  11
ENDBRANCH   3   5
ENDBRANCH   2   3
ENDBRANCH   1   2
BRANCH   1  70
ATOM     70  C   UNL     1       3.873   1.956   0.607  1.00  0.00     0.275 C 
BRANCH  70  71
ATOM     71  O   UNL     1       3.401   1.046   1.615  1.00  0.00    -0.458 OA
BRANCH  71  72
ATOM     72  C   UNL     1       2.073   1.136   1.904  1.00  0.00     0.340 C 
ATOM     73  O   UNL     1       1.298   1.969   1.463  1.00  0.00    -0.246 OA
BRANCH  72  74
ATOM     74  C   UNL     1       1.655  -0.035   2.712  1.00  0.00     0.085 A 
ATOM     75  C   UNL     1       0.426  -0.630   2.361  1.00  0.00     0.043 A 
ATOM     76  C   UNL     1       2.398  -0.563   3.778  1.00  0.00     0.055 A 
ATOM     77  C   UNL     1      -0.022  -1.797   2.990  1.00  0.00     0.038 A 
ATOM     78  C   UNL     1       2.010  -1.804   4.255  1.00  0.00     0.029 A 
ATOM     79  C   UNL     1       0.822  -2.416   3.890  1.00  0.00     0.028 A 
BRANCH  76  80
ATOM     80  N   UNL     1       3.475   0.139   4.348  1.00  0.00    -0.325 N 
ATOM     81  C   UNL     1       4.073   0.123   5.573  1.00  0.00     0.227 C 
ATOM     82  H   UNL     1       3.887   0.781   3.727  1.00  0.00     0.169 HD
ATOM     83  O   UNL     1       5.031   0.905   5.700  1.00  0.00    -0.274 OA
BRANCH  81  84
ATOM     84  C   UNL     1       3.657  -0.695   6.806  1.00  0.00     0.079 C 
ATOM     85  C   UNL     1       2.225  -0.499   7.285  1.00  0.00     0.013 C 
ATOM     86  C   UNL     1       3.919  -2.201   6.834  1.00  0.00     0.013 C 
ATOM     87  C   UNL     1       1.920  -1.740   8.116  1.00  0.00     0.001 C 
ATOM     88  C   UNL     1       2.710  -2.869   7.478  1.00  0.00     0.001 C 
ENDBRANCH  81  84
ENDBRANCH  76  80
BRANCH  77  89
ATOM     89  N   UNL     1      -1.306  -2.262   2.787  1.00  0.00    -0.368 N 
ATOM     90  C   UNL     1      -1.523  -3.599   2.193  1.00  0.00     0.138 C 
ATOM     91  C   UNL     1      -2.278  -1.831   3.814  1.00  0.00     0.138 C 
ATOM     92  C   UNL     1      -1.901  -4.694   3.226  1.00  0.00     0.138 C 
ATOM     93  C   UNL     1      -2.591  -2.946   4.837  1.00  0.00     0.138 C 
ATOM     94  N   UNL     1      -2.924  -4.215   4.174  1.00  0.00    -0.368 N 
BRANCH  94  95
ATOM     95  C   UNL     1      -4.240  -4.600   3.991  1.00  0.00     0.037 A 
ATOM     96  C   UNL     1      -4.597  -5.953   4.115  1.00  0.00     0.029 A 
ATOM     97  C   UNL     1      -5.265  -3.684   3.709  1.00  0.00     0.029 A 
ATOM     98  C   UNL     1      -5.925  -6.372   3.982  1.00  0.00     0.041 A 
ATOM     99  C   UNL     1      -6.592  -4.096   3.556  1.00  0.00     0.041 A 
ATOM    100  C   UNL     1      -6.910  -5.437   3.701  1.00  0.00     0.123 A 
ATOM    101  F   UNL     1      -8.184  -5.831   3.574  1.00  0.00    -0.207 F 
ENDBRANCH  94  95
ENDBRANCH  77  89
ENDBRANCH  72  74
ENDBRANCH  71  72
ENDBRANCH  70  71
ENDBRANCH   1  70
TORSDOF 15
