REMARK SMILES O=C(OCCOC(=O)[C@H]1[C@H]2CC[C@H](C2)[C@@H]1C(=O)N1CCN(c2cccc(Cl)c2)CC1)c1ccc(-c2c3nc(c(-c4c(F)c(F)c(F)c(F)c4F)c4ccc([nH]4)c(-c4c(F)c(F)c(F)c(F)c4F)c4nc(c(-c5c(F)c(F)c(F)c(F)c5F)c5ccc2[nH]5)C=C4)C=C3)cc1
REMARK SMILES IDX 4 1 3 2 2 3 1 4 31 5 32 6 93 7 33 8 92 9 34 10 35 11 36 12
REMARK SMILES IDX 86 13 37 14 91 15 85 16 87 17 38 18 90 19 84 20 83 21 39 23
REMARK SMILES IDX 71 24 51 25 70 26 52 27 55 28 69 29 88 30 53 31 54 32 68 34
REMARK SMILES IDX 89 35 56 36 40 37 41 38 49 39 42 40 43 41 47 42 50 43 44 44
REMARK SMILES IDX 45 45 48 46 46 47 72 48 73 49 81 50 74 51 75 52 79 53 82 54
REMARK SMILES IDX 76 55 77 56 80 57 78 58 57 59 58 60 66 61 59 62 60 63 64 64
REMARK SMILES IDX 67 65 61 66 62 67 65 68 63 69 5 70 6 71 7 72 8 73 9 74 10 75
REMARK SMILES IDX 15 76 11 77 14 78 13 79 12 80 16 81 17 82 18 83 19 84 30 85
REMARK SMILES IDX 20 86 29 87 21 88 22 89 23 90 28 91 24 92 26 93 25 94 27 95
REMARK H PARENT 87 22 55 33
REMARK Flexibility Score: inf
ROOT
ATOM      1  C   UNL     1       2.146  -0.253   4.527  1.00  0.00     0.275 C 
ENDROOT
BRANCH   1   2
ATOM      2  O   UNL     1       3.525  -0.054   4.197  1.00  0.00    -0.458 OA
BRANCH   2   3
ATOM      3  C   UNL     1       4.140  -0.110   2.997  1.00  0.00     0.338 C 
ATOM      4  O   UNL     1       5.364   0.013   2.974  1.00  0.00    -0.246 OA
BRANCH   3   5
ATOM      5  C   UNL     1       3.428  -0.248   1.677  1.00  0.00     0.060 A 
ATOM      6  C   UNL     1       2.104  -0.641   1.436  1.00  0.00     0.016 A 
ATOM      7  C   UNL     1       4.191   0.092   0.558  1.00  0.00     0.016 A 
ATOM      8  C   UNL     1       1.536  -0.614   0.151  1.00  0.00     0.010 A 
ATOM      9  C   UNL     1       3.632   0.102  -0.720  1.00  0.00     0.010 A 
ATOM     10  C   UNL     1       2.293  -0.230  -0.948  1.00  0.00    -0.014 A 
BRANCH  10  11
ATOM     11  C   UNL     1       1.740  -0.321  -2.327  1.00  0.00     0.031 A 
ATOM     12  C   UNL     1       2.352  -1.312  -3.277  1.00  0.00     0.074 A 
ATOM     13  C   UNL     1       0.729   0.470  -2.746  1.00  0.00     0.049 A 
ATOM     14  N   UNL     1       2.011  -1.606  -4.505  1.00  0.00    -0.248 NA
ATOM     15  C   UNL     1       3.539  -2.037  -2.798  1.00  0.00     0.031 C 
ATOM     16  C   UNL     1       0.089   1.519  -1.954  1.00  0.00     0.029 A 
ATOM     17  N   UNL     1       0.057   0.514  -3.945  1.00  0.00    -0.354 N 
ATOM     18  C   UNL     1       2.958  -2.523  -4.940  1.00  0.00     0.074 A 
ATOM     19  C   UNL     1       3.947  -2.645  -3.896  1.00  0.00     0.031 C 
ATOM     20  C   UNL     1      -0.903   2.079  -2.671  1.00  0.00     0.029 A 
ATOM     21  C   UNL     1      -0.972   1.429  -3.977  1.00  0.00     0.049 A 
ATOM     22  H   UNL     1       0.290  -0.058  -4.712  1.00  0.00     0.167 HD
ATOM     23  C   UNL     1       2.976  -3.257  -6.076  1.00  0.00     0.037 A 
ATOM     24  C   UNL     1      -1.881   1.683  -4.942  1.00  0.00     0.037 A 
ATOM     25  C   UNL     1       1.966  -3.182  -7.090  1.00  0.00     0.049 A 
ATOM     26  C   UNL     1      -1.844   0.854  -6.206  1.00  0.00     0.074 A 
ATOM     27  C   UNL     1       1.877  -3.878  -8.279  1.00  0.00     0.029 A 
ATOM     28  N   UNL     1       0.867  -2.337  -7.032  1.00  0.00    -0.354 N 
ATOM     29  N   UNL     1      -1.079  -0.168  -6.507  1.00  0.00    -0.248 NA
ATOM     30  C   UNL     1      -2.816   1.201  -7.253  1.00  0.00     0.031 C 
ATOM     31  C   UNL     1       0.773  -3.384  -8.984  1.00  0.00     0.029 A 
ATOM     32  C   UNL     1       0.147  -2.419  -8.210  1.00  0.00     0.049 A 
ATOM     33  H   UNL     1       0.634  -1.764  -6.266  1.00  0.00     0.167 HD
ATOM     34  C   UNL     1      -1.497  -0.607  -7.759  1.00  0.00     0.074 A 
ATOM     35  C   UNL     1      -2.609   0.239  -8.142  1.00  0.00     0.031 C 
ATOM     36  C   UNL     1      -1.001  -1.606  -8.532  1.00  0.00     0.037 A 
BRANCH  23  37
ATOM     37  C   UNL     1       4.140  -4.185  -6.253  1.00  0.00     0.064 A 
ATOM     38  C   UNL     1       4.314  -5.309  -5.428  1.00  0.00     0.173 A 
ATOM     39  C   UNL     1       5.135  -3.906  -7.200  1.00  0.00     0.173 A 
ATOM     40  F   UNL     1       3.407  -5.599  -4.482  1.00  0.00    -0.203 F 
ATOM     41  C   UNL     1       5.469  -6.082  -5.504  1.00  0.00     0.198 A 
ATOM     42  C   UNL     1       6.270  -4.705  -7.301  1.00  0.00     0.198 A 
ATOM     43  F   UNL     1       5.021  -2.842  -8.009  1.00  0.00    -0.203 F 
ATOM     44  F   UNL     1       5.657  -7.088  -4.639  1.00  0.00    -0.200 F 
ATOM     45  C   UNL     1       6.445  -5.781  -6.442  1.00  0.00     0.200 A 
ATOM     46  F   UNL     1       7.212  -4.418  -8.210  1.00  0.00    -0.200 F 
ATOM     47  F   UNL     1       7.564  -6.516  -6.504  1.00  0.00    -0.200 F 
ENDBRANCH  23  37
BRANCH  24  48
ATOM     48  C   UNL     1      -2.951   2.708  -4.752  1.00  0.00     0.064 A 
ATOM     49  C   UNL     1      -4.303   2.332  -4.691  1.00  0.00     0.173 A 
ATOM     50  C   UNL     1      -2.663   4.080  -4.692  1.00  0.00     0.173 A 
ATOM     51  F   UNL     1      -4.641   1.036  -4.764  1.00  0.00    -0.203 F 
ATOM     52  C   UNL     1      -5.321   3.283  -4.613  1.00  0.00     0.198 A 
ATOM     53  C   UNL     1      -3.681   5.030  -4.586  1.00  0.00     0.198 A 
ATOM     54  F   UNL     1      -1.391   4.502  -4.741  1.00  0.00    -0.203 F 
ATOM     55  F   UNL     1      -6.603   2.893  -4.617  1.00  0.00    -0.200 F 
ATOM     56  C   UNL     1      -5.009   4.632  -4.559  1.00  0.00     0.200 A 
ATOM     57  F   UNL     1      -3.374   6.333  -4.522  1.00  0.00    -0.200 F 
ATOM     58  F   UNL     1      -5.986   5.547  -4.492  1.00  0.00    -0.200 F 
ENDBRANCH  24  48
BRANCH  36  59
ATOM     59  C   UNL     1      -1.685  -1.885  -9.839  1.00  0.00     0.064 A 
ATOM     60  C   UNL     1      -1.637  -0.984 -10.914  1.00  0.00     0.173 A 
ATOM     61  C   UNL     1      -2.336  -3.113 -10.040  1.00  0.00     0.173 A 
ATOM     62  F   UNL     1      -1.032   0.205 -10.775  1.00  0.00    -0.203 F 
ATOM     63  C   UNL     1      -2.247  -1.287 -12.128  1.00  0.00     0.198 A 
ATOM     64  C   UNL     1      -2.908  -3.429 -11.268  1.00  0.00     0.198 A 
ATOM     65  F   UNL     1      -2.396  -4.017  -9.051  1.00  0.00    -0.203 F 
ATOM     66  F   UNL     1      -2.237  -0.389 -13.122  1.00  0.00    -0.200 F 
ATOM     67  C   UNL     1      -2.872  -2.512 -12.308  1.00  0.00     0.200 A 
ATOM     68  F   UNL     1      -3.489  -4.623 -11.447  1.00  0.00    -0.200 F 
ATOM     69  F   UNL     1      -3.443  -2.808 -13.483  1.00  0.00    -0.200 F 
ENDBRANCH  36  59
ENDBRANCH  10  11
ENDBRANCH   3   5
ENDBRANCH   2   3
ENDBRANCH   1   2
BRANCH   1  70
ATOM     70  C   UNL     1       1.292   1.004   4.341  1.00  0.00     0.274 C 
BRANCH  70  71
ATOM     71  O   UNL     1       1.417   1.603   3.036  1.00  0.00    -0.462 OA
BRANCH  71  72
ATOM     72  C   UNL     1       2.259   2.676   2.909  1.00  0.00     0.310 C 
ATOM     73  O   UNL     1       2.879   3.185   3.833  1.00  0.00    -0.252 OA
BRANCH  72  74
ATOM     74  C   UNL     1       2.249   3.173   1.467  1.00  0.00     0.115 C 
ATOM     75  C   UNL     1       0.901   3.862   1.135  1.00  0.00     0.004 C 
ATOM     76  C   UNL     1       3.308   4.265   1.112  1.00  0.00     0.096 C 
ATOM     77  C   UNL     1       0.564   4.960   2.151  1.00  0.00     0.005 C 
ATOM     78  C   UNL     1       1.286   4.710  -0.070  1.00  0.00     0.009 C 
ATOM     79  C   UNL     1       2.416   5.432   0.673  1.00  0.00     0.003 C 
ATOM     80  C   UNL     1       1.667   5.994   1.903  1.00  0.00     0.005 C 
BRANCH  76  81
ATOM     81  C   UNL     1       4.395   3.701   0.159  1.00  0.00     0.226 C 
ATOM     82  O   UNL     1       5.282   3.029   0.708  1.00  0.00    -0.275 OA
ATOM     83  N   UNL     1       4.371   3.761  -1.227  1.00  0.00    -0.339 N 
ATOM     84  C   UNL     1       5.297   2.874  -1.968  1.00  0.00     0.141 C 
ATOM     85  C   UNL     1       3.864   4.835  -2.106  1.00  0.00     0.141 C 
ATOM     86  C   UNL     1       4.646   2.298  -3.246  1.00  0.00     0.138 C 
ATOM     87  C   UNL     1       3.223   4.302  -3.411  1.00  0.00     0.138 C 
ATOM     88  N   UNL     1       4.155   3.388  -4.084  1.00  0.00    -0.368 N 
BRANCH  88  89
ATOM     89  C   UNL     1       3.937   3.131  -5.430  1.00  0.00     0.038 A 
ATOM     90  C   UNL     1       4.501   4.010  -6.365  1.00  0.00     0.026 A 
ATOM     91  C   UNL     1       3.219   2.028  -5.904  1.00  0.00     0.046 A 
ATOM     92  C   UNL     1       4.390   3.785  -7.737  1.00  0.00     0.004 A 
ATOM     93  C   UNL     1       3.096   1.816  -7.280  1.00  0.00     0.043 A 
ATOM     94  C   UNL     1       3.686   2.681  -8.197  1.00  0.00     0.020 A 
ATOM     95  Cl  UNL     1       2.214   0.476  -7.878  1.00  0.00    -0.084 Cl
ENDBRANCH  88  89
ENDBRANCH  76  81
ENDBRANCH  72  74
ENDBRANCH  71  72
ENDBRANCH  70  71
ENDBRANCH   1  70
TORSDOF 13
