REMARK SMILES O=C(CCc1ccc(S(=O)(=O)Nc2cccc(I)c2)cc1)OCCOC(=O)c1ccc(-c2c3nc(c(-c4c(F)c(F)c(F)c(F)c4F)c4ccc([nH]4)c(-c4c(F)c(F)c(F)c(F)c4F)c4nc(c(-c5c(F)c(F)c(F)c(F)c5F)c5ccc2[nH]5)C=C4)C=C3)cc1
REMARK SMILES IDX 22 1 2 2 1 3 3 4 4 5 5 6 6 7 21 8 7 9 20 10 8 11 9 12 10 13
REMARK SMILES IDX 11 14 12 15 13 17 14 18 19 19 15 20 17 21 16 22 18 23 23 24
REMARK SMILES IDX 24 25 25 26 26 27 27 28 28 29 29 30 90 31 30 32 89 33 31 34
REMARK SMILES IDX 32 35 33 36 83 37 34 38 88 39 82 40 84 41 35 42 87 43 81 44
REMARK SMILES IDX 80 45 36 47 68 48 48 49 67 50 49 51 52 52 66 53 85 54 50 55
REMARK SMILES IDX 51 56 65 58 86 59 53 60 37 61 38 62 46 63 39 64 40 65 44 66
REMARK SMILES IDX 47 67 41 68 42 69 45 70 43 71 69 72 70 73 78 74 71 75 72 76
REMARK SMILES IDX 76 77 79 78 73 79 74 80 77 81 75 82 54 83 55 84 63 85 56 86
REMARK SMILES IDX 57 87 61 88 64 89 58 90 59 91 62 92 60 93
REMARK H PARENT 12 16 84 46 52 57
REMARK Flexibility Score: inf
ROOT
ATOM      1  O   UNL     1       2.115   0.122  -0.561  1.00  0.00    -0.462 OA
ENDROOT
BRANCH   1   2
ATOM      2  C   UNL     1       2.202  -1.192  -0.224  1.00  0.00     0.306 C 
ATOM      3  O   UNL     1       1.441  -2.024  -0.708  1.00  0.00    -0.252 OA
BRANCH   2   4
ATOM      4  C   UNL     1       3.131  -1.538   0.920  1.00  0.00     0.127 C 
BRANCH   4   5
ATOM      5  C   UNL     1       4.186  -2.588   0.569  1.00  0.00     0.047 C 
BRANCH   5   6
ATOM      6  C   UNL     1       5.351  -2.028  -0.216  1.00  0.00    -0.047 A 
ATOM      7  C   UNL     1       5.713  -2.592  -1.446  1.00  0.00     0.005 A 
ATOM      8  C   UNL     1       6.073  -0.921   0.257  1.00  0.00     0.005 A 
ATOM      9  C   UNL     1       6.683  -1.982  -2.250  1.00  0.00     0.022 A 
ATOM     10  C   UNL     1       7.038  -0.309  -0.543  1.00  0.00     0.022 A 
ATOM     11  C   UNL     1       7.297  -0.801  -1.823  1.00  0.00     0.087 A 
BRANCH  11  12
ATOM     12  S   UNL     1       8.484   0.020  -2.868  1.00  0.00     0.261 S 
ATOM     13  O   UNL     1       9.578   0.463  -2.033  1.00  0.00    -0.201 OA
ATOM     14  O   UNL     1       8.722  -0.843  -4.008  1.00  0.00    -0.201 OA
BRANCH  12  15
ATOM     15  N   UNL     1       7.663   1.343  -3.493  1.00  0.00    -0.280 N 
ATOM     16  H   UNL     1       7.501   1.341  -4.464  1.00  0.00     0.180 HD
BRANCH  15  17
ATOM     17  C   UNL     1       7.174   2.467  -2.769  1.00  0.00     0.050 A 
ATOM     18  C   UNL     1       6.162   3.226  -3.369  1.00  0.00     0.027 A 
ATOM     19  C   UNL     1       7.682   2.883  -1.539  1.00  0.00     0.041 A 
ATOM     20  C   UNL     1       5.615   4.337  -2.717  1.00  0.00     0.003 A 
ATOM     21  C   UNL     1       7.106   3.966  -0.869  1.00  0.00     0.015 A 
ATOM     22  C   UNL     1       6.073   4.696  -1.452  1.00  0.00     0.015 A 
ATOM     23  I   UNL     1       7.758   4.452   1.046  1.00  0.00    -0.044 I 
ENDBRANCH  15  17
ENDBRANCH  12  15
ENDBRANCH  11  12
ENDBRANCH   5   6
ENDBRANCH   4   5
ENDBRANCH   2   4
ENDBRANCH   1   2
BRANCH   1  24
ATOM     24  C   UNL     1       3.299   0.803  -1.013  1.00  0.00     0.274 C 
BRANCH  24  25
ATOM     25  C   UNL     1       3.709   1.979  -0.121  1.00  0.00     0.275 C 
BRANCH  25  26
ATOM     26  O   UNL     1       3.545   1.679   1.271  1.00  0.00    -0.458 OA
BRANCH  26  27
ATOM     27  C   UNL     1       2.308   1.973   1.743  1.00  0.00     0.338 C 
ATOM     28  O   UNL     1       1.443   2.624   1.180  1.00  0.00    -0.246 OA
BRANCH  27  29
ATOM     29  C   UNL     1       2.065   1.223   2.990  1.00  0.00     0.060 A 
ATOM     30  C   UNL     1       0.833   0.571   3.112  1.00  0.00     0.016 A 
ATOM     31  C   UNL     1       2.999   1.177   4.029  1.00  0.00     0.016 A 
ATOM     32  C   UNL     1       0.500  -0.067   4.304  1.00  0.00     0.010 A 
ATOM     33  C   UNL     1       2.665   0.531   5.224  1.00  0.00     0.010 A 
ATOM     34  C   UNL     1       1.395  -0.051   5.383  1.00  0.00    -0.014 A 
BRANCH  34  35
ATOM     35  C   UNL     1       0.910  -0.488   6.716  1.00  0.00     0.031 A 
ATOM     36  C   UNL     1       0.463   0.557   7.703  1.00  0.00     0.074 A 
ATOM     37  C   UNL     1       0.789  -1.793   7.017  1.00  0.00     0.049 A 
ATOM     38  N   UNL     1      -0.098   0.408   8.876  1.00  0.00    -0.248 NA
ATOM     39  C   UNL     1       0.673   1.960   7.311  1.00  0.00     0.031 C 
ATOM     40  C   UNL     1       1.162  -2.900   6.140  1.00  0.00     0.029 A 
ATOM     41  N   UNL     1       0.299  -2.404   8.144  1.00  0.00    -0.354 N 
ATOM     42  C   UNL     1      -0.318   1.694   9.355  1.00  0.00     0.074 A 
ATOM     43  C   UNL     1       0.216   2.609   8.370  1.00  0.00     0.031 C 
ATOM     44  C   UNL     1       0.874  -4.059   6.757  1.00  0.00     0.029 A 
ATOM     45  C   UNL     1       0.312  -3.775   8.077  1.00  0.00     0.049 A 
ATOM     46  H   UNL     1      -0.031  -1.907   8.927  1.00  0.00     0.167 HD
ATOM     47  C   UNL     1      -0.928   2.079  10.501  1.00  0.00     0.037 A 
ATOM     48  C   UNL     1      -0.089  -4.693   8.978  1.00  0.00     0.037 A 
ATOM     49  C   UNL     1      -1.456   1.171  11.484  1.00  0.00     0.049 A 
ATOM     50  C   UNL     1      -0.699  -4.237  10.280  1.00  0.00     0.074 A 
ATOM     51  C   UNL     1      -2.112   1.463  12.666  1.00  0.00     0.029 A 
ATOM     52  N   UNL     1      -1.373  -0.212  11.404  1.00  0.00    -0.354 N 
ATOM     53  N   UNL     1      -0.958  -3.022  10.696  1.00  0.00    -0.248 NA
ATOM     54  C   UNL     1      -1.083  -5.289  11.232  1.00  0.00     0.031 C 
ATOM     55  C   UNL     1      -2.375   0.260  13.330  1.00  0.00     0.029 A 
ATOM     56  C   UNL     1      -1.937  -0.785  12.533  1.00  0.00     0.049 A 
ATOM     57  H   UNL     1      -0.973  -0.712  10.656  1.00  0.00     0.167 HD
ATOM     58  C   UNL     1      -1.568  -3.163  11.937  1.00  0.00     0.074 A 
ATOM     59  C   UNL     1      -1.651  -4.584  12.201  1.00  0.00     0.031 C 
ATOM     60  C   UNL     1      -2.023  -2.203  12.779  1.00  0.00     0.037 A 
BRANCH  47  61
ATOM     61  C   UNL     1      -1.036   3.554  10.761  1.00  0.00     0.064 A 
ATOM     62  C   UNL     1      -1.888   4.376  10.007  1.00  0.00     0.173 A 
ATOM     63  C   UNL     1      -0.289   4.150  11.787  1.00  0.00     0.173 A 
ATOM     64  F   UNL     1      -2.613   3.858   9.004  1.00  0.00    -0.203 F 
ATOM     65  C   UNL     1      -1.962   5.745  10.250  1.00  0.00     0.198 A 
ATOM     66  C   UNL     1      -0.389   5.514  12.048  1.00  0.00     0.198 A 
ATOM     67  F   UNL     1       0.538   3.409  12.540  1.00  0.00    -0.203 F 
ATOM     68  F   UNL     1      -2.740   6.520   9.481  1.00  0.00    -0.200 F 
ATOM     69  C   UNL     1      -1.218   6.312  11.274  1.00  0.00     0.200 A 
ATOM     70  F   UNL     1       0.322   6.058  13.045  1.00  0.00    -0.200 F 
ATOM     71  F   UNL     1      -1.291   7.629  11.508  1.00  0.00    -0.200 F 
ENDBRANCH  47  61
BRANCH  48  72
ATOM     72  C   UNL     1       0.051  -6.143   8.678  1.00  0.00     0.064 A 
ATOM     73  C   UNL     1      -1.077  -6.955   8.489  1.00  0.00     0.173 A 
ATOM     74  C   UNL     1       1.312  -6.752   8.608  1.00  0.00     0.173 A 
ATOM     75  F   UNL     1      -2.305  -6.424   8.573  1.00  0.00    -0.203 F 
ATOM     76  C   UNL     1      -0.948  -8.324   8.265  1.00  0.00     0.198 A 
ATOM     77  C   UNL     1       1.440  -8.116   8.355  1.00  0.00     0.198 A 
ATOM     78  F   UNL     1       2.422  -6.020   8.785  1.00  0.00    -0.203 F 
ATOM     79  F   UNL     1      -2.044  -9.086   8.142  1.00  0.00    -0.200 F 
ATOM     80  C   UNL     1       0.310  -8.903   8.193  1.00  0.00     0.200 A 
ATOM     81  F   UNL     1       2.658  -8.669   8.277  1.00  0.00    -0.200 F 
ATOM     82  F   UNL     1       0.433 -10.220   7.980  1.00  0.00    -0.200 F 
ENDBRANCH  48  72
BRANCH  60  83
ATOM     83  C   UNL     1      -2.692  -2.654  14.048  1.00  0.00     0.064 A 
ATOM     84  C   UNL     1      -1.970  -3.244  15.096  1.00  0.00     0.173 A 
ATOM     85  C   UNL     1      -4.070  -2.459  14.230  1.00  0.00     0.173 A 
ATOM     86  F   UNL     1      -0.653  -3.464  14.969  1.00  0.00    -0.203 F 
ATOM     87  C   UNL     1      -2.609  -3.651  16.265  1.00  0.00     0.198 A 
ATOM     88  C   UNL     1      -4.699  -2.837  15.413  1.00  0.00     0.198 A 
ATOM     89  F   UNL     1      -4.807  -1.891  13.264  1.00  0.00    -0.203 F 
ATOM     90  F   UNL     1      -1.908  -4.261  17.231  1.00  0.00    -0.200 F 
ATOM     91  C   UNL     1      -3.970  -3.441  16.426  1.00  0.00     0.200 A 
ATOM     92  F   UNL     1      -6.012  -2.617  15.573  1.00  0.00    -0.200 F 
ATOM     93  F   UNL     1      -4.581  -3.828  17.554  1.00  0.00    -0.200 F 
ENDBRANCH  60  83
ENDBRANCH  34  35
ENDBRANCH  27  29
ENDBRANCH  26  27
ENDBRANCH  25  26
ENDBRANCH  24  25
ENDBRANCH   1  24
TORSDOF 16
