REMARK SMILES Cc1ncn(CC[C@@H]2CCC[C@@]2([NH3+])C(=O)OCCOC(=O)c2ccc(-c3c4nc(c(-c5c(F)c(F)c(F)c(F)c5F)c5ccc([nH]5)c(-c5c(F)c(F)c(F)c(F)c5F)c5nc(c(-c6c(F)c(F)c(F)c(F)c6F)c6ccc3[nH]6)C=C5)C=C4)cc2)c1C
REMARK SMILES IDX 17 1 16 2 14 3 15 4 12 5 8 6 9 7 10 8 11 9 7 10 6 11 5 12
REMARK SMILES IDX 1 13 2 14 3 15 85 16 4 17 86 18 13 19 18 23 19 24 20 25
REMARK SMILES IDX 21 26 22 27 23 28 84 29 24 30 83 31 25 32 26 33 27 34 77 35
REMARK SMILES IDX 28 36 82 37 76 38 78 39 29 40 81 41 75 42 74 43 30 45 62 46
REMARK SMILES IDX 42 47 61 48 43 49 46 50 60 51 79 52 44 53 45 54 59 56 80 57
REMARK SMILES IDX 47 58 31 59 32 60 40 61 33 62 34 63 38 64 41 65 35 66 36 67
REMARK SMILES IDX 39 68 37 69 63 70 64 71 72 72 65 73 66 74 70 75 73 76 67 77
REMARK SMILES IDX 68 78 71 79 69 80 48 81 49 82 57 83 50 84 51 85 55 86 58 87
REMARK SMILES IDX 52 88 53 89 56 90 54 91
REMARK H PARENT 13 20 13 21 13 22 78 44 46 55
REMARK Flexibility Score: inf
ROOT
ATOM      1  C   UNL     1       5.606   7.723   0.240  1.00  0.00     0.274 C 
ENDROOT
BRANCH   1   2
ATOM      2  O   UNL     1       4.789   6.691   0.823  1.00  0.00    -0.457 OA
BRANCH   2   3
ATOM      3  C   UNL     1       5.334   5.436   0.811  1.00  0.00     0.368 C 
ATOM      4  O   UNL     1       6.343   5.134   0.185  1.00  0.00    -0.245 OA
BRANCH   3   5
ATOM      5  C   UNL     1       4.512   4.452   1.683  1.00  0.00     0.195 C 
ATOM      6  C   UNL     1       3.249   3.926   0.971  1.00  0.00     0.064 C 
ATOM      7  C   UNL     1       2.947   2.631   1.756  1.00  0.00     0.011 C 
ATOM      8  C   UNL     1       4.295   2.066   2.189  1.00  0.00     0.008 C 
ATOM      9  C   UNL     1       5.317   3.153   1.888  1.00  0.00     0.081 C 
BRANCH   6  10
ATOM     10  C   UNL     1       2.047   4.896   0.916  1.00  0.00     0.032 C 
BRANCH  10  11
ATOM     11  C   UNL     1       1.100   4.667  -0.277  1.00  0.00     0.124 C 
BRANCH  11  12
ATOM     12  N   UNL     1       0.487   3.356  -0.294  1.00  0.00    -0.335 N 
ATOM     13  C   UNL     1       0.483  -0.262  -0.361  1.00  0.00     0.069 C 
ATOM     14  C   UNL     1       0.234   1.196  -0.306  1.00  0.00     0.058 A 
ATOM     15  N   UNL     1      -0.754   1.706   0.500  1.00  0.00    -0.242 NA
ATOM     16  C   UNL     1       0.945   2.217  -0.917  1.00  0.00     0.037 A 
ATOM     17  C   UNL     1      -0.598   3.008   0.462  1.00  0.00     0.199 A 
ATOM     18  C   UNL     1       2.070   2.152  -1.883  1.00  0.00     0.066 C 
ENDBRANCH  11  12
ENDBRANCH  10  11
ENDBRANCH   6  10
BRANCH   5  19
ATOM     19  N   UNL     1       4.209   5.019   3.009  1.00  0.00    -0.343 N 
ATOM     20  H   UNL     1       3.669   4.344   3.551  1.00  0.00     0.345 HD
ATOM     21  H   UNL     1       3.667   5.876   2.896  1.00  0.00     0.345 HD
ATOM     22  H   UNL     1       5.080   5.228   3.496  1.00  0.00     0.345 HD
ENDBRANCH   5  19
ENDBRANCH   3   5
ENDBRANCH   2   3
ENDBRANCH   1   2
BRANCH   1  23
ATOM     23  C   UNL     1       6.352   8.527   1.304  1.00  0.00     0.275 C 
BRANCH  23  24
ATOM     24  O   UNL     1       6.924   7.693   2.313  1.00  0.00    -0.458 OA
BRANCH  24  25
ATOM     25  C   UNL     1       6.099   7.462   3.361  1.00  0.00     0.338 C 
ATOM     26  O   UNL     1       4.923   7.805   3.460  1.00  0.00    -0.246 OA
BRANCH  25  27
ATOM     27  C   UNL     1       6.831   6.794   4.442  1.00  0.00     0.060 A 
ATOM     28  C   UNL     1       6.100   6.073   5.394  1.00  0.00     0.016 A 
ATOM     29  C   UNL     1       8.197   7.046   4.614  1.00  0.00     0.016 A 
ATOM     30  C   UNL     1       6.704   5.686   6.573  1.00  0.00     0.010 A 
ATOM     31  C   UNL     1       8.797   6.686   5.803  1.00  0.00     0.010 A 
ATOM     32  C   UNL     1       8.026   6.064   6.794  1.00  0.00    -0.014 A 
BRANCH  32  33
ATOM     33  C   UNL     1       8.565   5.900   8.134  1.00  0.00     0.031 A 
ATOM     34  C   UNL     1       9.120   4.567   8.482  1.00  0.00     0.074 A 
ATOM     35  C   UNL     1       8.687   6.991   8.917  1.00  0.00     0.049 A 
ATOM     36  N   UNL     1       8.987   3.899   9.584  1.00  0.00    -0.248 NA
ATOM     37  C   UNL     1       9.915   3.874   7.453  1.00  0.00     0.031 C 
ATOM     38  C   UNL     1       8.420   8.382   8.525  1.00  0.00     0.029 A 
ATOM     39  N   UNL     1       9.215   7.115  10.168  1.00  0.00    -0.354 N 
ATOM     40  C   UNL     1       9.812   2.785   9.451  1.00  0.00     0.074 A 
ATOM     41  C   UNL     1      10.284   2.766   8.092  1.00  0.00     0.031 C 
ATOM     42  C   UNL     1       9.001   9.211   9.415  1.00  0.00     0.029 A 
ATOM     43  C   UNL     1       9.585   8.414  10.480  1.00  0.00     0.049 A 
ATOM     44  H   UNL     1       9.322   6.357  10.787  1.00  0.00     0.167 HD
ATOM     45  C   UNL     1      10.237   2.069  10.524  1.00  0.00     0.037 A 
ATOM     46  C   UNL     1      10.408   8.808  11.480  1.00  0.00     0.037 A 
ATOM     47  C   UNL     1       9.362   2.204  11.652  1.00  0.00     0.049 A 
ATOM     48  C   UNL     1      10.519   7.697  12.452  1.00  0.00     0.074 A 
ATOM     49  C   UNL     1       8.044   1.883  11.902  1.00  0.00     0.029 A 
ATOM     50  N   UNL     1       9.755   3.017  12.683  1.00  0.00    -0.354 N 
ATOM     51  N   UNL     1       9.558   7.296  13.236  1.00  0.00    -0.248 NA
ATOM     52  C   UNL     1      11.636   6.774  12.315  1.00  0.00     0.031 C 
ATOM     53  C   UNL     1       7.586   2.856  12.837  1.00  0.00     0.029 A 
ATOM     54  C   UNL     1       8.653   3.713  13.107  1.00  0.00     0.049 A 
ATOM     55  H   UNL     1      10.664   3.088  13.052  1.00  0.00     0.167 HD
ATOM     56  C   UNL     1       9.751   5.928  13.357  1.00  0.00     0.074 A 
ATOM     57  C   UNL     1      11.112   5.694  12.897  1.00  0.00     0.031 C 
ATOM     58  C   UNL     1       8.694   5.087  13.548  1.00  0.00     0.037 A 
BRANCH  45  59
ATOM     59  C   UNL     1      11.635   1.523  10.638  1.00  0.00     0.064 A 
ATOM     60  C   UNL     1      11.946   0.591  11.645  1.00  0.00     0.173 A 
ATOM     61  C   UNL     1      12.740   2.107   9.979  1.00  0.00     0.173 A 
ATOM     62  F   UNL     1      10.971   0.011  12.361  1.00  0.00    -0.203 F 
ATOM     63  C   UNL     1      13.268   0.303  11.996  1.00  0.00     0.198 A 
ATOM     64  C   UNL     1      14.056   1.777  10.295  1.00  0.00     0.198 A 
ATOM     65  F   UNL     1      12.590   3.096   9.087  1.00  0.00    -0.203 F 
ATOM     66  F   UNL     1      13.519  -0.504  13.036  1.00  0.00    -0.200 F 
ATOM     67  C   UNL     1      14.321   0.896  11.322  1.00  0.00     0.200 A 
ATOM     68  F   UNL     1      15.062   2.382   9.647  1.00  0.00    -0.200 F 
ATOM     69  F   UNL     1      15.586   0.662  11.693  1.00  0.00    -0.200 F 
ENDBRANCH  45  59
BRANCH  46  70
ATOM     70  C   UNL     1      11.318   9.976  11.486  1.00  0.00     0.064 A 
ATOM     71  C   UNL     1      11.801  10.514  12.687  1.00  0.00     0.173 A 
ATOM     72  C   UNL     1      11.915  10.450  10.300  1.00  0.00     0.173 A 
ATOM     73  F   UNL     1      11.325  10.076  13.862  1.00  0.00    -0.203 F 
ATOM     74  C   UNL     1      12.821  11.471  12.701  1.00  0.00     0.198 A 
ATOM     75  C   UNL     1      12.919  11.417  10.314  1.00  0.00     0.198 A 
ATOM     76  F   UNL     1      11.599   9.922   9.109  1.00  0.00    -0.203 F 
ATOM     77  F   UNL     1      13.296  11.924  13.870  1.00  0.00    -0.200 F 
ATOM     78  C   UNL     1      13.380  11.920  11.515  1.00  0.00     0.200 A 
ATOM     79  F   UNL     1      13.473  11.816   9.160  1.00  0.00    -0.200 F 
ATOM     80  F   UNL     1      14.386  12.804  11.530  1.00  0.00    -0.200 F 
ENDBRANCH  46  70
BRANCH  58  81
ATOM     81  C   UNL     1       7.395   5.699  13.982  1.00  0.00     0.064 A 
ATOM     82  C   UNL     1       6.644   6.579  13.185  1.00  0.00     0.173 A 
ATOM     83  C   UNL     1       6.830   5.278  15.193  1.00  0.00     0.173 A 
ATOM     84  F   UNL     1       7.072   6.941  11.969  1.00  0.00    -0.203 F 
ATOM     85  C   UNL     1       5.407   7.057  13.609  1.00  0.00     0.198 A 
ATOM     86  C   UNL     1       5.576   5.728  15.597  1.00  0.00     0.198 A 
ATOM     87  F   UNL     1       7.476   4.389  15.964  1.00  0.00    -0.203 F 
ATOM     88  F   UNL     1       4.715   7.910  12.839  1.00  0.00    -0.200 F 
ATOM     89  C   UNL     1       4.871   6.626  14.812  1.00  0.00     0.200 A 
ATOM     90  F   UNL     1       5.038   5.269  16.736  1.00  0.00    -0.200 F 
ATOM     91  F   UNL     1       3.663   7.055  15.202  1.00  0.00    -0.200 F 
ENDBRANCH  58  81
ENDBRANCH  32  33
ENDBRANCH  25  27
ENDBRANCH  24  25
ENDBRANCH  23  24
ENDBRANCH   1  23
TORSDOF 15
