REMARK SMILES CC(C)C[C@@H](NC(=O)c1cccnc1)C(=O)OCCOC(=O)c1ccc(-c2c3nc(c(-c4c(F)c(F)c(F)c(F)c4F)c4ccc([nH]4)c(-c4c(F)c(F)c(F)c(F)c4F)c4nc(c(-c5c(F)c(F)c(F)c(F)c5F)c5ccc2[nH]5)C=C4)C=C3)cc1
REMARK SMILES IDX 18 1 17 2 15 3 16 4 5 5 4 6 2 7 1 8 3 9 6 10 7 11 8 13 9 14
REMARK SMILES IDX 10 15 14 16 11 17 13 18 12 19 19 20 20 21 21 22 22 23 23 24
REMARK SMILES IDX 24 25 85 26 25 27 84 28 26 29 27 30 28 31 78 32 29 33 83 34
REMARK SMILES IDX 77 35 79 36 30 37 82 38 76 39 75 40 31 42 63 43 43 44 62 45
REMARK SMILES IDX 44 46 47 47 61 48 80 49 45 50 46 51 60 53 81 54 48 55 32 56
REMARK SMILES IDX 33 57 41 58 34 59 35 60 39 61 42 62 36 63 37 64 40 65 38 66
REMARK SMILES IDX 64 67 65 68 73 69 66 70 67 71 71 72 74 73 68 74 69 75 72 76
REMARK SMILES IDX 70 77 49 78 50 79 58 80 51 81 52 82 56 83 59 84 53 85 54 86
REMARK SMILES IDX 57 87 55 88
REMARK H PARENT 6 12 79 41 47 52
REMARK Flexibility Score: inf
ROOT
ATOM      1  C   UNL     1      -5.163  -1.182  -1.389  1.00  0.00     0.274 C 
ENDROOT
BRANCH   1   2
ATOM      2  O   UNL     1      -3.741  -1.226  -1.636  1.00  0.00    -0.461 OA
BRANCH   2   3
ATOM      3  C   UNL     1      -3.104  -0.027  -1.591  1.00  0.00     0.328 C 
ATOM      4  O   UNL     1      -3.638   1.036  -1.289  1.00  0.00    -0.250 OA
BRANCH   3   5
ATOM      5  C   UNL     1      -1.634  -0.095  -2.032  1.00  0.00     0.192 C 
BRANCH   5   6
ATOM      6  C   UNL     1      -0.914  -1.245  -1.295  1.00  0.00     0.040 C 
BRANCH   6   7
ATOM      7  C   UNL     1       0.616  -1.094  -1.147  1.00  0.00    -0.015 C 
ATOM      8  C   UNL     1       1.013   0.086  -0.257  1.00  0.00     0.007 C 
ATOM      9  C   UNL     1       1.198  -2.381  -0.550  1.00  0.00     0.007 C 
ENDBRANCH   6   7
ENDBRANCH   5   6
BRANCH   5  10
ATOM     10  N   UNL     1      -1.379  -0.164  -3.483  1.00  0.00    -0.339 N 
ATOM     11  C   UNL     1      -1.927   0.618  -4.471  1.00  0.00     0.253 C 
ATOM     12  H   UNL     1      -0.741  -0.853  -3.779  1.00  0.00     0.164 HD
ATOM     13  O   UNL     1      -1.266   0.960  -5.444  1.00  0.00    -0.269 OA
BRANCH  11  14
ATOM     14  C   UNL     1      -3.363   0.909  -4.440  1.00  0.00     0.058 A 
ATOM     15  C   UNL     1      -3.868   2.135  -4.020  1.00  0.00     0.017 A 
ATOM     16  C   UNL     1      -4.247  -0.079  -4.851  1.00  0.00     0.124 A 
ATOM     17  C   UNL     1      -5.251   2.302  -3.968  1.00  0.00     0.021 A 
ATOM     18  N   UNL     1      -5.594   0.061  -4.814  1.00  0.00    -0.264 NA
ATOM     19  C   UNL     1      -6.063   1.249  -4.370  1.00  0.00     0.111 A 
ENDBRANCH  11  14
ENDBRANCH   5  10
ENDBRANCH   3   5
ENDBRANCH   2   3
ENDBRANCH   1   2
BRANCH   1  20
ATOM     20  C   UNL     1      -5.532  -1.335   0.093  1.00  0.00     0.275 C 
BRANCH  20  21
ATOM     21  O   UNL     1      -5.173  -0.171   0.863  1.00  0.00    -0.458 OA
BRANCH  21  22
ATOM     22  C   UNL     1      -3.941  -0.227   1.418  1.00  0.00     0.338 C 
ATOM     23  O   UNL     1      -3.182  -1.183   1.409  1.00  0.00    -0.246 OA
BRANCH  22  24
ATOM     24  C   UNL     1      -3.518   1.091   1.931  1.00  0.00     0.060 A 
ATOM     25  C   UNL     1      -2.209   1.492   1.638  1.00  0.00     0.016 A 
ATOM     26  C   UNL     1      -4.319   1.864   2.772  1.00  0.00     0.016 A 
ATOM     27  C   UNL     1      -1.666   2.622   2.235  1.00  0.00     0.010 A 
ATOM     28  C   UNL     1      -3.771   2.999   3.385  1.00  0.00     0.010 A 
ATOM     29  C   UNL     1      -2.427   3.349   3.156  1.00  0.00    -0.014 A 
BRANCH  29  30
ATOM     30  C   UNL     1      -1.727   4.322   4.028  1.00  0.00     0.031 A 
ATOM     31  C   UNL     1      -1.267   3.863   5.385  1.00  0.00     0.074 A 
ATOM     32  C   UNL     1      -1.419   5.553   3.588  1.00  0.00     0.049 A 
ATOM     33  N   UNL     1      -0.607   4.516   6.307  1.00  0.00    -0.248 NA
ATOM     34  C   UNL     1      -1.591   2.473   5.749  1.00  0.00     0.031 C 
ATOM     35  C   UNL     1      -1.753   6.088   2.270  1.00  0.00     0.029 A 
ATOM     36  N   UNL     1      -0.739   6.573   4.205  1.00  0.00    -0.354 N 
ATOM     37  C   UNL     1      -0.448   3.624   7.359  1.00  0.00     0.074 A 
ATOM     38  C   UNL     1      -1.095   2.389   6.974  1.00  0.00     0.031 C 
ATOM     39  C   UNL     1      -1.273   7.340   2.175  1.00  0.00     0.029 A 
ATOM     40  C   UNL     1      -0.620   7.700   3.432  1.00  0.00     0.049 A 
ATOM     41  H   UNL     1      -0.371   6.502   5.115  1.00  0.00     0.167 HD
ATOM     42  C   UNL     1       0.188   3.813   8.539  1.00  0.00     0.037 A 
ATOM     43  C   UNL     1      -0.052   8.888   3.716  1.00  0.00     0.037 A 
ATOM     44  C   UNL     1       0.842   5.036   8.919  1.00  0.00     0.049 A 
ATOM     45  C   UNL     1       0.609   9.089   5.056  1.00  0.00     0.074 A 
ATOM     46  C   UNL     1       1.507   5.332  10.095  1.00  0.00     0.029 A 
ATOM     47  N   UNL     1       0.914   6.168   8.120  1.00  0.00    -0.354 N 
ATOM     48  N   UNL     1       0.755   8.241   6.044  1.00  0.00    -0.248 NA
ATOM     49  C   UNL     1       1.190  10.415   5.314  1.00  0.00     0.031 C 
ATOM     50  C   UNL     1       1.953   6.657  10.022  1.00  0.00     0.029 A 
ATOM     51  C   UNL     1       1.602   7.170   8.784  1.00  0.00     0.049 A 
ATOM     52  H   UNL     1       0.532   6.247   7.216  1.00  0.00     0.167 HD
ATOM     53  C   UNL     1       1.471   8.915   7.025  1.00  0.00     0.074 A 
ATOM     54  C   UNL     1       1.736  10.242   6.509  1.00  0.00     0.031 C 
ATOM     55  C   UNL     1       1.874   8.476   8.243  1.00  0.00     0.037 A 
BRANCH  42  56
ATOM     56  C   UNL     1       0.171   2.677   9.517  1.00  0.00     0.064 A 
ATOM     57  C   UNL     1       0.954   1.529   9.327  1.00  0.00     0.173 A 
ATOM     58  C   UNL     1      -0.634   2.743  10.663  1.00  0.00     0.173 A 
ATOM     59  F   UNL     1       1.724   1.410   8.235  1.00  0.00    -0.203 F 
ATOM     60  C   UNL     1       0.911   0.476  10.238  1.00  0.00     0.198 A 
ATOM     61  C   UNL     1      -0.655   1.700  11.584  1.00  0.00     0.198 A 
ATOM     62  F   UNL     1      -1.402   3.820  10.889  1.00  0.00    -0.203 F 
ATOM     63  F   UNL     1       1.631  -0.632  10.013  1.00  0.00    -0.200 F 
ATOM     64  C   UNL     1       0.111   0.565  11.368  1.00  0.00     0.200 A 
ATOM     65  F   UNL     1      -1.424   1.790  12.678  1.00  0.00    -0.200 F 
ATOM     66  F   UNL     1       0.071  -0.449  12.243  1.00  0.00    -0.200 F 
ENDBRANCH  42  56
BRANCH  43  67
ATOM     67  C   UNL     1      -0.075   9.982   2.712  1.00  0.00     0.064 A 
ATOM     68  C   UNL     1       1.100  10.405   2.076  1.00  0.00     0.173 A 
ATOM     69  C   UNL     1      -1.268  10.642   2.386  1.00  0.00     0.173 A 
ATOM     70  F   UNL     1       2.270   9.822   2.375  1.00  0.00    -0.203 F 
ATOM     71  C   UNL     1       1.085  11.459   1.164  1.00  0.00     0.198 A 
ATOM     72  C   UNL     1      -1.286  11.679   1.456  1.00  0.00     0.198 A 
ATOM     73  F   UNL     1      -2.419  10.278   2.971  1.00  0.00    -0.203 F 
ATOM     74  F   UNL     1       2.230  11.874   0.604  1.00  0.00    -0.200 F 
ATOM     75  C   UNL     1      -0.109  12.092   0.851  1.00  0.00     0.200 A 
ATOM     76  F   UNL     1      -2.443  12.283   1.151  1.00  0.00    -0.200 F 
ATOM     77  F   UNL     1      -0.122  13.106  -0.025  1.00  0.00    -0.200 F 
ENDBRANCH  43  67
BRANCH  55  78
ATOM     78  C   UNL     1       2.688   9.419   9.078  1.00  0.00     0.064 A 
ATOM     79  C   UNL     1       2.109  10.524   9.718  1.00  0.00     0.173 A 
ATOM     80  C   UNL     1       4.059   9.189   9.270  1.00  0.00     0.173 A 
ATOM     81  F   UNL     1       0.805  10.792   9.554  1.00  0.00    -0.203 F 
ATOM     82  C   UNL     1       2.881  11.382  10.498  1.00  0.00     0.198 A 
ATOM     83  C   UNL     1       4.821  10.034  10.071  1.00  0.00     0.198 A 
ATOM     84  F   UNL     1       4.657   8.140   8.685  1.00  0.00    -0.203 F 
ATOM     85  F   UNL     1       2.317  12.458  11.064  1.00  0.00    -0.200 F 
ATOM     86  C   UNL     1       4.233  11.133  10.678  1.00  0.00     0.200 A 
ATOM     87  F   UNL     1       6.125   9.786  10.253  1.00  0.00    -0.200 F 
ATOM     88  F   UNL     1       4.973  11.958  11.432  1.00  0.00    -0.200 F 
ENDBRANCH  55  78
ENDBRANCH  29  30
ENDBRANCH  22  24
ENDBRANCH  21  22
ENDBRANCH  20  21
ENDBRANCH   1  20
TORSDOF 15
