REMARK SMILES CCCCCC[C@@H](C(=O)OCCOC(=O)c1ccc(-c2c3nc(c(-c4c(F)c(F)c(F)c(F)c4F)c4ccc([nH]4)c(-c4c(F)c(F)c(F)c(F)c4F)c4nc(c(-c5c(F)c(F)c(F)c(F)c5F)c5ccc2[nH]5)C=C4)C=C3)cc1)c1ccccc1C
REMARK SMILES IDX 10 1 8 2 9 3 7 4 6 5 5 6 4 7 3 8 2 9 1 10 79 11 80 12 84 13
REMARK SMILES IDX 81 14 83 15 85 16 82 17 11 18 12 19 13 20 14 21 15 22 16 23
REMARK SMILES IDX 17 24 78 25 18 26 77 27 19 28 20 29 21 30 71 31 22 32 76 33
REMARK SMILES IDX 70 34 72 35 23 36 75 37 69 38 68 39 24 41 56 42 36 43 55 44
REMARK SMILES IDX 37 45 40 46 54 47 73 48 38 49 39 50 53 52 74 53 41 54 25 55
REMARK SMILES IDX 26 56 34 57 27 58 28 59 32 60 35 61 29 62 30 63 33 64 31 65
REMARK SMILES IDX 57 66 58 67 66 68 59 69 60 70 64 71 67 72 61 73 62 74 65 75
REMARK SMILES IDX 63 76 42 77 43 78 51 79 44 80 45 81 49 82 52 83 46 84 47 85
REMARK SMILES IDX 50 86 48 87
REMARK H PARENT 72 40 40 51
REMARK Flexibility Score: inf
ROOT
ATOM      1  O   UNL     1      -1.199   4.236   3.707  1.00  0.00    -0.462 OA
ENDROOT
BRANCH   1   2
ATOM      2  C   UNL     1      -1.244   3.567   4.894  1.00  0.00     0.313 C 
ATOM      3  O   UNL     1      -1.685   4.095   5.907  1.00  0.00    -0.252 OA
BRANCH   2   4
ATOM      4  C   UNL     1      -0.652   2.117   4.780  1.00  0.00     0.129 C 
BRANCH   4   5
ATOM      5  C   UNL     1      -1.306   1.451   3.529  1.00  0.00     0.020 C 
BRANCH   5   6
ATOM      6  C   UNL     1      -0.841   1.889   2.126  1.00  0.00     0.001 C 
BRANCH   6   7
ATOM      7  C   UNL     1       0.670   1.863   1.884  1.00  0.00     0.000 C 
BRANCH   7   8
ATOM      8  C   UNL     1       1.332   0.490   2.034  1.00  0.00    -0.000 C 
BRANCH   8   9
ATOM      9  C   UNL     1       0.813  -0.597   1.088  1.00  0.00    -0.003 C 
ATOM     10  C   UNL     1       1.042  -0.273  -0.381  1.00  0.00     0.004 C 
ENDBRANCH   8   9
ENDBRANCH   7   8
ENDBRANCH   6   7
ENDBRANCH   5   6
ENDBRANCH   4   5
BRANCH   4  11
ATOM     11  C   UNL     1      -0.750   1.325   6.138  1.00  0.00    -0.031 A 
ATOM     12  C   UNL     1      -0.545   2.066   7.333  1.00  0.00     0.005 A 
ATOM     13  C   UNL     1      -0.952  -0.068   6.324  1.00  0.00    -0.047 A 
ATOM     14  C   UNL     1      -0.746   1.539   8.614  1.00  0.00     0.000 A 
ATOM     15  C   UNL     1      -1.171  -0.585   7.628  1.00  0.00     0.004 A 
ATOM     16  C   UNL     1      -0.926  -1.123   5.252  1.00  0.00     0.044 C 
ATOM     17  C   UNL     1      -1.099   0.214   8.761  1.00  0.00     0.000 A 
ENDBRANCH   4  11
ENDBRANCH   2   4
ENDBRANCH   1   2
BRANCH   1  18
ATOM     18  C   UNL     1      -1.786   5.556   3.686  1.00  0.00     0.274 C 
BRANCH  18  19
ATOM     19  C   UNL     1      -3.302   5.529   3.444  1.00  0.00     0.275 C 
BRANCH  19  20
ATOM     20  O   UNL     1      -4.011   5.022   4.592  1.00  0.00    -0.458 OA
BRANCH  20  21
ATOM     21  C   UNL     1      -4.475   3.756   4.479  1.00  0.00     0.338 C 
ATOM     22  O   UNL     1      -4.494   3.074   3.463  1.00  0.00    -0.246 OA
BRANCH  21  23
ATOM     23  C   UNL     1      -4.803   3.204   5.809  1.00  0.00     0.060 A 
ATOM     24  C   UNL     1      -4.291   1.940   6.117  1.00  0.00     0.016 A 
ATOM     25  C   UNL     1      -5.608   3.876   6.734  1.00  0.00     0.016 A 
ATOM     26  C   UNL     1      -4.560   1.349   7.347  1.00  0.00     0.010 A 
ATOM     27  C   UNL     1      -5.912   3.263   7.958  1.00  0.00     0.010 A 
ATOM     28  C   UNL     1      -5.394   1.993   8.265  1.00  0.00    -0.014 A 
BRANCH  28  29
ATOM     29  C   UNL     1      -5.804   1.246   9.476  1.00  0.00     0.031 A 
ATOM     30  C   UNL     1      -6.959   0.291   9.382  1.00  0.00     0.074 A 
ATOM     31  C   UNL     1      -5.099   1.343  10.617  1.00  0.00     0.049 A 
ATOM     32  N   UNL     1      -7.441  -0.523  10.285  1.00  0.00    -0.248 NA
ATOM     33  C   UNL     1      -7.654   0.236   8.086  1.00  0.00     0.031 C 
ATOM     34  C   UNL     1      -3.920   2.183  10.812  1.00  0.00     0.029 A 
ATOM     35  N   UNL     1      -5.270   0.714  11.825  1.00  0.00    -0.354 N 
ATOM     36  C   UNL     1      -8.483  -1.198   9.664  1.00  0.00     0.074 A 
ATOM     37  C   UNL     1      -8.577  -0.686   8.313  1.00  0.00     0.031 C 
ATOM     38  C   UNL     1      -3.477   2.025  12.071  1.00  0.00     0.029 A 
ATOM     39  C   UNL     1      -4.351   1.085  12.773  1.00  0.00     0.049 A 
ATOM     40  H   UNL     1      -5.984   0.058  11.994  1.00  0.00     0.167 HD
ATOM     41  C   UNL     1      -9.291  -2.156  10.175  1.00  0.00     0.037 A 
ATOM     42  C   UNL     1      -4.239   0.714  14.063  1.00  0.00     0.037 A 
ATOM     43  C   UNL     1      -9.227  -2.639  11.529  1.00  0.00     0.049 A 
ATOM     44  C   UNL     1      -5.208  -0.294  14.630  1.00  0.00     0.074 A 
ATOM     45  C   UNL     1     -10.030  -3.580  12.150  1.00  0.00     0.029 A 
ATOM     46  N   UNL     1      -8.311  -2.207  12.476  1.00  0.00    -0.354 N 
ATOM     47  N   UNL     1      -6.179  -0.942  14.033  1.00  0.00    -0.248 NA
ATOM     48  C   UNL     1      -5.056  -0.629  16.055  1.00  0.00     0.031 C 
ATOM     49  C   UNL     1      -9.628  -3.684  13.486  1.00  0.00     0.029 A 
ATOM     50  C   UNL     1      -8.542  -2.846  13.683  1.00  0.00     0.049 A 
ATOM     51  H   UNL     1      -7.602  -1.543  12.315  1.00  0.00     0.167 HD
ATOM     52  C   UNL     1      -6.731  -1.779  14.995  1.00  0.00     0.074 A 
ATOM     53  C   UNL     1      -5.976  -1.570  16.212  1.00  0.00     0.031 C 
ATOM     54  C   UNL     1      -7.770  -2.642  14.882  1.00  0.00     0.037 A 
BRANCH  41  55
ATOM     55  C   UNL     1     -10.348  -2.712   9.271  1.00  0.00     0.064 A 
ATOM     56  C   UNL     1     -10.033  -3.607   8.238  1.00  0.00     0.173 A 
ATOM     57  C   UNL     1     -11.693  -2.359   9.452  1.00  0.00     0.173 A 
ATOM     58  F   UNL     1      -8.758  -3.960   8.014  1.00  0.00    -0.203 F 
ATOM     59  C   UNL     1     -11.028  -4.115   7.406  1.00  0.00     0.198 A 
ATOM     60  C   UNL     1     -12.687  -2.886   8.633  1.00  0.00     0.198 A 
ATOM     61  F   UNL     1     -12.042  -1.506  10.426  1.00  0.00    -0.203 F 
ATOM     62  F   UNL     1     -10.703  -4.939   6.400  1.00  0.00    -0.200 F 
ATOM     63  C   UNL     1     -12.353  -3.759   7.608  1.00  0.00     0.200 A 
ATOM     64  F   UNL     1     -13.967  -2.546   8.833  1.00  0.00    -0.200 F 
ATOM     65  F   UNL     1     -13.310  -4.251   6.808  1.00  0.00    -0.200 F 
ENDBRANCH  41  55
BRANCH  42  66
ATOM     66  C   UNL     1      -3.182   1.304  14.926  1.00  0.00     0.064 A 
ATOM     67  C   UNL     1      -2.135   0.521  15.430  1.00  0.00     0.173 A 
ATOM     68  C   UNL     1      -3.233   2.652  15.311  1.00  0.00     0.173 A 
ATOM     69  F   UNL     1      -2.059  -0.780  15.114  1.00  0.00    -0.203 F 
ATOM     70  C   UNL     1      -1.196   1.056  16.310  1.00  0.00     0.198 A 
ATOM     71  C   UNL     1      -2.278   3.193  16.168  1.00  0.00     0.198 A 
ATOM     72  F   UNL     1      -4.220   3.442  14.863  1.00  0.00    -0.203 F 
ATOM     73  F   UNL     1      -0.241   0.270  16.827  1.00  0.00    -0.200 F 
ATOM     74  C   UNL     1      -1.266   2.392  16.676  1.00  0.00     0.200 A 
ATOM     75  F   UNL     1      -2.346   4.485  16.515  1.00  0.00    -0.200 F 
ATOM     76  F   UNL     1      -0.370   2.903  17.531  1.00  0.00    -0.200 F 
ENDBRANCH  42  66
BRANCH  54  77
ATOM     77  C   UNL     1      -8.123  -3.461  16.091  1.00  0.00     0.064 A 
ATOM     78  C   UNL     1      -8.729  -2.890  17.219  1.00  0.00     0.173 A 
ATOM     79  C   UNL     1      -7.877  -4.842  16.106  1.00  0.00     0.173 A 
ATOM     80  F   UNL     1      -8.973  -1.571  17.260  1.00  0.00    -0.203 F 
ATOM     81  C   UNL     1      -9.047  -3.667  18.331  1.00  0.00     0.198 A 
ATOM     82  C   UNL     1      -8.224  -5.621  17.206  1.00  0.00     0.198 A 
ATOM     83  F   UNL     1      -7.307  -5.440  15.048  1.00  0.00    -0.203 F 
ATOM     84  F   UNL     1      -9.578  -3.091  19.419  1.00  0.00    -0.200 F 
ATOM     85  C   UNL     1      -8.800  -5.031  18.321  1.00  0.00     0.200 A 
ATOM     86  F   UNL     1      -7.997  -6.941  17.190  1.00  0.00    -0.200 F 
ATOM     87  F   UNL     1      -9.110  -5.777  19.391  1.00  0.00    -0.200 F 
ENDBRANCH  54  77
ENDBRANCH  28  29
ENDBRANCH  21  23
ENDBRANCH  20  21
ENDBRANCH  19  20
ENDBRANCH  18  19
ENDBRANCH   1  18
TORSDOF 17
