REMARK SMILES O=C(OCCOC(=O)[C@H]1Sc2[nH]c(=O)sc2[C@H]2c3cc(Br)cc(Br)c3OC(=O)[C@H]21)c1ccc(-c2c3nc(c(-c4c(F)c(F)c(F)c(F)c4F)c4ccc([nH]4)c(-c4c(F)c(F)c(F)c(F)c4F)c4nc(c(-c5c(F)c(F)c(F)c(F)c5F)c5ccc2[nH]5)C=C4)C=C3)cc1
REMARK SMILES IDX 4 1 3 2 2 3 1 4 30 5 31 6 92 7 32 8 91 9 33 10 34 11 35 12
REMARK SMILES IDX 85 13 36 14 90 15 84 16 86 17 37 18 89 19 83 20 82 21 38 23
REMARK SMILES IDX 70 24 50 25 69 26 51 27 54 28 68 29 87 30 52 31 53 32 67 34
REMARK SMILES IDX 88 35 55 36 39 37 40 38 48 39 41 40 42 41 46 42 49 43 43 44
REMARK SMILES IDX 44 45 47 46 45 47 71 48 72 49 80 50 73 51 74 52 78 53 81 54
REMARK SMILES IDX 75 55 76 56 79 57 77 58 56 59 57 60 65 61 58 62 59 63 63 64
REMARK SMILES IDX 66 65 60 66 61 67 64 68 62 69 5 70 6 71 7 72 8 73 9 74 10 75
REMARK SMILES IDX 29 76 11 77 17 78 27 79 12 80 16 81 18 82 26 83 28 84 13 85
REMARK SMILES IDX 15 87 19 88 25 89 14 90 20 91 23 92 21 93 22 94 24 95
REMARK H PARENT 86 22 54 33 12 86
REMARK Flexibility Score: inf
ROOT
ATOM      1  C   UNL     1       4.525   0.458   0.855  1.00  0.00     0.275 C 
ENDROOT
BRANCH   1   2
ATOM      2  O   UNL     1       3.254   1.115   1.048  1.00  0.00    -0.458 OA
BRANCH   2   3
ATOM      3  C   UNL     1       2.190   0.977   0.232  1.00  0.00     0.338 C 
ATOM      4  O   UNL     1       1.139   0.478   0.615  1.00  0.00    -0.246 OA
BRANCH   3   5
ATOM      5  C   UNL     1       2.206   1.753  -1.039  1.00  0.00     0.060 A 
ATOM      6  C   UNL     1       3.340   2.342  -1.602  1.00  0.00     0.016 A 
ATOM      7  C   UNL     1       0.962   1.915  -1.681  1.00  0.00     0.016 A 
ATOM      8  C   UNL     1       3.218   3.126  -2.747  1.00  0.00     0.010 A 
ATOM      9  C   UNL     1       0.836   2.701  -2.817  1.00  0.00     0.010 A 
ATOM     10  C   UNL     1       1.958   3.337  -3.326  1.00  0.00    -0.014 A 
BRANCH  10  11
ATOM     11  C   UNL     1       1.862   4.141  -4.538  1.00  0.00     0.031 A 
ATOM     12  C   UNL     1       2.567   3.554  -5.708  1.00  0.00     0.074 A 
ATOM     13  C   UNL     1       1.146   5.279  -4.649  1.00  0.00     0.049 A 
ATOM     14  N   UNL     1       3.730   3.887  -6.160  1.00  0.00    -0.248 NA
ATOM     15  C   UNL     1       2.001   2.361  -6.349  1.00  0.00     0.031 C 
ATOM     16  C   UNL     1       0.190   5.866  -3.708  1.00  0.00     0.029 A 
ATOM     17  N   UNL     1       1.125   6.163  -5.689  1.00  0.00    -0.354 N 
ATOM     18  C   UNL     1       3.948   3.104  -7.291  1.00  0.00     0.074 A 
ATOM     19  C   UNL     1       2.948   2.069  -7.245  1.00  0.00     0.031 C 
ATOM     20  C   UNL     1      -0.456   6.900  -4.301  1.00  0.00     0.029 A 
ATOM     21  C   UNL     1       0.151   7.154  -5.596  1.00  0.00     0.049 A 
ATOM     22  H   UNL     1       1.750   6.105  -6.447  1.00  0.00     0.167 HD
ATOM     23  C   UNL     1       4.781   3.536  -8.282  1.00  0.00     0.037 A 
ATOM     24  C   UNL     1      -0.115   8.122  -6.513  1.00  0.00     0.037 A 
ATOM     25  C   UNL     1       5.606   4.624  -7.808  1.00  0.00     0.049 A 
ATOM     26  C   UNL     1       1.116   8.293  -7.324  1.00  0.00     0.074 A 
ATOM     27  C   UNL     1       6.551   4.776  -6.812  1.00  0.00     0.029 A 
ATOM     28  N   UNL     1       5.235   5.900  -8.156  1.00  0.00    -0.354 N 
ATOM     29  N   UNL     1       2.231   8.770  -6.843  1.00  0.00    -0.248 NA
ATOM     30  C   UNL     1       1.240   7.487  -8.528  1.00  0.00     0.031 C 
ATOM     31  C   UNL     1       6.313   6.078  -6.276  1.00  0.00     0.029 A 
ATOM     32  C   UNL     1       5.299   6.672  -7.027  1.00  0.00     0.049 A 
ATOM     33  H   UNL     1       4.971   6.204  -9.054  1.00  0.00     0.167 HD
ATOM     34  C   UNL     1       3.219   7.980  -7.408  1.00  0.00     0.074 A 
ATOM     35  C   UNL     1       2.553   7.245  -8.484  1.00  0.00     0.031 C 
ATOM     36  C   UNL     1       4.406   7.776  -6.768  1.00  0.00     0.037 A 
BRANCH  23  37
ATOM     37  C   UNL     1       4.588   3.282  -9.765  1.00  0.00     0.064 A 
ATOM     38  C   UNL     1       5.527   3.826 -10.672  1.00  0.00     0.173 A 
ATOM     39  C   UNL     1       3.392   2.819 -10.351  1.00  0.00     0.173 A 
ATOM     40  F   UNL     1       6.705   4.301 -10.240  1.00  0.00    -0.203 F 
ATOM     41  C   UNL     1       5.237   4.000 -12.028  1.00  0.00     0.198 A 
ATOM     42  C   UNL     1       3.127   2.949 -11.714  1.00  0.00     0.198 A 
ATOM     43  F   UNL     1       2.381   2.326  -9.630  1.00  0.00    -0.203 F 
ATOM     44  F   UNL     1       6.100   4.658 -12.813  1.00  0.00    -0.200 F 
ATOM     45  C   UNL     1       4.031   3.572 -12.546  1.00  0.00     0.200 A 
ATOM     46  F   UNL     1       1.942   2.543 -12.194  1.00  0.00    -0.200 F 
ATOM     47  F   UNL     1       3.717   3.804 -13.828  1.00  0.00    -0.200 F 
ENDBRANCH  23  37
BRANCH  24  48
ATOM     48  C   UNL     1      -1.435   8.620  -6.984  1.00  0.00     0.064 A 
ATOM     49  C   UNL     1      -1.530   9.748  -7.822  1.00  0.00     0.173 A 
ATOM     50  C   UNL     1      -2.591   7.822  -6.887  1.00  0.00     0.173 A 
ATOM     51  F   UNL     1      -0.465  10.541  -8.009  1.00  0.00    -0.203 F 
ATOM     52  C   UNL     1      -2.693  10.034  -8.549  1.00  0.00     0.198 A 
ATOM     53  C   UNL     1      -3.751   8.109  -7.612  1.00  0.00     0.198 A 
ATOM     54  F   UNL     1      -2.584   6.692  -6.167  1.00  0.00    -0.203 F 
ATOM     55  F   UNL     1      -2.719  11.077  -9.391  1.00  0.00    -0.200 F 
ATOM     56  C   UNL     1      -3.797   9.204  -8.454  1.00  0.00     0.200 A 
ATOM     57  F   UNL     1      -4.800   7.277  -7.542  1.00  0.00    -0.200 F 
ATOM     58  F   UNL     1      -4.885   9.433  -9.204  1.00  0.00    -0.200 F 
ENDBRANCH  24  48
BRANCH  36  59
ATOM     59  C   UNL     1       4.713   8.610  -5.556  1.00  0.00     0.064 A 
ATOM     60  C   UNL     1       4.016   8.508  -4.339  1.00  0.00     0.173 A 
ATOM     61  C   UNL     1       5.877   9.388  -5.570  1.00  0.00     0.173 A 
ATOM     62  F   UNL     1       2.942   7.720  -4.224  1.00  0.00    -0.203 F 
ATOM     63  C   UNL     1       4.465   9.164  -3.193  1.00  0.00     0.198 A 
ATOM     64  C   UNL     1       6.340  10.015  -4.417  1.00  0.00     0.198 A 
ATOM     65  F   UNL     1       6.607   9.480  -6.692  1.00  0.00    -0.203 F 
ATOM     66  F   UNL     1       3.793   9.037  -2.038  1.00  0.00    -0.200 F 
ATOM     67  C   UNL     1       5.634   9.905  -3.230  1.00  0.00     0.200 A 
ATOM     68  F   UNL     1       7.497  10.691  -4.447  1.00  0.00    -0.200 F 
ATOM     69  F   UNL     1       6.100  10.484  -2.114  1.00  0.00    -0.200 F 
ENDBRANCH  36  59
ENDBRANCH  10  11
ENDBRANCH   3   5
ENDBRANCH   2   3
ENDBRANCH   1   2
BRANCH   1  70
ATOM     70  C   UNL     1       4.548  -1.033   0.516  1.00  0.00     0.274 C 
BRANCH  70  71
ATOM     71  O   UNL     1       4.069  -1.331  -0.809  1.00  0.00    -0.461 OA
BRANCH  71  72
ATOM     72  C   UNL     1       2.829  -1.894  -0.845  1.00  0.00     0.320 C 
ATOM     73  O   UNL     1       2.139  -2.084   0.147  1.00  0.00    -0.251 OA
BRANCH  72  74
ATOM     74  C   UNL     1       2.353  -2.236  -2.253  1.00  0.00     0.178 C 
ATOM     75  S   UNL     1       2.679  -0.827  -3.384  1.00  0.00    -0.091 SA
ATOM     76  C   UNL     1       2.588  -3.672  -2.768  1.00  0.00     0.137 C 
ATOM     77  C   UNL     1       3.701  -1.465  -4.563  1.00  0.00     0.091 A 
ATOM     78  C   UNL     1       3.700  -3.891  -3.833  1.00  0.00     0.082 C 
ATOM     79  C   UNL     1       2.752  -4.722  -1.652  1.00  0.00     0.317 C 
ATOM     80  N   UNL     1       4.301  -0.619  -5.445  1.00  0.00    -0.307 N 
ATOM     81  C   UNL     1       4.023  -2.746  -4.734  1.00  0.00     0.049 A 
ATOM     82  C   UNL     1       4.911  -4.484  -3.128  1.00  0.00     0.007 A 
ATOM     83  O   UNL     1       3.299  -5.900  -2.111  1.00  0.00    -0.425 OA
ATOM     84  O   UNL     1       2.387  -4.609  -0.494  1.00  0.00    -0.251 OA
ATOM     85  C   UNL     1       5.100  -1.192  -6.405  1.00  0.00     0.305 A 
ATOM     86  H   UNL     1       4.168   0.355  -5.398  1.00  0.00     0.171 HD
ATOM     87  S   UNL     1       4.978  -2.943  -6.202  1.00  0.00    -0.078 S 
ATOM     88  C   UNL     1       6.229  -4.029  -3.199  1.00  0.00     0.024 A 
ATOM     89  C   UNL     1       4.632  -5.570  -2.289  1.00  0.00     0.148 A 
ATOM     90  O   UNL     1       5.771  -0.631  -7.240  1.00  0.00    -0.257 OA
ATOM     91  C   UNL     1       7.233  -4.684  -2.482  1.00  0.00     0.019 A 
ATOM     92  C   UNL     1       5.634  -6.247  -1.596  1.00  0.00     0.062 A 
ATOM     93  Br  UNL     1       9.001  -4.018  -2.558  1.00  0.00    -0.051 Br
ATOM     94  C   UNL     1       6.947  -5.799  -1.694  1.00  0.00     0.035 A 
ATOM     95  Br  UNL     1       5.238  -7.714  -0.469  1.00  0.00    -0.047 Br
ENDBRANCH  72  74
ENDBRANCH  71  72
ENDBRANCH  70  71
ENDBRANCH   1  70
TORSDOF 11
