REMARK SMILES Cc1nsc(NC(=O)N2CCC[C@@H](C)C2)c1C(=O)OCCOC(=O)c1ccc(-c2c3nc(c(-c4c(F)c(F)c(F)c(F)c4F)c4ccc([nH]4)c(-c4c(F)c(F)c(F)c(F)c4F)c4nc(c(-c5c(F)c(F)c(F)c(F)c5F)c5ccc2[nH]5)C=C4)C=C3)cc1
REMARK SMILES IDX 20 1 19 2 17 3 18 4 16 5 1 6 2 7 3 8 4 9 5 10 6 11 7 12 8 14
REMARK SMILES IDX 9 15 10 16 15 17 11 18 13 19 12 20 14 21 21 22 22 23 23 24
REMARK SMILES IDX 24 25 25 26 26 27 87 28 27 29 86 30 28 31 29 32 30 33 80 34
REMARK SMILES IDX 31 35 85 36 79 37 81 38 32 39 84 40 78 41 77 42 33 44 65 45
REMARK SMILES IDX 45 46 64 47 46 48 49 49 63 50 82 51 47 52 48 53 62 55 83 56
REMARK SMILES IDX 50 57 34 58 35 59 43 60 36 61 37 62 41 63 44 64 38 65 39 66
REMARK SMILES IDX 42 67 40 68 66 69 67 70 75 71 68 72 69 73 73 74 76 75 70 76
REMARK SMILES IDX 71 77 74 78 72 79 51 80 52 81 60 82 53 83 54 84 58 85 61 86
REMARK SMILES IDX 55 87 56 88 59 89 57 90
REMARK H PARENT 6 13 81 43 49 54
REMARK Flexibility Score: inf
ROOT
ATOM      1  C   UNL     1       1.549   3.750   1.691  1.00  0.00     0.275 C 
ENDROOT
BRANCH   1   2
ATOM      2  O   UNL     1       1.039   2.636   0.941  1.00  0.00    -0.458 OA
BRANCH   2   3
ATOM      3  C   UNL     1       0.349   2.918  -0.199  1.00  0.00     0.343 C 
ATOM      4  O   UNL     1      -0.091   4.032  -0.480  1.00  0.00    -0.246 OA
BRANCH   3   5
ATOM      5  C   UNL     1       0.326   1.798  -1.129  1.00  0.00     0.117 A 
ATOM      6  C   UNL     1       0.950  -0.189   0.483  1.00  0.00     0.069 C 
ATOM      7  C   UNL     1       0.656   0.416  -0.846  1.00  0.00     0.068 A 
ATOM      8  N   UNL     1       0.749  -0.387  -1.906  1.00  0.00    -0.195 NA
ATOM      9  S   UNL     1       0.586   0.525  -3.264  1.00  0.00    -0.017 S 
ATOM     10  C   UNL     1       0.110   1.957  -2.495  1.00  0.00     0.132 A 
BRANCH  10  11
ATOM     11  N   UNL     1      -0.239   3.117  -3.172  1.00  0.00    -0.297 N 
ATOM     12  C   UNL     1      -0.251   3.409  -4.500  1.00  0.00     0.322 C 
ATOM     13  H   UNL     1      -0.528   3.856  -2.590  1.00  0.00     0.172 HD
ATOM     14  O   UNL     1       0.008   4.572  -4.827  1.00  0.00    -0.248 OA
BRANCH  12  15
ATOM     15  N   UNL     1      -0.528   2.448  -5.439  1.00  0.00    -0.324 N 
ATOM     16  C   UNL     1      -1.714   1.593  -5.372  1.00  0.00     0.121 C 
ATOM     17  C   UNL     1       0.009   2.634  -6.781  1.00  0.00     0.124 C 
ATOM     18  C   UNL     1      -1.496   0.235  -6.048  1.00  0.00     0.022 C 
ATOM     19  C   UNL     1       0.419   1.279  -7.359  1.00  0.00     0.005 C 
ATOM     20  C   UNL     1      -0.795   0.340  -7.405  1.00  0.00     0.007 C 
ATOM     21  C   UNL     1       1.046   1.435  -8.741  1.00  0.00     0.009 C 
ENDBRANCH  12  15
ENDBRANCH  10  11
ENDBRANCH   3   5
ENDBRANCH   2   3
ENDBRANCH   1   2
BRANCH   1  22
ATOM     22  C   UNL     1       2.960   4.093   1.230  1.00  0.00     0.275 C 
BRANCH  22  23
ATOM     23  O   UNL     1       2.955   4.843   0.012  1.00  0.00    -0.458 OA
BRANCH  23  24
ATOM     24  C   UNL     1       3.196   4.121  -1.105  1.00  0.00     0.338 C 
ATOM     25  O   UNL     1       3.047   2.921  -1.251  1.00  0.00    -0.246 OA
BRANCH  24  26
ATOM     26  C   UNL     1       3.868   4.969  -2.093  1.00  0.00     0.060 A 
ATOM     27  C   UNL     1       3.854   4.580  -3.434  1.00  0.00     0.016 A 
ATOM     28  C   UNL     1       4.672   6.027  -1.646  1.00  0.00     0.016 A 
ATOM     29  C   UNL     1       4.710   5.213  -4.319  1.00  0.00     0.010 A 
ATOM     30  C   UNL     1       5.519   6.660  -2.531  1.00  0.00     0.010 A 
ATOM     31  C   UNL     1       5.568   6.221  -3.853  1.00  0.00    -0.014 A 
BRANCH  31  32
ATOM     32  C   UNL     1       6.411   6.916  -4.819  1.00  0.00     0.031 A 
ATOM     33  C   UNL     1       5.654   7.658  -5.859  1.00  0.00     0.074 A 
ATOM     34  C   UNL     1       7.750   7.021  -4.696  1.00  0.00     0.049 A 
ATOM     35  N   UNL     1       5.772   7.566  -7.142  1.00  0.00    -0.248 NA
ATOM     36  C   UNL     1       4.571   8.553  -5.417  1.00  0.00     0.031 C 
ATOM     37  C   UNL     1       8.571   6.576  -3.566  1.00  0.00     0.029 A 
ATOM     38  N   UNL     1       8.652   7.647  -5.511  1.00  0.00    -0.354 N 
ATOM     39  C   UNL     1       4.892   8.506  -7.672  1.00  0.00     0.074 A 
ATOM     40  C   UNL     1       4.097   8.999  -6.580  1.00  0.00     0.031 C 
ATOM     41  C   UNL     1       9.801   7.125  -3.664  1.00  0.00     0.029 A 
ATOM     42  C   UNL     1       9.896   7.838  -4.928  1.00  0.00     0.049 A 
ATOM     43  H   UNL     1       8.438   7.936  -6.428  1.00  0.00     0.167 HD
ATOM     44  C   UNL     1       5.057   8.981  -8.934  1.00  0.00     0.037 A 
ATOM     45  C   UNL     1      10.935   8.552  -5.420  1.00  0.00     0.037 A 
ATOM     46  C   UNL     1       5.896   8.119  -9.719  1.00  0.00     0.049 A 
ATOM     47  C   UNL     1      10.767   8.678  -6.883  1.00  0.00     0.074 A 
ATOM     48  C   UNL     1       5.743   6.938 -10.409  1.00  0.00     0.029 A 
ATOM     49  N   UNL     1       7.237   8.328  -9.555  1.00  0.00    -0.354 N 
ATOM     50  N   UNL     1      10.874   7.676  -7.710  1.00  0.00    -0.248 NA
ATOM     51  C   UNL     1      10.186   9.893  -7.446  1.00  0.00     0.031 C 
ATOM     52  C   UNL     1       7.044   6.358 -10.505  1.00  0.00     0.029 A 
ATOM     53  C   UNL     1       7.953   7.206  -9.879  1.00  0.00     0.049 A 
ATOM     54  H   UNL     1       7.635   9.173  -9.244  1.00  0.00     0.167 HD
ATOM     55  C   UNL     1       9.999   7.987  -8.729  1.00  0.00     0.074 A 
ATOM     56  C   UNL     1       9.767   9.419  -8.622  1.00  0.00     0.031 C 
ATOM     57  C   UNL     1       9.281   7.009  -9.349  1.00  0.00     0.037 A 
BRANCH  44  58
ATOM     58  C   UNL     1       4.848  10.426  -9.318  1.00  0.00     0.064 A 
ATOM     59  C   UNL     1       4.896  10.794 -10.677  1.00  0.00     0.173 A 
ATOM     60  C   UNL     1       4.935  11.491  -8.394  1.00  0.00     0.173 A 
ATOM     61  F   UNL     1       4.854   9.860 -11.639  1.00  0.00    -0.203 F 
ATOM     62  C   UNL     1       5.076  12.122 -11.076  1.00  0.00     0.198 A 
ATOM     63  C   UNL     1       5.063  12.819  -8.796  1.00  0.00     0.198 A 
ATOM     64  F   UNL     1       5.019  11.280  -7.074  1.00  0.00    -0.203 F 
ATOM     65  F   UNL     1       5.232  12.413 -12.374  1.00  0.00    -0.200 F 
ATOM     66  C   UNL     1       5.163  13.133 -10.135  1.00  0.00     0.200 A 
ATOM     67  F   UNL     1       5.174  13.781  -7.869  1.00  0.00    -0.200 F 
ATOM     68  F   UNL     1       5.393  14.397 -10.512  1.00  0.00    -0.200 F 
ENDBRANCH  44  58
BRANCH  45  69
ATOM     69  C   UNL     1      12.004   9.260  -4.686  1.00  0.00     0.064 A 
ATOM     70  C   UNL     1      13.234   9.560  -5.292  1.00  0.00     0.173 A 
ATOM     71  C   UNL     1      11.738   9.885  -3.454  1.00  0.00     0.173 A 
ATOM     72  F   UNL     1      13.546   9.033  -6.485  1.00  0.00    -0.203 F 
ATOM     73  C   UNL     1      14.134  10.457  -4.711  1.00  0.00     0.198 A 
ATOM     74  C   UNL     1      12.640  10.775  -2.872  1.00  0.00     0.198 A 
ATOM     75  F   UNL     1      10.558   9.715  -2.840  1.00  0.00    -0.203 F 
ATOM     76  F   UNL     1      15.272  10.768  -5.347  1.00  0.00    -0.200 F 
ATOM     77  C   UNL     1      13.831  11.072  -3.507  1.00  0.00     0.200 A 
ATOM     78  F   UNL     1      12.321  11.388  -1.723  1.00  0.00    -0.200 F 
ATOM     79  F   UNL     1      14.666  11.979  -2.981  1.00  0.00    -0.200 F 
ENDBRANCH  45  69
BRANCH  57  80
ATOM     80  C   UNL     1       9.838   5.623  -9.286  1.00  0.00     0.064 A 
ATOM     81  C   UNL     1       9.941   4.869  -8.106  1.00  0.00     0.173 A 
ATOM     82  C   UNL     1      10.255   5.022 -10.480  1.00  0.00     0.173 A 
ATOM     83  F   UNL     1       9.489   5.348  -6.940  1.00  0.00    -0.203 F 
ATOM     84  C   UNL     1      10.494   3.590  -8.117  1.00  0.00     0.198 A 
ATOM     85  C   UNL     1      10.772   3.731 -10.494  1.00  0.00     0.198 A 
ATOM     86  F   UNL     1      10.138   5.683 -11.642  1.00  0.00    -0.203 F 
ATOM     87  F   UNL     1      10.617   2.901  -6.973  1.00  0.00    -0.200 F 
ATOM     88  C   UNL     1      10.906   3.022  -9.311  1.00  0.00     0.200 A 
ATOM     89  F   UNL     1      11.131   3.170 -11.657  1.00  0.00    -0.200 F 
ATOM     90  F   UNL     1      11.417   1.782  -9.326  1.00  0.00    -0.200 F 
ENDBRANCH  57  80
ENDBRANCH  31  32
ENDBRANCH  24  26
ENDBRANCH  23  24
ENDBRANCH  22  23
ENDBRANCH   1  22
TORSDOF 13
