REMARK SMILES CC(C)(C)c1cc(Nc2ccccc2C(=O)OCCOC(=O)c2ccc(-c3c4nc(c(-c5c(F)c(F)c(F)c(F)c5F)c5ccc([nH]5)c(-c5c(F)c(F)c(F)c(F)c5F)c5nc(c(-c6c(F)c(F)c(F)c(F)c6F)c6ccc3[nH]6)C=C5)C=C4)cc2)cc2c1OCC2(C)C
REMARK SMILES IDX 18 1 17 2 15 3 16 4 14 5 9 6 10 7 11 8 13 9 12 10 8 11 7 13
REMARK SMILES IDX 5 14 6 15 88 16 87 17 89 18 86 19 91 20 90 21 92 22 93 23
REMARK SMILES IDX 2 24 1 25 3 26 4 27 19 28 20 29 21 30 22 31 23 32 24 33
REMARK SMILES IDX 85 34 25 35 84 36 26 37 27 38 28 39 78 40 29 41 83 42 77 43
REMARK SMILES IDX 79 44 30 45 82 46 76 47 75 48 31 50 63 51 43 52 62 53 44 54
REMARK SMILES IDX 47 55 61 56 80 57 45 58 46 59 60 61 81 62 48 63 32 64 33 65
REMARK SMILES IDX 41 66 34 67 35 68 39 69 42 70 36 71 37 72 40 73 38 74 64 75
REMARK SMILES IDX 65 76 73 77 66 78 67 79 71 80 74 81 68 82 69 83 72 84 70 85
REMARK SMILES IDX 49 86 50 87 58 88 51 89 52 90 56 91 59 92 53 93 54 94 57 95
REMARK SMILES IDX 55 96
REMARK H PARENT 8 12 79 49 47 60
REMARK Flexibility Score: inf
ROOT
ATOM      1  C   UNL     1       5.037   2.635  -3.842  1.00  0.00     0.275 C 
ENDROOT
BRANCH   1   2
ATOM      2  O   UNL     1       4.086   2.001  -4.720  1.00  0.00    -0.458 OA
BRANCH   2   3
ATOM      3  C   UNL     1       4.026   2.430  -6.004  1.00  0.00     0.340 C 
ATOM      4  O   UNL     1       4.697   3.331  -6.484  1.00  0.00    -0.246 OA
BRANCH   3   5
ATOM      5  C   UNL     1       3.088   1.601  -6.821  1.00  0.00     0.083 A 
ATOM      6  C   UNL     1       2.055   0.806  -6.288  1.00  0.00     0.053 A 
ATOM      7  C   UNL     1       1.303   0.012  -7.180  1.00  0.00     0.027 A 
ATOM      8  C   UNL     1       1.592  -0.043  -8.544  1.00  0.00     0.002 A 
ATOM      9  C   UNL     1       3.322   1.592  -8.212  1.00  0.00     0.018 A 
ATOM     10  C   UNL     1       2.607   0.749  -9.062  1.00  0.00     0.001 A 
BRANCH   6  11
ATOM     11  N   UNL     1       1.819   0.701  -4.900  1.00  0.00    -0.355 N 
ATOM     12  H   UNL     1       1.769   1.553  -4.409  1.00  0.00     0.167 HD
BRANCH  11  13
ATOM     13  C   UNL     1       1.644  -0.463  -4.124  1.00  0.00     0.039 A 
ATOM     14  C   UNL     1       0.879  -1.487  -1.995  1.00  0.00     0.002 A 
ATOM     15  C   UNL     1       1.149  -0.357  -2.807  1.00  0.00     0.034 A 
ATOM     16  C   UNL     1       1.050  -2.724  -2.618  1.00  0.00     0.127 A 
ATOM     17  C   UNL     1       1.552  -2.844  -3.904  1.00  0.00     0.006 A 
ATOM     18  O   UNL     1       0.702  -3.937  -2.084  1.00  0.00    -0.492 OA
ATOM     19  C   UNL     1       1.881  -1.730  -4.649  1.00  0.00     0.034 A 
ATOM     20  C   UNL     1       1.587  -4.266  -4.345  1.00  0.00     0.028 C 
ATOM     21  C   UNL     1       1.157  -4.936  -3.028  1.00  0.00     0.240 C 
ATOM     22  C   UNL     1       0.572  -4.501  -5.472  1.00  0.00     0.020 C 
ATOM     23  C   UNL     1       2.982  -4.713  -4.787  1.00  0.00     0.020 C 
BRANCH  14  24
ATOM     24  C   UNL     1       0.379  -1.326  -0.549  1.00  0.00    -0.009 C 
ATOM     25  C   UNL     1       0.849   0.004   0.094  1.00  0.00     0.016 C 
ATOM     26  C   UNL     1       0.888  -2.443   0.392  1.00  0.00     0.016 C 
ATOM     27  C   UNL     1      -1.160  -1.341  -0.559  1.00  0.00     0.016 C 
ENDBRANCH  14  24
ENDBRANCH  11  13
ENDBRANCH   6  11
ENDBRANCH   3   5
ENDBRANCH   2   3
ENDBRANCH   1   2
BRANCH   1  28
ATOM     28  C   UNL     1       6.217   1.707  -3.544  1.00  0.00     0.275 C 
BRANCH  28  29
ATOM     29  O   UNL     1       7.090   1.623  -4.685  1.00  0.00    -0.458 OA
BRANCH  29  30
ATOM     30  C   UNL     1       6.978   0.502  -5.430  1.00  0.00     0.338 C 
ATOM     31  O   UNL     1       6.295  -0.486  -5.205  1.00  0.00    -0.246 OA
BRANCH  30  32
ATOM     32  C   UNL     1       7.686   0.719  -6.698  1.00  0.00     0.060 A 
ATOM     33  C   UNL     1       9.077   0.731  -6.784  1.00  0.00     0.016 A 
ATOM     34  C   UNL     1       6.905   0.886  -7.841  1.00  0.00     0.016 A 
ATOM     35  C   UNL     1       9.680   0.945  -8.029  1.00  0.00     0.010 A 
ATOM     36  C   UNL     1       7.502   1.095  -9.080  1.00  0.00     0.010 A 
ATOM     37  C   UNL     1       8.897   1.136  -9.186  1.00  0.00    -0.014 A 
BRANCH  37  38
ATOM     38  C   UNL     1       9.523   1.321 -10.519  1.00  0.00     0.031 A 
ATOM     39  C   UNL     1       9.428   2.633 -11.245  1.00  0.00     0.074 A 
ATOM     40  C   UNL     1      10.132   0.272 -11.105  1.00  0.00     0.049 A 
ATOM     41  N   UNL     1       9.943   2.976 -12.401  1.00  0.00    -0.248 NA
ATOM     42  C   UNL     1       8.632   3.692 -10.607  1.00  0.00     0.031 C 
ATOM     43  C   UNL     1      10.210  -1.075 -10.540  1.00  0.00     0.029 A 
ATOM     44  N   UNL     1      10.798   0.174 -12.300  1.00  0.00    -0.354 N 
ATOM     45  C   UNL     1       9.539   4.286 -12.623  1.00  0.00     0.074 A 
ATOM     46  C   UNL     1       8.687   4.658 -11.514  1.00  0.00     0.031 C 
ATOM     47  C   UNL     1      10.925  -1.854 -11.366  1.00  0.00     0.029 A 
ATOM     48  C   UNL     1      11.336  -1.069 -12.527  1.00  0.00     0.049 A 
ATOM     49  H   UNL     1      10.883   0.922 -12.934  1.00  0.00     0.167 HD
ATOM     50  C   UNL     1       9.875   5.111 -13.645  1.00  0.00     0.037 A 
ATOM     51  C   UNL     1      12.092  -1.520 -13.546  1.00  0.00     0.037 A 
ATOM     52  C   UNL     1      10.737   4.740 -14.738  1.00  0.00     0.049 A 
ATOM     53  C   UNL     1      12.469  -0.579 -14.656  1.00  0.00     0.074 A 
ATOM     54  C   UNL     1      11.191   5.527 -15.783  1.00  0.00     0.029 A 
ATOM     55  N   UNL     1      11.272   3.475 -14.929  1.00  0.00    -0.354 N 
ATOM     56  N   UNL     1      12.160   0.685 -14.809  1.00  0.00    -0.248 NA
ATOM     57  C   UNL     1      13.307  -1.126 -15.733  1.00  0.00     0.031 C 
ATOM     58  C   UNL     1      11.968   4.728 -16.628  1.00  0.00     0.029 A 
ATOM     59  C   UNL     1      12.037   3.455 -16.085  1.00  0.00     0.049 A 
ATOM     60  H   UNL     1      11.130   2.705 -14.332  1.00  0.00     0.167 HD
ATOM     61  C   UNL     1      12.778   1.091 -15.984  1.00  0.00     0.074 A 
ATOM     62  C   UNL     1      13.498  -0.058 -16.495  1.00  0.00     0.031 C 
ATOM     63  C   UNL     1      12.746   2.305 -16.585  1.00  0.00     0.037 A 
BRANCH  50  64
ATOM     64  C   UNL     1       9.341   6.515 -13.618  1.00  0.00     0.064 A 
ATOM     65  C   UNL     1       9.810   7.453 -12.685  1.00  0.00     0.173 A 
ATOM     66  C   UNL     1       8.418   6.952 -14.580  1.00  0.00     0.173 A 
ATOM     67  F   UNL     1      10.691   7.086 -11.743  1.00  0.00    -0.203 F 
ATOM     68  C   UNL     1       9.360   8.771 -12.704  1.00  0.00     0.198 A 
ATOM     69  C   UNL     1       7.992   8.278 -14.614  1.00  0.00     0.198 A 
ATOM     70  F   UNL     1       7.947   6.101 -15.503  1.00  0.00    -0.203 F 
ATOM     71  F   UNL     1       9.798   9.640 -11.783  1.00  0.00    -0.200 F 
ATOM     72  C   UNL     1       8.459   9.184 -13.674  1.00  0.00     0.200 A 
ATOM     73  F   UNL     1       7.135   8.682 -15.562  1.00  0.00    -0.200 F 
ATOM     74  F   UNL     1       8.041  10.458 -13.702  1.00  0.00    -0.200 F 
ENDBRANCH  50  64
BRANCH  51  75
ATOM     75  C   UNL     1      12.600  -2.915 -13.516  1.00  0.00     0.064 A 
ATOM     76  C   UNL     1      13.955  -3.175 -13.268  1.00  0.00     0.173 A 
ATOM     77  C   UNL     1      11.745  -4.011 -13.694  1.00  0.00     0.173 A 
ATOM     78  F   UNL     1      14.813  -2.156 -13.109  1.00  0.00    -0.203 F 
ATOM     79  C   UNL     1      14.437  -4.480 -13.207  1.00  0.00     0.198 A 
ATOM     80  C   UNL     1      12.224  -5.317 -13.608  1.00  0.00     0.198 A 
ATOM     81  F   UNL     1      10.439  -3.814 -13.928  1.00  0.00    -0.203 F 
ATOM     82  F   UNL     1      15.742  -4.700 -12.997  1.00  0.00    -0.200 F 
ATOM     83  C   UNL     1      13.570  -5.550 -13.368  1.00  0.00     0.200 A 
ATOM     84  F   UNL     1      11.381  -6.349 -13.748  1.00  0.00    -0.200 F 
ATOM     85  F   UNL     1      14.032  -6.805 -13.294  1.00  0.00    -0.200 F 
ENDBRANCH  51  75
BRANCH  63  86
ATOM     86  C   UNL     1      13.516   2.464 -17.864  1.00  0.00     0.064 A 
ATOM     87  C   UNL     1      13.070   1.888 -19.062  1.00  0.00     0.173 A 
ATOM     88  C   UNL     1      14.675   3.256 -17.905  1.00  0.00     0.173 A 
ATOM     89  F   UNL     1      11.976   1.112 -19.071  1.00  0.00    -0.203 F 
ATOM     90  C   UNL     1      13.765   2.085 -20.252  1.00  0.00     0.198 A 
ATOM     91  C   UNL     1      15.351   3.473 -19.102  1.00  0.00     0.198 A 
ATOM     92  F   UNL     1      15.138   3.835 -16.788  1.00  0.00    -0.203 F 
ATOM     93  F   UNL     1      13.341   1.496 -21.379  1.00  0.00    -0.200 F 
ATOM     94  C   UNL     1      14.898   2.885 -20.273  1.00  0.00     0.200 A 
ATOM     95  F   UNL     1      16.437   4.258 -19.124  1.00  0.00    -0.200 F 
ATOM     96  F   UNL     1      15.557   3.085 -21.423  1.00  0.00    -0.200 F 
ENDBRANCH  63  86
ENDBRANCH  37  38
ENDBRANCH  30  32
ENDBRANCH  29  30
ENDBRANCH  28  29
ENDBRANCH   1  28
TORSDOF 14
