REMARK SMILES CC(C)(C)OC(=O)N[C@H](c1ccccc1)[C@@H](O)CC(=O)OCCOC(=O)c1ccc(-c2c3nc(c(-c4c(F)c(F)c(F)c(F)c4F)c4ccc([nH]4)c(-c4c(F)c(F)c(F)c(F)c4F)c4nc(c(-c5c(F)c(F)c(F)c(F)c5F)c5ccc2[nH]5)C=C4)C=C3)cc1
REMARK SMILES IDX 21 1 19 2 20 3 18 4 16 5 9 6 8 7 6 8 7 9 5 11 2 12 1 13 3 14
REMARK SMILES IDX 4 15 10 16 11 17 15 18 12 19 14 20 13 21 17 22 22 24 23 25
REMARK SMILES IDX 24 26 25 27 26 28 27 29 28 30 89 31 29 32 88 33 30 34 31 35
REMARK SMILES IDX 32 36 82 37 33 38 87 39 81 40 83 41 34 42 86 43 80 44 79 45
REMARK SMILES IDX 35 47 67 48 47 49 66 50 48 51 51 52 65 53 84 54 49 55 50 56
REMARK SMILES IDX 64 58 85 59 52 60 36 61 37 62 45 63 38 64 39 65 43 66 46 67
REMARK SMILES IDX 40 68 41 69 44 70 42 71 68 72 69 73 77 74 70 75 71 76 75 77
REMARK SMILES IDX 78 78 72 79 73 80 76 81 74 82 53 83 54 84 62 85 55 86 56 87
REMARK SMILES IDX 60 88 63 89 57 90 58 91 61 92 59 93
REMARK H PARENT 8 10 17 23 83 46 51 57
REMARK Flexibility Score: inf
ROOT
ATOM      1  O   UNL     1       3.872   6.249  -3.385  1.00  0.00    -0.462 OA
ENDROOT
BRANCH   1   2
ATOM      2  C   UNL     1       3.488   7.101  -2.405  1.00  0.00     0.308 C 
ATOM      3  O   UNL     1       3.996   8.200  -2.208  1.00  0.00    -0.252 OA
BRANCH   2   4
ATOM      4  C   UNL     1       2.382   6.556  -1.532  1.00  0.00     0.157 C 
BRANCH   4   5
ATOM      5  C   UNL     1       1.558   5.435  -2.147  1.00  0.00     0.152 C 
BRANCH   5   6
ATOM      6  C   UNL     1       2.110   3.958  -2.104  1.00  0.00     0.145 C 
BRANCH   6   7
ATOM      7  N   UNL     1       3.543   3.787  -2.369  1.00  0.00    -0.312 N 
ATOM      8  C   UNL     1       4.662   4.106  -1.649  1.00  0.00     0.408 C 
ATOM      9  O   UNL     1       5.766   3.890  -2.119  1.00  0.00    -0.225 OA
ATOM     10  H   UNL     1       3.737   3.357  -3.233  1.00  0.00     0.167 HD
BRANCH   8  11
ATOM     11  O   UNL     1       4.424   4.726  -0.466  1.00  0.00    -0.444 OA
BRANCH  11  12
ATOM     12  C   UNL     1       5.507   5.352   0.299  1.00  0.00     0.106 C 
ATOM     13  C   UNL     1       4.868   5.751   1.639  1.00  0.00     0.056 C 
ATOM     14  C   UNL     1       6.025   6.633  -0.369  1.00  0.00     0.056 C 
ATOM     15  C   UNL     1       6.680   4.406   0.571  1.00  0.00     0.056 C 
ENDBRANCH  11  12
ENDBRANCH   8  11
ENDBRANCH   6   7
BRANCH   6  16
ATOM     16  C   UNL     1       1.322   3.044  -3.098  1.00  0.00    -0.023 A 
ATOM     17  C   UNL     1       0.271   3.503  -3.924  1.00  0.00     0.006 A 
ATOM     18  C   UNL     1       1.665   1.684  -3.214  1.00  0.00     0.006 A 
ATOM     19  C   UNL     1      -0.393   2.657  -4.820  1.00  0.00     0.000 A 
ATOM     20  C   UNL     1       1.010   0.840  -4.124  1.00  0.00     0.000 A 
ATOM     21  C   UNL     1      -0.019   1.326  -4.925  1.00  0.00     0.000 A 
ENDBRANCH   6  16
ENDBRANCH   5   6
BRANCH   5  22
ATOM     22  O   UNL     1       0.286   5.490  -1.451  1.00  0.00    -0.390 OA
ATOM     23  H   UNL     1       0.425   5.306  -0.509  1.00  0.00     0.211 HD
ENDBRANCH   5  22
ENDBRANCH   4   5
ENDBRANCH   2   4
ENDBRANCH   1   2
BRANCH   1  24
ATOM     24  C   UNL     1       5.068   6.564  -4.125  1.00  0.00     0.274 C 
BRANCH  24  25
ATOM     25  C   UNL     1       4.737   7.078  -5.524  1.00  0.00     0.275 C 
BRANCH  25  26
ATOM     26  O   UNL     1       4.071   8.344  -5.430  1.00  0.00    -0.458 OA
BRANCH  26  27
ATOM     27  C   UNL     1       2.729   8.262  -5.261  1.00  0.00     0.338 C 
ATOM     28  O   UNL     1       2.021   7.285  -5.444  1.00  0.00    -0.246 OA
BRANCH  27  29
ATOM     29  C   UNL     1       2.266   9.479  -4.565  1.00  0.00     0.060 A 
ATOM     30  C   UNL     1       1.259   9.325  -3.603  1.00  0.00     0.016 A 
ATOM     31  C   UNL     1       2.839  10.731  -4.802  1.00  0.00     0.016 A 
ATOM     32  C   UNL     1       0.825  10.419  -2.866  1.00  0.00     0.010 A 
ATOM     33  C   UNL     1       2.373  11.838  -4.097  1.00  0.00     0.010 A 
ATOM     34  C   UNL     1       1.352  11.684  -3.146  1.00  0.00    -0.014 A 
BRANCH  34  35
ATOM     35  C   UNL     1       0.664  12.877  -2.619  1.00  0.00     0.031 A 
ATOM     36  C   UNL     1      -0.489  13.413  -3.415  1.00  0.00     0.074 A 
ATOM     37  C   UNL     1       1.056  13.454  -1.474  1.00  0.00     0.049 A 
ATOM     38  N   UNL     1      -1.218  14.477  -3.211  1.00  0.00    -0.248 NA
ATOM     39  C   UNL     1      -0.872  12.638  -4.609  1.00  0.00     0.031 C 
ATOM     40  C   UNL     1       2.131  12.973  -0.608  1.00  0.00     0.029 A 
ATOM     41  N   UNL     1       0.596  14.584  -0.850  1.00  0.00    -0.354 N 
ATOM     42  C   UNL     1      -2.146  14.494  -4.243  1.00  0.00     0.074 A 
ATOM     43  C   UNL     1      -1.881  13.349  -5.084  1.00  0.00     0.031 C 
ATOM     44  C   UNL     1       2.264  13.821   0.428  1.00  0.00     0.029 A 
ATOM     45  C   UNL     1       1.305  14.913   0.277  1.00  0.00     0.049 A 
ATOM     46  H   UNL     1      -0.169  15.109  -1.179  1.00  0.00     0.167 HD
ATOM     47  C   UNL     1      -3.130  15.393  -4.469  1.00  0.00     0.037 A 
ATOM     48  C   UNL     1       1.197  15.995   1.072  1.00  0.00     0.037 A 
ATOM     49  C   UNL     1      -3.354  16.549  -3.647  1.00  0.00     0.049 A 
ATOM     50  C   UNL     1       0.148  17.028   0.750  1.00  0.00     0.074 A 
ATOM     51  C   UNL     1      -4.302  17.544  -3.792  1.00  0.00     0.029 A 
ATOM     52  N   UNL     1      -2.599  16.868  -2.527  1.00  0.00    -0.354 N 
ATOM     53  N   UNL     1      -0.735  17.039  -0.221  1.00  0.00    -0.248 NA
ATOM     54  C   UNL     1       0.083  18.202   1.631  1.00  0.00     0.031 C 
ATOM     55  C   UNL     1      -4.094  18.488  -2.781  1.00  0.00     0.029 A 
ATOM     56  C   UNL     1      -3.046  18.057  -1.980  1.00  0.00     0.049 A 
ATOM     57  H   UNL     1      -1.856  16.327  -2.173  1.00  0.00     0.167 HD
ATOM     58  C   UNL     1      -1.472  18.204  -0.058  1.00  0.00     0.074 A 
ATOM     59  C   UNL     1      -0.942  18.868   1.116  1.00  0.00     0.031 C 
ATOM     60  C   UNL     1      -2.494  18.686  -0.808  1.00  0.00     0.037 A 
BRANCH  47  61
ATOM     61  C   UNL     1      -3.991  15.171  -5.674  1.00  0.00     0.064 A 
ATOM     62  C   UNL     1      -4.945  14.143  -5.716  1.00  0.00     0.173 A 
ATOM     63  C   UNL     1      -3.848  15.983  -6.808  1.00  0.00     0.173 A 
ATOM     64  F   UNL     1      -5.098  13.321  -4.667  1.00  0.00    -0.203 F 
ATOM     65  C   UNL     1      -5.708  13.922  -6.859  1.00  0.00     0.198 A 
ATOM     66  C   UNL     1      -4.630  15.775  -7.941  1.00  0.00     0.198 A 
ATOM     67  F   UNL     1      -2.942  16.973  -6.821  1.00  0.00    -0.203 F 
ATOM     68  F   UNL     1      -6.578  12.903  -6.896  1.00  0.00    -0.200 F 
ATOM     69  C   UNL     1      -5.554  14.741  -7.968  1.00  0.00     0.200 A 
ATOM     70  F   UNL     1      -4.481  16.567  -9.011  1.00  0.00    -0.200 F 
ATOM     71  F   UNL     1      -6.287  14.525  -9.069  1.00  0.00    -0.200 F 
ENDBRANCH  47  61
BRANCH  48  72
ATOM     72  C   UNL     1       2.115  16.167   2.228  1.00  0.00     0.064 A 
ATOM     73  C   UNL     1       1.642  16.088   3.545  1.00  0.00     0.173 A 
ATOM     74  C   UNL     1       3.480  16.431   2.040  1.00  0.00     0.173 A 
ATOM     75  F   UNL     1       0.340  15.866   3.776  1.00  0.00    -0.203 F 
ATOM     76  C   UNL     1       2.497  16.281   4.629  1.00  0.00     0.198 A 
ATOM     77  C   UNL     1       4.338  16.599   3.125  1.00  0.00     0.198 A 
ATOM     78  F   UNL     1       3.982  16.523   0.800  1.00  0.00    -0.203 F 
ATOM     79  F   UNL     1       2.010  16.245   5.877  1.00  0.00    -0.200 F 
ATOM     80  C   UNL     1       3.845  16.531   4.419  1.00  0.00     0.200 A 
ATOM     81  F   UNL     1       5.641  16.833   2.917  1.00  0.00    -0.200 F 
ATOM     82  F   UNL     1       4.665  16.716   5.462  1.00  0.00    -0.200 F 
ENDBRANCH  48  72
BRANCH  60  83
ATOM     83  C   UNL     1      -3.115  19.976  -0.364  1.00  0.00     0.064 A 
ATOM     84  C   UNL     1      -2.463  21.204  -0.545  1.00  0.00     0.173 A 
ATOM     85  C   UNL     1      -4.399  19.986   0.202  1.00  0.00     0.173 A 
ATOM     86  F   UNL     1      -1.229  21.242  -1.071  1.00  0.00    -0.203 F 
ATOM     87  C   UNL     1      -3.065  22.395  -0.154  1.00  0.00     0.198 A 
ATOM     88  C   UNL     1      -5.009  21.181   0.568  1.00  0.00     0.198 A 
ATOM     89  F   UNL     1      -5.065  18.837   0.386  1.00  0.00    -0.203 F 
ATOM     90  F   UNL     1      -2.409  23.555  -0.297  1.00  0.00    -0.200 F 
ATOM     91  C   UNL     1      -4.340  22.384   0.395  1.00  0.00     0.200 A 
ATOM     92  F   UNL     1      -6.245  21.170   1.085  1.00  0.00    -0.200 F 
ATOM     93  F   UNL     1      -4.921  23.533   0.765  1.00  0.00    -0.200 F 
ENDBRANCH  60  83
ENDBRANCH  34  35
ENDBRANCH  27  29
ENDBRANCH  26  27
ENDBRANCH  25  26
ENDBRANCH  24  25
ENDBRANCH   1  24
TORSDOF 18
