REMARK SMILES COCCCC(=O)N[C@H]1CC[C@@H](C(=O)OCCOC(=O)c2ccc(-c3c4nc(c(-c5c(F)c(F)c(F)c(F)c5F)c5ccc([nH]5)c(-c5c(F)c(F)c(F)c(F)c5F)c5nc(c(-c6c(F)c(F)c(F)c(F)c6F)c6ccc3[nH]6)C=C5)C=C4)cc2)CC1
REMARK SMILES IDX 15 1 13 2 14 3 12 4 9 5 10 6 85 7 11 8 84 9 8 10 6 11 7 12
REMARK SMILES IDX 5 14 4 15 3 16 2 17 1 18 16 19 17 20 18 21 19 22 20 23 21 24
REMARK SMILES IDX 22 25 83 26 23 27 82 28 24 29 25 30 26 31 76 32 27 33 81 34
REMARK SMILES IDX 75 35 77 36 28 37 80 38 74 39 73 40 29 42 61 43 41 44 60 45
REMARK SMILES IDX 42 46 45 47 59 48 78 49 43 50 44 51 58 53 79 54 46 55 30 56
REMARK SMILES IDX 31 57 39 58 32 59 33 60 37 61 40 62 34 63 35 64 38 65 36 66
REMARK SMILES IDX 62 67 63 68 71 69 64 70 65 71 69 72 72 73 66 74 67 75 70 76
REMARK SMILES IDX 68 77 47 78 48 79 56 80 49 81 50 82 54 83 57 84 51 85 52 86
REMARK SMILES IDX 55 87 53 88
REMARK H PARENT 8 13 77 41 45 52
REMARK Flexibility Score: inf
ROOT
ATOM      1  O   UNL     1       3.074  -2.274   1.929  1.00  0.00    -0.462 OA
ENDROOT
BRANCH   1   2
ATOM      2  C   UNL     1       2.925  -3.402   1.194  1.00  0.00     0.309 C 
ATOM      3  O   UNL     1       3.135  -4.538   1.599  1.00  0.00    -0.252 OA
BRANCH   2   4
ATOM      4  C   UNL     1       2.446  -3.100  -0.224  1.00  0.00     0.099 C 
ATOM      5  C   UNL     1       2.976  -0.347  -1.323  1.00  0.00     0.082 C 
ATOM      6  C   UNL     1       4.100  -1.403  -1.218  1.00  0.00     0.026 C 
ATOM      7  C   UNL     1       1.995  -0.593  -0.187  1.00  0.00     0.026 C 
ATOM      8  C   UNL     1       3.588  -2.846  -1.208  1.00  0.00     0.017 C 
ATOM      9  C   UNL     1       1.398  -1.992  -0.286  1.00  0.00     0.017 C 
BRANCH   5  10
ATOM     10  N   UNL     1       3.566   0.989  -1.323  1.00  0.00    -0.353 N 
ATOM     11  C   UNL     1       3.044   2.242  -1.371  1.00  0.00     0.220 C 
ATOM     12  O   UNL     1       3.827   3.162  -1.627  1.00  0.00    -0.275 OA
ATOM     13  H   UNL     1       4.549   0.980  -1.279  1.00  0.00     0.163 HD
BRANCH  11  14
ATOM     14  C   UNL     1       1.589   2.545  -1.070  1.00  0.00     0.102 C 
BRANCH  14  15
ATOM     15  C   UNL     1       0.625   2.326  -2.237  1.00  0.00     0.038 C 
BRANCH  15  16
ATOM     16  C   UNL     1      -0.399   1.194  -2.108  1.00  0.00     0.160 C 
BRANCH  16  17
ATOM     17  O   UNL     1      -1.479   1.554  -1.252  1.00  0.00    -0.385 OA
ATOM     18  C   UNL     1      -1.396   1.075   0.081  1.00  0.00     0.194 C 
ENDBRANCH  16  17
ENDBRANCH  15  16
ENDBRANCH  14  15
ENDBRANCH  11  14
ENDBRANCH   5  10
ENDBRANCH   2   4
ENDBRANCH   1   2
BRANCH   1  19
ATOM     19  C   UNL     1       3.377  -2.403   3.330  1.00  0.00     0.274 C 
BRANCH  19  20
ATOM     20  C   UNL     1       2.131  -2.107   4.167  1.00  0.00     0.275 C 
BRANCH  20  21
ATOM     21  O   UNL     1       1.171  -3.170   4.015  1.00  0.00    -0.458 OA
BRANCH  21  22
ATOM     22  C   UNL     1       0.098  -2.892   3.240  1.00  0.00     0.338 C 
ATOM     23  O   UNL     1      -0.200  -1.829   2.727  1.00  0.00    -0.246 OA
BRANCH  22  24
ATOM     24  C   UNL     1      -0.630  -4.145   2.985  1.00  0.00     0.060 A 
ATOM     25  C   UNL     1      -0.674  -4.642   1.679  1.00  0.00     0.016 A 
ATOM     26  C   UNL     1      -1.303  -4.800   4.016  1.00  0.00     0.016 A 
ATOM     27  C   UNL     1      -1.396  -5.798   1.395  1.00  0.00     0.010 A 
ATOM     28  C   UNL     1      -2.023  -5.963   3.732  1.00  0.00     0.010 A 
ATOM     29  C   UNL     1      -2.080  -6.463   2.419  1.00  0.00    -0.014 A 
BRANCH  29  30
ATOM     30  C   UNL     1      -2.895  -7.660   2.106  1.00  0.00     0.031 A 
ATOM     31  C   UNL     1      -4.391  -7.553   2.079  1.00  0.00     0.074 A 
ATOM     32  C   UNL     1      -2.291  -8.832   1.840  1.00  0.00     0.049 A 
ATOM     33  N   UNL     1      -5.287  -8.493   1.915  1.00  0.00    -0.248 NA
ATOM     34  C   UNL     1      -4.955  -6.207   2.263  1.00  0.00     0.031 C 
ATOM     35  C   UNL     1      -0.845  -9.043   1.797  1.00  0.00     0.029 A 
ATOM     36  N   UNL     1      -2.821 -10.067   1.565  1.00  0.00    -0.354 N 
ATOM     37  C   UNL     1      -6.519  -7.858   1.994  1.00  0.00     0.074 A 
ATOM     38  C   UNL     1      -6.257  -6.455   2.239  1.00  0.00     0.031 C 
ATOM     39  C   UNL     1      -0.601 -10.334   1.517  1.00  0.00     0.029 A 
ATOM     40  C   UNL     1      -1.872 -11.046   1.407  1.00  0.00     0.049 A 
ATOM     41  H   UNL     1      -3.788 -10.235   1.489  1.00  0.00     0.167 HD
ATOM     42  C   UNL     1      -7.754  -8.399   1.870  1.00  0.00     0.037 A 
ATOM     43  C   UNL     1      -2.015 -12.373   1.224  1.00  0.00     0.037 A 
ATOM     44  C   UNL     1      -8.005  -9.794   1.617  1.00  0.00     0.049 A 
ATOM     45  C   UNL     1      -3.400 -12.958   1.150  1.00  0.00     0.074 A 
ATOM     46  C   UNL     1      -9.219 -10.439   1.461  1.00  0.00     0.029 A 
ATOM     47  N   UNL     1      -7.019 -10.762   1.486  1.00  0.00    -0.354 N 
ATOM     48  N   UNL     1      -4.560 -12.352   1.222  1.00  0.00    -0.248 NA
ATOM     49  C   UNL     1      -3.494 -14.414   0.973  1.00  0.00     0.031 C 
ATOM     50  C   UNL     1      -8.970 -11.804   1.281  1.00  0.00     0.029 A 
ATOM     51  C   UNL     1      -7.599 -12.002   1.273  1.00  0.00     0.049 A 
ATOM     52  H   UNL     1      -6.050 -10.592   1.536  1.00  0.00     0.167 HD
ATOM     53  C   UNL     1      -5.520 -13.344   1.075  1.00  0.00     0.074 A 
ATOM     54  C   UNL     1      -4.806 -14.591   0.896  1.00  0.00     0.031 C 
ATOM     55  C   UNL     1      -6.871 -13.232   1.089  1.00  0.00     0.037 A 
BRANCH  42  56
ATOM     56  C   UNL     1      -8.931  -7.484   2.037  1.00  0.00     0.064 A 
ATOM     57  C   UNL     1      -9.270  -6.531   1.066  1.00  0.00     0.173 A 
ATOM     58  C   UNL     1      -9.749  -7.584   3.173  1.00  0.00     0.173 A 
ATOM     59  F   UNL     1      -8.511  -6.385  -0.031  1.00  0.00    -0.203 F 
ATOM     60  C   UNL     1     -10.371  -5.695   1.237  1.00  0.00     0.198 A 
ATOM     61  C   UNL     1     -10.865  -6.765   3.328  1.00  0.00     0.198 A 
ATOM     62  F   UNL     1      -9.471  -8.481   4.130  1.00  0.00    -0.203 F 
ATOM     63  F   UNL     1     -10.650  -4.761   0.317  1.00  0.00    -0.200 F 
ATOM     64  C   UNL     1     -11.171  -5.817   2.363  1.00  0.00     0.200 A 
ATOM     65  F   UNL     1     -11.642  -6.893   4.412  1.00  0.00    -0.200 F 
ATOM     66  F   UNL     1     -12.233  -5.016   2.524  1.00  0.00    -0.200 F 
ENDBRANCH  42  56
BRANCH  43  67
ATOM     67  C   UNL     1      -0.813 -13.240   1.117  1.00  0.00     0.064 A 
ATOM     68  C   UNL     1      -0.481 -13.869  -0.090  1.00  0.00     0.173 A 
ATOM     69  C   UNL     1       0.022 -13.464   2.222  1.00  0.00     0.173 A 
ATOM     70  F   UNL     1      -1.264 -13.707  -1.167  1.00  0.00    -0.203 F 
ATOM     71  C   UNL     1       0.632 -14.702  -0.184  1.00  0.00     0.198 A 
ATOM     72  C   UNL     1       1.151 -14.273   2.118  1.00  0.00     0.198 A 
ATOM     73  F   UNL     1      -0.253 -12.887   3.401  1.00  0.00    -0.203 F 
ATOM     74  F   UNL     1       0.902 -15.327  -1.339  1.00  0.00    -0.200 F 
ATOM     75  C   UNL     1       1.451 -14.898   0.917  1.00  0.00     0.200 A 
ATOM     76  F   UNL     1       1.946 -14.451   3.183  1.00  0.00    -0.200 F 
ATOM     77  F   UNL     1       2.524 -15.695   0.824  1.00  0.00    -0.200 F 
ENDBRANCH  43  67
BRANCH  55  78
ATOM     78  C   UNL     1      -7.665 -14.487   0.868  1.00  0.00     0.064 A 
ATOM     79  C   UNL     1      -7.763 -15.479   1.854  1.00  0.00     0.173 A 
ATOM     80  C   UNL     1      -8.369 -14.678  -0.331  1.00  0.00     0.173 A 
ATOM     81  F   UNL     1      -7.096 -15.350   3.011  1.00  0.00    -0.203 F 
ATOM     82  C   UNL     1      -8.517 -16.630   1.638  1.00  0.00     0.198 A 
ATOM     83  C   UNL     1      -9.145 -15.816  -0.532  1.00  0.00     0.198 A 
ATOM     84  F   UNL     1      -8.313 -13.755  -1.303  1.00  0.00    -0.203 F 
ATOM     85  F   UNL     1      -8.560 -17.587   2.575  1.00  0.00    -0.200 F 
ATOM     86  C   UNL     1      -9.213 -16.794   0.449  1.00  0.00     0.200 A 
ATOM     87  F   UNL     1      -9.826 -15.967  -1.676  1.00  0.00    -0.200 F 
ATOM     88  F   UNL     1      -9.944 -17.898   0.245  1.00  0.00    -0.200 F 
ENDBRANCH  55  78
ENDBRANCH  29  30
ENDBRANCH  22  24
ENDBRANCH  21  22
ENDBRANCH  20  21
ENDBRANCH  19  20
ENDBRANCH   1  19
TORSDOF 16
