REMARK SMILES O=C(OCCOC(=O)c1sccc1NS(=O)(=O)N1CCCC1)c1ccc(-c2c3nc(c(-c4c(F)c(F)c(F)c(F)c4F)c4ccc([nH]4)c(-c4c(F)c(F)c(F)c(F)c4F)c4nc(c(-c5c(F)c(F)c(F)c(F)c5F)c5ccc2[nH]5)C=C4)C=C3)cc1
REMARK SMILES IDX 5 1 4 2 3 3 2 4 1 5 23 6 24 7 85 8 25 9 84 10 26 11 27 12
REMARK SMILES IDX 28 13 78 14 29 15 83 16 77 17 79 18 30 19 82 20 76 21 75 22
REMARK SMILES IDX 31 24 63 25 43 26 62 27 44 28 47 29 61 30 80 31 45 32 46 33
REMARK SMILES IDX 60 35 81 36 48 37 32 38 33 39 41 40 34 41 35 42 39 43 42 44
REMARK SMILES IDX 36 45 37 46 40 47 38 48 64 49 65 50 73 51 66 52 67 53 71 54
REMARK SMILES IDX 74 55 68 56 69 57 72 58 70 59 49 60 50 61 58 62 51 63 52 64
REMARK SMILES IDX 56 65 59 66 53 67 54 68 57 69 55 70 6 71 7 72 8 73 9 74
REMARK SMILES IDX 10 75 13 76 11 77 12 78 14 79 15 81 16 82 17 83 18 84 19 85
REMARK SMILES IDX 22 86 20 87 21 88
REMARK H PARENT 79 23 47 34 14 80
REMARK Flexibility Score: inf
ROOT
ATOM      1  C   UNL     1       4.198   1.031  -2.149  1.00  0.00     0.275 C 
ENDROOT
BRANCH   1   2
ATOM      2  C   UNL     1       4.084  -0.383  -1.563  1.00  0.00     0.275 C 
BRANCH   2   3
ATOM      3  O   UNL     1       2.892  -0.603  -0.787  1.00  0.00    -0.458 OA
BRANCH   3   4
ATOM      4  C   UNL     1       2.726  -0.535   0.556  1.00  0.00     0.338 C 
ATOM      5  O   UNL     1       1.794  -1.145   1.077  1.00  0.00    -0.246 OA
BRANCH   4   6
ATOM      6  C   UNL     1       3.521   0.385   1.428  1.00  0.00     0.060 A 
ATOM      7  C   UNL     1       4.870   0.698   1.261  1.00  0.00     0.016 A 
ATOM      8  C   UNL     1       2.851   0.938   2.538  1.00  0.00     0.016 A 
ATOM      9  C   UNL     1       5.527   1.547   2.150  1.00  0.00     0.010 A 
ATOM     10  C   UNL     1       3.501   1.803   3.427  1.00  0.00     0.010 A 
ATOM     11  C   UNL     1       4.855   2.099   3.243  1.00  0.00    -0.014 A 
BRANCH  11  12
ATOM     12  C   UNL     1       5.647   2.847   4.247  1.00  0.00     0.031 A 
ATOM     13  C   UNL     1       6.025   2.164   5.525  1.00  0.00     0.074 A 
ATOM     14  C   UNL     1       6.173   4.050   3.951  1.00  0.00     0.049 A 
ATOM     15  N   UNL     1       6.800   2.591   6.488  1.00  0.00    -0.248 NA
ATOM     16  C   UNL     1       5.507   0.802   5.722  1.00  0.00     0.031 C 
ATOM     17  C   UNL     1       6.011   4.744   2.679  1.00  0.00     0.029 A 
ATOM     18  N   UNL     1       6.973   4.889   4.683  1.00  0.00    -0.354 N 
ATOM     19  C   UNL     1       6.913   1.529   7.372  1.00  0.00     0.074 A 
ATOM     20  C   UNL     1       6.062   0.468   6.877  1.00  0.00     0.031 C 
ATOM     21  C   UNL     1       6.670   5.912   2.722  1.00  0.00     0.029 A 
ATOM     22  C   UNL     1       7.260   6.067   4.040  1.00  0.00     0.049 A 
ATOM     23  H   UNL     1       7.308   4.668   5.582  1.00  0.00     0.167 HD
ATOM     24  C   UNL     1       7.694   1.433   8.472  1.00  0.00     0.037 A 
ATOM     25  C   UNL     1       7.895   7.166   4.482  1.00  0.00     0.037 A 
ATOM     26  C   UNL     1       8.513   2.502   8.976  1.00  0.00     0.049 A 
ATOM     27  C   UNL     1       8.505   7.144   5.846  1.00  0.00     0.074 A 
ATOM     28  C   UNL     1       9.338   2.513  10.087  1.00  0.00     0.029 A 
ATOM     29  N   UNL     1       8.592   3.766   8.408  1.00  0.00    -0.354 N 
ATOM     30  N   UNL     1       8.566   6.155   6.701  1.00  0.00    -0.248 NA
ATOM     31  C   UNL     1       9.149   8.383   6.296  1.00  0.00     0.031 C 
ATOM     32  C   UNL     1       9.871   3.801  10.222  1.00  0.00     0.029 A 
ATOM     33  C   UNL     1       9.423   4.577   9.165  1.00  0.00     0.049 A 
ATOM     34  H   UNL     1       8.126   4.046   7.587  1.00  0.00     0.167 HD
ATOM     35  C   UNL     1       9.310   6.627   7.767  1.00  0.00     0.074 A 
ATOM     36  C   UNL     1       9.637   8.008   7.470  1.00  0.00     0.031 C 
ATOM     37  C   UNL     1       9.726   5.954   8.867  1.00  0.00     0.037 A 
BRANCH  24  38
ATOM     38  C   UNL     1       7.664   0.126   9.203  1.00  0.00     0.064 A 
ATOM     39  C   UNL     1       8.251  -1.031   8.665  1.00  0.00     0.173 A 
ATOM     40  C   UNL     1       7.010   0.018  10.438  1.00  0.00     0.173 A 
ATOM     41  F   UNL     1       8.866  -0.984   7.473  1.00  0.00    -0.203 F 
ATOM     42  C   UNL     1       8.155  -2.255   9.322  1.00  0.00     0.198 A 
ATOM     43  C   UNL     1       6.938  -1.202  11.104  1.00  0.00     0.198 A 
ATOM     44  F   UNL     1       6.427   1.093  10.989  1.00  0.00    -0.203 F 
ATOM     45  F   UNL     1       8.670  -3.358   8.761  1.00  0.00    -0.200 F 
ATOM     46  C   UNL     1       7.501  -2.338  10.542  1.00  0.00     0.200 A 
ATOM     47  F   UNL     1       6.308  -1.282  12.284  1.00  0.00    -0.200 F 
ATOM     48  F   UNL     1       7.399  -3.518  11.169  1.00  0.00    -0.200 F 
ENDBRANCH  24  38
BRANCH  25  49
ATOM     49  C   UNL     1       7.884   8.411   3.681  1.00  0.00     0.064 A 
ATOM     50  C   UNL     1       8.970   8.826   2.907  1.00  0.00     0.173 A 
ATOM     51  C   UNL     1       6.759   9.245   3.739  1.00  0.00     0.173 A 
ATOM     52  F   UNL     1      10.084   8.082   2.862  1.00  0.00    -0.203 F 
ATOM     53  C   UNL     1       8.929  10.037   2.214  1.00  0.00     0.198 A 
ATOM     54  C   UNL     1       6.710  10.442   3.034  1.00  0.00     0.198 A 
ATOM     55  F   UNL     1       5.721   8.900   4.514  1.00  0.00    -0.203 F 
ATOM     56  F   UNL     1       9.995  10.441   1.510  1.00  0.00    -0.200 F 
ATOM     57  C   UNL     1       7.797  10.840   2.273  1.00  0.00     0.200 A 
ATOM     58  F   UNL     1       5.618  11.216   3.109  1.00  0.00    -0.200 F 
ATOM     59  F   UNL     1       7.764  12.009   1.619  1.00  0.00    -0.200 F 
ENDBRANCH  25  49
BRANCH  37  60
ATOM     60  C   UNL     1      10.660   6.690   9.776  1.00  0.00     0.064 A 
ATOM     61  C   UNL     1      10.226   7.729  10.610  1.00  0.00     0.173 A 
ATOM     62  C   UNL     1      12.026   6.368   9.774  1.00  0.00     0.173 A 
ATOM     63  F   UNL     1       8.935   8.094  10.618  1.00  0.00    -0.203 F 
ATOM     64  C   UNL     1      11.135   8.444  11.385  1.00  0.00     0.198 A 
ATOM     65  C   UNL     1      12.925   7.064  10.572  1.00  0.00     0.198 A 
ATOM     66  F   UNL     1      12.487   5.386   8.985  1.00  0.00    -0.203 F 
ATOM     67  F   UNL     1      10.713   9.480  12.123  1.00  0.00    -0.200 F 
ATOM     68  C   UNL     1      12.482   8.109  11.368  1.00  0.00     0.200 A 
ATOM     69  F   UNL     1      14.224   6.736  10.557  1.00  0.00    -0.200 F 
ATOM     70  F   UNL     1      13.356   8.806  12.106  1.00  0.00    -0.200 F 
ENDBRANCH  37  60
ENDBRANCH  11  12
ENDBRANCH   4   6
ENDBRANCH   3   4
ENDBRANCH   2   3
ENDBRANCH   1   2
BRANCH   1  71
ATOM     71  O   UNL     1       3.713   2.058  -1.263  1.00  0.00    -0.458 OA
BRANCH  71  72
ATOM     72  C   UNL     1       2.384   2.359  -1.429  1.00  0.00     0.350 C 
ATOM     73  O   UNL     1       1.705   1.943  -2.361  1.00  0.00    -0.245 OA
BRANCH  72  74
ATOM     74  C   UNL     1       1.892   3.100  -0.288  1.00  0.00     0.136 A 
ATOM     75  S   UNL     1       0.334   2.644   0.294  1.00  0.00    -0.135 S 
ATOM     76  C   UNL     1       2.431   4.137   0.462  1.00  0.00     0.075 A 
ATOM     77  C   UNL     1       0.461   3.667   1.644  1.00  0.00     0.068 A 
ATOM     78  C   UNL     1       1.615   4.409   1.605  1.00  0.00     0.039 A 
BRANCH  76  79
ATOM     79  N   UNL     1       3.655   4.815   0.242  1.00  0.00    -0.269 N 
ATOM     80  H   UNL     1       4.505   4.325   0.330  1.00  0.00     0.181 HD
BRANCH  79  81
ATOM     81  S   UNL     1       3.674   6.458  -0.170  1.00  0.00     0.301 S 
ATOM     82  O   UNL     1       5.054   6.888  -0.127  1.00  0.00    -0.189 OA
ATOM     83  O   UNL     1       2.913   6.575  -1.392  1.00  0.00    -0.189 OA
BRANCH  81  84
ATOM     84  N   UNL     1       2.841   7.244   1.065  1.00  0.00    -0.185 NA
ATOM     85  C   UNL     1       2.313   8.595   0.691  1.00  0.00     0.104 C 
ATOM     86  C   UNL     1       3.502   7.388   2.396  1.00  0.00     0.104 C 
ATOM     87  C   UNL     1       2.913   9.554   1.708  1.00  0.00     0.018 C 
ATOM     88  C   UNL     1       2.954   8.697   2.952  1.00  0.00     0.018 C 
ENDBRANCH  81  84
ENDBRANCH  79  81
ENDBRANCH  76  79
ENDBRANCH  72  74
ENDBRANCH  71  72
ENDBRANCH   1  71
TORSDOF 14
