REMARK SMILES CC(C)=Cc1c(C(=O)OCCOC(=O)c2ccc(-c3c4nc(c(-c5c(F)c(F)c(F)c(F)c5F)c5ccc([nH]5)c(-c5c(F)c(F)c(F)c(F)c5F)c5nc(c(-c6c(F)c(F)c(F)c(F)c6F)c6ccc3[nH]6)C=C5)C=C4)cc2)nnn1-c1ccc(C(C)C)cc1
REMARK SMILES IDX 10 1 9 2 7 3 8 4 6 5 5 6 80 7 78 8 79 9 4 10 1 11 2 12 3 13
REMARK SMILES IDX 81 14 82 15 89 16 83 17 88 18 84 19 85 20 86 21 87 22 11 23
REMARK SMILES IDX 12 24 13 25 14 26 15 27 16 28 77 29 17 30 76 31 18 32 19 33
REMARK SMILES IDX 20 34 70 35 21 36 75 37 69 38 71 39 22 40 74 41 68 42 67 43
REMARK SMILES IDX 23 45 55 46 35 47 54 48 36 49 39 50 53 51 72 52 37 53 38 54
REMARK SMILES IDX 52 56 73 57 40 58 24 59 25 60 33 61 26 62 27 63 31 64 34 65
REMARK SMILES IDX 28 66 29 67 32 68 30 69 56 70 57 71 65 72 58 73 59 74 63 75
REMARK SMILES IDX 66 76 60 77 61 78 64 79 62 80 41 81 42 82 50 83 43 84 44 85
REMARK SMILES IDX 48 86 51 87 45 88 46 89 49 90 47 91
REMARK H PARENT 71 44 39 55
REMARK Flexibility Score: inf
ROOT
ATOM      1  C   UNL     1      -1.223   6.029  -0.483  1.00  0.00     0.275 C 
ENDROOT
BRANCH   1   2
ATOM      2  O   UNL     1      -0.178   5.043  -0.492  1.00  0.00    -0.457 OA
BRANCH   2   3
ATOM      3  C   UNL     1       0.932   5.340   0.254  1.00  0.00     0.361 C 
ATOM      4  O   UNL     1       1.157   6.456   0.717  1.00  0.00    -0.244 OA
BRANCH   3   5
ATOM      5  C   UNL     1       1.782   4.187   0.513  1.00  0.00     0.198 A 
ATOM      6  C   UNL     1       1.813   2.950  -0.120  1.00  0.00     0.102 A 
ATOM      7  N   UNL     1       2.885   2.310   0.497  1.00  0.00    -0.213 N 
ATOM      8  N   UNL     1       2.663   4.172   1.571  1.00  0.00    -0.122 NA
ATOM      9  N   UNL     1       3.241   2.983   1.617  1.00  0.00    -0.061 NA
BRANCH   6  10
ATOM     10  C   UNL     1       1.044   2.373  -1.168  1.00  0.00     0.030 C 
ATOM     11  C   UNL     1       0.545   0.128  -0.038  1.00  0.00     0.039 C 
ATOM     12  C   UNL     1       0.490   1.142  -1.153  1.00  0.00    -0.074 C 
ATOM     13  C   UNL     1      -0.300   0.678  -2.351  1.00  0.00     0.039 C 
ENDBRANCH   6  10
BRANCH   7  14
ATOM     14  C   UNL     1       3.628   1.186   0.074  1.00  0.00     0.067 A 
ATOM     15  C   UNL     1       4.078   0.260   1.019  1.00  0.00     0.029 A 
ATOM     16  C   UNL     1       3.873   0.985  -1.288  1.00  0.00     0.029 A 
ATOM     17  C   UNL     1       4.683  -0.921   0.582  1.00  0.00     0.006 A 
ATOM     18  C   UNL     1       4.515  -0.175  -1.711  1.00  0.00     0.006 A 
ATOM     19  C   UNL     1       4.900  -1.155  -0.786  1.00  0.00    -0.045 A 
BRANCH  19  20
ATOM     20  C   UNL     1       5.478  -2.461  -1.299  1.00  0.00     0.013 C 
ATOM     21  C   UNL     1       6.773  -2.855  -0.590  1.00  0.00     0.012 C 
ATOM     22  C   UNL     1       4.432  -3.574  -1.203  1.00  0.00     0.012 C 
ENDBRANCH  19  20
ENDBRANCH   7  14
ENDBRANCH   3   5
ENDBRANCH   2   3
ENDBRANCH   1   2
BRANCH   1  23
ATOM     23  C   UNL     1      -2.174   5.824   0.691  1.00  0.00     0.275 C 
BRANCH  23  24
ATOM     24  O   UNL     1      -1.548   6.130   1.937  1.00  0.00    -0.458 OA
BRANCH  24  25
ATOM     25  C   UNL     1      -1.013   5.066   2.579  1.00  0.00     0.338 C 
ATOM     26  O   UNL     1      -0.776   3.967   2.106  1.00  0.00    -0.246 OA
BRANCH  25  27
ATOM     27  C   UNL     1      -0.973   5.337   4.019  1.00  0.00     0.060 A 
ATOM     28  C   UNL     1      -0.348   4.388   4.836  1.00  0.00     0.016 A 
ATOM     29  C   UNL     1      -1.808   6.332   4.545  1.00  0.00     0.016 A 
ATOM     30  C   UNL     1      -0.695   4.333   6.170  1.00  0.00     0.010 A 
ATOM     31  C   UNL     1      -2.171   6.261   5.868  1.00  0.00     0.010 A 
ATOM     32  C   UNL     1      -1.663   5.221   6.647  1.00  0.00    -0.014 A 
BRANCH  32  33
ATOM     33  C   UNL     1      -2.116   5.083   8.016  1.00  0.00     0.031 A 
ATOM     34  C   UNL     1      -1.191   5.644   9.029  1.00  0.00     0.074 A 
ATOM     35  C   UNL     1      -3.361   4.652   8.294  1.00  0.00     0.049 A 
ATOM     36  N   UNL     1      -0.690   5.066  10.070  1.00  0.00    -0.248 NA
ATOM     37  C   UNL     1      -0.687   7.009   8.798  1.00  0.00     0.031 C 
ATOM     38  C   UNL     1      -4.450   4.388   7.348  1.00  0.00     0.029 A 
ATOM     39  N   UNL     1      -3.955   4.485   9.505  1.00  0.00    -0.354 N 
ATOM     40  C   UNL     1       0.068   6.042  10.714  1.00  0.00     0.074 A 
ATOM     41  C   UNL     1       0.160   7.157   9.814  1.00  0.00     0.031 C 
ATOM     42  C   UNL     1      -5.616   4.314   8.027  1.00  0.00     0.029 A 
ATOM     43  C   UNL     1      -5.339   4.416   9.450  1.00  0.00     0.049 A 
ATOM     44  H   UNL     1      -3.449   4.419  10.346  1.00  0.00     0.167 HD
ATOM     45  C   UNL     1       0.351   5.952  12.041  1.00  0.00     0.037 A 
ATOM     46  C   UNL     1      -6.189   4.536  10.499  1.00  0.00     0.037 A 
ATOM     47  C   UNL     1       0.275   4.588  12.498  1.00  0.00     0.049 A 
ATOM     48  C   UNL     1      -5.404   4.315  11.741  1.00  0.00     0.074 A 
ATOM     49  C   UNL     1       0.921   3.415  12.155  1.00  0.00     0.029 A 
ATOM     50  N   UNL     1      -0.818   4.201  13.233  1.00  0.00    -0.354 N 
ATOM     51  N   UNL     1      -4.894   3.169  12.096  1.00  0.00    -0.248 NA
ATOM     52  C   UNL     1      -4.824   5.482  12.392  1.00  0.00     0.031 C 
ATOM     53  C   UNL     1      -0.064   2.393  12.285  1.00  0.00     0.029 A 
ATOM     54  C   UNL     1      -1.239   2.998  12.732  1.00  0.00     0.049 A 
ATOM     55  H   UNL     1      -1.223   4.696  13.981  1.00  0.00     0.167 HD
ATOM     56  C   UNL     1      -3.675   3.488  12.676  1.00  0.00     0.074 A 
ATOM     57  C   UNL     1      -3.734   4.924  12.925  1.00  0.00     0.031 C 
ATOM     58  C   UNL     1      -2.627   2.614  12.637  1.00  0.00     0.037 A 
BRANCH  45  59
ATOM     59  C   UNL     1       0.302   7.136  12.983  1.00  0.00     0.064 A 
ATOM     60  C   UNL     1       0.633   6.934  14.339  1.00  0.00     0.173 A 
ATOM     61  C   UNL     1      -0.349   8.359  12.698  1.00  0.00     0.173 A 
ATOM     62  F   UNL     1       1.256   5.813  14.732  1.00  0.00    -0.203 F 
ATOM     63  C   UNL     1       0.234   7.826  15.338  1.00  0.00     0.198 A 
ATOM     64  C   UNL     1      -0.696   9.271  13.692  1.00  0.00     0.198 A 
ATOM     65  F   UNL     1      -0.777   8.681  11.473  1.00  0.00    -0.203 F 
ATOM     66  F   UNL     1       0.439   7.514  16.624  1.00  0.00    -0.200 F 
ATOM     67  C   UNL     1      -0.443   8.986  15.015  1.00  0.00     0.200 A 
ATOM     68  F   UNL     1      -1.359  10.387  13.357  1.00  0.00    -0.200 F 
ATOM     69  F   UNL     1      -0.894   9.803  15.975  1.00  0.00    -0.200 F 
ENDBRANCH  45  59
BRANCH  46  70
ATOM     70  C   UNL     1      -7.545   5.133  10.509  1.00  0.00     0.064 A 
ATOM     71  C   UNL     1      -8.428   4.909  11.578  1.00  0.00     0.173 A 
ATOM     72  C   UNL     1      -7.915   6.142   9.597  1.00  0.00     0.173 A 
ATOM     73  F   UNL     1      -8.129   4.002  12.520  1.00  0.00    -0.203 F 
ATOM     74  C   UNL     1      -9.599   5.658  11.732  1.00  0.00     0.198 A 
ATOM     75  C   UNL     1      -9.090   6.879   9.743  1.00  0.00     0.198 A 
ATOM     76  F   UNL     1      -7.099   6.501   8.595  1.00  0.00    -0.203 F 
ATOM     77  F   UNL     1     -10.386   5.457  12.799  1.00  0.00    -0.200 F 
ATOM     78  C   UNL     1      -9.926   6.646  10.818  1.00  0.00     0.200 A 
ATOM     79  F   UNL     1      -9.375   7.856   8.870  1.00  0.00    -0.200 F 
ATOM     80  F   UNL     1     -11.020   7.400  10.994  1.00  0.00    -0.200 F 
ENDBRANCH  46  70
BRANCH  58  81
ATOM     81  C   UNL     1      -2.911   1.206  12.200  1.00  0.00     0.064 A 
ATOM     82  C   UNL     1      -3.363   0.866  10.913  1.00  0.00     0.173 A 
ATOM     83  C   UNL     1      -2.577   0.155  13.065  1.00  0.00     0.173 A 
ATOM     84  F   UNL     1      -3.600   1.810   9.995  1.00  0.00    -0.203 F 
ATOM     85  C   UNL     1      -3.521  -0.464  10.530  1.00  0.00     0.198 A 
ATOM     86  C   UNL     1      -2.700  -1.173  12.667  1.00  0.00     0.198 A 
ATOM     87  F   UNL     1      -2.083   0.420  14.285  1.00  0.00    -0.203 F 
ATOM     88  F   UNL     1      -3.968  -0.761   9.301  1.00  0.00    -0.200 F 
ATOM     89  C   UNL     1      -3.182  -1.482  11.405  1.00  0.00     0.200 A 
ATOM     90  F   UNL     1      -2.323  -2.155  13.498  1.00  0.00    -0.200 F 
ATOM     91  F   UNL     1      -3.294  -2.762  11.023  1.00  0.00    -0.200 F 
ENDBRANCH  58  81
ENDBRANCH  32  33
ENDBRANCH  25  27
ENDBRANCH  24  25
ENDBRANCH  23  24
ENDBRANCH   1  23
TORSDOF 14
