REMARK SMILES COC(=O)C1CCN(C(=O)N[C@@H]2C=C[C@H](C(=O)OCCOC(=O)c3ccc(-c4c5nc(c(-c6c(F)c(F)c(F)c(F)c6F)c6ccc([nH]6)c(-c6c(F)c(F)c(F)c(F)c6F)c6nc(c(-c7c(F)c(F)c(F)c(F)c7F)c7ccc4[nH]7)C=C6)C=C5)cc3)C2)CC1
REMARK SMILES IDX 19 1 18 2 16 3 17 4 15 5 12 6 13 7 87 8 14 9 11 10 5 11 6 12
REMARK SMILES IDX 89 13 7 14 88 15 8 16 9 17 10 18 3 20 4 21 2 22 1 23 20 24
REMARK SMILES IDX 21 25 22 26 23 27 24 28 25 29 86 30 26 31 85 32 27 33 28 34
REMARK SMILES IDX 29 35 79 36 30 37 84 38 78 39 80 40 31 41 83 42 77 43 76 44
REMARK SMILES IDX 32 46 64 47 44 48 63 49 45 50 48 51 62 52 81 53 46 54 47 55
REMARK SMILES IDX 61 57 82 58 49 59 33 60 34 61 42 62 35 63 36 64 40 65 43 66
REMARK SMILES IDX 37 67 38 68 41 69 39 70 65 71 66 72 74 73 67 74 68 75 72 76
REMARK SMILES IDX 75 77 69 78 70 79 73 80 71 81 50 82 51 83 59 84 52 85 53 86
REMARK SMILES IDX 57 87 60 88 54 89 55 90 58 91 56 92
REMARK H PARENT 11 19 80 45 48 56
REMARK Flexibility Score: inf
ROOT
ATOM      1  C   UNL     1      -4.104   3.350   5.667  1.00  0.00     0.274 C 
ENDROOT
BRANCH   1   2
ATOM      2  O   UNL     1      -2.982   3.602   4.805  1.00  0.00    -0.462 OA
BRANCH   2   3
ATOM      3  C   UNL     1      -2.731   4.906   4.503  1.00  0.00     0.312 C 
ATOM      4  O   UNL     1      -3.493   5.840   4.714  1.00  0.00    -0.252 OA
BRANCH   3   5
ATOM      5  C   UNL     1      -1.320   5.042   3.954  1.00  0.00     0.124 C 
ATOM      6  C   UNL     1      -0.823   6.976   2.510  1.00  0.00     0.107 C 
ATOM      7  C   UNL     1      -0.907   5.695   1.743  1.00  0.00    -0.006 C 
ATOM      8  C   UNL     1      -0.839   6.503   3.966  1.00  0.00     0.048 C 
ATOM      9  C   UNL     1      -1.202   4.649   2.519  1.00  0.00    -0.014 C 
BRANCH   6  10
ATOM     10  N   UNL     1      -1.967   7.768   2.142  1.00  0.00    -0.332 N 
ATOM     11  C   UNL     1       0.039   9.672  -2.247  1.00  0.00     0.102 C 
ATOM     12  C   UNL     1      -1.323  10.278  -1.895  1.00  0.00     0.037 C 
ATOM     13  C   UNL     1       0.282   8.404  -1.439  1.00  0.00     0.037 C 
ATOM     14  C   UNL     1      -1.553  10.413  -0.388  1.00  0.00     0.122 C 
ATOM     15  C   UNL     1       0.071   8.635   0.053  1.00  0.00     0.122 C 
ATOM     16  N   UNL     1      -1.256   9.173   0.339  1.00  0.00    -0.325 N 
ATOM     17  C   UNL     1      -2.199   8.736   1.235  1.00  0.00     0.317 C 
ATOM     18  O   UNL     1      -3.333   9.225   1.276  1.00  0.00    -0.249 OA
ATOM     19  H   UNL     1      -2.765   7.551   2.677  1.00  0.00     0.165 HD
BRANCH  11  20
ATOM     20  C   UNL     1       1.191  10.641  -2.036  1.00  0.00     0.308 C 
ATOM     21  O   UNL     1       1.158  11.635  -1.326  1.00  0.00    -0.252 OA
BRANCH  20  22
ATOM     22  O   UNL     1       2.288  10.199  -2.715  1.00  0.00    -0.469 OA
ATOM     23  C   UNL     1       3.471  10.975  -2.514  1.00  0.00     0.282 C 
ENDBRANCH  20  22
ENDBRANCH  11  20
ENDBRANCH   6  10
ENDBRANCH   3   5
ENDBRANCH   2   3
ENDBRANCH   1   2
BRANCH   1  24
ATOM     24  C   UNL     1      -3.605   2.916   7.049  1.00  0.00     0.275 C 
BRANCH  24  25
ATOM     25  O   UNL     1      -2.889   3.976   7.721  1.00  0.00    -0.458 OA
BRANCH  25  26
ATOM     26  C   UNL     1      -1.547   3.975   7.548  1.00  0.00     0.338 C 
ATOM     27  O   UNL     1      -0.890   3.179   6.889  1.00  0.00    -0.246 OA
BRANCH  26  28
ATOM     28  C   UNL     1      -0.943   5.174   8.160  1.00  0.00     0.060 A 
ATOM     29  C   UNL     1      -0.025   5.902   7.396  1.00  0.00     0.016 A 
ATOM     30  C   UNL     1      -1.208   5.552   9.478  1.00  0.00     0.016 A 
ATOM     31  C   UNL     1       0.603   7.028   7.923  1.00  0.00     0.010 A 
ATOM     32  C   UNL     1      -0.550   6.663  10.022  1.00  0.00     0.010 A 
ATOM     33  C   UNL     1       0.358   7.405   9.248  1.00  0.00    -0.014 A 
BRANCH  33  34
ATOM     34  C   UNL     1       1.127   8.528   9.834  1.00  0.00     0.031 A 
ATOM     35  C   UNL     1       2.374   8.242  10.617  1.00  0.00     0.074 A 
ATOM     36  C   UNL     1       0.736   9.798   9.625  1.00  0.00     0.049 A 
ATOM     37  N   UNL     1       3.173   9.072  11.238  1.00  0.00    -0.248 NA
ATOM     38  C   UNL     1       2.781   6.832  10.706  1.00  0.00     0.031 C 
ATOM     39  C   UNL     1      -0.415  10.204   8.823  1.00  0.00     0.029 A 
ATOM     40  N   UNL     1       1.272  10.980  10.071  1.00  0.00    -0.354 N 
ATOM     41  C   UNL     1       4.171   8.287  11.798  1.00  0.00     0.074 A 
ATOM     42  C   UNL     1       3.872   6.913  11.454  1.00  0.00     0.031 C 
ATOM     43  C   UNL     1      -0.506  11.545   8.839  1.00  0.00     0.029 A 
ATOM     44  C   UNL     1       0.558  12.086   9.683  1.00  0.00     0.049 A 
ATOM     45  H   UNL     1       2.089  11.030  10.618  1.00  0.00     0.167 HD
ATOM     46  C   UNL     1       5.239   8.679  12.533  1.00  0.00     0.037 A 
ATOM     47  C   UNL     1       0.732  13.385   9.995  1.00  0.00     0.037 A 
ATOM     48  C   UNL     1       5.534  10.046  12.875  1.00  0.00     0.049 A 
ATOM     49  C   UNL     1       1.876  13.784  10.890  1.00  0.00     0.074 A 
ATOM     50  C   UNL     1       6.599  10.542  13.608  1.00  0.00     0.029 A 
ATOM     51  N   UNL     1       4.756  11.135  12.513  1.00  0.00    -0.354 N 
ATOM     52  N   UNL     1       2.819  13.038  11.412  1.00  0.00    -0.248 NA
ATOM     53  C   UNL     1       1.976  15.208  11.243  1.00  0.00     0.031 C 
ATOM     54  C   UNL     1       6.439  11.927  13.729  1.00  0.00     0.029 A 
ATOM     55  C   UNL     1       5.301  12.299  13.032  1.00  0.00     0.049 A 
ATOM     56  H   UNL     1       3.937  11.089  11.968  1.00  0.00     0.167 HD
ATOM     57  C   UNL     1       3.636  13.901  12.130  1.00  0.00     0.074 A 
ATOM     58  C   UNL     1       3.085  15.230  11.969  1.00  0.00     0.031 C 
ATOM     59  C   UNL     1       4.745  13.617  12.856  1.00  0.00     0.037 A 
BRANCH  46  60
ATOM     60  C   UNL     1       6.148   7.607  13.053  1.00  0.00     0.064 A 
ATOM     61  C   UNL     1       7.036   6.919  12.213  1.00  0.00     0.173 A 
ATOM     62  C   UNL     1       6.150   7.285  14.419  1.00  0.00     0.173 A 
ATOM     63  F   UNL     1       7.060   7.181  10.898  1.00  0.00    -0.203 F 
ATOM     64  C   UNL     1       7.877   5.931  12.719  1.00  0.00     0.198 A 
ATOM     65  C   UNL     1       7.010   6.314  14.925  1.00  0.00     0.198 A 
ATOM     66  F   UNL     1       5.321   7.916  15.264  1.00  0.00    -0.203 F 
ATOM     67  F   UNL     1       8.688   5.256  11.892  1.00  0.00    -0.200 F 
ATOM     68  C   UNL     1       7.868   5.633  14.074  1.00  0.00     0.200 A 
ATOM     69  F   UNL     1       7.005   6.034  16.235  1.00  0.00    -0.200 F 
ATOM     70  F   UNL     1       8.680   4.684  14.559  1.00  0.00    -0.200 F 
ENDBRANCH  46  60
BRANCH  47  71
ATOM     71  C   UNL     1      -0.214  14.407   9.477  1.00  0.00     0.064 A 
ATOM     72  C   UNL     1       0.196  15.363   8.538  1.00  0.00     0.173 A 
ATOM     73  C   UNL     1      -1.541  14.465   9.931  1.00  0.00     0.173 A 
ATOM     74  F   UNL     1       1.464  15.368   8.099  1.00  0.00    -0.203 F 
ATOM     75  C   UNL     1      -0.679  16.347   8.084  1.00  0.00     0.198 A 
ATOM     76  C   UNL     1      -2.423  15.433   9.456  1.00  0.00     0.198 A 
ATOM     77  F   UNL     1      -1.980  13.579  10.837  1.00  0.00    -0.203 F 
ATOM     78  F   UNL     1      -0.247  17.279   7.223  1.00  0.00    -0.200 F 
ATOM     79  C   UNL     1      -1.989  16.378   8.538  1.00  0.00     0.200 A 
ATOM     80  F   UNL     1      -3.688  15.456   9.895  1.00  0.00    -0.200 F 
ATOM     81  F   UNL     1      -2.830  17.326   8.103  1.00  0.00    -0.200 F 
ENDBRANCH  47  71
BRANCH  59  82
ATOM     82  C   UNL     1       5.459  14.768  13.503  1.00  0.00     0.064 A 
ATOM     83  C   UNL     1       4.933  15.422  14.627  1.00  0.00     0.173 A 
ATOM     84  C   UNL     1       6.703  15.196  13.016  1.00  0.00     0.173 A 
ATOM     85  F   UNL     1       3.739  15.060  15.121  1.00  0.00    -0.203 F 
ATOM     86  C   UNL     1       5.617  16.476  15.226  1.00  0.00     0.198 A 
ATOM     87  C   UNL     1       7.397  16.232  13.634  1.00  0.00     0.198 A 
ATOM     88  F   UNL     1       7.252  14.599  11.947  1.00  0.00    -0.203 F 
ATOM     89  F   UNL     1       5.077  17.115  16.273  1.00  0.00    -0.200 F 
ATOM     90  C   UNL     1       6.851  16.876  14.734  1.00  0.00     0.200 A 
ATOM     91  F   UNL     1       8.595  16.609  13.165  1.00  0.00    -0.200 F 
ATOM     92  F   UNL     1       7.511  17.886  15.317  1.00  0.00    -0.200 F 
ENDBRANCH  59  82
ENDBRANCH  33  34
ENDBRANCH  26  28
ENDBRANCH  25  26
ENDBRANCH  24  25
ENDBRANCH   1  24
TORSDOF 14
