REMARK SMILES CC[C@H](C)[C@H](NC(=O)[C@H](C)Oc1ccc2c(C)c(C)c(=O)oc2c1C)C(=O)OCCOC(=O)c1ccc(-c2c3nc(c(-c4c(F)c(F)c(F)c(F)c4F)c4ccc([nH]4)c(-c4c(F)c(F)c(F)c(F)c4F)c4nc(c(-c5c(F)c(F)c(F)c(F)c5F)c5ccc2[nH]5)C=C4)C=C3)cc1
REMARK SMILES IDX 29 1 28 2 26 3 27 4 5 5 3 6 4 7 2 8 1 9 6 10 7 11 8 13 9 14
REMARK SMILES IDX 10 15 11 16 12 17 13 18 24 19 14 20 23 21 25 22 15 23 22 24
REMARK SMILES IDX 16 25 20 26 17 27 18 28 21 29 19 30 30 31 31 32 32 33 33 34
REMARK SMILES IDX 34 35 35 36 96 37 36 38 95 39 37 40 38 41 39 42 89 43 40 44
REMARK SMILES IDX 94 45 88 46 90 47 41 48 93 49 87 50 86 51 42 53 74 54 54 55
REMARK SMILES IDX 73 56 55 57 58 58 72 59 91 60 56 61 57 62 71 64 92 65 59 66
REMARK SMILES IDX 43 67 44 68 52 69 45 70 46 71 50 72 53 73 47 74 48 75 51 76
REMARK SMILES IDX 49 77 75 78 76 79 84 80 77 81 78 82 82 83 85 84 79 85 80 86
REMARK SMILES IDX 83 87 81 88 60 89 61 90 69 91 62 92 63 93 67 94 70 95 64 96
REMARK SMILES IDX 65 97 68 98 66 99
REMARK H PARENT 6 12 90 52 58 63
REMARK Flexibility Score: inf
ROOT
ATOM      1  C   UNL     1       1.078  -2.487   6.835  1.00  0.00     0.274 C 
ENDROOT
BRANCH   1   2
ATOM      2  O   UNL     1       1.566  -1.903   5.605  1.00  0.00    -0.461 OA
BRANCH   2   3
ATOM      3  C   UNL     1       2.881  -1.571   5.601  1.00  0.00     0.329 C 
ATOM      4  O   UNL     1       3.609  -1.651   6.586  1.00  0.00    -0.250 OA
BRANCH   3   5
ATOM      5  C   UNL     1       3.378  -0.980   4.267  1.00  0.00     0.195 C 
BRANCH   5   6
ATOM      6  C   UNL     1       3.783   0.530   4.479  1.00  0.00     0.019 C 
ATOM      7  C   UNL     1       3.411   1.138   5.847  1.00  0.00     0.010 C 
BRANCH   6   8
ATOM      8  C   UNL     1       5.297   0.749   4.261  1.00  0.00     0.002 C 
ATOM      9  C   UNL     1       5.737   0.522   2.823  1.00  0.00     0.004 C 
ENDBRANCH   6   8
ENDBRANCH   5   6
BRANCH   5  10
ATOM     10  N   UNL     1       2.519  -1.130   3.053  1.00  0.00    -0.339 N 
ATOM     11  C   UNL     1       2.679  -2.179   2.154  1.00  0.00     0.261 C 
ATOM     12  H   UNL     1       1.815  -0.462   2.883  1.00  0.00     0.164 HD
ATOM     13  O   UNL     1       3.494  -2.039   1.242  1.00  0.00    -0.271 OA
BRANCH  11  14
ATOM     14  C   UNL     1       1.633  -3.329   2.189  1.00  0.00     0.258 C 
ATOM     15  C   UNL     1       1.487  -3.985   3.542  1.00  0.00     0.064 C 
BRANCH  14  16
ATOM     16  O   UNL     1       1.627  -4.242   1.095  1.00  0.00    -0.480 OA
BRANCH  16  17
ATOM     17  C   UNL     1       2.315  -5.416   1.010  1.00  0.00     0.127 A 
ATOM     18  C   UNL     1       3.230  -5.909   1.938  1.00  0.00     0.047 A 
ATOM     19  C   UNL     1       2.053  -6.181  -0.142  1.00  0.00     0.035 A 
ATOM     20  C   UNL     1       3.900  -7.125   1.724  1.00  0.00     0.016 A 
ATOM     21  C   UNL     1       2.823  -7.338  -0.384  1.00  0.00     0.145 A 
ATOM     22  C   UNL     1       1.018  -5.750  -1.148  1.00  0.00     0.052 C 
ATOM     23  C   UNL     1       3.751  -7.832   0.528  1.00  0.00     0.021 A 
ATOM     24  O   UNL     1       2.656  -7.968  -1.633  1.00  0.00    -0.422 OA
ATOM     25  C   UNL     1       4.576  -9.001   0.163  1.00  0.00    -0.030 A 
ATOM     26  C   UNL     1       3.526  -8.947  -2.081  1.00  0.00     0.339 A 
ATOM     27  C   UNL     1       5.505  -9.563   1.209  1.00  0.00     0.045 C 
ATOM     28  C   UNL     1       4.511  -9.477  -1.099  1.00  0.00     0.038 A 
ATOM     29  O   UNL     1       3.455  -9.372  -3.229  1.00  0.00    -0.246 OA
ATOM     30  C   UNL     1       5.430 -10.549  -1.624  1.00  0.00     0.052 C 
ENDBRANCH  16  17
ENDBRANCH  14  16
ENDBRANCH  11  14
ENDBRANCH   5  10
ENDBRANCH   3   5
ENDBRANCH   2   3
ENDBRANCH   1   2
BRANCH   1  31
ATOM     31  C   UNL     1       1.372  -3.992   6.921  1.00  0.00     0.275 C 
BRANCH  31  32
ATOM     32  O   UNL     1       2.792  -4.233   6.882  1.00  0.00    -0.458 OA
BRANCH  32  33
ATOM     33  C   UNL     1       3.188  -5.384   6.291  1.00  0.00     0.338 C 
ATOM     34  O   UNL     1       2.459  -6.247   5.834  1.00  0.00    -0.246 OA
BRANCH  33  35
ATOM     35  C   UNL     1       4.670  -5.495   6.274  1.00  0.00     0.060 A 
ATOM     36  C   UNL     1       5.521  -4.384   6.272  1.00  0.00     0.016 A 
ATOM     37  C   UNL     1       5.219  -6.781   6.250  1.00  0.00     0.016 A 
ATOM     38  C   UNL     1       6.910  -4.554   6.279  1.00  0.00     0.010 A 
ATOM     39  C   UNL     1       6.603  -6.954   6.293  1.00  0.00     0.010 A 
ATOM     40  C   UNL     1       7.456  -5.842   6.326  1.00  0.00    -0.014 A 
BRANCH  40  41
ATOM     41  C   UNL     1       8.902  -6.062   6.566  1.00  0.00     0.031 A 
ATOM     42  C   UNL     1       9.793  -6.589   5.485  1.00  0.00     0.074 A 
ATOM     43  C   UNL     1       9.365  -5.888   7.818  1.00  0.00     0.049 A 
ATOM     44  N   UNL     1      11.031  -7.007   5.567  1.00  0.00    -0.248 NA
ATOM     45  C   UNL     1       9.217  -6.668   4.135  1.00  0.00     0.031 C 
ATOM     46  C   UNL     1       8.572  -5.384   8.941  1.00  0.00     0.029 A 
ATOM     47  N   UNL     1      10.595  -6.145   8.367  1.00  0.00    -0.354 N 
ATOM     48  C   UNL     1      11.384  -7.401   4.284  1.00  0.00     0.074 A 
ATOM     49  C   UNL     1      10.221  -7.196   3.445  1.00  0.00     0.031 C 
ATOM     50  C   UNL     1       9.329  -5.381  10.047  1.00  0.00     0.029 A 
ATOM     51  C   UNL     1      10.644  -5.923   9.721  1.00  0.00     0.049 A 
ATOM     52  H   UNL     1      11.367  -6.457   7.842  1.00  0.00     0.167 HD
ATOM     53  C   UNL     1      12.575  -7.885   3.856  1.00  0.00     0.037 A 
ATOM     54  C   UNL     1      11.628  -6.158  10.608  1.00  0.00     0.037 A 
ATOM     55  C   UNL     1      13.715  -8.096   4.713  1.00  0.00     0.049 A 
ATOM     56  C   UNL     1      12.920  -6.743  10.118  1.00  0.00     0.074 A 
ATOM     57  C   UNL     1      14.974  -8.565   4.380  1.00  0.00     0.029 A 
ATOM     58  N   UNL     1      13.729  -7.856   6.082  1.00  0.00    -0.354 N 
ATOM     59  N   UNL     1      13.251  -7.097   8.900  1.00  0.00    -0.248 NA
ATOM     60  C   UNL     1      13.971  -6.963  11.119  1.00  0.00     0.031 C 
ATOM     61  C   UNL     1      15.735  -8.649   5.551  1.00  0.00     0.029 A 
ATOM     62  C   UNL     1      14.967  -8.189   6.609  1.00  0.00     0.049 A 
ATOM     63  H   UNL     1      12.971  -7.503   6.601  1.00  0.00     0.167 HD
ATOM     64  C   UNL     1      14.551  -7.570   8.981  1.00  0.00     0.074 A 
ATOM     65  C   UNL     1      14.954  -7.443  10.369  1.00  0.00     0.031 C 
ATOM     66  C   UNL     1      15.339  -8.065   7.996  1.00  0.00     0.037 A 
BRANCH  53  67
ATOM     67  C   UNL     1      12.712  -8.229   2.400  1.00  0.00     0.064 A 
ATOM     68  C   UNL     1      12.789  -7.232   1.416  1.00  0.00     0.173 A 
ATOM     69  C   UNL     1      12.835  -9.565   1.988  1.00  0.00     0.173 A 
ATOM     70  F   UNL     1      12.668  -5.940   1.755  1.00  0.00    -0.203 F 
ATOM     71  C   UNL     1      12.970  -7.560   0.074  1.00  0.00     0.198 A 
ATOM     72  C   UNL     1      13.040  -9.889   0.649  1.00  0.00     0.198 A 
ATOM     73  F   UNL     1      12.775 -10.559   2.888  1.00  0.00    -0.203 F 
ATOM     74  F   UNL     1      13.010  -6.591  -0.851  1.00  0.00    -0.200 F 
ATOM     75  C   UNL     1      13.103  -8.886  -0.307  1.00  0.00     0.200 A 
ATOM     76  F   UNL     1      13.180 -11.171   0.283  1.00  0.00    -0.200 F 
ATOM     77  F   UNL     1      13.289  -9.200  -1.597  1.00  0.00    -0.200 F 
ENDBRANCH  53  67
BRANCH  54  78
ATOM     78  C   UNL     1      11.414  -5.809  12.035  1.00  0.00     0.064 A 
ATOM     79  C   UNL     1      12.039  -4.687  12.595  1.00  0.00     0.173 A 
ATOM     80  C   UNL     1      10.519  -6.530  12.840  1.00  0.00     0.173 A 
ATOM     81  F   UNL     1      12.915  -3.978  11.868  1.00  0.00    -0.203 F 
ATOM     82  C   UNL     1      11.769  -4.293  13.903  1.00  0.00     0.198 A 
ATOM     83  C   UNL     1      10.232  -6.121  14.141  1.00  0.00     0.198 A 
ATOM     84  F   UNL     1       9.890  -7.607  12.347  1.00  0.00    -0.203 F 
ATOM     85  F   UNL     1      12.386  -3.220  14.417  1.00  0.00    -0.200 F 
ATOM     86  C   UNL     1      10.857  -5.002  14.671  1.00  0.00     0.200 A 
ATOM     87  F   UNL     1       9.336  -6.797  14.873  1.00  0.00    -0.200 F 
ATOM     88  F   UNL     1      10.576  -4.603  15.919  1.00  0.00    -0.200 F 
ENDBRANCH  54  78
BRANCH  66  89
ATOM     89  C   UNL     1      16.719  -8.503   8.385  1.00  0.00     0.064 A 
ATOM     90  C   UNL     1      16.934  -9.702   9.080  1.00  0.00     0.173 A 
ATOM     91  C   UNL     1      17.838  -7.742   8.017  1.00  0.00     0.173 A 
ATOM     92  F   UNL     1      15.893 -10.454   9.467  1.00  0.00    -0.203 F 
ATOM     93  C   UNL     1      18.223 -10.116   9.405  1.00  0.00     0.198 A 
ATOM     94  C   UNL     1      19.126  -8.171   8.323  1.00  0.00     0.198 A 
ATOM     95  F   UNL     1      17.681  -6.590   7.347  1.00  0.00    -0.203 F 
ATOM     96  F   UNL     1      18.405 -11.247  10.101  1.00  0.00    -0.200 F 
ATOM     97  C   UNL     1      19.317  -9.354   9.021  1.00  0.00     0.200 A 
ATOM     98  F   UNL     1      20.182  -7.440   7.943  1.00  0.00    -0.200 F 
ATOM     99  F   UNL     1      20.557  -9.759   9.328  1.00  0.00    -0.200 F 
ENDBRANCH  66  89
ENDBRANCH  40  41
ENDBRANCH  33  35
ENDBRANCH  32  33
ENDBRANCH  31  32
ENDBRANCH   1  31
TORSDOF 17
