REMARK SMILES Cc1ccc(C(=O)OCCOCCOC(=O)c2ccc(-c3c4nc(c(-c5c(F)c(F)c(F)c(F)c5F)c5ccc([nH]5)c(-c5c(F)c(F)c(F)c(F)c5F)c5nc(c(-c6c(F)c(F)c(F)c(F)c6F)c6ccc3[nH]6)C=C5)C=C4)cc2)cc1NC(=O)c1ccc(Br)o1
REMARK SMILES IDX 11 1 10 2 9 3 8 4 6 5 7 6 5 7 1 8 2 9 3 10 81 11 4 12 80 13
REMARK SMILES IDX 82 14 83 15 84 17 85 18 86 19 90 20 87 21 88 22 89 23 12 24
REMARK SMILES IDX 13 25 14 26 15 27 16 28 17 29 18 30 79 31 19 32 78 33 20 34
REMARK SMILES IDX 21 35 22 36 72 37 23 38 77 39 71 40 73 41 24 42 76 43 70 44
REMARK SMILES IDX 69 45 25 47 57 48 37 49 56 50 38 51 41 52 55 53 74 54 39 55
REMARK SMILES IDX 40 56 54 58 75 59 42 60 26 61 27 62 35 63 28 64 29 65 33 66
REMARK SMILES IDX 36 67 30 68 31 69 34 70 32 71 58 72 59 73 67 74 60 75 61 76
REMARK SMILES IDX 65 77 68 78 62 79 63 80 66 81 64 82 43 83 44 84 52 85 45 86
REMARK SMILES IDX 46 87 50 88 53 89 47 90 48 91 51 92 49 93
REMARK H PARENT 82 16 73 46 41 57
REMARK Flexibility Score: inf
ROOT
ATOM      1  O   UNL     1      -3.657  -0.508  -2.329  1.00  0.00    -0.374 OA
ENDROOT
BRANCH   1   2
ATOM      2  C   UNL     1      -3.563   0.905  -2.312  1.00  0.00     0.202 C 
BRANCH   2   3
ATOM      3  C   UNL     1      -3.844   1.316  -0.904  1.00  0.00     0.261 C 
BRANCH   3   4
ATOM      4  O   UNL     1      -2.729   1.116  -0.042  1.00  0.00    -0.460 OA
BRANCH   4   5
ATOM      5  C   UNL     1      -2.390  -0.179   0.220  1.00  0.00     0.338 C 
ATOM      6  O   UNL     1      -3.133  -1.096   0.486  1.00  0.00    -0.246 OA
BRANCH   5   7
ATOM      7  C   UNL     1      -0.912  -0.265   0.103  1.00  0.00     0.062 A 
ATOM      8  C   UNL     1       3.376  -0.382   0.042  1.00  0.00     0.046 C 
ATOM      9  C   UNL     1       1.877  -0.253   0.080  1.00  0.00    -0.027 A 
ATOM     10  C   UNL     1       1.150  -1.448   0.308  1.00  0.00     0.006 A 
ATOM     11  C   UNL     1       1.185   0.950  -0.156  1.00  0.00     0.045 A 
ATOM     12  C   UNL     1      -0.242  -1.444   0.383  1.00  0.00     0.016 A 
ATOM     13  C   UNL     1      -0.186   0.867  -0.287  1.00  0.00     0.042 A 
BRANCH  11  14
ATOM     14  N   UNL     1       1.856   2.190  -0.179  1.00  0.00    -0.319 N 
ATOM     15  C   UNL     1       1.486   3.525  -0.255  1.00  0.00     0.291 C 
ATOM     16  H   UNL     1       2.833   2.080  -0.130  1.00  0.00     0.170 HD
ATOM     17  O   UNL     1       2.419   4.329  -0.162  1.00  0.00    -0.265 OA
BRANCH  15  18
ATOM     18  C   UNL     1       0.131   3.982  -0.468  1.00  0.00     0.193 A 
ATOM     19  C   UNL     1      -1.070   3.827   0.207  1.00  0.00     0.057 A 
ATOM     20  O   UNL     1      -0.074   4.809  -1.546  1.00  0.00    -0.444 OA
ATOM     21  C   UNL     1      -2.061   4.447  -0.593  1.00  0.00     0.059 A 
ATOM     22  C   UNL     1      -1.401   5.082  -1.613  1.00  0.00     0.170 A 
ATOM     23  Br  UNL     1      -2.206   6.141  -2.918  1.00  0.00    -0.008 Br
ENDBRANCH  15  18
ENDBRANCH  11  14
ENDBRANCH   5   7
ENDBRANCH   4   5
ENDBRANCH   3   4
ENDBRANCH   2   3
ENDBRANCH   1   2
BRANCH   1  24
ATOM     24  C   UNL     1      -3.479  -1.102  -3.601  1.00  0.00     0.202 C 
BRANCH  24  25
ATOM     25  C   UNL     1      -4.457  -0.570  -4.660  1.00  0.00     0.261 C 
BRANCH  25  26
ATOM     26  O   UNL     1      -5.810  -0.864  -4.244  1.00  0.00    -0.460 OA
BRANCH  26  27
ATOM     27  C   UNL     1      -6.574   0.193  -3.852  1.00  0.00     0.338 C 
ATOM     28  O   UNL     1      -6.658   1.262  -4.435  1.00  0.00    -0.246 OA
BRANCH  27  29
ATOM     29  C   UNL     1      -7.041  -0.018  -2.448  1.00  0.00     0.060 A 
ATOM     30  C   UNL     1      -7.643   1.038  -1.736  1.00  0.00     0.016 A 
ATOM     31  C   UNL     1      -6.560  -1.125  -1.755  1.00  0.00     0.016 A 
ATOM     32  C   UNL     1      -7.596   1.064  -0.333  1.00  0.00     0.010 A 
ATOM     33  C   UNL     1      -6.413  -1.035  -0.387  1.00  0.00     0.010 A 
ATOM     34  C   UNL     1      -6.880   0.081   0.337  1.00  0.00    -0.014 A 
BRANCH  34  35
ATOM     35  C   UNL     1      -6.403   0.137   1.731  1.00  0.00     0.031 A 
ATOM     36  C   UNL     1      -6.714  -1.028   2.599  1.00  0.00     0.074 A 
ATOM     37  C   UNL     1      -5.412   0.999   2.088  1.00  0.00     0.049 A 
ATOM     38  N   UNL     1      -6.326  -1.160   3.818  1.00  0.00    -0.248 NA
ATOM     39  C   UNL     1      -7.542  -2.153   2.161  1.00  0.00     0.031 C 
ATOM     40  C   UNL     1      -4.348   0.777   3.076  1.00  0.00     0.029 A 
ATOM     41  N   UNL     1      -5.106   2.287   1.607  1.00  0.00    -0.354 N 
ATOM     42  C   UNL     1      -6.518  -2.474   4.183  1.00  0.00     0.074 A 
ATOM     43  C   UNL     1      -7.398  -3.005   3.178  1.00  0.00     0.031 C 
ATOM     44  C   UNL     1      -3.716   1.937   3.336  1.00  0.00     0.029 A 
ATOM     45  C   UNL     1      -4.464   2.980   2.653  1.00  0.00     0.049 A 
ATOM     46  H   UNL     1      -5.303   2.638   0.708  1.00  0.00     0.167 HD
ATOM     47  C   UNL     1      -5.779  -2.960   5.223  1.00  0.00     0.037 A 
ATOM     48  C   UNL     1      -4.988   4.114   3.196  1.00  0.00     0.037 A 
ATOM     49  C   UNL     1      -5.053  -1.857   5.874  1.00  0.00     0.049 A 
ATOM     50  C   UNL     1      -5.198   3.854   4.650  1.00  0.00     0.074 A 
ATOM     51  C   UNL     1      -3.725  -1.467   5.879  1.00  0.00     0.029 A 
ATOM     52  N   UNL     1      -5.778  -0.780   6.387  1.00  0.00    -0.354 N 
ATOM     53  N   UNL     1      -5.497   2.665   5.096  1.00  0.00    -0.248 NA
ATOM     54  C   UNL     1      -4.950   4.828   5.704  1.00  0.00     0.031 C 
ATOM     55  C   UNL     1      -3.671  -0.116   6.330  1.00  0.00     0.029 A 
ATOM     56  C   UNL     1      -4.960   0.307   6.627  1.00  0.00     0.049 A 
ATOM     57  H   UNL     1      -6.748  -0.792   6.556  1.00  0.00     0.167 HD
ATOM     58  C   UNL     1      -5.367   2.671   6.446  1.00  0.00     0.074 A 
ATOM     59  C   UNL     1      -5.091   4.054   6.795  1.00  0.00     0.031 C 
ATOM     60  C   UNL     1      -5.491   1.542   7.190  1.00  0.00     0.037 A 
BRANCH  47  61
ATOM     61  C   UNL     1      -5.521  -4.428   5.551  1.00  0.00     0.064 A 
ATOM     62  C   UNL     1      -4.598  -4.769   6.569  1.00  0.00     0.173 A 
ATOM     63  C   UNL     1      -6.063  -5.546   4.880  1.00  0.00     0.173 A 
ATOM     64  F   UNL     1      -4.014  -3.830   7.325  1.00  0.00    -0.203 F 
ATOM     65  C   UNL     1      -4.228  -6.091   6.853  1.00  0.00     0.198 A 
ATOM     66  C   UNL     1      -5.708  -6.868   5.178  1.00  0.00     0.198 A 
ATOM     67  F   UNL     1      -6.953  -5.435   3.896  1.00  0.00    -0.203 F 
ATOM     68  F   UNL     1      -3.318  -6.337   7.807  1.00  0.00    -0.200 F 
ATOM     69  C   UNL     1      -4.782  -7.142   6.156  1.00  0.00     0.200 A 
ATOM     70  F   UNL     1      -6.271  -7.874   4.490  1.00  0.00    -0.200 F 
ATOM     71  F   UNL     1      -4.429  -8.406   6.423  1.00  0.00    -0.200 F 
ENDBRANCH  47  61
BRANCH  48  72
ATOM     72  C   UNL     1      -5.889   4.823   2.241  1.00  0.00     0.064 A 
ATOM     73  C   UNL     1      -5.274   5.399   1.112  1.00  0.00     0.173 A 
ATOM     74  C   UNL     1      -7.237   4.465   2.122  1.00  0.00     0.173 A 
ATOM     75  F   UNL     1      -3.998   5.808   1.191  1.00  0.00    -0.203 F 
ATOM     76  C   UNL     1      -5.895   5.386  -0.137  1.00  0.00     0.198 A 
ATOM     77  C   UNL     1      -7.873   4.500   0.876  1.00  0.00     0.198 A 
ATOM     78  F   UNL     1      -7.891   3.935   3.164  1.00  0.00    -0.203 F 
ATOM     79  F   UNL     1      -5.206   5.734  -1.234  1.00  0.00    -0.200 F 
ATOM     80  C   UNL     1      -7.181   4.893  -0.260  1.00  0.00     0.200 A 
ATOM     81  F   UNL     1      -9.121   4.026   0.751  1.00  0.00    -0.200 F 
ATOM     82  F   UNL     1      -7.728   4.739  -1.475  1.00  0.00    -0.200 F 
ENDBRANCH  48  72
BRANCH  60  83
ATOM     83  C   UNL     1      -6.112   1.577   8.549  1.00  0.00     0.064 A 
ATOM     84  C   UNL     1      -6.984   2.607   8.951  1.00  0.00     0.173 A 
ATOM     85  C   UNL     1      -6.019   0.470   9.415  1.00  0.00     0.173 A 
ATOM     86  F   UNL     1      -7.269   3.644   8.151  1.00  0.00    -0.203 F 
ATOM     87  C   UNL     1      -7.645   2.574  10.173  1.00  0.00     0.198 A 
ATOM     88  C   UNL     1      -6.738   0.409  10.604  1.00  0.00     0.198 A 
ATOM     89  F   UNL     1      -5.267  -0.598   9.113  1.00  0.00    -0.203 F 
ATOM     90  F   UNL     1      -8.421   3.605  10.532  1.00  0.00    -0.200 F 
ATOM     91  C   UNL     1      -7.531   1.470  10.994  1.00  0.00     0.200 A 
ATOM     92  F   UNL     1      -6.679  -0.698  11.357  1.00  0.00    -0.200 F 
ATOM     93  F   UNL     1      -8.204   1.420  12.150  1.00  0.00    -0.200 F 
ENDBRANCH  60  83
ENDBRANCH  34  35
ENDBRANCH  27  29
ENDBRANCH  26  27
ENDBRANCH  25  26
ENDBRANCH  24  25
ENDBRANCH   1  24
TORSDOF 16
