REMARK SMILES O=C(N[C@@H]1C=C[C@@H](C(=O)OCCOCCOC(=O)c2ccc(-c3c4nc(c(-c5c(F)c(F)c(F)c(F)c5F)c5ccc([nH]5)c(-c5c(F)c(F)c(F)c(F)c5F)c5nc(c(-c6c(F)c(F)c(F)c(F)c6F)c6ccc3[nH]6)C=C5)C=C4)cc2)C1)Oc1ccccc1
REMARK SMILES IDX 12 1 11 2 10 3 8 4 9 5 7 6 4 7 5 8 82 9 6 10 3 11 1 12 2 13
REMARK SMILES IDX 83 15 84 16 85 17 89 18 86 19 88 20 87 21 13 22 14 23 15 24
REMARK SMILES IDX 16 25 17 26 18 27 19 28 20 29 81 30 21 31 80 32 22 33 23 34
REMARK SMILES IDX 24 35 74 36 25 37 79 38 73 39 75 40 26 41 78 42 72 43 71 44
REMARK SMILES IDX 27 46 59 47 39 48 58 49 40 50 43 51 57 52 76 53 41 54 42 55
REMARK SMILES IDX 56 57 77 58 44 59 28 60 29 61 37 62 30 63 31 64 35 65 38 66
REMARK SMILES IDX 32 67 33 68 36 69 34 70 60 71 61 72 69 73 62 74 63 75 67 76
REMARK SMILES IDX 70 77 64 78 65 79 68 80 66 81 45 82 46 83 54 84 47 85 48 86
REMARK SMILES IDX 52 87 55 88 49 89 50 90 53 91 51 92
REMARK H PARENT 3 14 75 45 43 56
REMARK Flexibility Score: inf
ROOT
ATOM      1  C   UNL     1       5.035   6.817  -1.533  1.00  0.00     0.202 C 
ENDROOT
BRANCH   1   2
ATOM      2  C   UNL     1       5.587   5.549  -2.201  1.00  0.00     0.261 C 
BRANCH   2   3
ATOM      3  O   UNL     1       5.334   4.374  -1.395  1.00  0.00    -0.463 OA
BRANCH   3   4
ATOM      4  C   UNL     1       5.529   3.185  -2.047  1.00  0.00     0.312 C 
ATOM      5  O   UNL     1       5.763   3.093  -3.246  1.00  0.00    -0.252 OA
BRANCH   4   6
ATOM      6  C   UNL     1       5.604   2.022  -1.057  1.00  0.00     0.124 C 
ATOM      7  C   UNL     1       4.290   0.386   0.214  1.00  0.00     0.109 C 
ATOM      8  C   UNL     1       5.001  -0.255  -0.923  1.00  0.00    -0.006 C 
ATOM      9  C   UNL     1       4.433   1.889  -0.076  1.00  0.00     0.049 C 
ATOM     10  C   UNL     1       5.654   0.648  -1.668  1.00  0.00    -0.014 C 
BRANCH   7  11
ATOM     11  N   UNL     1       4.652  -0.168   1.511  1.00  0.00    -0.315 N 
ATOM     12  O   UNL     1       5.654  -1.040   3.304  1.00  0.00    -0.224 OA
ATOM     13  C   UNL     1       5.771  -0.399   2.261  1.00  0.00     0.413 C 
ATOM     14  H   UNL     1       3.847  -0.465   1.994  1.00  0.00     0.167 HD
BRANCH  13  15
ATOM     15  O   UNL     1       7.015  -0.015   1.791  1.00  0.00    -0.410 OA
BRANCH  15  16
ATOM     16  C   UNL     1       7.404   1.336   1.793  1.00  0.00     0.132 A 
ATOM     17  C   UNL     1       8.590   1.615   1.108  1.00  0.00     0.047 A 
ATOM     18  C   UNL     1       6.621   2.360   2.310  1.00  0.00     0.047 A 
ATOM     19  C   UNL     1       8.895   2.930   0.769  1.00  0.00     0.004 A 
ATOM     20  C   UNL     1       6.926   3.671   1.960  1.00  0.00     0.004 A 
ATOM     21  C   UNL     1       8.034   3.952   1.153  1.00  0.00     0.000 A 
ENDBRANCH  15  16
ENDBRANCH  13  15
ENDBRANCH   7  11
ENDBRANCH   4   6
ENDBRANCH   3   4
ENDBRANCH   2   3
ENDBRANCH   1   2
BRANCH   1  22
ATOM     22  O   UNL     1       5.877   7.439  -0.556  1.00  0.00    -0.374 OA
BRANCH  22  23
ATOM     23  C   UNL     1       6.024   6.726   0.668  1.00  0.00     0.202 C 
BRANCH  23  24
ATOM     24  C   UNL     1       5.058   7.113   1.792  1.00  0.00     0.261 C 
BRANCH  24  25
ATOM     25  O   UNL     1       3.707   6.894   1.376  1.00  0.00    -0.460 OA
BRANCH  25  26
ATOM     26  C   UNL     1       3.078   8.036   1.011  1.00  0.00     0.338 C 
ATOM     27  O   UNL     1       3.432   9.178   1.210  1.00  0.00    -0.246 OA
BRANCH  26  28
ATOM     28  C   UNL     1       1.960   7.698   0.118  1.00  0.00     0.060 A 
ATOM     29  C   UNL     1       1.903   8.406  -1.088  1.00  0.00     0.016 A 
ATOM     30  C   UNL     1       0.983   6.759   0.455  1.00  0.00     0.016 A 
ATOM     31  C   UNL     1       0.812   8.251  -1.925  1.00  0.00     0.010 A 
ATOM     32  C   UNL     1      -0.121   6.609  -0.385  1.00  0.00     0.010 A 
ATOM     33  C   UNL     1      -0.233   7.402  -1.541  1.00  0.00    -0.014 A 
BRANCH  33  34
ATOM     34  C   UNL     1      -1.528   7.546  -2.236  1.00  0.00     0.031 A 
ATOM     35  C   UNL     1      -2.586   8.400  -1.596  1.00  0.00     0.074 A 
ATOM     36  C   UNL     1      -1.711   7.016  -3.455  1.00  0.00     0.049 A 
ATOM     37  N   UNL     1      -3.779   8.714  -2.028  1.00  0.00    -0.248 NA
ATOM     38  C   UNL     1      -2.247   8.983  -0.287  1.00  0.00     0.031 C 
ATOM     39  C   UNL     1      -0.718   6.237  -4.191  1.00  0.00     0.029 A 
ATOM     40  N   UNL     1      -2.793   7.071  -4.292  1.00  0.00    -0.354 N 
ATOM     41  C   UNL     1      -4.333   9.522  -1.043  1.00  0.00     0.074 A 
ATOM     42  C   UNL     1      -3.366   9.616   0.027  1.00  0.00     0.031 C 
ATOM     43  C   UNL     1      -1.234   5.895  -5.383  1.00  0.00     0.029 A 
ATOM     44  C   UNL     1      -2.603   6.399  -5.472  1.00  0.00     0.049 A 
ATOM     45  H   UNL     1      -3.625   7.547  -4.068  1.00  0.00     0.167 HD
ATOM     46  C   UNL     1      -5.539  10.138  -1.040  1.00  0.00     0.037 A 
ATOM     47  C   UNL     1      -3.451   6.209  -6.499  1.00  0.00     0.037 A 
ATOM     48  C   UNL     1      -6.491  10.030  -2.114  1.00  0.00     0.049 A 
ATOM     49  C   UNL     1      -4.826   6.819  -6.429  1.00  0.00     0.074 A 
ATOM     50  C   UNL     1      -7.739  10.614  -2.226  1.00  0.00     0.029 A 
ATOM     51  N   UNL     1      -6.299   9.270  -3.261  1.00  0.00    -0.354 N 
ATOM     52  N   UNL     1      -5.346   7.589  -5.503  1.00  0.00    -0.248 NA
ATOM     53  C   UNL     1      -5.731   6.532  -7.549  1.00  0.00     0.031 C 
ATOM     54  C   UNL     1      -8.330  10.151  -3.407  1.00  0.00     0.029 A 
ATOM     55  C   UNL     1      -7.423   9.337  -4.068  1.00  0.00     0.049 A 
ATOM     56  H   UNL     1      -5.484   8.758  -3.469  1.00  0.00     0.167 HD
ATOM     57  C   UNL     1      -6.626   7.904  -5.940  1.00  0.00     0.074 A 
ATOM     58  C   UNL     1      -6.797   7.248  -7.221  1.00  0.00     0.031 C 
ATOM     59  C   UNL     1      -7.572   8.671  -5.339  1.00  0.00     0.037 A 
BRANCH  46  60
ATOM     60  C   UNL     1      -5.903  10.928   0.186  1.00  0.00     0.064 A 
ATOM     61  C   UNL     1      -5.229  12.107   0.544  1.00  0.00     0.173 A 
ATOM     62  C   UNL     1      -6.928  10.481   1.033  1.00  0.00     0.173 A 
ATOM     63  F   UNL     1      -4.229  12.572  -0.220  1.00  0.00    -0.203 F 
ATOM     64  C   UNL     1      -5.534  12.778   1.727  1.00  0.00     0.198 A 
ATOM     65  C   UNL     1      -7.256  11.175   2.195  1.00  0.00     0.198 A 
ATOM     66  F   UNL     1      -7.609   9.363   0.741  1.00  0.00    -0.203 F 
ATOM     67  F   UNL     1      -4.823  13.856   2.086  1.00  0.00    -0.200 F 
ATOM     68  C   UNL     1      -6.549  12.314   2.549  1.00  0.00     0.200 A 
ATOM     69  F   UNL     1      -8.247  10.732   2.982  1.00  0.00    -0.200 F 
ATOM     70  F   UNL     1      -6.836  12.955   3.691  1.00  0.00    -0.200 F 
ENDBRANCH  46  60
BRANCH  47  71
ATOM     71  C   UNL     1      -3.013   5.416  -7.675  1.00  0.00     0.064 A 
ATOM     72  C   UNL     1      -2.810   6.026  -8.920  1.00  0.00     0.173 A 
ATOM     73  C   UNL     1      -2.761   4.040  -7.573  1.00  0.00     0.173 A 
ATOM     74  F   UNL     1      -3.057   7.335  -9.072  1.00  0.00    -0.203 F 
ATOM     75  C   UNL     1      -2.377   5.288 -10.020  1.00  0.00     0.198 A 
ATOM     76  C   UNL     1      -2.302   3.308  -8.665  1.00  0.00     0.198 A 
ATOM     77  F   UNL     1      -2.940   3.409  -6.402  1.00  0.00    -0.203 F 
ATOM     78  F   UNL     1      -2.219   5.889 -11.207  1.00  0.00    -0.200 F 
ATOM     79  C   UNL     1      -2.114   3.932  -9.889  1.00  0.00     0.200 A 
ATOM     80  F   UNL     1      -2.034   2.002  -8.530  1.00  0.00    -0.200 F 
ATOM     81  F   UNL     1      -1.683   3.226 -10.944  1.00  0.00    -0.200 F 
ENDBRANCH  47  71
BRANCH  59  82
ATOM     82  C   UNL     1      -8.865   8.868  -6.078  1.00  0.00     0.064 A 
ATOM     83  C   UNL     1      -9.791   7.827  -6.241  1.00  0.00     0.173 A 
ATOM     84  C   UNL     1      -9.200  10.130  -6.595  1.00  0.00     0.173 A 
ATOM     85  F   UNL     1      -9.514   6.598  -5.778  1.00  0.00    -0.203 F 
ATOM     86  C   UNL     1     -10.989   8.034  -6.921  1.00  0.00     0.198 A 
ATOM     87  C   UNL     1     -10.414  10.342  -7.242  1.00  0.00     0.198 A 
ATOM     88  F   UNL     1      -8.354  11.162  -6.460  1.00  0.00    -0.203 F 
ATOM     89  F   UNL     1     -11.832   7.010  -7.113  1.00  0.00    -0.200 F 
ATOM     90  C   UNL     1     -11.303   9.292  -7.413  1.00  0.00     0.200 A 
ATOM     91  F   UNL     1     -10.723  11.563  -7.700  1.00  0.00    -0.200 F 
ATOM     92  F   UNL     1     -12.460   9.491  -8.058  1.00  0.00    -0.200 F 
ENDBRANCH  59  82
ENDBRANCH  33  34
ENDBRANCH  26  28
ENDBRANCH  25  26
ENDBRANCH  24  25
ENDBRANCH  23  24
ENDBRANCH  22  23
ENDBRANCH   1  22
TORSDOF 17
