REMARK SMILES C/C(=N/[NH+]=C1\NC(=O)[C@H](CC(=O)OCCOCCOC(=O)c2ccc(-c3c4nc(c(-c5c(F)c(F)c(F)c(F)c5F)c5ccc([nH]5)c(-c5c(F)c(F)c(F)c(F)c5F)c5nc(c(-c6c(F)c(F)c(F)c(F)c6F)c6ccc3[nH]6)C=C5)C=C4)cc2)S1)c1ccc(OC(C)C)cc1
REMARK SMILES IDX 14 1 13 2 11 3 12 4 10 5 9 6 4 7 5 8 6 10 85 11 7 12 8 14
REMARK SMILES IDX 3 15 1 16 2 17 86 18 87 19 95 20 88 21 94 22 89 23 90 24
REMARK SMILES IDX 91 25 92 26 93 27 15 28 16 29 17 30 18 31 19 32 20 33 21 34
REMARK SMILES IDX 22 35 23 36 84 37 24 38 83 39 25 40 26 41 27 42 77 43 28 44
REMARK SMILES IDX 82 45 76 46 78 47 29 48 81 49 75 50 74 51 30 53 62 54 42 55
REMARK SMILES IDX 61 56 43 57 46 58 60 59 79 60 44 61 45 62 59 64 80 65 47 66
REMARK SMILES IDX 31 67 32 68 40 69 33 70 34 71 38 72 41 73 35 74 36 75 39 76
REMARK SMILES IDX 37 77 63 78 64 79 72 80 65 81 66 82 70 83 73 84 67 85 68 86
REMARK SMILES IDX 71 87 69 88 48 89 49 90 57 91 50 92 51 93 55 94 58 95 52 96
REMARK SMILES IDX 53 97 56 98 54 99
REMARK H PARENT 4 9 6 13 78 52 46 63
REMARK Flexibility Score: inf
ROOT
ATOM      1  C   UNL     1       4.710  -0.965  -8.142  1.00  0.00     0.261 C 
ENDROOT
BRANCH   1   2
ATOM      2  O   UNL     1       3.607  -1.068  -7.220  1.00  0.00    -0.463 OA
BRANCH   2   3
ATOM      3  C   UNL     1       2.365  -1.105  -7.760  1.00  0.00     0.307 C 
ATOM      4  O   UNL     1       2.116  -1.073  -8.958  1.00  0.00    -0.252 OA
BRANCH   3   5
ATOM      5  C   UNL     1       1.288  -1.123  -6.705  1.00  0.00     0.150 C 
BRANCH   5   6
ATOM      6  C   UNL     1       1.336  -2.341  -5.794  1.00  0.00     0.184 C 
ATOM      7  N   UNL     1      -0.774  -1.942  -2.630  1.00  0.00    -0.142 N 
ATOM      8  C   UNL     1       0.087  -2.264  -3.532  1.00  0.00     0.337 C 
ATOM      9  H   UNL     1      -1.740  -1.946  -2.822  1.00  0.00     0.343 HD
ATOM     10  N   UNL     1       1.427  -2.247  -3.394  1.00  0.00    -0.202 N 
ATOM     11  S   UNL     1      -0.359  -2.667  -5.156  1.00  0.00    -0.020 SA
ATOM     12  C   UNL     1       2.161  -2.110  -4.532  1.00  0.00     0.322 C 
ATOM     13  H   UNL     1       1.855  -2.329  -2.512  1.00  0.00     0.316 HD
ATOM     14  O   UNL     1       3.331  -1.757  -4.502  1.00  0.00    -0.246 OA
BRANCH   7  15
ATOM     15  N   UNL     1      -0.287  -1.584  -1.364  1.00  0.00    -0.090 NA
ATOM     16  C   UNL     1       0.619  -0.004   0.209  1.00  0.00     0.071 C 
ATOM     17  C   UNL     1       0.232  -0.398  -1.198  1.00  0.00     0.088 C 
BRANCH  17  18
ATOM     18  C   UNL     1       0.605   0.559  -2.271  1.00  0.00    -0.000 A 
ATOM     19  C   UNL     1      -0.302   0.985  -3.236  1.00  0.00     0.014 A 
ATOM     20  C   UNL     1       1.956   0.911  -2.380  1.00  0.00     0.014 A 
ATOM     21  C   UNL     1       0.157   1.745  -4.317  1.00  0.00     0.047 A 
ATOM     22  C   UNL     1       2.406   1.656  -3.473  1.00  0.00     0.047 A 
ATOM     23  C   UNL     1       1.513   2.079  -4.450  1.00  0.00     0.119 A 
BRANCH  23  24
ATOM     24  O   UNL     1       1.812   2.765  -5.588  1.00  0.00    -0.491 OA
BRANCH  24  25
ATOM     25  C   UNL     1       3.098   3.336  -5.856  1.00  0.00     0.167 C 
ATOM     26  C   UNL     1       3.561   4.357  -4.822  1.00  0.00     0.052 C 
ATOM     27  C   UNL     1       4.150   2.303  -6.245  1.00  0.00     0.052 C 
ENDBRANCH  24  25
ENDBRANCH  23  24
ENDBRANCH  17  18
ENDBRANCH   7  15
ENDBRANCH   5   6
ENDBRANCH   3   5
ENDBRANCH   2   3
ENDBRANCH   1   2
BRANCH   1  28
ATOM     28  C   UNL     1       5.750  -2.060  -7.901  1.00  0.00     0.202 C 
BRANCH  28  29
ATOM     29  O   UNL     1       5.370  -3.368  -8.324  1.00  0.00    -0.374 OA
BRANCH  29  30
ATOM     30  C   UNL     1       4.424  -4.059  -7.511  1.00  0.00     0.202 C 
BRANCH  30  31
ATOM     31  C   UNL     1       4.982  -4.676  -6.224  1.00  0.00     0.261 C 
BRANCH  31  32
ATOM     32  O   UNL     1       5.310  -3.678  -5.236  1.00  0.00    -0.460 OA
BRANCH  32  33
ATOM     33  C   UNL     1       6.617  -3.574  -4.927  1.00  0.00     0.338 C 
ATOM     34  O   UNL     1       7.532  -4.279  -5.349  1.00  0.00    -0.246 OA
BRANCH  33  35
ATOM     35  C   UNL     1       6.893  -2.394  -4.084  1.00  0.00     0.060 A 
ATOM     36  C   UNL     1       7.933  -1.546  -4.489  1.00  0.00     0.016 A 
ATOM     37  C   UNL     1       6.275  -2.204  -2.844  1.00  0.00     0.016 A 
ATOM     38  C   UNL     1       8.416  -0.565  -3.626  1.00  0.00     0.010 A 
ATOM     39  C   UNL     1       6.766  -1.218  -1.975  1.00  0.00     0.010 A 
ATOM     40  C   UNL     1       7.875  -0.432  -2.340  1.00  0.00    -0.014 A 
BRANCH  40  41
ATOM     41  C   UNL     1       8.604   0.389  -1.337  1.00  0.00     0.031 A 
ATOM     42  C   UNL     1       9.527  -0.297  -0.364  1.00  0.00     0.074 A 
ATOM     43  C   UNL     1       8.513   1.731  -1.334  1.00  0.00     0.049 A 
ATOM     44  N   UNL     1      10.294   0.219   0.565  1.00  0.00    -0.248 NA
ATOM     45  C   UNL     1       9.598  -1.764  -0.451  1.00  0.00     0.031 C 
ATOM     46  C   UNL     1       7.691   2.525  -2.244  1.00  0.00     0.029 A 
ATOM     47  N   UNL     1       9.133   2.663  -0.537  1.00  0.00    -0.354 N 
ATOM     48  C   UNL     1      10.934  -0.856   1.169  1.00  0.00     0.074 A 
ATOM     49  C   UNL     1      10.442  -2.056   0.527  1.00  0.00     0.031 C 
ATOM     50  C   UNL     1       7.857   3.828  -1.954  1.00  0.00     0.029 A 
ATOM     51  C   UNL     1       8.782   3.957  -0.828  1.00  0.00     0.049 A 
ATOM     52  H   UNL     1       9.769   2.424   0.176  1.00  0.00     0.167 HD
ATOM     53  C   UNL     1      11.860  -0.847   2.158  1.00  0.00     0.037 A 
ATOM     54  C   UNL     1       9.161   5.113  -0.248  1.00  0.00     0.037 A 
ATOM     55  C   UNL     1      12.365   0.340   2.796  1.00  0.00     0.049 A 
ATOM     56  C   UNL     1      10.154   5.093   0.885  1.00  0.00     0.074 A 
ATOM     57  C   UNL     1      13.314   0.445   3.799  1.00  0.00     0.029 A 
ATOM     58  N   UNL     1      11.959   1.630   2.495  1.00  0.00    -0.354 N 
ATOM     59  N   UNL     1      10.771   4.073   1.431  1.00  0.00    -0.248 NA
ATOM     60  C   UNL     1      10.510   6.392   1.478  1.00  0.00     0.031 C 
ATOM     61  C   UNL     1      13.453   1.797   4.131  1.00  0.00     0.029 A 
ATOM     62  C   UNL     1      12.623   2.537   3.305  1.00  0.00     0.049 A 
ATOM     63  H   UNL     1      11.296   1.867   1.807  1.00  0.00     0.167 HD
ATOM     64  C   UNL     1      11.605   4.607   2.406  1.00  0.00     0.074 A 
ATOM     65  C   UNL     1      11.426   6.043   2.370  1.00  0.00     0.031 C 
ATOM     66  C   UNL     1      12.444   3.964   3.255  1.00  0.00     0.037 A 
BRANCH  53  67
ATOM     67  C   UNL     1      12.380  -2.174   2.626  1.00  0.00     0.064 A 
ATOM     68  C   UNL     1      13.269  -2.931   1.849  1.00  0.00     0.173 A 
ATOM     69  C   UNL     1      12.011  -2.678   3.882  1.00  0.00     0.173 A 
ATOM     70  F   UNL     1      13.641  -2.498   0.635  1.00  0.00    -0.203 F 
ATOM     71  C   UNL     1      13.750  -4.157   2.302  1.00  0.00     0.198 A 
ATOM     72  C   UNL     1      12.514  -3.892   4.343  1.00  0.00     0.198 A 
ATOM     73  F   UNL     1      11.167  -1.990   4.665  1.00  0.00    -0.203 F 
ATOM     74  F   UNL     1      14.566  -4.884   1.526  1.00  0.00    -0.200 F 
ATOM     75  C   UNL     1      13.378  -4.633   3.551  1.00  0.00     0.200 A 
ATOM     76  F   UNL     1      12.161  -4.345   5.554  1.00  0.00    -0.200 F 
ATOM     77  F   UNL     1      13.846  -5.810   3.988  1.00  0.00    -0.200 F 
ENDBRANCH  53  67
BRANCH  54  78
ATOM     78  C   UNL     1       8.599   6.402  -0.729  1.00  0.00     0.064 A 
ATOM     79  C   UNL     1       9.398   7.335  -1.404  1.00  0.00     0.173 A 
ATOM     80  C   UNL     1       7.257   6.737  -0.495  1.00  0.00     0.173 A 
ATOM     81  F   UNL     1      10.694   7.069  -1.626  1.00  0.00    -0.203 F 
ATOM     82  C   UNL     1       8.881   8.563  -1.811  1.00  0.00     0.198 A 
ATOM     83  C   UNL     1       6.735   7.955  -0.925  1.00  0.00     0.198 A 
ATOM     84  F   UNL     1       6.453   5.879   0.148  1.00  0.00    -0.203 F 
ATOM     85  F   UNL     1       9.678   9.456  -2.413  1.00  0.00    -0.200 F 
ATOM     86  C   UNL     1       7.549   8.870  -1.576  1.00  0.00     0.200 A 
ATOM     87  F   UNL     1       5.445   8.243  -0.705  1.00  0.00    -0.200 F 
ATOM     88  F   UNL     1       7.052  10.051  -1.968  1.00  0.00    -0.200 F 
ENDBRANCH  54  78
BRANCH  66  89
ATOM     89  C   UNL     1      13.259   4.809   4.192  1.00  0.00     0.064 A 
ATOM     90  C   UNL     1      12.679   5.457   5.293  1.00  0.00     0.173 A 
ATOM     91  C   UNL     1      14.643   4.947   4.003  1.00  0.00     0.173 A 
ATOM     92  F   UNL     1      11.358   5.367   5.509  1.00  0.00    -0.203 F 
ATOM     93  C   UNL     1      13.450   6.235   6.153  1.00  0.00     0.198 A 
ATOM     94  C   UNL     1      15.415   5.704   4.881  1.00  0.00     0.198 A 
ATOM     95  F   UNL     1      15.248   4.342   2.970  1.00  0.00    -0.203 F 
ATOM     96  F   UNL     1      12.866   6.884   7.170  1.00  0.00    -0.200 F 
ATOM     97  C   UNL     1      14.817   6.353   5.950  1.00  0.00     0.200 A 
ATOM     98  F   UNL     1      16.737   5.808   4.689  1.00  0.00    -0.200 F 
ATOM     99  F   UNL     1      15.557   7.101   6.780  1.00  0.00    -0.200 F 
ENDBRANCH  66  89
ENDBRANCH  40  41
ENDBRANCH  33  35
ENDBRANCH  32  33
ENDBRANCH  31  32
ENDBRANCH  30  31
ENDBRANCH  29  30
ENDBRANCH  28  29
ENDBRANCH   1  28
TORSDOF 19
