REMARK SMILES O=C(CCCN1C(=O)C(=O)/C(=C(\[O-])c2ccccc2)[C@H]1c1ccc([N+](=O)[O-])cc1)OCCOCCOC(=O)c1ccc(-c2c3nc(c(-c4c(F)c(F)c(F)c(F)c4F)c4ccc([nH]4)c(-c4c(F)c(F)c(F)c(F)c4F)c4nc(c(-c5c(F)c(F)c(F)c(F)c5F)c5ccc2[nH]5)C=C4)C=C3)cc1
REMARK SMILES IDX 31 1 30 2 2 3 1 4 3 5 4 6 5 7 6 8 7 9 20 10 8 11 9 12 11 13
REMARK SMILES IDX 10 14 12 15 13 16 21 17 22 18 29 19 23 20 28 21 24 22 25 23
REMARK SMILES IDX 26 24 27 25 14 26 15 27 19 28 16 29 18 30 17 31 32 32 33 33
REMARK SMILES IDX 34 34 35 35 36 36 37 37 38 38 39 39 40 40 101 41 41 42
REMARK SMILES IDX 100 43 42 44 43 45 44 46 94 47 45 48 99 49 93 50 95 51 46 52
REMARK SMILES IDX 98 53 92 54 91 55 47 57 79 58 59 59 78 60 60 61 63 62 77 63
REMARK SMILES IDX 96 64 61 65 62 66 76 68 97 69 64 70 48 71 49 72 57 73 50 74
REMARK SMILES IDX 51 75 55 76 58 77 52 78 53 79 56 80 54 81 80 82 81 83 89 84
REMARK SMILES IDX 82 85 83 86 87 87 90 88 84 89 85 90 88 91 86 92 65 93 66 94
REMARK SMILES IDX 74 95 67 96 68 97 72 98 75 99 69 100 70 101 73 102 71 103
REMARK H PARENT 95 56 63 67
REMARK Flexibility Score: inf
ROOT
ATOM      1  C   UNL     1       2.667   2.283  -0.508  1.00  0.00     0.261 C 
ENDROOT
BRANCH   1   2
ATOM      2  O   UNL     1       3.118   1.800  -1.777  1.00  0.00    -0.463 OA
BRANCH   2   3
ATOM      3  C   UNL     1       2.330   0.785  -2.200  1.00  0.00     0.305 C 
ATOM      4  O   UNL     1       1.105   0.792  -2.118  1.00  0.00    -0.252 OA
BRANCH   3   5
ATOM      5  C   UNL     1       3.095  -0.440  -2.636  1.00  0.00     0.124 C 
BRANCH   5   6
ATOM      6  C   UNL     1       4.626  -0.506  -2.662  1.00  0.00     0.033 C 
BRANCH   6   7
ATOM      7  C   UNL     1       5.584   0.052  -1.584  1.00  0.00     0.121 C 
BRANCH   7   8
ATOM      8  N   UNL     1       5.945  -0.590  -0.295  1.00  0.00    -0.325 N 
ATOM      9  C   UNL     1       7.257  -0.330   0.116  1.00  0.00     0.295 C 
ATOM     10  C   UNL     1       5.533  -1.905   0.200  1.00  0.00     0.150 C 
ATOM     11  O   UNL     1       7.901   0.691  -0.013  1.00  0.00    -0.265 OA
ATOM     12  C   UNL     1       7.865  -1.690   0.472  1.00  0.00     0.248 C 
ATOM     13  C   UNL     1       6.816  -2.702   0.209  1.00  0.00     0.025 C 
ATOM     14  O   UNL     1       9.009  -1.915   0.807  1.00  0.00    -0.283 OA
ATOM     15  C   UNL     1       7.124  -3.999  -0.004  1.00  0.00    -0.092 C 
ATOM     16  O   UNL     1       8.422  -4.475   0.068  1.00  0.00    -0.872 OA
BRANCH  10  17
ATOM     17  C   UNL     1       4.879  -1.937   1.629  1.00  0.00    -0.020 A 
ATOM     18  C   UNL     1       4.379  -3.603   2.138  1.00  0.00     0.013 A 
ATOM     19  C   UNL     1       4.102  -0.519   2.461  1.00  0.00     0.013 A 
ATOM     20  C   UNL     1       3.083  -3.872   3.337  1.00  0.00     0.086 A 
ATOM     21  C   UNL     1       2.739  -0.786   3.659  1.00  0.00     0.086 A 
ATOM     22  C   UNL     1       2.274  -2.473   4.100  1.00  0.00     0.269 A 
BRANCH  22  23
ATOM     23  N   UNL     1       1.355  -2.751   5.176  1.00  0.00     0.062 N 
ATOM     24  O   UNL     1       1.362  -3.896   5.644  1.00  0.00    -0.258 OA
ATOM     25  O   UNL     1       0.634  -1.821   5.548  1.00  0.00    -0.258 OA
ENDBRANCH  22  23
ENDBRANCH  10  17
BRANCH  15  26
ATOM     26  C   UNL     1       6.128  -5.088  -0.163  1.00  0.00    -0.033 A 
ATOM     27  C   UNL     1       6.206  -6.186   0.720  1.00  0.00     0.007 A 
ATOM     28  C   UNL     1       5.015  -4.999  -1.010  1.00  0.00     0.007 A 
ATOM     29  C   UNL     1       5.143  -7.087   0.847  1.00  0.00     0.001 A 
ATOM     30  C   UNL     1       3.957  -5.911  -0.891  1.00  0.00     0.001 A 
ATOM     31  C   UNL     1       4.008  -6.935   0.056  1.00  0.00     0.000 A 
ENDBRANCH  15  26
ENDBRANCH   7   8
ENDBRANCH   6   7
ENDBRANCH   5   6
ENDBRANCH   3   5
ENDBRANCH   2   3
ENDBRANCH   1   2
BRANCH   1  32
ATOM     32  C   UNL     1       3.199   1.335   0.555  1.00  0.00     0.202 C 
BRANCH  32  33
ATOM     33  O   UNL     1       2.993  -0.062   0.236  1.00  0.00    -0.374 OA
BRANCH  33  34
ATOM     34  C   UNL     1       2.073  -0.791   1.062  1.00  0.00     0.202 C 
BRANCH  34  35
ATOM     35  C   UNL     1       2.680  -2.148   1.876  1.00  0.00     0.261 C 
BRANCH  35  36
ATOM     36  O   UNL     1       4.029  -2.148   3.370  1.00  0.00    -0.460 OA
BRANCH  36  37
ATOM     37  C   UNL     1       4.999  -2.358   4.365  1.00  0.00     0.338 C 
ATOM     38  O   UNL     1       5.573  -3.396   4.651  1.00  0.00    -0.246 OA
BRANCH  37  39
ATOM     39  C   UNL     1       5.324  -1.091   5.073  1.00  0.00     0.060 A 
ATOM     40  C   UNL     1       6.489  -0.408   4.715  1.00  0.00     0.016 A 
ATOM     41  C   UNL     1       4.483  -0.590   6.079  1.00  0.00     0.016 A 
ATOM     42  C   UNL     1       6.863   0.730   5.425  1.00  0.00     0.010 A 
ATOM     43  C   UNL     1       4.827   0.580   6.753  1.00  0.00     0.010 A 
ATOM     44  C   UNL     1       6.071   1.175   6.494  1.00  0.00    -0.014 A 
BRANCH  44  45
ATOM     45  C   UNL     1       6.730   1.937   7.581  1.00  0.00     0.031 A 
ATOM     46  C   UNL     1       7.206   1.137   8.770  1.00  0.00     0.074 A 
ATOM     47  C   UNL     1       6.971   3.254   7.486  1.00  0.00     0.049 A 
ATOM     48  N   UNL     1       7.790   1.534   9.869  1.00  0.00    -0.248 NA
ATOM     49  C   UNL     1       6.972  -0.319   8.717  1.00  0.00     0.031 C 
ATOM     50  C   UNL     1       6.593   4.107   6.362  1.00  0.00     0.029 A 
ATOM     51  N   UNL     1       7.614   4.099   8.352  1.00  0.00    -0.354 N 
ATOM     52  C   UNL     1       7.955   0.387  10.638  1.00  0.00     0.074 A 
ATOM     53  C   UNL     1       7.379  -0.714   9.909  1.00  0.00     0.031 C 
ATOM     54  C   UNL     1       7.035   5.355   6.597  1.00  0.00     0.029 A 
ATOM     55  C   UNL     1       7.703   5.390   7.897  1.00  0.00     0.049 A 
ATOM     56  H   UNL     1       7.978   3.807   9.219  1.00  0.00     0.167 HD
ATOM     57  C   UNL     1       8.558   0.257  11.841  1.00  0.00     0.037 A 
ATOM     58  C   UNL     1       8.268   6.468   8.475  1.00  0.00     0.037 A 
ATOM     59  C   UNL     1       9.182   1.348  12.530  1.00  0.00     0.049 A 
ATOM     60  C   UNL     1       8.949   6.298   9.809  1.00  0.00     0.074 A 
ATOM     61  C   UNL     1       9.831   1.346  13.750  1.00  0.00     0.029 A 
ATOM     62  N   UNL     1       9.247   2.643  12.036  1.00  0.00    -0.354 N 
ATOM     63  N   UNL     1       9.082   5.216  10.539  1.00  0.00    -0.248 NA
ATOM     64  C   UNL     1       9.564   7.496  10.396  1.00  0.00     0.031 C 
ATOM     65  C   UNL     1      10.269   2.651  14.005  1.00  0.00     0.029 A 
ATOM     66  C   UNL     1       9.924   3.453  12.927  1.00  0.00     0.049 A 
ATOM     67  H   UNL     1       8.867   2.940  11.177  1.00  0.00     0.167 HD
ATOM     68  C   UNL     1       9.810   5.594  11.659  1.00  0.00     0.074 A 
ATOM     69  C   UNL     1      10.104   7.005  11.503  1.00  0.00     0.031 C 
ATOM     70  C   UNL     1      10.199   4.851  12.725  1.00  0.00     0.037 A 
BRANCH  57  71
ATOM     71  C   UNL     1       8.542  -1.102  12.476  1.00  0.00     0.064 A 
ATOM     72  C   UNL     1       9.316  -2.164  11.982  1.00  0.00     0.173 A 
ATOM     73  C   UNL     1       7.721  -1.350  13.585  1.00  0.00     0.173 A 
ATOM     74  F   UNL     1      10.093  -1.987  10.903  1.00  0.00    -0.203 F 
ATOM     75  C   UNL     1       9.247  -3.430  12.559  1.00  0.00     0.198 A 
ATOM     76  C   UNL     1       7.676  -2.609  14.177  1.00  0.00     0.198 A 
ATOM     77  F   UNL     1       6.953  -0.372  14.090  1.00  0.00    -0.203 F 
ATOM     78  F   UNL     1       9.952  -4.442  12.035  1.00  0.00    -0.200 F 
ATOM     79  C   UNL     1       8.433  -3.650  13.659  1.00  0.00     0.200 A 
ATOM     80  F   UNL     1       6.892  -2.819  15.243  1.00  0.00    -0.200 F 
ATOM     81  F   UNL     1       8.368  -4.868  14.215  1.00  0.00    -0.200 F 
ENDBRANCH  57  71
BRANCH  58  82
ATOM     82  C   UNL     1       8.238   7.781   7.780  1.00  0.00     0.064 A 
ATOM     83  C   UNL     1       9.405   8.345   7.245  1.00  0.00     0.173 A 
ATOM     84  C   UNL     1       7.039   8.490   7.616  1.00  0.00     0.173 A 
ATOM     85  F   UNL     1      10.581   7.719   7.396  1.00  0.00    -0.203 F 
ATOM     86  C   UNL     1       9.374   9.569   6.577  1.00  0.00     0.198 A 
ATOM     87  C   UNL     1       7.005   9.700   6.926  1.00  0.00     0.198 A 
ATOM     88  F   UNL     1       5.894   7.995   8.109  1.00  0.00    -0.203 F 
ATOM     89  F   UNL     1      10.509  10.099   6.100  1.00  0.00    -0.200 F 
ATOM     90  C   UNL     1       8.173  10.241   6.410  1.00  0.00     0.200 A 
ATOM     91  F   UNL     1       5.839  10.340   6.756  1.00  0.00    -0.200 F 
ATOM     92  F   UNL     1       8.141  11.409   5.754  1.00  0.00    -0.200 F 
ENDBRANCH  58  82
BRANCH  70  93
ATOM     93  C   UNL     1      11.002   5.547  13.780  1.00  0.00     0.064 A 
ATOM     94  C   UNL     1      10.402   6.428  14.690  1.00  0.00     0.173 A 
ATOM     95  C   UNL     1      12.376   5.294  13.906  1.00  0.00     0.173 A 
ATOM     96  F   UNL     1       9.092   6.703  14.599  1.00  0.00    -0.203 F 
ATOM     97  C   UNL     1      11.158   7.056  15.674  1.00  0.00     0.198 A 
ATOM     98  C   UNL     1      13.123   5.906  14.906  1.00  0.00     0.198 A 
ATOM     99  F   UNL     1      12.988   4.448  13.064  1.00  0.00    -0.203 F 
ATOM    100  F   UNL     1      10.575   7.928  16.508  1.00  0.00    -0.200 F 
ATOM    101  C   UNL     1      12.515   6.791  15.785  1.00  0.00     0.200 A 
ATOM    102  F   UNL     1      14.432   5.641  15.020  1.00  0.00    -0.200 F 
ATOM    103  F   UNL     1      13.241   7.397  16.734  1.00  0.00    -0.200 F 
ENDBRANCH  70  93
ENDBRANCH  44  45
ENDBRANCH  37  39
ENDBRANCH  36  37
ENDBRANCH  35  36
ENDBRANCH  34  35
ENDBRANCH  33  34
ENDBRANCH  32  33
ENDBRANCH   1  32
TORSDOF 20
