REMARK SMILES Cc1c(CC(=O)OCCOCCOC(=O)c2ccc(-c3c4nc(c(-c5c(F)c(F)c(F)c(F)c5F)c5ccc([nH]5)c(-c5c(F)c(F)c(F)c(F)c5F)c5nc(c(-c6c(F)c(F)c(F)c(F)c6F)c6ccc3[nH]6)C=C5)C=C4)cc2)c2ccccc2n1C(=O)c1ccc(Cl)cc1
REMARK SMILES IDX 9 1 8 2 7 3 5 4 6 5 4 6 3 7 1 8 2 9 85 10 79 11 84 12 80 13
REMARK SMILES IDX 83 14 81 15 82 16 86 17 87 18 88 19 89 20 94 21 90 22 93 23
REMARK SMILES IDX 91 24 92 25 10 26 11 27 12 28 13 29 14 30 15 31 16 32 17 33
REMARK SMILES IDX 78 34 18 35 77 36 19 37 20 38 21 39 71 40 22 41 76 42 70 43
REMARK SMILES IDX 72 44 23 45 75 46 69 47 68 48 24 50 56 51 36 52 55 53 37 54
REMARK SMILES IDX 40 55 54 56 73 57 38 58 39 59 53 61 74 62 41 63 25 64 26 65
REMARK SMILES IDX 34 66 27 67 28 68 32 69 35 70 29 71 30 72 33 73 31 74 57 75
REMARK SMILES IDX 58 76 66 77 59 78 60 79 64 80 67 81 61 82 62 83 65 84 63 85
REMARK SMILES IDX 42 86 43 87 51 88 44 89 45 90 49 91 52 92 46 93 47 94 50 95
REMARK SMILES IDX 48 96
REMARK H PARENT 72 49 40 60
REMARK Flexibility Score: inf
ROOT
ATOM      1  C   UNL     1       0.440  -5.181   3.717  1.00  0.00     0.202 C 
ENDROOT
BRANCH   1   2
ATOM      2  C   UNL     1       0.925  -3.721   3.720  1.00  0.00     0.261 C 
BRANCH   2   3
ATOM      3  O   UNL     1       1.096  -3.122   2.424  1.00  0.00    -0.463 OA
BRANCH   3   4
ATOM      4  C   UNL     1       2.393  -2.939   2.057  1.00  0.00     0.310 C 
ATOM      5  O   UNL     1       3.352  -3.207   2.780  1.00  0.00    -0.252 OA
BRANCH   4   6
ATOM      6  C   UNL     1       2.620  -2.361   0.678  1.00  0.00     0.160 C 
BRANCH   6   7
ATOM      7  C   UNL     1       1.471  -2.252  -0.292  1.00  0.00    -0.008 A 
ATOM      8  C   UNL     1       0.899   0.245   0.025  1.00  0.00     0.065 C 
ATOM      9  C   UNL     1       0.726  -1.115  -0.583  1.00  0.00     0.028 A 
ATOM     10  N   UNL     1      -0.214  -1.415  -1.587  1.00  0.00    -0.280 N 
ATOM     11  C   UNL     1       1.057  -3.260  -1.214  1.00  0.00     0.004 A 
ATOM     12  C   UNL     1      -0.012  -2.757  -1.964  1.00  0.00     0.056 A 
ATOM     13  C   UNL     1       1.521  -4.573  -1.476  1.00  0.00     0.010 A 
ATOM     14  C   UNL     1      -0.649  -3.591  -2.912  1.00  0.00     0.027 A 
ATOM     15  C   UNL     1       0.859  -5.397  -2.386  1.00  0.00     0.001 A 
ATOM     16  C   UNL     1      -0.227  -4.911  -3.087  1.00  0.00     0.002 A 
BRANCH  10  17
ATOM     17  C   UNL     1      -1.169  -0.508  -2.146  1.00  0.00     0.262 C 
ATOM     18  O   UNL     1      -1.254   0.633  -1.696  1.00  0.00    -0.268 OA
BRANCH  17  19
ATOM     19  C   UNL     1      -2.083  -0.813  -3.258  1.00  0.00     0.040 A 
ATOM     20  C   UNL     1      -3.258  -1.533  -3.015  1.00  0.00     0.015 A 
ATOM     21  C   UNL     1      -1.756  -0.389  -4.551  1.00  0.00     0.015 A 
ATOM     22  C   UNL     1      -4.064  -1.910  -4.092  1.00  0.00     0.021 A 
ATOM     23  C   UNL     1      -2.576  -0.756  -5.622  1.00  0.00     0.021 A 
ATOM     24  C   UNL     1      -3.713  -1.532  -5.390  1.00  0.00     0.041 A 
ATOM     25  Cl  UNL     1      -4.678  -2.048  -6.717  1.00  0.00    -0.084 Cl
ENDBRANCH  17  19
ENDBRANCH  10  17
ENDBRANCH   6   7
ENDBRANCH   4   6
ENDBRANCH   3   4
ENDBRANCH   2   3
ENDBRANCH   1   2
BRANCH   1  26
ATOM     26  O   UNL     1       0.921  -6.109   2.755  1.00  0.00    -0.374 OA
BRANCH  26  27
ATOM     27  C   UNL     1       0.620  -5.857   1.384  1.00  0.00     0.202 C 
BRANCH  27  28
ATOM     28  C   UNL     1      -0.845  -5.853   0.906  1.00  0.00     0.261 C 
BRANCH  28  29
ATOM     29  O   UNL     1      -1.649  -4.913   1.618  1.00  0.00    -0.460 OA
BRANCH  29  30
ATOM     30  C   UNL     1      -2.893  -5.360   1.924  1.00  0.00     0.338 C 
ATOM     31  O   UNL     1      -3.558  -6.203   1.339  1.00  0.00    -0.246 OA
BRANCH  30  32
ATOM     32  C   UNL     1      -3.083  -4.957   3.323  1.00  0.00     0.060 A 
ATOM     33  C   UNL     1      -2.871  -3.628   3.695  1.00  0.00     0.016 A 
ATOM     34  C   UNL     1      -3.088  -5.997   4.268  1.00  0.00     0.016 A 
ATOM     35  C   UNL     1      -2.567  -3.357   5.019  1.00  0.00     0.010 A 
ATOM     36  C   UNL     1      -2.764  -5.722   5.590  1.00  0.00     0.010 A 
ATOM     37  C   UNL     1      -2.471  -4.408   5.955  1.00  0.00    -0.014 A 
BRANCH  37  38
ATOM     38  C   UNL     1      -2.350  -4.025   7.360  1.00  0.00     0.031 A 
ATOM     39  C   UNL     1      -3.564  -3.294   7.808  1.00  0.00     0.074 A 
ATOM     40  C   UNL     1      -1.374  -4.361   8.228  1.00  0.00     0.049 A 
ATOM     41  N   UNL     1      -3.651  -2.062   8.183  1.00  0.00    -0.248 NA
ATOM     42  C   UNL     1      -4.864  -3.970   7.647  1.00  0.00     0.031 C 
ATOM     43  C   UNL     1      -0.294  -5.329   8.039  1.00  0.00     0.029 A 
ATOM     44  N   UNL     1      -1.202  -3.959   9.527  1.00  0.00    -0.354 N 
ATOM     45  C   UNL     1      -4.996  -1.860   8.479  1.00  0.00     0.074 A 
ATOM     46  C   UNL     1      -5.713  -2.997   7.972  1.00  0.00     0.031 C 
ATOM     47  C   UNL     1       0.276  -5.603   9.237  1.00  0.00     0.029 A 
ATOM     48  C   UNL     1      -0.300  -4.731  10.250  1.00  0.00     0.049 A 
ATOM     49  H   UNL     1      -1.677  -3.189   9.915  1.00  0.00     0.167 HD
ATOM     50  C   UNL     1      -5.372  -0.906   9.371  1.00  0.00     0.037 A 
ATOM     51  C   UNL     1      -0.088  -4.684  11.590  1.00  0.00     0.037 A 
ATOM     52  C   UNL     1      -4.313   0.034   9.612  1.00  0.00     0.049 A 
ATOM     53  C   UNL     1      -0.549  -3.365  12.081  1.00  0.00     0.074 A 
ATOM     54  C   UNL     1      -3.804   1.159   9.005  1.00  0.00     0.029 A 
ATOM     55  N   UNL     1      -3.376  -0.412  10.499  1.00  0.00    -0.354 N 
ATOM     56  N   UNL     1       0.041  -2.239  11.799  1.00  0.00    -0.248 NA
ATOM     57  C   UNL     1      -1.865  -3.249  12.704  1.00  0.00     0.031 C 
ATOM     58  C   UNL     1      -2.465   1.304   9.482  1.00  0.00     0.029 A 
ATOM     59  C   UNL     1      -2.200   0.277  10.382  1.00  0.00     0.049 A 
ATOM     60  H   UNL     1      -3.527  -1.140  11.144  1.00  0.00     0.167 HD
ATOM     61  C   UNL     1      -0.981  -1.315  11.815  1.00  0.00     0.074 A 
ATOM     62  C   UNL     1      -2.068  -1.938  12.554  1.00  0.00     0.031 C 
ATOM     63  C   UNL     1      -0.989  -0.278  10.933  1.00  0.00     0.037 A 
BRANCH  50  64
ATOM     64  C   UNL     1      -6.478  -1.104  10.380  1.00  0.00     0.064 A 
ATOM     65  C   UNL     1      -6.903  -0.011  11.160  1.00  0.00     0.173 A 
ATOM     66  C   UNL     1      -6.909  -2.374  10.827  1.00  0.00     0.173 A 
ATOM     67  F   UNL     1      -6.513   1.236  10.856  1.00  0.00    -0.203 F 
ATOM     68  C   UNL     1      -7.668  -0.184  12.318  1.00  0.00     0.198 A 
ATOM     69  C   UNL     1      -7.718  -2.538  11.949  1.00  0.00     0.198 A 
ATOM     70  F   UNL     1      -6.468  -3.510  10.274  1.00  0.00    -0.203 F 
ATOM     71  F   UNL     1      -7.957   0.873  13.089  1.00  0.00    -0.200 F 
ATOM     72  C   UNL     1      -8.077  -1.446  12.709  1.00  0.00     0.200 A 
ATOM     73  F   UNL     1      -8.075  -3.773  12.328  1.00  0.00    -0.200 F 
ATOM     74  F   UNL     1      -8.771  -1.619  13.842  1.00  0.00    -0.200 F 
ENDBRANCH  50  64
BRANCH  51  75
ATOM     75  C   UNL     1       0.257  -5.758  12.555  1.00  0.00     0.064 A 
ATOM     76  C   UNL     1       0.674  -5.436  13.862  1.00  0.00     0.173 A 
ATOM     77  C   UNL     1      -0.145  -7.088  12.338  1.00  0.00     0.173 A 
ATOM     78  F   UNL     1       1.056  -4.186  14.162  1.00  0.00    -0.203 F 
ATOM     79  C   UNL     1       0.611  -6.365  14.905  1.00  0.00     0.198 A 
ATOM     80  C   UNL     1      -0.198  -8.017  13.380  1.00  0.00     0.198 A 
ATOM     81  F   UNL     1      -0.599  -7.480  11.140  1.00  0.00    -0.203 F 
ATOM     82  F   UNL     1       0.921  -5.990  16.154  1.00  0.00    -0.200 F 
ATOM     83  C   UNL     1       0.154  -7.649  14.667  1.00  0.00     0.200 A 
ATOM     84  F   UNL     1      -0.668  -9.250  13.146  1.00  0.00    -0.200 F 
ATOM     85  F   UNL     1       0.008  -8.514  15.680  1.00  0.00    -0.200 F 
ENDBRANCH  51  75
BRANCH  63  86
ATOM     86  C   UNL     1       0.325   0.170  10.385  1.00  0.00     0.064 A 
ATOM     87  C   UNL     1       1.125  -0.590   9.518  1.00  0.00     0.173 A 
ATOM     88  C   UNL     1       0.757   1.462  10.710  1.00  0.00     0.173 A 
ATOM     89  F   UNL     1       0.740  -1.808   9.111  1.00  0.00    -0.203 F 
ATOM     90  C   UNL     1       2.326  -0.081   9.024  1.00  0.00     0.198 A 
ATOM     91  C   UNL     1       1.936   1.980  10.188  1.00  0.00     0.198 A 
ATOM     92  F   UNL     1       0.011   2.238  11.512  1.00  0.00    -0.203 F 
ATOM     93  F   UNL     1       3.087  -0.826   8.209  1.00  0.00    -0.200 F 
ATOM     94  C   UNL     1       2.724   1.206   9.353  1.00  0.00     0.200 A 
ATOM     95  F   UNL     1       2.296   3.237  10.478  1.00  0.00    -0.200 F 
ATOM     96  F   UNL     1       3.859   1.709   8.847  1.00  0.00    -0.200 F 
ENDBRANCH  63  86
ENDBRANCH  37  38
ENDBRANCH  30  32
ENDBRANCH  29  30
ENDBRANCH  28  29
ENDBRANCH  27  28
ENDBRANCH  26  27
ENDBRANCH   1  26
TORSDOF 17
