REMARK SMILES Cc1cccc(C)c1Nc1ccccc1CC(=O)OCCOCCOC(=O)c1ccc(-c2c3nc(c(-c4c(F)c(F)c(F)c(F)c4F)c4ccc([nH]4)c(-c4c(F)c(F)c(F)c(F)c4F)c4nc(c(-c5c(F)c(F)c(F)c(F)c5F)c5ccc2[nH]5)C=C4)C=C3)cc1
REMARK SMILES IDX 21 1 20 2 19 3 17 4 18 5 16 6 15 7 10 8 11 9 12 10 14 11
REMARK SMILES IDX 13 12 9 13 8 15 1 16 2 17 3 18 4 19 6 20 5 21 7 22 22 23
REMARK SMILES IDX 23 24 24 25 25 26 26 27 27 28 28 29 29 30 90 31 30 32 89 33
REMARK SMILES IDX 31 34 32 35 33 36 83 37 34 38 88 39 82 40 84 41 35 42 87 43
REMARK SMILES IDX 81 44 80 45 36 47 68 48 48 49 67 50 49 51 52 52 66 53 85 54
REMARK SMILES IDX 50 55 51 56 65 58 86 59 53 60 37 61 38 62 46 63 39 64 40 65
REMARK SMILES IDX 44 66 47 67 41 68 42 69 45 70 43 71 69 72 70 73 78 74 71 75
REMARK SMILES IDX 72 76 76 77 79 78 73 79 74 80 77 81 75 82 54 83 55 84 63 85
REMARK SMILES IDX 56 86 57 87 61 88 64 89 58 90 59 91 62 92 60 93
REMARK H PARENT 9 14 84 46 52 57
REMARK Flexibility Score: inf
ROOT
ATOM      1  C   UNL     1      -1.532   4.498   5.740  1.00  0.00     0.202 C 
ENDROOT
BRANCH   1   2
ATOM      2  C   UNL     1      -0.554   3.542   5.048  1.00  0.00     0.261 C 
BRANCH   2   3
ATOM      3  O   UNL     1      -0.905   3.257   3.680  1.00  0.00    -0.463 OA
BRANCH   3   4
ATOM      4  C   UNL     1      -1.280   1.972   3.446  1.00  0.00     0.310 C 
ATOM      5  O   UNL     1      -1.267   1.087   4.301  1.00  0.00    -0.252 OA
BRANCH   4   6
ATOM      6  C   UNL     1      -1.740   1.669   2.044  1.00  0.00     0.160 C 
BRANCH   6   7
ATOM      7  C   UNL     1      -1.931   2.782   1.029  1.00  0.00    -0.013 A 
ATOM      8  C   UNL     1      -1.035   3.029  -0.032  1.00  0.00     0.042 A 
ATOM      9  C   UNL     1      -1.273   4.126  -0.887  1.00  0.00     0.026 A 
ATOM     10  C   UNL     1      -2.413   4.917  -0.761  1.00  0.00     0.002 A 
ATOM     11  C   UNL     1      -3.105   3.560   1.100  1.00  0.00     0.006 A 
ATOM     12  C   UNL     1      -3.345   4.616   0.220  1.00  0.00     0.000 A 
BRANCH   8  13
ATOM     13  N   UNL     1       0.005   2.157  -0.412  1.00  0.00    -0.355 N 
ATOM     14  H   UNL     1       0.836   2.616  -0.674  1.00  0.00     0.167 HD
BRANCH  13  15
ATOM     15  C   UNL     1       0.078   0.745  -0.487  1.00  0.00     0.044 A 
ATOM     16  C   UNL     1       2.576   0.950   0.001  1.00  0.00     0.046 C 
ATOM     17  C   UNL     1       1.326   0.134  -0.202  1.00  0.00    -0.027 A 
ATOM     18  C   UNL     1       1.409  -1.260  -0.053  1.00  0.00     0.005 A 
ATOM     19  C   UNL     1       0.280  -2.056  -0.191  1.00  0.00     0.001 A 
ATOM     20  C   UNL     1      -1.050  -0.085  -0.714  1.00  0.00    -0.027 A 
ATOM     21  C   UNL     1      -0.936  -1.475  -0.528  1.00  0.00     0.005 A 
ATOM     22  C   UNL     1      -2.403   0.426  -1.136  1.00  0.00     0.046 C 
ENDBRANCH  13  15
ENDBRANCH   8  13
ENDBRANCH   6   7
ENDBRANCH   4   6
ENDBRANCH   3   4
ENDBRANCH   2   3
ENDBRANCH   1   2
BRANCH   1  23
ATOM     23  O   UNL     1      -2.904   4.115   5.795  1.00  0.00    -0.374 OA
BRANCH  23  24
ATOM     24  C   UNL     1      -3.654   4.201   4.585  1.00  0.00     0.202 C 
BRANCH  24  25
ATOM     25  C   UNL     1      -3.993   5.608   4.079  1.00  0.00     0.261 C 
BRANCH  25  26
ATOM     26  O   UNL     1      -2.817   6.329   3.666  1.00  0.00    -0.460 OA
BRANCH  26  27
ATOM     27  C   UNL     1      -2.622   7.503   4.306  1.00  0.00     0.338 C 
ATOM     28  O   UNL     1      -3.394   8.068   5.074  1.00  0.00    -0.246 OA
BRANCH  27  29
ATOM     29  C   UNL     1      -1.238   7.969   4.122  1.00  0.00     0.060 A 
ATOM     30  C   UNL     1      -0.477   8.183   5.279  1.00  0.00     0.016 A 
ATOM     31  C   UNL     1      -0.725   8.292   2.864  1.00  0.00     0.016 A 
ATOM     32  C   UNL     1       0.773   8.786   5.190  1.00  0.00     0.010 A 
ATOM     33  C   UNL     1       0.529   8.909   2.777  1.00  0.00     0.010 A 
ATOM     34  C   UNL     1       1.261   9.199   3.944  1.00  0.00    -0.014 A 
BRANCH  34  35
ATOM     35  C   UNL     1       2.448  10.088   3.903  1.00  0.00     0.031 A 
ATOM     36  C   UNL     1       2.238  11.574   3.810  1.00  0.00     0.074 A 
ATOM     37  C   UNL     1       3.690   9.586   4.019  1.00  0.00     0.049 A 
ATOM     38  N   UNL     1       3.121  12.541   3.791  1.00  0.00    -0.248 NA
ATOM     39  C   UNL     1       0.842  12.034   3.731  1.00  0.00     0.031 C 
ATOM     40  C   UNL     1       4.016   8.169   4.160  1.00  0.00     0.029 A 
ATOM     41  N   UNL     1       4.907  10.219   4.043  1.00  0.00    -0.354 N 
ATOM     42  C   UNL     1       2.389  13.718   3.700  1.00  0.00     0.074 A 
ATOM     43  C   UNL     1       0.993  13.347   3.633  1.00  0.00     0.031 C 
ATOM     44  C   UNL     1       5.351   8.038   4.252  1.00  0.00     0.029 A 
ATOM     45  C   UNL     1       5.971   9.358   4.151  1.00  0.00     0.049 A 
ATOM     46  H   UNL     1       5.008  11.197   3.987  1.00  0.00     0.167 HD
ATOM     47  C   UNL     1       2.841  14.995   3.684  1.00  0.00     0.037 A 
ATOM     48  C   UNL     1       7.295   9.611   4.154  1.00  0.00     0.037 A 
ATOM     49  C   UNL     1       4.231  15.363   3.753  1.00  0.00     0.049 A 
ATOM     50  C   UNL     1       7.775  11.037   4.069  1.00  0.00     0.074 A 
ATOM     51  C   UNL     1       4.790  16.629   3.761  1.00  0.00     0.029 A 
ATOM     52  N   UNL     1       5.282  14.460   3.819  1.00  0.00    -0.354 N 
ATOM     53  N   UNL     1       7.076  12.144   4.009  1.00  0.00    -0.248 NA
ATOM     54  C   UNL     1       9.230  11.246   4.056  1.00  0.00     0.031 C 
ATOM     55  C   UNL     1       6.182  16.491   3.784  1.00  0.00     0.029 A 
ATOM     56  C   UNL     1       6.488  15.141   3.841  1.00  0.00     0.049 A 
ATOM     57  H   UNL     1       5.185  13.481   3.846  1.00  0.00     0.167 HD
ATOM     58  C   UNL     1       8.001  13.180   3.978  1.00  0.00     0.074 A 
ATOM     59  C   UNL     1       9.313  12.569   4.039  1.00  0.00     0.031 C 
ATOM     60  C   UNL     1       7.785  14.516   3.905  1.00  0.00     0.037 A 
BRANCH  47  61
ATOM     61  C   UNL     1       1.822  16.089   3.562  1.00  0.00     0.064 A 
ATOM     62  C   UNL     1       0.971  16.426   4.625  1.00  0.00     0.173 A 
ATOM     63  C   UNL     1       1.716  16.830   2.376  1.00  0.00     0.173 A 
ATOM     64  F   UNL     1       1.023  15.737   5.775  1.00  0.00    -0.203 F 
ATOM     65  C   UNL     1       0.036  17.450   4.497  1.00  0.00     0.198 A 
ATOM     66  C   UNL     1       0.799  17.871   2.260  1.00  0.00     0.198 A 
ATOM     67  F   UNL     1       2.509  16.550   1.330  1.00  0.00    -0.203 F 
ATOM     68  F   UNL     1      -0.796  17.727   5.510  1.00  0.00    -0.200 F 
ATOM     69  C   UNL     1      -0.045  18.176   3.317  1.00  0.00     0.200 A 
ATOM     70  F   UNL     1       0.729  18.578   1.123  1.00  0.00    -0.200 F 
ATOM     71  F   UNL     1      -0.941  19.165   3.197  1.00  0.00    -0.200 F 
ENDBRANCH  47  61
BRANCH  48  72
ATOM     72  C   UNL     1       8.262   8.486   4.232  1.00  0.00     0.064 A 
ATOM     73  C   UNL     1       9.058   8.290   5.369  1.00  0.00     0.173 A 
ATOM     74  C   UNL     1       8.420   7.592   3.163  1.00  0.00     0.173 A 
ATOM     75  F   UNL     1       8.963   9.134   6.407  1.00  0.00    -0.203 F 
ATOM     76  C   UNL     1       9.985   7.251   5.428  1.00  0.00     0.198 A 
ATOM     77  C   UNL     1       9.328   6.537   3.233  1.00  0.00     0.198 A 
ATOM     78  F   UNL     1       7.685   7.738   2.051  1.00  0.00    -0.203 F 
ATOM     79  F   UNL     1      10.765   7.112   6.509  1.00  0.00    -0.200 F 
ATOM     80  C   UNL     1      10.115   6.372   4.362  1.00  0.00     0.200 A 
ATOM     81  F   UNL     1       9.442   5.685   2.206  1.00  0.00    -0.200 F 
ATOM     82  F   UNL     1      11.004   5.371   4.421  1.00  0.00    -0.200 F 
ENDBRANCH  48  72
BRANCH  60  83
ATOM     83  C   UNL     1       8.990  15.412   3.916  1.00  0.00     0.064 A 
ATOM     84  C   UNL     1       9.838  15.515   2.804  1.00  0.00     0.173 A 
ATOM     85  C   UNL     1       9.273  16.208   5.036  1.00  0.00     0.173 A 
ATOM     86  F   UNL     1       9.617  14.764   1.715  1.00  0.00    -0.203 F 
ATOM     87  C   UNL     1      10.940  16.367   2.822  1.00  0.00     0.198 A 
ATOM     88  C   UNL     1      10.358  17.079   5.040  1.00  0.00     0.198 A 
ATOM     89  F   UNL     1       8.487  16.152   6.122  1.00  0.00    -0.203 F 
ATOM     90  F   UNL     1      11.762  16.417   1.765  1.00  0.00    -0.200 F 
ATOM     91  C   UNL     1      11.195  17.153   3.936  1.00  0.00     0.200 A 
ATOM     92  F   UNL     1      10.596  17.848   6.112  1.00  0.00    -0.200 F 
ATOM     93  F   UNL     1      12.251  17.977   3.949  1.00  0.00    -0.200 F 
ENDBRANCH  60  83
ENDBRANCH  34  35
ENDBRANCH  27  29
ENDBRANCH  26  27
ENDBRANCH  25  26
ENDBRANCH  24  25
ENDBRANCH  23  24
ENDBRANCH   1  23
TORSDOF 17
