REMARK SMILES O=C(OCCOCCOC(=O)[C@@H]1c2ccccc2C(=O)N(C2CCCC2)C12CCCCC2)c1ccc(-c2c3nc(c(-c4c(F)c(F)c(F)c(F)c4F)c4ccc([nH]4)c(-c4c(F)c(F)c(F)c(F)c4F)c4nc(c(-c5c(F)c(F)c(F)c(F)c5F)c5ccc2[nH]5)C=C4)C=C3)cc1
REMARK SMILES IDX 5 1 4 2 3 3 2 4 1 5 33 6 34 7 95 8 35 9 94 10 36 11 37 12
REMARK SMILES IDX 38 13 88 14 39 15 93 16 87 17 89 18 40 19 92 20 86 21 85 22
REMARK SMILES IDX 41 24 73 25 53 26 72 27 54 28 57 29 71 30 90 31 55 32 56 33
REMARK SMILES IDX 70 35 91 36 58 37 42 38 43 39 51 40 44 41 45 42 49 43 52 44
REMARK SMILES IDX 46 45 47 46 50 47 48 48 74 49 75 50 83 51 76 52 77 53 81 54
REMARK SMILES IDX 84 55 78 56 79 57 82 58 80 59 59 60 60 61 68 62 61 63 62 64
REMARK SMILES IDX 66 65 69 66 63 67 64 68 67 69 65 70 6 71 7 72 8 73 9 74
REMARK SMILES IDX 10 75 11 76 12 77 13 78 27 79 14 80 18 81 21 82 28 83 32 84
REMARK SMILES IDX 15 85 17 86 19 87 29 88 31 89 16 90 20 91 30 92 22 93 23 94
REMARK SMILES IDX 26 95 24 96 25 97
REMARK H PARENT 89 23 57 34
REMARK Flexibility Score: inf
ROOT
ATOM      1  C   UNL     1       4.739   2.224   0.043  1.00  0.00     0.202 C 
ENDROOT
BRANCH   1   2
ATOM      2  C   UNL     1       5.440   1.543  -1.143  1.00  0.00     0.261 C 
BRANCH   2   3
ATOM      3  O   UNL     1       6.692   2.148  -1.489  1.00  0.00    -0.460 OA
BRANCH   3   4
ATOM      4  C   UNL     1       6.902   3.265  -2.228  1.00  0.00     0.338 C 
ATOM      5  O   UNL     1       8.066   3.620  -2.412  1.00  0.00    -0.246 OA
BRANCH   4   6
ATOM      6  C   UNL     1       5.811   4.158  -2.752  1.00  0.00     0.060 A 
ATOM      7  C   UNL     1       6.208   5.302  -3.468  1.00  0.00     0.016 A 
ATOM      8  C   UNL     1       4.449   4.010  -2.493  1.00  0.00     0.016 A 
ATOM      9  C   UNL     1       5.276   6.271  -3.852  1.00  0.00     0.010 A 
ATOM     10  C   UNL     1       3.540   5.011  -2.748  1.00  0.00     0.010 A 
ATOM     11  C   UNL     1       3.944   6.125  -3.463  1.00  0.00    -0.014 A 
BRANCH  11  12
ATOM     12  C   UNL     1       2.838   6.920  -3.992  1.00  0.00     0.031 A 
ATOM     13  C   UNL     1       2.144   7.921  -3.134  1.00  0.00     0.074 A 
ATOM     14  C   UNL     1       2.315   6.448  -5.138  1.00  0.00     0.049 A 
ATOM     15  N   UNL     1       1.120   8.672  -3.428  1.00  0.00    -0.248 NA
ATOM     16  C   UNL     1       2.627   8.072  -1.749  1.00  0.00     0.031 C 
ATOM     17  C   UNL     1       2.838   5.289  -5.879  1.00  0.00     0.029 A 
ATOM     18  N   UNL     1       1.209   6.816  -5.842  1.00  0.00    -0.354 N 
ATOM     19  C   UNL     1       0.865   9.420  -2.288  1.00  0.00     0.074 A 
ATOM     20  C   UNL     1       1.781   8.973  -1.264  1.00  0.00     0.031 C 
ATOM     21  C   UNL     1       2.054   5.048  -6.936  1.00  0.00     0.029 A 
ATOM     22  C   UNL     1       1.001   6.051  -6.962  1.00  0.00     0.049 A 
ATOM     23  H   UNL     1       0.618   7.556  -5.574  1.00  0.00     0.167 HD
ATOM     24  C   UNL     1      -0.040  10.416  -2.158  1.00  0.00     0.037 A 
ATOM     25  C   UNL     1       0.080   6.192  -7.927  1.00  0.00     0.037 A 
ATOM     26  C   UNL     1      -0.947  10.774  -3.219  1.00  0.00     0.049 A 
ATOM     27  C   UNL     1      -0.839   7.368  -7.808  1.00  0.00     0.074 A 
ATOM     28  C   UNL     1      -1.851  11.816  -3.280  1.00  0.00     0.029 A 
ATOM     29  N   UNL     1      -1.063  10.069  -4.414  1.00  0.00    -0.354 N 
ATOM     30  N   UNL     1      -0.958   8.217  -6.814  1.00  0.00    -0.248 NA
ATOM     31  C   UNL     1      -1.715   7.640  -8.949  1.00  0.00     0.031 C 
ATOM     32  C   UNL     1      -2.538  11.721  -4.494  1.00  0.00     0.029 A 
ATOM     33  C   UNL     1      -2.029  10.649  -5.215  1.00  0.00     0.049 A 
ATOM     34  H   UNL     1      -0.535   9.274  -4.654  1.00  0.00     0.167 HD
ATOM     35  C   UNL     1      -1.904   9.143  -7.213  1.00  0.00     0.074 A 
ATOM     36  C   UNL     1      -2.309   8.759  -8.554  1.00  0.00     0.031 C 
ATOM     37  C   UNL     1      -2.400  10.210  -6.539  1.00  0.00     0.037 A 
BRANCH  24  38
ATOM     38  C   UNL     1      -0.048  11.224  -0.891  1.00  0.00     0.064 A 
ATOM     39  C   UNL     1       1.033  12.060  -0.565  1.00  0.00     0.173 A 
ATOM     40  C   UNL     1      -1.174  11.265  -0.056  1.00  0.00     0.173 A 
ATOM     41  F   UNL     1       2.140  12.060  -1.323  1.00  0.00    -0.203 F 
ATOM     42  C   UNL     1       0.987  12.904   0.543  1.00  0.00     0.198 A 
ATOM     43  C   UNL     1      -1.228  12.129   1.038  1.00  0.00     0.198 A 
ATOM     44  F   UNL     1      -2.238  10.491  -0.315  1.00  0.00    -0.203 F 
ATOM     45  F   UNL     1       2.039  13.681   0.836  1.00  0.00    -0.200 F 
ATOM     46  C   UNL     1      -0.149  12.948   1.335  1.00  0.00     0.200 A 
ATOM     47  F   UNL     1      -2.332  12.182   1.796  1.00  0.00    -0.200 F 
ATOM     48  F   UNL     1      -0.206  13.784   2.381  1.00  0.00    -0.200 F 
ENDBRANCH  24  38
BRANCH  25  49
ATOM     49  C   UNL     1       0.147   5.317  -9.122  1.00  0.00     0.064 A 
ATOM     50  C   UNL     1       0.657   5.812 -10.330  1.00  0.00     0.173 A 
ATOM     51  C   UNL     1      -0.170   3.952  -9.060  1.00  0.00     0.173 A 
ATOM     52  F   UNL     1       0.994   7.107 -10.433  1.00  0.00    -0.203 F 
ATOM     53  C   UNL     1       0.831   4.983 -11.435  1.00  0.00     0.198 A 
ATOM     54  C   UNL     1       0.027   3.117 -10.159  1.00  0.00     0.198 A 
ATOM     55  F   UNL     1      -0.620   3.418  -7.915  1.00  0.00    -0.203 F 
ATOM     56  F   UNL     1       1.307   5.489 -12.581  1.00  0.00    -0.200 F 
ATOM     57  C   UNL     1       0.522   3.634 -11.347  1.00  0.00     0.200 A 
ATOM     58  F   UNL     1      -0.240   1.807 -10.061  1.00  0.00    -0.200 F 
ATOM     59  F   UNL     1       0.712   2.832 -12.403  1.00  0.00    -0.200 F 
ENDBRANCH  25  49
BRANCH  37  60
ATOM     60  C   UNL     1      -3.440  11.016  -7.250  1.00  0.00     0.064 A 
ATOM     61  C   UNL     1      -4.738  10.521  -7.432  1.00  0.00     0.173 A 
ATOM     62  C   UNL     1      -3.150  12.312  -7.697  1.00  0.00     0.173 A 
ATOM     63  F   UNL     1      -5.051   9.280  -7.030  1.00  0.00    -0.203 F 
ATOM     64  C   UNL     1      -5.708  11.290  -8.062  1.00  0.00     0.198 A 
ATOM     65  C   UNL     1      -4.133  13.091  -8.296  1.00  0.00     0.198 A 
ATOM     66  F   UNL     1      -1.922  12.827  -7.534  1.00  0.00    -0.203 F 
ATOM     67  F   UNL     1      -6.931  10.783  -8.269  1.00  0.00    -0.200 F 
ATOM     68  C   UNL     1      -5.407  12.578  -8.484  1.00  0.00     0.200 A 
ATOM     69  F   UNL     1      -3.847  14.340  -8.688  1.00  0.00    -0.200 F 
ATOM     70  F   UNL     1      -6.349  13.323  -9.078  1.00  0.00    -0.200 F 
ENDBRANCH  37  60
ENDBRANCH  11  12
ENDBRANCH   4   6
ENDBRANCH   3   4
ENDBRANCH   2   3
ENDBRANCH   1   2
BRANCH   1  71
ATOM     71  O   UNL     1       4.805   3.651   0.090  1.00  0.00    -0.374 OA
BRANCH  71  72
ATOM     72  C   UNL     1       5.966   4.279   0.634  1.00  0.00     0.202 C 
BRANCH  72  73
ATOM     73  C   UNL     1       5.675   4.878   2.006  1.00  0.00     0.261 C 
BRANCH  73  74
ATOM     74  O   UNL     1       5.680   3.840   2.992  1.00  0.00    -0.463 OA
BRANCH  74  75
ATOM     75  C   UNL     1       4.593   3.044   3.018  1.00  0.00     0.315 C 
ATOM     76  O   UNL     1       3.556   3.244   2.392  1.00  0.00    -0.251 OA
BRANCH  75  77
ATOM     77  C   UNL     1       4.704   1.951   4.054  1.00  0.00     0.156 C 
ATOM     78  C   UNL     1       4.187   2.543   5.360  1.00  0.00    -0.019 A 
ATOM     79  C   UNL     1       6.100   1.180   4.176  1.00  0.00     0.061 C 
ATOM     80  C   UNL     1       3.129   3.479   5.378  1.00  0.00     0.005 A 
ATOM     81  C   UNL     1       4.779   2.187   6.567  1.00  0.00     0.044 A 
ATOM     82  N   UNL     1       5.891   0.303   5.425  1.00  0.00    -0.329 N 
ATOM     83  C   UNL     1       7.357   2.068   4.520  1.00  0.00     0.030 C 
ATOM     84  C   UNL     1       6.386   0.336   2.880  1.00  0.00     0.030 C 
ATOM     85  C   UNL     1       2.811   4.181   6.534  1.00  0.00     0.000 A 
ATOM     86  C   UNL     1       4.471   2.906   7.729  1.00  0.00     0.014 A 
ATOM     87  C   UNL     1       5.597   0.951   6.643  1.00  0.00     0.254 C 
ATOM     88  C   UNL     1       8.319   2.503   3.410  1.00  0.00     0.002 C 
ATOM     89  C   UNL     1       7.386   0.848   1.844  1.00  0.00     0.002 C 
ATOM     90  C   UNL     1       3.517   3.927   7.702  1.00  0.00     0.001 A 
ATOM     91  O   UNL     1       5.885   0.494   7.748  1.00  0.00    -0.269 OA
ATOM     92  C   UNL     1       8.658   1.389   2.444  1.00  0.00     0.000 C 
BRANCH  82  93
ATOM     93  C   UNL     1       6.112  -1.148   5.516  1.00  0.00     0.086 C 
ATOM     94  C   UNL     1       5.231  -2.037   4.632  1.00  0.00     0.025 C 
ATOM     95  C   UNL     1       7.552  -1.629   5.339  1.00  0.00     0.025 C 
ATOM     96  C   UNL     1       5.955  -3.374   4.665  1.00  0.00     0.002 C 
ATOM     97  C   UNL     1       7.442  -3.034   4.746  1.00  0.00     0.002 C 
ENDBRANCH  82  93
ENDBRANCH  75  77
ENDBRANCH  74  75
ENDBRANCH  73  74
ENDBRANCH  72  73
ENDBRANCH  71  72
ENDBRANCH   1  71
TORSDOF 15
