REMARK SMILES CC(C)[C@@H]1C(=O)Nc2ccccc2N1C(=O)N[C@H](Cc1ccccc1)C(=O)OCCOCCOC(=O)c1ccc(-c2c3nc(c(-c4c(F)c(F)c(F)c(F)c4F)c4ccc([nH]4)c(-c4c(F)c(F)c(F)c(F)c4F)c4nc(c(-c5c(F)c(F)c(F)c(F)c5F)c5ccc2[nH]5)C=C4)C=C3)cc1
REMARK SMILES IDX 30 1 29 2 28 3 26 4 27 5 18 6 17 7 15 8 16 9 14 11 4 12 5 13
REMARK SMILES IDX 6 14 7 15 13 16 8 17 12 19 9 20 11 21 10 22 2 23 1 24 3 25
REMARK SMILES IDX 19 26 20 27 21 28 25 29 22 30 24 31 23 32 31 33 32 34 33 35
REMARK SMILES IDX 34 36 35 37 36 38 37 39 38 40 99 41 39 42 98 43 40 44 41 45
REMARK SMILES IDX 42 46 92 47 43 48 97 49 91 50 93 51 44 52 96 53 90 54 89 55
REMARK SMILES IDX 45 57 77 58 57 59 76 60 58 61 61 62 75 63 94 64 59 65 60 66
REMARK SMILES IDX 74 68 95 69 62 70 46 71 47 72 55 73 48 74 49 75 53 76 56 77
REMARK SMILES IDX 50 78 51 79 54 80 52 81 78 82 79 83 87 84 80 85 81 86 85 87
REMARK SMILES IDX 88 88 82 89 83 90 86 91 84 92 63 93 64 94 72 95 65 96 66 97
REMARK SMILES IDX 70 98 73 99 67 100 68 101 71 102 69 103
REMARK H PARENT 17 10 7 18 93 56 61 67
REMARK Flexibility Score: inf
ROOT
ATOM      1  C   UNL     1       2.875   4.081   2.046  1.00  0.00     0.202 C 
ENDROOT
BRANCH   1   2
ATOM      2  C   UNL     1       3.259   2.658   1.635  1.00  0.00     0.261 C 
BRANCH   2   3
ATOM      3  O   UNL     1       2.811   2.330   0.304  1.00  0.00    -0.462 OA
BRANCH   3   4
ATOM      4  C   UNL     1       1.744   1.496   0.163  1.00  0.00     0.329 C 
ATOM      5  O   UNL     1       0.973   1.198   1.065  1.00  0.00    -0.250 OA
BRANCH   4   6
ATOM      6  C   UNL     1       1.560   1.045  -1.303  1.00  0.00     0.198 C 
BRANCH   6   7
ATOM      7  N   UNL     1       2.861   1.142  -2.094  1.00  0.00    -0.324 N 
ATOM      8  C   UNL     1       3.890   1.868  -2.557  1.00  0.00     0.323 C 
ATOM      9  O   UNL     1       4.633   1.130  -3.231  1.00  0.00    -0.248 OA
ATOM     10  H   UNL     1       3.024   0.230  -2.426  1.00  0.00     0.166 HD
BRANCH   8  11
ATOM     11  N   UNL     1       4.229   3.190  -2.353  1.00  0.00    -0.280 N 
ATOM     12  C   UNL     1       3.390   4.432  -2.132  1.00  0.00     0.184 C 
ATOM     13  C   UNL     1       3.889   5.738  -2.779  1.00  0.00     0.247 C 
ATOM     14  O   UNL     1       3.188   6.737  -2.949  1.00  0.00    -0.272 OA
ATOM     15  N   UNL     1       5.210   5.838  -3.029  1.00  0.00    -0.322 N 
ATOM     16  C   UNL     1       5.662   3.522  -2.413  1.00  0.00     0.070 A 
ATOM     17  C   UNL     1       6.097   4.799  -2.806  1.00  0.00     0.065 A 
ATOM     18  H   UNL     1       5.559   6.687  -3.385  1.00  0.00     0.170 HD
ATOM     19  C   UNL     1       6.665   2.595  -2.084  1.00  0.00     0.028 A 
ATOM     20  C   UNL     1       7.449   5.091  -3.005  1.00  0.00     0.028 A 
ATOM     21  C   UNL     1       8.027   2.912  -2.206  1.00  0.00     0.002 A 
ATOM     22  C   UNL     1       8.418   4.152  -2.692  1.00  0.00     0.002 A 
BRANCH  12  23
ATOM     23  C   UNL     1       1.926   4.322  -2.518  1.00  0.00     0.015 C 
ATOM     24  C   UNL     1       1.007   5.222  -1.702  1.00  0.00     0.010 C 
ATOM     25  C   UNL     1       1.604   4.365  -4.007  1.00  0.00     0.010 C 
ENDBRANCH  12  23
ENDBRANCH   8  11
ENDBRANCH   6   7
BRANCH   6  26
ATOM     26  C   UNL     1       0.370   1.735  -1.999  1.00  0.00     0.072 C 
BRANCH  26  27
ATOM     27  C   UNL     1      -1.045   1.382  -2.372  1.00  0.00    -0.045 A 
ATOM     28  C   UNL     1      -1.826   2.502  -2.769  1.00  0.00     0.004 A 
ATOM     29  C   UNL     1      -1.588   0.117  -2.542  1.00  0.00     0.004 A 
ATOM     30  C   UNL     1      -3.096   2.378  -3.314  1.00  0.00     0.000 A 
ATOM     31  C   UNL     1      -2.878  -0.010  -3.091  1.00  0.00     0.000 A 
ATOM     32  C   UNL     1      -3.625   1.111  -3.478  1.00  0.00     0.000 A 
ENDBRANCH  26  27
ENDBRANCH   6  26
ENDBRANCH   4   6
ENDBRANCH   3   4
ENDBRANCH   2   3
ENDBRANCH   1   2
BRANCH   1  33
ATOM     33  O   UNL     1       1.631   4.139   2.741  1.00  0.00    -0.374 OA
BRANCH  33  34
ATOM     34  C   UNL     1       0.491   4.396   1.924  1.00  0.00     0.202 C 
BRANCH  34  35
ATOM     35  C   UNL     1       0.144   5.891   1.823  1.00  0.00     0.261 C 
BRANCH  35  36
ATOM     36  O   UNL     1       1.140   6.638   1.089  1.00  0.00    -0.460 OA
BRANCH  36  37
ATOM     37  C   UNL     1       2.069   7.288   1.828  1.00  0.00     0.338 C 
ATOM     38  O   UNL     1       2.090   7.387   3.041  1.00  0.00    -0.246 OA
BRANCH  37  39
ATOM     39  C   UNL     1       3.183   7.779   0.972  1.00  0.00     0.060 A 
ATOM     40  C   UNL     1       4.472   7.742   1.516  1.00  0.00     0.016 A 
ATOM     41  C   UNL     1       2.996   8.329  -0.296  1.00  0.00     0.016 A 
ATOM     42  C   UNL     1       5.552   8.326   0.842  1.00  0.00     0.010 A 
ATOM     43  C   UNL     1       4.092   8.885  -0.986  1.00  0.00     0.010 A 
ATOM     44  C   UNL     1       5.374   8.942  -0.403  1.00  0.00    -0.014 A 
BRANCH  44  45
ATOM     45  C   UNL     1       6.466   9.773  -1.008  1.00  0.00     0.031 A 
ATOM     46  C   UNL     1       6.267  11.265  -1.156  1.00  0.00     0.074 A 
ATOM     47  C   UNL     1       7.662   9.261  -1.365  1.00  0.00     0.049 A 
ATOM     48  N   UNL     1       7.077  12.170  -1.653  1.00  0.00    -0.248 NA
ATOM     49  C   UNL     1       4.996  11.814  -0.661  1.00  0.00     0.031 C 
ATOM     50  C   UNL     1       8.077   7.872  -1.197  1.00  0.00     0.029 A 
ATOM     51  N   UNL     1       8.756   9.860  -1.955  1.00  0.00    -0.354 N 
ATOM     52  C   UNL     1       6.422  13.387  -1.507  1.00  0.00     0.074 A 
ATOM     53  C   UNL     1       5.115  13.097  -0.961  1.00  0.00     0.031 C 
ATOM     54  C   UNL     1       9.312   7.716  -1.704  1.00  0.00     0.029 A 
ATOM     55  C   UNL     1       9.768   8.983  -2.266  1.00  0.00     0.049 A 
ATOM     56  H   UNL     1       8.807  10.826  -2.137  1.00  0.00     0.167 HD
ATOM     57  C   UNL     1       6.876  14.641  -1.751  1.00  0.00     0.037 A 
ATOM     58  C   UNL     1      10.923   9.160  -2.942  1.00  0.00     0.037 A 
ATOM     59  C   UNL     1       8.177  14.960  -2.276  1.00  0.00     0.049 A 
ATOM     60  C   UNL     1      11.341  10.542  -3.368  1.00  0.00     0.074 A 
ATOM     61  C   UNL     1       8.726  16.209  -2.514  1.00  0.00     0.029 A 
ATOM     62  N   UNL     1       9.130  14.028  -2.654  1.00  0.00    -0.354 N 
ATOM     63  N   UNL     1      10.730  11.684  -3.178  1.00  0.00    -0.248 NA
ATOM     64  C   UNL     1      12.633  10.666  -4.063  1.00  0.00     0.031 C 
ATOM     65  C   UNL     1       9.985  16.032  -3.096  1.00  0.00     0.029 A 
ATOM     66  C   UNL     1      10.249  14.675  -3.158  1.00  0.00     0.049 A 
ATOM     67  H   UNL     1       9.028  13.052  -2.577  1.00  0.00     0.167 HD
ATOM     68  C   UNL     1      11.591  12.663  -3.659  1.00  0.00     0.074 A 
ATOM     69  C   UNL     1      12.759  11.981  -4.170  1.00  0.00     0.031 C 
ATOM     70  C   UNL     1      11.429  14.009  -3.647  1.00  0.00     0.037 A 
BRANCH  57  71
ATOM     71  C   UNL     1       5.944  15.778  -1.441  1.00  0.00     0.064 A 
ATOM     72  C   UNL     1       5.605  16.111  -0.119  1.00  0.00     0.173 A 
ATOM     73  C   UNL     1       5.406  16.560  -2.473  1.00  0.00     0.173 A 
ATOM     74  F   UNL     1       6.087  15.390   0.904  1.00  0.00    -0.203 F 
ATOM     75  C   UNL     1       4.730  17.159   0.153  1.00  0.00     0.198 A 
ATOM     76  C   UNL     1       4.559  17.629  -2.195  1.00  0.00     0.198 A 
ATOM     77  F   UNL     1       5.707  16.291  -3.752  1.00  0.00    -0.203 F 
ATOM     78  F   UNL     1       4.373  17.419   1.418  1.00  0.00    -0.200 F 
ATOM     79  C   UNL     1       4.213  17.920  -0.884  1.00  0.00     0.200 A 
ATOM     80  F   UNL     1       4.074  18.375  -3.196  1.00  0.00    -0.200 F 
ATOM     81  F   UNL     1       3.374  18.932  -0.620  1.00  0.00    -0.200 F 
ENDBRANCH  57  71
BRANCH  58  82
ATOM     82  C   UNL     1      11.781   7.989  -3.269  1.00  0.00     0.064 A 
ATOM     83  C   UNL     1      13.035   7.809  -2.669  1.00  0.00     0.173 A 
ATOM     84  C   UNL     1      11.379   7.050  -4.232  1.00  0.00     0.173 A 
ATOM     85  F   UNL     1      13.475   8.693  -1.762  1.00  0.00    -0.203 F 
ATOM     86  C   UNL     1      13.865   6.751  -3.038  1.00  0.00     0.198 A 
ATOM     87  C   UNL     1      12.199   5.980  -4.583  1.00  0.00     0.198 A 
ATOM     88  F   UNL     1      10.186   7.174  -4.833  1.00  0.00    -0.203 F 
ATOM     89  F   UNL     1      15.079   6.631  -2.485  1.00  0.00    -0.200 F 
ATOM     90  C   UNL     1      13.445   5.836  -3.993  1.00  0.00     0.200 A 
ATOM     91  F   UNL     1      11.785   5.093  -5.497  1.00  0.00    -0.200 F 
ATOM     92  F   UNL     1      14.245   4.822  -4.350  1.00  0.00    -0.200 F 
ENDBRANCH  58  82
BRANCH  70  93
ATOM     93  C   UNL     1      12.571  14.860  -4.125  1.00  0.00     0.064 A 
ATOM     94  C   UNL     1      12.940  14.926  -5.477  1.00  0.00     0.173 A 
ATOM     95  C   UNL     1      13.279  15.664  -3.215  1.00  0.00     0.173 A 
ATOM     96  F   UNL     1      12.309  14.168  -6.386  1.00  0.00    -0.203 F 
ATOM     97  C   UNL     1      13.985  15.747  -5.895  1.00  0.00     0.198 A 
ATOM     98  C   UNL     1      14.300  16.508  -3.642  1.00  0.00     0.198 A 
ATOM     99  F   UNL     1      12.966  15.643  -1.911  1.00  0.00    -0.203 F 
ATOM    100  F   UNL     1      14.350  15.758  -7.185  1.00  0.00    -0.200 F 
ATOM    101  C   UNL     1      14.658  16.543  -4.980  1.00  0.00     0.200 A 
ATOM    102  F   UNL     1      14.937  17.287  -2.757  1.00  0.00    -0.200 F 
ATOM    103  F   UNL     1      15.655  17.341  -5.388  1.00  0.00    -0.200 F 
ENDBRANCH  70  93
ENDBRANCH  44  45
ENDBRANCH  37  39
ENDBRANCH  36  37
ENDBRANCH  35  36
ENDBRANCH  34  35
ENDBRANCH  33  34
ENDBRANCH   1  33
TORSDOF 19
