REMARK SMILES O=C(CC1(NC(=O)C2(c3ccccc3)CC2)CCC1)OCCOCCOC(=O)c1ccc(-c2c3nc(c(-c4c(F)c(F)c(F)c(F)c4F)c4ccc([nH]4)c(-c4c(F)c(F)c(F)c(F)c4F)c4nc(c(-c5c(F)c(F)c(F)c(F)c5F)c5ccc2[nH]5)C=C4)C=C3)cc1
REMARK SMILES IDX 22 1 21 2 20 3 2 4 1 5 3 6 4 7 17 8 19 9 18 10 5 11 6 12
REMARK SMILES IDX 7 14 8 15 15 16 16 17 9 18 10 19 14 20 11 21 13 22 12 23
REMARK SMILES IDX 23 24 24 25 25 26 26 27 27 28 28 29 29 30 30 31 91 32 31 33
REMARK SMILES IDX 90 34 32 35 33 36 34 37 84 38 35 39 89 40 83 41 85 42 36 43
REMARK SMILES IDX 88 44 82 45 81 46 37 48 69 49 49 50 68 51 50 52 53 53 67 54
REMARK SMILES IDX 86 55 51 56 52 57 66 59 87 60 54 61 38 62 39 63 47 64 40 65
REMARK SMILES IDX 41 66 45 67 48 68 42 69 43 70 46 71 44 72 70 73 71 74 79 75
REMARK SMILES IDX 72 76 73 77 77 78 80 79 74 80 75 81 78 82 76 83 55 84 56 85
REMARK SMILES IDX 64 86 57 87 58 88 62 89 65 90 59 91 60 92 63 93 61 94
REMARK H PARENT 5 13 85 47 53 58
REMARK Flexibility Score: inf
ROOT
ATOM      1  C   UNL     1       4.524   1.713   1.441  1.00  0.00     0.202 C 
ENDROOT
BRANCH   1   2
ATOM      2  C   UNL     1       5.172   1.733   0.058  1.00  0.00     0.261 C 
BRANCH   2   3
ATOM      3  O   UNL     1       4.199   1.976  -0.974  1.00  0.00    -0.463 OA
BRANCH   3   4
ATOM      4  C   UNL     1       3.776   1.016  -1.827  1.00  0.00     0.308 C 
ATOM      5  O   UNL     1       3.212   1.318  -2.874  1.00  0.00    -0.252 OA
BRANCH   4   6
ATOM      6  C   UNL     1       3.893  -0.398  -1.341  1.00  0.00     0.151 C 
BRANCH   6   7
ATOM      7  C   UNL     1       3.894  -1.484  -2.404  1.00  0.00     0.051 C 
ATOM      8  C   UNL     1       5.012  -1.149  -3.440  1.00  0.00     0.029 C 
ATOM      9  C   UNL     1       4.633  -2.838  -2.150  1.00  0.00     0.029 C 
ATOM     10  C   UNL     1       5.704  -2.482  -3.176  1.00  0.00     0.005 C 
BRANCH   7  11
ATOM     11  N   UNL     1       2.542  -1.728  -2.960  1.00  0.00    -0.349 N 
ATOM     12  C   UNL     1       1.355  -2.106  -2.351  1.00  0.00     0.231 C 
ATOM     13  H   UNL     1       2.474  -1.598  -3.934  1.00  0.00     0.164 HD
ATOM     14  O   UNL     1       0.395  -2.368  -3.076  1.00  0.00    -0.274 OA
BRANCH  12  15
ATOM     15  C   UNL     1       1.160  -2.108  -0.827  1.00  0.00     0.074 C 
ATOM     16  C   UNL     1       0.519  -0.809  -0.284  1.00  0.00     0.023 C 
ATOM     17  C   UNL     1      -0.284  -2.061  -0.298  1.00  0.00     0.023 C 
BRANCH  15  18
ATOM     18  C   UNL     1       2.147  -2.909   0.054  1.00  0.00    -0.032 A 
ATOM     19  C   UNL     1       2.991  -2.264   0.968  1.00  0.00     0.005 A 
ATOM     20  C   UNL     1       2.325  -4.291  -0.044  1.00  0.00     0.005 A 
ATOM     21  C   UNL     1       4.073  -2.871   1.604  1.00  0.00     0.000 A 
ATOM     22  C   UNL     1       3.380  -4.939   0.626  1.00  0.00     0.000 A 
ATOM     23  C   UNL     1       4.281  -4.221   1.413  1.00  0.00     0.000 A 
ENDBRANCH  15  18
ENDBRANCH  12  15
ENDBRANCH   7  11
ENDBRANCH   6   7
ENDBRANCH   4   6
ENDBRANCH   3   4
ENDBRANCH   2   3
ENDBRANCH   1   2
BRANCH   1  24
ATOM     24  O   UNL     1       4.151   0.458   1.992  1.00  0.00    -0.374 OA
BRANCH  24  25
ATOM     25  C   UNL     1       3.011   0.487   2.877  1.00  0.00     0.202 C 
BRANCH  25  26
ATOM     26  C   UNL     1       2.996   1.328   4.163  1.00  0.00     0.261 C 
BRANCH  26  27
ATOM     27  O   UNL     1       3.393   2.676   3.946  1.00  0.00    -0.460 OA
BRANCH  27  28
ATOM     28  C   UNL     1       4.691   2.935   4.247  1.00  0.00     0.338 C 
ATOM     29  O   UNL     1       5.478   2.218   4.826  1.00  0.00    -0.246 OA
BRANCH  28  30
ATOM     30  C   UNL     1       5.075   4.118   3.447  1.00  0.00     0.060 A 
ATOM     31  C   UNL     1       6.322   4.084   2.798  1.00  0.00     0.016 A 
ATOM     32  C   UNL     1       4.171   5.159   3.224  1.00  0.00     0.016 A 
ATOM     33  C   UNL     1       6.681   5.106   1.936  1.00  0.00     0.010 A 
ATOM     34  C   UNL     1       4.551   6.214   2.409  1.00  0.00     0.010 A 
ATOM     35  C   UNL     1       5.827   6.205   1.820  1.00  0.00    -0.014 A 
BRANCH  35  36
ATOM     36  C   UNL     1       6.425   7.499   1.469  1.00  0.00     0.031 A 
ATOM     37  C   UNL     1       6.974   8.296   2.618  1.00  0.00     0.074 A 
ATOM     38  C   UNL     1       6.454   7.931   0.203  1.00  0.00     0.049 A 
ATOM     39  N   UNL     1       7.435   9.514   2.643  1.00  0.00    -0.248 NA
ATOM     40  C   UNL     1       6.986   7.624   3.933  1.00  0.00     0.031 C 
ATOM     41  C   UNL     1       5.985   7.184  -0.961  1.00  0.00     0.029 A 
ATOM     42  N   UNL     1       6.883   9.125  -0.303  1.00  0.00    -0.354 N 
ATOM     43  C   UNL     1       7.773   9.752   3.969  1.00  0.00     0.074 A 
ATOM     44  C   UNL     1       7.438   8.575   4.728  1.00  0.00     0.031 C 
ATOM     45  C   UNL     1       6.125   7.956  -2.053  1.00  0.00     0.029 A 
ATOM     46  C   UNL     1       6.654   9.257  -1.648  1.00  0.00     0.049 A 
ATOM     47  H   UNL     1       7.314   9.822   0.244  1.00  0.00     0.167 HD
ATOM     48  C   UNL     1       8.319  10.866   4.500  1.00  0.00     0.037 A 
ATOM     49  C   UNL     1       6.825  10.335  -2.433  1.00  0.00     0.037 A 
ATOM     50  C   UNL     1       8.619  12.030   3.717  1.00  0.00     0.049 A 
ATOM     51  C   UNL     1       7.366  11.594  -1.804  1.00  0.00     0.074 A 
ATOM     52  C   UNL     1       9.174  13.226   4.122  1.00  0.00     0.029 A 
ATOM     53  N   UNL     1       8.369  12.135   2.354  1.00  0.00    -0.354 N 
ATOM     54  N   UNL     1       7.704  11.821  -0.555  1.00  0.00    -0.248 NA
ATOM     55  C   UNL     1       7.552  12.747  -2.693  1.00  0.00     0.031 C 
ATOM     56  C   UNL     1       9.204  14.079   3.015  1.00  0.00     0.029 A 
ATOM     57  C   UNL     1       8.736  13.389   1.905  1.00  0.00     0.049 A 
ATOM     58  H   UNL     1       7.987  11.423   1.792  1.00  0.00     0.167 HD
ATOM     59  C   UNL     1       8.173  13.127  -0.513  1.00  0.00     0.074 A 
ATOM     60  C   UNL     1       8.086  13.636  -1.868  1.00  0.00     0.031 C 
ATOM     61  C   UNL     1       8.638  13.846   0.540  1.00  0.00     0.037 A 
BRANCH  48  62
ATOM     62  C   UNL     1       8.566  10.879   5.980  1.00  0.00     0.064 A 
ATOM     63  C   UNL     1       9.531  10.053   6.580  1.00  0.00     0.173 A 
ATOM     64  C   UNL     1       7.815  11.718   6.815  1.00  0.00     0.173 A 
ATOM     65  F   UNL     1      10.254   9.204   5.833  1.00  0.00    -0.203 F 
ATOM     66  C   UNL     1       9.714  10.049   7.960  1.00  0.00     0.198 A 
ATOM     67  C   UNL     1       8.025  11.738   8.191  1.00  0.00     0.198 A 
ATOM     68  F   UNL     1       6.868  12.516   6.297  1.00  0.00    -0.203 F 
ATOM     69  F   UNL     1      10.596   9.206   8.516  1.00  0.00    -0.200 F 
ATOM     70  C   UNL     1       8.968  10.898   8.763  1.00  0.00     0.200 A 
ATOM     71  F   UNL     1       7.307  12.564   8.964  1.00  0.00    -0.200 F 
ATOM     72  F   UNL     1       9.149  10.899  10.091  1.00  0.00    -0.200 F 
ENDBRANCH  48  62
BRANCH  49  73
ATOM     73  C   UNL     1       6.476  10.268  -3.875  1.00  0.00     0.064 A 
ATOM     74  C   UNL     1       7.468  10.346  -4.862  1.00  0.00     0.173 A 
ATOM     75  C   UNL     1       5.146  10.119  -4.299  1.00  0.00     0.173 A 
ATOM     76  F   UNL     1       8.752  10.505  -4.508  1.00  0.00    -0.203 F 
ATOM     77  C   UNL     1       7.142  10.299  -6.216  1.00  0.00     0.198 A 
ATOM     78  C   UNL     1       4.825  10.042  -5.653  1.00  0.00     0.198 A 
ATOM     79  F   UNL     1       4.158  10.036  -3.397  1.00  0.00    -0.203 F 
ATOM     80  F   UNL     1       8.107  10.423  -7.138  1.00  0.00    -0.200 F 
ATOM     81  C   UNL     1       5.823  10.141  -6.611  1.00  0.00     0.200 A 
ATOM     82  F   UNL     1       3.550   9.874  -6.029  1.00  0.00    -0.200 F 
ATOM     83  F   UNL     1       5.512  10.091  -7.913  1.00  0.00    -0.200 F 
ENDBRANCH  49  73
BRANCH  61  84
ATOM     84  C   UNL     1       9.131  15.234   0.255  1.00  0.00     0.064 A 
ATOM     85  C   UNL     1       8.255  16.276  -0.077  1.00  0.00     0.173 A 
ATOM     86  C   UNL     1      10.498  15.531   0.372  1.00  0.00     0.173 A 
ATOM     87  F   UNL     1       6.941  16.039  -0.209  1.00  0.00    -0.203 F 
ATOM     88  C   UNL     1       8.735  17.560  -0.315  1.00  0.00     0.198 A 
ATOM     89  C   UNL     1      10.968  16.824   0.172  1.00  0.00     0.198 A 
ATOM     90  F   UNL     1      11.374  14.570   0.702  1.00  0.00    -0.203 F 
ATOM     91  F   UNL     1       7.888  18.530  -0.686  1.00  0.00    -0.200 F 
ATOM     92  C   UNL     1      10.088  17.835  -0.181  1.00  0.00     0.200 A 
ATOM     93  F   UNL     1      12.272  17.091   0.325  1.00  0.00    -0.200 F 
ATOM     94  F   UNL     1      10.545  19.075  -0.399  1.00  0.00    -0.200 F 
ENDBRANCH  61  84
ENDBRANCH  35  36
ENDBRANCH  28  30
ENDBRANCH  27  28
ENDBRANCH  26  27
ENDBRANCH  25  26
ENDBRANCH  24  25
ENDBRANCH   1  24
TORSDOF 18
