REMARK SMILES CC[C@H](C)[C@@H](C)[C@](C)(O)C(=O)OCCOCCOC(=O)c1ccc(-c2c3nc(c(-c4c(F)c(F)c(F)c(F)c4F)c4ccc([nH]4)c(-c4c(F)c(F)c(F)c(F)c4F)c4nc(c(-c5c(F)c(F)c(F)c(F)c5F)c5ccc2[nH]5)C=C4)C=C3)cc1
REMARK SMILES IDX 14 1 13 2 12 3 10 4 11 5 7 6 8 7 5 8 6 9 3 10 4 11 2 12 1 13
REMARK SMILES IDX 9 14 15 16 16 17 17 18 18 19 19 20 20 21 21 22 22 23 83 24
REMARK SMILES IDX 23 25 82 26 24 27 25 28 26 29 76 30 27 31 81 32 75 33 77 34
REMARK SMILES IDX 28 35 80 36 74 37 73 38 29 40 61 41 41 42 60 43 42 44 45 45
REMARK SMILES IDX 59 46 78 47 43 48 44 49 58 51 79 52 46 53 30 54 31 55 39 56
REMARK SMILES IDX 32 57 33 58 37 59 40 60 34 61 35 62 38 63 36 64 62 65 63 66
REMARK SMILES IDX 71 67 64 68 65 69 69 70 72 71 66 72 67 73 70 74 68 75 47 76
REMARK SMILES IDX 48 77 56 78 49 79 50 80 54 81 57 82 51 83 52 84 55 85 53 86
REMARK H PARENT 9 15 77 39 45 50
REMARK Flexibility Score: inf
ROOT
ATOM      1  C   UNL     1       5.431   4.628   2.608  1.00  0.00     0.202 C 
ENDROOT
BRANCH   1   2
ATOM      2  C   UNL     1       4.750   4.903   1.265  1.00  0.00     0.261 C 
BRANCH   2   3
ATOM      3  O   UNL     1       3.347   5.179   1.352  1.00  0.00    -0.461 OA
BRANCH   3   4
ATOM      4  C   UNL     1       2.535   4.144   0.978  1.00  0.00     0.338 C 
ATOM      5  O   UNL     1       2.937   3.026   0.668  1.00  0.00    -0.249 OA
BRANCH   4   6
ATOM      6  C   UNL     1       1.039   4.542   0.969  1.00  0.00     0.161 C 
ATOM      7  C   UNL     1       0.274   3.278   1.413  1.00  0.00     0.055 C 
BRANCH   6   8
ATOM      8  C   UNL     1       0.565   5.129  -0.417  1.00  0.00     0.032 C 
ATOM      9  C   UNL     1      -0.976   5.077  -0.512  1.00  0.00     0.011 C 
BRANCH   8  10
ATOM     10  C   UNL     1       1.248   4.492  -1.681  1.00  0.00    -0.008 C 
ATOM     11  C   UNL     1       0.451   4.698  -2.982  1.00  0.00     0.008 C 
BRANCH  10  12
ATOM     12  C   UNL     1       2.667   5.073  -1.931  1.00  0.00     0.000 C 
ATOM     13  C   UNL     1       3.646   4.020  -2.436  1.00  0.00     0.004 C 
ENDBRANCH  10  12
ENDBRANCH   8  10
ENDBRANCH   6   8
BRANCH   6  14
ATOM     14  O   UNL     1       0.778   5.541   1.974  1.00  0.00    -0.378 OA
ATOM     15  H   UNL     1       1.060   5.209   2.841  1.00  0.00     0.212 HD
ENDBRANCH   6  14
ENDBRANCH   4   6
ENDBRANCH   3   4
ENDBRANCH   2   3
ENDBRANCH   1   2
BRANCH   1  16
ATOM     16  O   UNL     1       4.832   3.679   3.481  1.00  0.00    -0.374 OA
BRANCH  16  17
ATOM     17  C   UNL     1       3.610   4.030   4.129  1.00  0.00     0.202 C 
BRANCH  17  18
ATOM     18  C   UNL     1       3.625   5.223   5.091  1.00  0.00     0.261 C 
BRANCH  18  19
ATOM     19  O   UNL     1       3.843   6.481   4.425  1.00  0.00    -0.460 OA
BRANCH  19  20
ATOM     20  C   UNL     1       4.932   7.163   4.845  1.00  0.00     0.338 C 
ATOM     21  O   UNL     1       5.723   6.839   5.720  1.00  0.00    -0.246 OA
BRANCH  20  22
ATOM     22  C   UNL     1       5.162   8.349   4.006  1.00  0.00     0.060 A 
ATOM     23  C   UNL     1       6.391   8.456   3.342  1.00  0.00     0.016 A 
ATOM     24  C   UNL     1       4.264   9.418   4.023  1.00  0.00     0.016 A 
ATOM     25  C   UNL     1       6.759   9.662   2.750  1.00  0.00     0.010 A 
ATOM     26  C   UNL     1       4.640  10.631   3.438  1.00  0.00     0.010 A 
ATOM     27  C   UNL     1       5.908  10.771   2.845  1.00  0.00    -0.014 A 
BRANCH  27  28
ATOM     28  C   UNL     1       6.419  12.119   2.501  1.00  0.00     0.031 A 
ATOM     29  C   UNL     1       6.947  12.995   3.604  1.00  0.00     0.074 A 
ATOM     30  C   UNL     1       6.428  12.552   1.229  1.00  0.00     0.049 A 
ATOM     31  N   UNL     1       7.380  14.229   3.553  1.00  0.00    -0.248 NA
ATOM     32  C   UNL     1       6.990  12.397   4.948  1.00  0.00     0.031 C 
ATOM     33  C   UNL     1       5.987  11.778   0.072  1.00  0.00     0.029 A 
ATOM     34  N   UNL     1       6.816  13.759   0.705  1.00  0.00    -0.354 N 
ATOM     35  C   UNL     1       7.736  14.557   4.854  1.00  0.00     0.074 A 
ATOM     36  C   UNL     1       7.450  13.402   5.678  1.00  0.00     0.031 C 
ATOM     37  C   UNL     1       6.112  12.538  -1.030  1.00  0.00     0.029 A 
ATOM     38  C   UNL     1       6.611  13.859  -0.648  1.00  0.00     0.049 A 
ATOM     39  H   UNL     1       7.202  14.484   1.248  1.00  0.00     0.167 HD
ATOM     40  C   UNL     1       8.260  15.716   5.320  1.00  0.00     0.037 A 
ATOM     41  C   UNL     1       6.785  14.907  -1.475  1.00  0.00     0.037 A 
ATOM     42  C   UNL     1       8.545  16.863   4.500  1.00  0.00     0.049 A 
ATOM     43  C   UNL     1       7.307  16.208  -0.924  1.00  0.00     0.074 A 
ATOM     44  C   UNL     1       9.087  18.080   4.873  1.00  0.00     0.029 A 
ATOM     45  N   UNL     1       8.303  16.933   3.136  1.00  0.00    -0.354 N 
ATOM     46  N   UNL     1       7.653  16.508   0.304  1.00  0.00    -0.248 NA
ATOM     47  C   UNL     1       7.461  17.317  -1.876  1.00  0.00     0.031 C 
ATOM     48  C   UNL     1       9.136  18.902   3.742  1.00  0.00     0.029 A 
ATOM     49  C   UNL     1       8.665  18.181   2.656  1.00  0.00     0.049 A 
ATOM     50  H   UNL     1       7.930  16.205   2.590  1.00  0.00     0.167 HD
ATOM     51  C   UNL     1       8.090  17.825   0.269  1.00  0.00     0.074 A 
ATOM     52  C   UNL     1       7.973  18.267  -1.105  1.00  0.00     0.031 C 
ATOM     53  C   UNL     1       8.550  18.599   1.283  1.00  0.00     0.037 A 
BRANCH  40  54
ATOM     54  C   UNL     1       8.530  15.808   6.792  1.00  0.00     0.064 A 
ATOM     55  C   UNL     1       9.598  15.122   7.389  1.00  0.00     0.173 A 
ATOM     56  C   UNL     1       7.723  16.610   7.612  1.00  0.00     0.173 A 
ATOM     57  F   UNL     1      10.389  14.330   6.649  1.00  0.00    -0.203 F 
ATOM     58  C   UNL     1       9.834  15.217   8.758  1.00  0.00     0.198 A 
ATOM     59  C   UNL     1       7.977  16.722   8.977  1.00  0.00     0.198 A 
ATOM     60  F   UNL     1       6.691  17.289   7.090  1.00  0.00    -0.203 F 
ATOM     61  F   UNL     1      10.833  14.519   9.315  1.00  0.00    -0.200 F 
ATOM     62  C   UNL     1       9.027  16.021   9.550  1.00  0.00     0.200 A 
ATOM     63  F   UNL     1       7.202  17.507   9.739  1.00  0.00    -0.200 F 
ATOM     64  F   UNL     1       9.256  16.113  10.867  1.00  0.00    -0.200 F 
ENDBRANCH  40  54
BRANCH  41  65
ATOM     65  C   UNL     1       6.448  14.773  -2.915  1.00  0.00     0.064 A 
ATOM     66  C   UNL     1       7.450  14.756  -3.894  1.00  0.00     0.173 A 
ATOM     67  C   UNL     1       5.115  14.664  -3.341  1.00  0.00     0.173 A 
ATOM     68  F   UNL     1       8.736  14.884  -3.536  1.00  0.00    -0.203 F 
ATOM     69  C   UNL     1       7.132  14.647  -5.246  1.00  0.00     0.198 A 
ATOM     70  C   UNL     1       4.801  14.531  -4.691  1.00  0.00     0.198 A 
ATOM     71  F   UNL     1       4.120  14.679  -2.442  1.00  0.00    -0.203 F 
ATOM     72  F   UNL     1       8.107  14.672  -6.165  1.00  0.00    -0.200 F 
ATOM     73  C   UNL     1       5.809  14.528  -5.643  1.00  0.00     0.200 A 
ATOM     74  F   UNL     1       3.521  14.407  -5.069  1.00  0.00    -0.200 F 
ATOM     75  F   UNL     1       5.504  14.419  -6.943  1.00  0.00    -0.200 F 
ENDBRANCH  41  65
BRANCH  53  76
ATOM     76  C   UNL     1       8.995  19.991   0.941  1.00  0.00     0.064 A 
ATOM     77  C   UNL     1       8.073  21.007   0.654  1.00  0.00     0.173 A 
ATOM     78  C   UNL     1      10.358  20.321   0.950  1.00  0.00     0.173 A 
ATOM     79  F   UNL     1       6.759  20.737   0.619  1.00  0.00    -0.203 F 
ATOM     80  C   UNL     1       8.502  22.301   0.369  1.00  0.00     0.198 A 
ATOM     81  C   UNL     1      10.782  21.621   0.690  1.00  0.00     0.198 A 
ATOM     82  F   UNL     1      11.279  19.385   1.225  1.00  0.00    -0.203 F 
ATOM     83  F   UNL     1       7.606  23.249   0.060  1.00  0.00    -0.200 F 
ATOM     84  C   UNL     1       9.854  22.608   0.395  1.00  0.00     0.200 A 
ATOM     85  F   UNL     1      12.088  21.919   0.726  1.00  0.00    -0.200 F 
ATOM     86  F   UNL     1      10.264  23.856   0.128  1.00  0.00    -0.200 F 
ENDBRANCH  53  76
ENDBRANCH  27  28
ENDBRANCH  20  22
ENDBRANCH  19  20
ENDBRANCH  18  19
ENDBRANCH  17  18
ENDBRANCH  16  17
ENDBRANCH   1  16
TORSDOF 18
