REMARK SMILES Cc1ncccc1OC1(C(=O)OCCOCCOC(=O)c2ccc(-c3c4nc(c(-c5c(F)c(F)c(F)c(F)c5F)c5ccc([nH]5)c(-c5c(F)c(F)c(F)c(F)c5F)c5nc(c(-c6c(F)c(F)c(F)c(F)c6F)c6ccc3[nH]6)C=C5)C=C4)cc2)CCN(C(=O)c2ccc(O)nn2)CC1
REMARK SMILES IDX 15 1 14 2 13 3 12 4 10 5 11 6 9 7 84 8 97 9 85 10 96 11
REMARK SMILES IDX 86 12 87 13 88 14 8 15 7 16 1 17 2 18 3 19 4 20 6 21 5 22
REMARK SMILES IDX 89 23 90 24 95 25 91 26 94 27 92 28 93 29 16 31 17 32 18 33
REMARK SMILES IDX 19 34 20 35 21 36 22 37 83 38 23 39 82 40 24 41 25 42 26 43
REMARK SMILES IDX 76 44 27 45 81 46 75 47 77 48 28 49 80 50 74 51 73 52 29 54
REMARK SMILES IDX 61 55 41 56 60 57 42 58 45 59 59 60 78 61 43 62 44 63 58 65
REMARK SMILES IDX 79 66 46 67 30 68 31 69 39 70 32 71 33 72 37 73 40 74 34 75
REMARK SMILES IDX 35 76 38 77 36 78 62 79 63 80 71 81 64 82 65 83 69 84 72 85
REMARK SMILES IDX 66 86 67 87 70 88 68 89 47 90 48 91 56 92 49 93 50 94 54 95
REMARK SMILES IDX 57 96 51 97 52 98 55 99 53 100
REMARK H PARENT 93 30 77 53 45 64
REMARK Flexibility Score: inf
ROOT
ATOM      1  O   UNL     1       2.475  -6.524   1.526  1.00  0.00    -0.374 OA
ENDROOT
BRANCH   1   2
ATOM      2  C   UNL     1       3.642  -6.403   0.713  1.00  0.00     0.202 C 
BRANCH   2   3
ATOM      3  C   UNL     1       3.418  -5.733  -0.644  1.00  0.00     0.261 C 
BRANCH   3   4
ATOM      4  O   UNL     1       3.366  -4.299  -0.505  1.00  0.00    -0.460 OA
BRANCH   4   5
ATOM      5  C   UNL     1       2.153  -3.693  -0.702  1.00  0.00     0.350 C 
ATOM      6  O   UNL     1       1.138  -4.308  -1.006  1.00  0.00    -0.247 OA
BRANCH   5   7
ATOM      7  C   UNL     1       2.250  -2.137  -0.507  1.00  0.00     0.209 C 
ATOM      8  C   UNL     1       2.863  -1.871   0.871  1.00  0.00     0.082 C 
ATOM      9  C   UNL     1       3.114  -1.699  -1.683  1.00  0.00     0.082 C 
ATOM     10  C   UNL     1       3.728  -0.628   1.016  1.00  0.00     0.124 C 
ATOM     11  C   UNL     1       3.750  -0.349  -1.520  1.00  0.00     0.124 C 
ATOM     12  N   UNL     1       4.298  -0.048  -0.196  1.00  0.00    -0.337 N 
ATOM     13  C   UNL     1       5.119   1.085   0.000  1.00  0.00     0.274 C 
ATOM     14  O   UNL     1       5.545   1.432   1.099  1.00  0.00    -0.267 OA
BRANCH   7  15
ATOM     15  O   UNL     1       0.878  -1.776  -0.728  1.00  0.00    -0.474 OA
BRANCH  15  16
ATOM     16  C   UNL     1      -0.040  -0.892  -0.294  1.00  0.00     0.142 A 
ATOM     17  C   UNL     1       1.174   1.368  -0.141  1.00  0.00     0.071 C 
ATOM     18  C   UNL     1      -0.009   0.481  -0.058  1.00  0.00     0.079 A 
ATOM     19  N   UNL     1      -1.139   1.220   0.174  1.00  0.00    -0.258 NA
ATOM     20  C   UNL     1      -2.334   0.608   0.159  1.00  0.00     0.111 A 
ATOM     21  C   UNL     1      -1.317  -1.483  -0.269  1.00  0.00     0.050 A 
ATOM     22  C   UNL     1      -2.474  -0.741  -0.047  1.00  0.00     0.024 A 
ENDBRANCH  15  16
ENDBRANCH   7  15
BRANCH  13  23
ATOM     23  C   UNL     1       5.517   1.863  -1.196  1.00  0.00     0.151 A 
ATOM     24  C   UNL     1       6.821   1.781  -1.650  1.00  0.00     0.042 A 
ATOM     25  N   UNL     1       4.519   2.459  -1.900  1.00  0.00    -0.142 NA
ATOM     26  C   UNL     1       7.094   2.304  -2.906  1.00  0.00     0.072 A 
ATOM     27  N   UNL     1       4.794   2.977  -3.126  1.00  0.00    -0.112 NA
ATOM     28  C   UNL     1       6.051   2.878  -3.600  1.00  0.00     0.230 A 
BRANCH  28  29
ATOM     29  O   UNL     1       6.241   3.350  -4.859  1.00  0.00    -0.492 OA
ATOM     30  H   UNL     1       7.091   3.313  -5.250  1.00  0.00     0.295 HD
ENDBRANCH  28  29
ENDBRANCH  13  23
ENDBRANCH   5   7
ENDBRANCH   4   5
ENDBRANCH   3   4
ENDBRANCH   2   3
ENDBRANCH   1   2
BRANCH   1  31
ATOM     31  C   UNL     1       2.066  -5.362   2.243  1.00  0.00     0.202 C 
BRANCH  31  32
ATOM     32  C   UNL     1       2.750  -5.156   3.598  1.00  0.00     0.261 C 
BRANCH  32  33
ATOM     33  O   UNL     1       4.165  -4.929   3.457  1.00  0.00    -0.460 OA
BRANCH  33  34
ATOM     34  C   UNL     1       4.937  -5.986   3.810  1.00  0.00     0.338 C 
ATOM     35  O   UNL     1       4.567  -7.046   4.284  1.00  0.00    -0.246 OA
BRANCH  34  36
ATOM     36  C   UNL     1       6.340  -5.759   3.409  1.00  0.00     0.060 A 
ATOM     37  C   UNL     1       6.993  -6.809   2.752  1.00  0.00     0.016 A 
ATOM     38  C   UNL     1       7.036  -4.597   3.752  1.00  0.00     0.016 A 
ATOM     39  C   UNL     1       8.359  -6.728   2.491  1.00  0.00     0.010 A 
ATOM     40  C   UNL     1       8.409  -4.518   3.490  1.00  0.00     0.010 A 
ATOM     41  C   UNL     1       9.085  -5.601   2.897  1.00  0.00    -0.014 A 
BRANCH  41  42
ATOM     42  C   UNL     1      10.568  -5.629   2.831  1.00  0.00     0.031 A 
ATOM     43  C   UNL     1      11.351  -5.925   4.081  1.00  0.00     0.074 A 
ATOM     44  C   UNL     1      11.209  -5.444   1.664  1.00  0.00     0.049 A 
ATOM     45  N   UNL     1      12.647  -5.996   4.253  1.00  0.00    -0.248 NA
ATOM     46  C   UNL     1      10.568  -6.175   5.301  1.00  0.00     0.031 C 
ATOM     47  C   UNL     1      10.563  -5.193   0.378  1.00  0.00     0.029 A 
ATOM     48  N   UNL     1      12.551  -5.439   1.375  1.00  0.00    -0.354 N 
ATOM     49  C   UNL     1      12.834  -6.293   5.597  1.00  0.00     0.074 A 
ATOM     50  C   UNL     1      11.521  -6.359   6.203  1.00  0.00     0.031 C 
ATOM     51  C   UNL     1      11.510  -5.053  -0.565  1.00  0.00     0.029 A 
ATOM     52  C   UNL     1      12.828  -5.174   0.057  1.00  0.00     0.049 A 
ATOM     53  H   UNL     1      13.248  -5.609   2.049  1.00  0.00     0.167 HD
ATOM     54  C   UNL     1      13.994  -6.503   6.264  1.00  0.00     0.037 A 
ATOM     55  C   UNL     1      14.012  -5.028  -0.571  1.00  0.00     0.037 A 
ATOM     56  C   UNL     1      15.300  -6.445   5.661  1.00  0.00     0.049 A 
ATOM     57  C   UNL     1      15.290  -5.198   0.209  1.00  0.00     0.074 A 
ATOM     58  C   UNL     1      16.533  -6.667   6.249  1.00  0.00     0.029 A 
ATOM     59  N   UNL     1      15.542  -6.134   4.332  1.00  0.00    -0.354 N 
ATOM     60  N   UNL     1      15.456  -5.507   1.472  1.00  0.00    -0.248 NA
ATOM     61  C   UNL     1      16.547  -5.000  -0.528  1.00  0.00     0.031 C 
ATOM     62  C   UNL     1      17.524  -6.440   5.288  1.00  0.00     0.029 A 
ATOM     63  C   UNL     1      16.906  -6.130   4.087  1.00  0.00     0.049 A 
ATOM     64  H   UNL     1      14.847  -5.944   3.660  1.00  0.00     0.167 HD
ATOM     65  C   UNL     1      16.829  -5.570   1.674  1.00  0.00     0.074 A 
ATOM     66  C   UNL     1      17.452  -5.279   0.400  1.00  0.00     0.031 C 
ATOM     67  C   UNL     1      17.513  -5.846   2.812  1.00  0.00     0.037 A 
BRANCH  54  68
ATOM     68  C   UNL     1      13.907  -6.793   7.734  1.00  0.00     0.064 A 
ATOM     69  C   UNL     1      13.424  -8.018   8.218  1.00  0.00     0.173 A 
ATOM     70  C   UNL     1      14.349  -5.846   8.671  1.00  0.00     0.173 A 
ATOM     71  F   UNL     1      12.978  -8.952   7.364  1.00  0.00    -0.203 F 
ATOM     72  C   UNL     1      13.364  -8.275   9.586  1.00  0.00     0.198 A 
ATOM     73  C   UNL     1      14.314  -6.117  10.036  1.00  0.00     0.198 A 
ATOM     74  F   UNL     1      14.825  -4.661   8.260  1.00  0.00    -0.203 F 
ATOM     75  F   UNL     1      12.859  -9.435  10.027  1.00  0.00    -0.200 F 
ATOM     76  C   UNL     1      13.816  -7.327  10.492  1.00  0.00     0.200 A 
ATOM     77  F   UNL     1      14.763  -5.205  10.910  1.00  0.00    -0.200 F 
ATOM     78  F   UNL     1      13.765  -7.579  11.808  1.00  0.00    -0.200 F 
ENDBRANCH  54  68
BRANCH  55  79
ATOM     79  C   UNL     1      14.047  -4.693  -2.018  1.00  0.00     0.064 A 
ATOM     80  C   UNL     1      14.519  -5.614  -2.964  1.00  0.00     0.173 A 
ATOM     81  C   UNL     1      13.627  -3.438  -2.483  1.00  0.00     0.173 A 
ATOM     82  F   UNL     1      14.956  -6.818  -2.566  1.00  0.00    -0.203 F 
ATOM     83  C   UNL     1      14.586  -5.285  -4.317  1.00  0.00     0.198 A 
ATOM     84  C   UNL     1      13.667  -3.121  -3.838  1.00  0.00     0.198 A 
ATOM     85  F   UNL     1      13.168  -2.521  -1.619  1.00  0.00    -0.203 F 
ATOM     86  F   UNL     1      15.084  -6.167  -5.194  1.00  0.00    -0.200 F 
ATOM     87  C   UNL     1      14.154  -4.042  -4.753  1.00  0.00     0.200 A 
ATOM     88  F   UNL     1      13.236  -1.923  -4.257  1.00  0.00    -0.200 F 
ATOM     89  F   UNL     1      14.214  -3.728  -6.055  1.00  0.00    -0.200 F 
ENDBRANCH  55  79
BRANCH  67  90
ATOM     90  C   UNL     1      19.012  -5.884   2.727  1.00  0.00     0.064 A 
ATOM     91  C   UNL     1      19.771  -4.715   2.575  1.00  0.00     0.173 A 
ATOM     92  C   UNL     1      19.698  -7.103   2.842  1.00  0.00     0.173 A 
ATOM     93  F   UNL     1      19.163  -3.527   2.446  1.00  0.00    -0.203 F 
ATOM     94  C   UNL     1      21.162  -4.768   2.517  1.00  0.00     0.198 A 
ATOM     95  C   UNL     1      21.089  -7.149   2.813  1.00  0.00     0.198 A 
ATOM     96  F   UNL     1      19.019  -8.250   2.996  1.00  0.00    -0.203 F 
ATOM     97  F   UNL     1      21.866  -3.643   2.324  1.00  0.00    -0.200 F 
ATOM     98  C   UNL     1      21.820  -5.983   2.643  1.00  0.00     0.200 A 
ATOM     99  F   UNL     1      21.723  -8.322   2.949  1.00  0.00    -0.200 F 
ATOM    100  F   UNL     1      23.158  -6.030   2.594  1.00  0.00    -0.200 F 
ENDBRANCH  67  90
ENDBRANCH  41  42
ENDBRANCH  34  36
ENDBRANCH  33  34
ENDBRANCH  32  33
ENDBRANCH  31  32
ENDBRANCH   1  31
TORSDOF 18
