REMARK SMILES O=C(N[C@@H](C(=O)OCCOCCOC(=O)c1ccc(-c2c3nc(c(-c4c(F)c(F)c(F)c(F)c4F)c4ccc([nH]4)c(-c4c(F)c(F)c(F)c(F)c4F)c4nc(c(-c5c(F)c(F)c(F)c(F)c5F)c5ccc2[nH]5)C=C4)C=C3)cc1)c1ccccc1)c1ccc(Br)nc1
REMARK SMILES IDX 10 1 9 2 8 3 7 4 5 5 6 6 4 7 3 8 1 9 2 10 85 12 86 13 91 14
REMARK SMILES IDX 87 15 90 16 88 17 89 18 79 19 80 20 84 21 81 22 83 23 82 24
REMARK SMILES IDX 11 25 12 26 13 27 14 28 15 29 16 30 17 31 78 32 18 33 77 34
REMARK SMILES IDX 19 35 20 36 21 37 71 38 22 39 76 40 70 41 72 42 23 43 75 44
REMARK SMILES IDX 69 45 68 46 24 48 56 49 36 50 55 51 37 52 40 53 54 54 73 55
REMARK SMILES IDX 38 56 39 57 53 59 74 60 41 61 25 62 26 63 34 64 27 65 28 66
REMARK SMILES IDX 32 67 35 68 29 69 30 70 33 71 31 72 57 73 58 74 66 75 59 76
REMARK SMILES IDX 60 77 64 78 67 79 61 80 62 81 65 82 63 83 42 84 43 85 51 86
REMARK SMILES IDX 44 87 45 88 49 89 52 90 46 91 47 92 50 93 48 94
REMARK H PARENT 3 11 72 47 40 58
REMARK Flexibility Score: inf
ROOT
ATOM      1  O   UNL     1       5.215   0.568  -5.255  1.00  0.00    -0.374 OA
ENDROOT
BRANCH   1   2
ATOM      2  C   UNL     1       5.284  -0.843  -5.061  1.00  0.00     0.202 C 
BRANCH   2   3
ATOM      3  C   UNL     1       5.865  -1.321  -3.729  1.00  0.00     0.261 C 
BRANCH   3   4
ATOM      4  O   UNL     1       5.106  -0.826  -2.614  1.00  0.00    -0.461 OA
BRANCH   4   5
ATOM      5  C   UNL     1       5.808  -0.055  -1.734  1.00  0.00     0.333 C 
ATOM      6  O   UNL     1       7.027   0.086  -1.759  1.00  0.00    -0.249 OA
BRANCH   5   7
ATOM      7  C   UNL     1       4.899   0.610  -0.673  1.00  0.00     0.223 C 
BRANCH   7   8
ATOM      8  N   UNL     1       3.455   0.345  -0.796  1.00  0.00    -0.335 N 
ATOM      9  O   UNL     1       1.435  -0.514  -0.304  1.00  0.00    -0.269 OA
ATOM     10  C   UNL     1       2.610  -0.359   0.015  1.00  0.00     0.253 C 
ATOM     11  H   UNL     1       3.030   0.740  -1.591  1.00  0.00     0.165 HD
BRANCH  10  12
ATOM     12  C   UNL     1       3.123  -1.023   1.220  1.00  0.00     0.058 A 
ATOM     13  C   UNL     1       2.946  -2.399   1.351  1.00  0.00     0.018 A 
ATOM     14  C   UNL     1       3.822  -0.347   2.208  1.00  0.00     0.126 A 
ATOM     15  C   UNL     1       3.558  -3.061   2.411  1.00  0.00     0.037 A 
ATOM     16  N   UNL     1       4.444  -0.970   3.236  1.00  0.00    -0.249 NA
ATOM     17  C   UNL     1       4.314  -2.315   3.307  1.00  0.00     0.106 A 
ATOM     18  Br  UNL     1       5.260  -3.221   4.676  1.00  0.00    -0.029 Br
ENDBRANCH  10  12
ENDBRANCH   7   8
BRANCH   7  19
ATOM     19  C   UNL     1       5.169   2.109  -0.573  1.00  0.00    -0.014 A 
ATOM     20  C   UNL     1       6.307   2.548   0.127  1.00  0.00     0.006 A 
ATOM     21  C   UNL     1       4.353   3.076  -1.185  1.00  0.00     0.006 A 
ATOM     22  C   UNL     1       6.617   3.906   0.213  1.00  0.00     0.000 A 
ATOM     23  C   UNL     1       4.665   4.436  -1.095  1.00  0.00     0.000 A 
ATOM     24  C   UNL     1       5.795   4.849  -0.397  1.00  0.00     0.000 A 
ENDBRANCH   7  19
ENDBRANCH   5   7
ENDBRANCH   4   5
ENDBRANCH   3   4
ENDBRANCH   2   3
ENDBRANCH   1   2
BRANCH   1  25
ATOM     25  C   UNL     1       4.194   1.287  -4.564  1.00  0.00     0.202 C 
BRANCH  25  26
ATOM     26  C   UNL     1       2.758   1.115  -5.075  1.00  0.00     0.261 C 
BRANCH  26  27
ATOM     27  O   UNL     1       2.270  -0.226  -4.886  1.00  0.00    -0.460 OA
BRANCH  27  28
ATOM     28  C   UNL     1       1.974  -0.884  -6.032  1.00  0.00     0.338 C 
ATOM     29  O   UNL     1       2.000  -0.438  -7.171  1.00  0.00    -0.246 OA
BRANCH  28  30
ATOM     30  C   UNL     1       1.778  -2.321  -5.769  1.00  0.00     0.060 A 
ATOM     31  C   UNL     1       2.568  -3.221  -6.497  1.00  0.00     0.016 A 
ATOM     32  C   UNL     1       0.774  -2.785  -4.918  1.00  0.00     0.016 A 
ATOM     33  C   UNL     1       2.320  -4.589  -6.420  1.00  0.00     0.010 A 
ATOM     34  C   UNL     1       0.516  -4.160  -4.853  1.00  0.00     0.010 A 
ATOM     35  C   UNL     1       1.262  -5.063  -5.634  1.00  0.00    -0.014 A 
BRANCH  35  36
ATOM     36  C   UNL     1       0.839  -6.479  -5.767  1.00  0.00     0.031 A 
ATOM     37  C   UNL     1      -0.300  -6.813  -6.691  1.00  0.00     0.074 A 
ATOM     38  C   UNL     1       1.491  -7.458  -5.117  1.00  0.00     0.049 A 
ATOM     39  N   UNL     1      -0.844  -7.974  -6.955  1.00  0.00    -0.248 NA
ATOM     40  C   UNL     1      -0.904  -5.687  -7.421  1.00  0.00     0.031 C 
ATOM     41  C   UNL     1       2.639  -7.266  -4.235  1.00  0.00     0.029 A 
ATOM     42  N   UNL     1       1.274  -8.813  -5.100  1.00  0.00    -0.354 N 
ATOM     43  C   UNL     1      -1.851  -7.718  -7.877  1.00  0.00     0.074 A 
ATOM     44  C   UNL     1      -1.863  -6.290  -8.107  1.00  0.00     0.031 C 
ATOM     45  C   UNL     1       3.022  -8.461  -3.753  1.00  0.00     0.029 A 
ATOM     46  C   UNL     1       2.128  -9.496  -4.270  1.00  0.00     0.049 A 
ATOM     47  H   UNL     1       0.572  -9.254  -5.632  1.00  0.00     0.167 HD
ATOM     48  C   UNL     1      -2.683  -8.597  -8.484  1.00  0.00     0.037 A 
ATOM     49  C   UNL     1       2.168 -10.805  -3.953  1.00  0.00     0.037 A 
ATOM     50  C   UNL     1      -2.674 -10.017  -8.255  1.00  0.00     0.049 A 
ATOM     51  C   UNL     1       1.178 -11.751  -4.584  1.00  0.00     0.074 A 
ATOM     52  C   UNL     1      -3.475 -10.990  -8.826  1.00  0.00     0.029 A 
ATOM     53  N   UNL     1      -1.819 -10.666  -7.378  1.00  0.00    -0.354 N 
ATOM     54  N   UNL     1       0.241 -11.502  -5.466  1.00  0.00    -0.248 NA
ATOM     55  C   UNL     1       1.254 -13.161  -4.173  1.00  0.00     0.031 C 
ATOM     56  C   UNL     1      -3.134 -12.224  -8.262  1.00  0.00     0.029 A 
ATOM     57  C   UNL     1      -2.088 -12.025  -7.375  1.00  0.00     0.049 A 
ATOM     58  H   UNL     1      -1.123 -10.227  -6.837  1.00  0.00     0.167 HD
ATOM     59  C   UNL     1      -0.361 -12.724  -5.739  1.00  0.00     0.074 A 
ATOM     60  C   UNL     1       0.323 -13.716  -4.936  1.00  0.00     0.031 C 
ATOM     61  C   UNL     1      -1.389 -13.000  -6.579  1.00  0.00     0.037 A 
BRANCH  48  62
ATOM     62  C   UNL     1      -3.694  -8.042  -9.444  1.00  0.00     0.064 A 
ATOM     63  C   UNL     1      -3.321  -7.572 -10.712  1.00  0.00     0.173 A 
ATOM     64  C   UNL     1      -5.055  -8.018  -9.107  1.00  0.00     0.173 A 
ATOM     65  F   UNL     1      -2.030  -7.561 -11.076  1.00  0.00    -0.203 F 
ATOM     66  C   UNL     1      -4.274  -7.080 -11.601  1.00  0.00     0.198 A 
ATOM     67  C   UNL     1      -6.008  -7.548 -10.007  1.00  0.00     0.198 A 
ATOM     68  F   UNL     1      -5.463  -8.459  -7.908  1.00  0.00    -0.203 F 
ATOM     69  F   UNL     1      -3.892  -6.601 -12.793  1.00  0.00    -0.200 F 
ATOM     70  C   UNL     1      -5.616  -7.075 -11.251  1.00  0.00     0.200 A 
ATOM     71  F   UNL     1      -7.305  -7.554  -9.672  1.00  0.00    -0.200 F 
ATOM     72  F   UNL     1      -6.533  -6.609 -12.110  1.00  0.00    -0.200 F 
ENDBRANCH  48  62
BRANCH  49  73
ATOM     73  C   UNL     1       3.172 -11.304  -2.978  1.00  0.00     0.064 A 
ATOM     74  C   UNL     1       4.215 -12.149  -3.380  1.00  0.00     0.173 A 
ATOM     75  C   UNL     1       3.091 -10.969  -1.618  1.00  0.00     0.173 A 
ATOM     76  F   UNL     1       4.319 -12.519  -4.665  1.00  0.00    -0.203 F 
ATOM     77  C   UNL     1       5.128 -12.656  -2.456  1.00  0.00     0.198 A 
ATOM     78  C   UNL     1       4.020 -11.454  -0.700  1.00  0.00     0.198 A 
ATOM     79  F   UNL     1       2.110 -10.165  -1.181  1.00  0.00    -0.203 F 
ATOM     80  F   UNL     1       6.086 -13.501  -2.859  1.00  0.00    -0.200 F 
ATOM     81  C   UNL     1       5.032 -12.304  -1.118  1.00  0.00     0.200 A 
ATOM     82  F   UNL     1       3.929 -11.102   0.590  1.00  0.00    -0.200 F 
ATOM     83  F   UNL     1       5.909 -12.792  -0.230  1.00  0.00    -0.200 F 
ENDBRANCH  49  73
BRANCH  61  84
ATOM     84  C   UNL     1      -1.812 -14.435  -6.704  1.00  0.00     0.064 A 
ATOM     85  C   UNL     1      -2.518 -15.085  -5.682  1.00  0.00     0.173 A 
ATOM     86  C   UNL     1      -1.545 -15.153  -7.880  1.00  0.00     0.173 A 
ATOM     87  F   UNL     1      -2.785 -14.446  -4.533  1.00  0.00    -0.203 F 
ATOM     88  C   UNL     1      -2.922 -16.410  -5.824  1.00  0.00     0.198 A 
ATOM     89  C   UNL     1      -1.974 -16.468  -8.029  1.00  0.00     0.198 A 
ATOM     90  F   UNL     1      -0.878 -14.573  -8.889  1.00  0.00    -0.203 F 
ATOM     91  F   UNL     1      -3.558 -17.026  -4.817  1.00  0.00    -0.200 F 
ATOM     92  C   UNL     1      -2.657 -17.098  -6.999  1.00  0.00     0.200 A 
ATOM     93  F   UNL     1      -1.728 -17.127  -9.169  1.00  0.00    -0.200 F 
ATOM     94  F   UNL     1      -3.052 -18.371  -7.136  1.00  0.00    -0.200 F 
ENDBRANCH  61  84
ENDBRANCH  35  36
ENDBRANCH  28  30
ENDBRANCH  27  28
ENDBRANCH  26  27
ENDBRANCH  25  26
ENDBRANCH   1  25
TORSDOF 17
