REMARK SMILES O=C(OCCOCCOC(=O)c1cc(-c2cc(Cl)ccc2Cl)cc([N+](=O)[O-])c1)c1ccc(-c2c3nc(c(-c4c(F)c(F)c(F)c(F)c4F)c4ccc([nH]4)c(-c4c(F)c(F)c(F)c(F)c4F)c4nc(c(-c5c(F)c(F)c(F)c(F)c5F)c5ccc2[nH]5)C=C4)C=C3)cc1
REMARK SMILES IDX 5 1 4 2 3 3 2 4 1 5 29 6 30 7 91 8 31 9 90 10 32 11 33 12
REMARK SMILES IDX 34 13 84 14 35 15 89 16 83 17 85 18 36 19 88 20 82 21 81 22
REMARK SMILES IDX 37 24 69 25 49 26 68 27 50 28 53 29 67 30 86 31 51 32 52 33
REMARK SMILES IDX 66 35 87 36 54 37 38 38 39 39 47 40 40 41 41 42 45 43 48 44
REMARK SMILES IDX 42 45 43 46 46 47 44 48 70 49 71 50 79 51 72 52 73 53 77 54
REMARK SMILES IDX 80 55 74 56 75 57 78 58 76 59 55 60 56 61 64 62 57 63 58 64
REMARK SMILES IDX 62 65 65 66 59 67 60 68 63 69 61 70 6 71 7 72 8 73 9 74
REMARK SMILES IDX 10 75 11 76 12 77 13 78 28 79 14 80 24 81 23 82 15 83 16 84
REMARK SMILES IDX 21 85 17 86 20 87 22 88 18 89 19 90 25 91 26 92 27 93
REMARK H PARENT 85 23 53 34
REMARK Flexibility Score: inf
ROOT
ATOM      1  C   UNL     1       4.268  -0.958  -1.218  1.00  0.00     0.202 C 
ENDROOT
BRANCH   1   2
ATOM      2  C   UNL     1       3.936  -1.341   0.228  1.00  0.00     0.261 C 
BRANCH   2   3
ATOM      3  O   UNL     1       2.549  -1.096   0.510  1.00  0.00    -0.460 OA
BRANCH   3   4
ATOM      4  C   UNL     1       1.993  -0.023   1.120  1.00  0.00     0.338 C 
ATOM      5  O   UNL     1       0.770   0.018   1.244  1.00  0.00    -0.246 OA
BRANCH   4   6
ATOM      6  C   UNL     1       2.786   1.111   1.681  1.00  0.00     0.060 A 
ATOM      7  C   UNL     1       4.025   1.533   1.199  1.00  0.00     0.016 A 
ATOM      8  C   UNL     1       2.203   1.849   2.726  1.00  0.00     0.016 A 
ATOM      9  C   UNL     1       4.710   2.586   1.771  1.00  0.00     0.010 A 
ATOM     10  C   UNL     1       2.868   2.943   3.288  1.00  0.00     0.010 A 
ATOM     11  C   UNL     1       4.141   3.290   2.824  1.00  0.00    -0.014 A 
BRANCH  11  12
ATOM     12  C   UNL     1       5.006   4.267   3.499  1.00  0.00     0.031 A 
ATOM     13  C   UNL     1       5.645   3.856   4.788  1.00  0.00     0.074 A 
ATOM     14  C   UNL     1       5.357   5.391   2.852  1.00  0.00     0.049 A 
ATOM     15  N   UNL     1       6.471   4.514   5.553  1.00  0.00    -0.248 NA
ATOM     16  C   UNL     1       5.327   2.500   5.270  1.00  0.00     0.031 C 
ATOM     17  C   UNL     1       4.895   5.771   1.514  1.00  0.00     0.029 A 
ATOM     18  N   UNL     1       6.223   6.390   3.202  1.00  0.00    -0.354 N 
ATOM     19  C   UNL     1       6.739   3.672   6.622  1.00  0.00     0.074 A 
ATOM     20  C   UNL     1       5.995   2.452   6.411  1.00  0.00     0.031 C 
ATOM     21  C   UNL     1       5.512   6.904   1.143  1.00  0.00     0.029 A 
ATOM     22  C   UNL     1       6.349   7.364   2.243  1.00  0.00     0.049 A 
ATOM     23  H   UNL     1       6.709   6.408   4.058  1.00  0.00     0.167 HD
ATOM     24  C   UNL     1       7.531   3.915   7.691  1.00  0.00     0.037 A 
ATOM     25  C   UNL     1       7.048   8.513   2.280  1.00  0.00     0.037 A 
ATOM     26  C   UNL     1       8.261   5.142   7.856  1.00  0.00     0.049 A 
ATOM     27  C   UNL     1       7.841   8.803   3.527  1.00  0.00     0.074 A 
ATOM     28  C   UNL     1       9.045   5.551   8.917  1.00  0.00     0.029 A 
ATOM     29  N   UNL     1       8.290   6.164   6.913  1.00  0.00    -0.354 N 
ATOM     30  N   UNL     1       8.028   8.046   4.583  1.00  0.00    -0.248 NA
ATOM     31  C   UNL     1       8.508  10.107   3.595  1.00  0.00     0.031 C 
ATOM     32  C   UNL     1       9.503   6.844   8.640  1.00  0.00     0.029 A 
ATOM     33  C   UNL     1       9.063   7.214   7.377  1.00  0.00     0.049 A 
ATOM     34  H   UNL     1       7.829   6.144   6.044  1.00  0.00     0.167 HD
ATOM     35  C   UNL     1       8.858   8.766   5.430  1.00  0.00     0.074 A 
ATOM     36  C   UNL     1       9.148  10.016   4.752  1.00  0.00     0.031 C 
ATOM     37  C   UNL     1       9.338   8.432   6.654  1.00  0.00     0.037 A 
BRANCH  24  38
ATOM     38  C   UNL     1       7.546   2.881   8.778  1.00  0.00     0.064 A 
ATOM     39  C   UNL     1       8.138   1.619   8.610  1.00  0.00     0.173 A 
ATOM     40  C   UNL     1       6.895   3.140   9.994  1.00  0.00     0.173 A 
ATOM     41  F   UNL     1       8.743   1.305   7.455  1.00  0.00    -0.203 F 
ATOM     42  C   UNL     1       8.041   0.645   9.603  1.00  0.00     0.198 A 
ATOM     43  C   UNL     1       6.828   2.176  10.995  1.00  0.00     0.198 A 
ATOM     44  F   UNL     1       6.303   4.325  10.204  1.00  0.00    -0.203 F 
ATOM     45  F   UNL     1       8.547  -0.578   9.390  1.00  0.00    -0.200 F 
ATOM     46  C   UNL     1       7.390   0.925  10.794  1.00  0.00     0.200 A 
ATOM     47  F   UNL     1       6.199   2.451  12.146  1.00  0.00    -0.200 F 
ATOM     48  F   UNL     1       7.285  -0.018  11.742  1.00  0.00    -0.200 F 
ENDBRANCH  24  38
BRANCH  25  49
ATOM     49  C   UNL     1       6.994   9.472   1.143  1.00  0.00     0.064 A 
ATOM     50  C   UNL     1       8.141   9.794   0.404  1.00  0.00     0.173 A 
ATOM     51  C   UNL     1       5.793  10.104   0.782  1.00  0.00     0.173 A 
ATOM     52  F   UNL     1       9.319   9.234   0.718  1.00  0.00    -0.203 F 
ATOM     53  C   UNL     1       8.093  10.724  -0.634  1.00  0.00     0.198 A 
ATOM     54  C   UNL     1       5.740  11.009  -0.277  1.00  0.00     0.198 A 
ATOM     55  F   UNL     1       4.664   9.839   1.455  1.00  0.00    -0.203 F 
ATOM     56  F   UNL     1       9.216  11.052  -1.289  1.00  0.00    -0.200 F 
ATOM     57  C   UNL     1       6.892  11.326  -0.977  1.00  0.00     0.200 A 
ATOM     58  F   UNL     1       4.573  11.576  -0.612  1.00  0.00    -0.200 F 
ATOM     59  F   UNL     1       6.847  12.220  -1.974  1.00  0.00    -0.200 F 
ENDBRANCH  25  49
BRANCH  37  60
ATOM     60  C   UNL     1      10.275   9.408   7.299  1.00  0.00     0.064 A 
ATOM     61  C   UNL     1       9.832  10.636   7.808  1.00  0.00     0.173 A 
ATOM     62  C   UNL     1      11.633   9.084   7.441  1.00  0.00     0.173 A 
ATOM     63  F   UNL     1       8.545  10.996   7.682  1.00  0.00    -0.203 F 
ATOM     64  C   UNL     1      10.723  11.521   8.408  1.00  0.00     0.198 A 
ATOM     65  C   UNL     1      12.512   9.954   8.075  1.00  0.00     0.198 A 
ATOM     66  F   UNL     1      12.102   7.915   6.977  1.00  0.00    -0.203 F 
ATOM     67  F   UNL     1      10.291  12.714   8.837  1.00  0.00    -0.200 F 
ATOM     68  C   UNL     1      12.059  11.175   8.549  1.00  0.00     0.200 A 
ATOM     69  F   UNL     1      13.799   9.610   8.226  1.00  0.00    -0.200 F 
ATOM     70  F   UNL     1      12.913  12.025   9.135  1.00  0.00    -0.200 F 
ENDBRANCH  37  60
ENDBRANCH  11  12
ENDBRANCH   4   6
ENDBRANCH   3   4
ENDBRANCH   2   3
ENDBRANCH   1   2
BRANCH   1  71
ATOM     71  O   UNL     1       3.989   0.403  -1.552  1.00  0.00    -0.374 OA
BRANCH  71  72
ATOM     72  C   UNL     1       2.661   0.676  -2.014  1.00  0.00     0.202 C 
BRANCH  72  73
ATOM     73  C   UNL     1       2.711   1.232  -3.438  1.00  0.00     0.261 C 
BRANCH  73  74
ATOM     74  O   UNL     1       3.286   0.237  -4.299  1.00  0.00    -0.460 OA
BRANCH  74  75
ATOM     75  C   UNL     1       4.639   0.269  -4.382  1.00  0.00     0.338 C 
ATOM     76  O   UNL     1       5.390   1.176  -4.065  1.00  0.00    -0.246 OA
BRANCH  75  77
ATOM     77  C   UNL     1       5.095  -1.097  -4.710  1.00  0.00     0.067 A 
ATOM     78  C   UNL     1       6.198  -1.612  -4.013  1.00  0.00     0.025 A 
ATOM     79  C   UNL     1       4.418  -1.878  -5.645  1.00  0.00     0.101 A 
ATOM     80  C   UNL     1       6.620  -2.934  -4.209  1.00  0.00    -0.009 A 
ATOM     81  C   UNL     1       4.857  -3.185  -5.871  1.00  0.00     0.270 A 
ATOM     82  C   UNL     1       5.932  -3.724  -5.144  1.00  0.00     0.094 A 
BRANCH  80  83
ATOM     83  C   UNL     1       7.801  -3.448  -3.501  1.00  0.00     0.002 A 
ATOM     84  C   UNL     1       7.690  -3.897  -2.171  1.00  0.00     0.030 A 
ATOM     85  C   UNL     1       9.072  -3.481  -4.108  1.00  0.00     0.048 A 
ATOM     86  C   UNL     1       8.815  -4.357  -1.479  1.00  0.00     0.041 A 
ATOM     87  C   UNL     1      10.192  -3.945  -3.411  1.00  0.00     0.023 A 
ATOM     88  Cl  UNL     1       9.314  -2.935  -5.733  1.00  0.00    -0.084 Cl
ATOM     89  Cl  UNL     1       8.659  -4.888   0.151  1.00  0.00    -0.084 Cl
ATOM     90  C   UNL     1      10.064  -4.381  -2.093  1.00  0.00     0.022 A 
ENDBRANCH  80  83
BRANCH  81  91
ATOM     91  N   UNL     1       4.203  -3.991  -6.908  1.00  0.00     0.062 N 
ATOM     92  O   UNL     1       4.683  -5.104  -7.159  1.00  0.00    -0.258 OA
ATOM     93  O   UNL     1       3.213  -3.505  -7.473  1.00  0.00    -0.258 OA
ENDBRANCH  81  91
ENDBRANCH  75  77
ENDBRANCH  74  75
ENDBRANCH  73  74
ENDBRANCH  72  73
ENDBRANCH  71  72
ENDBRANCH   1  71
TORSDOF 16
