REMARK SMILES Cc1ccc(S(=O)(=O)n2cc(C(=O)C(=O)NCC(=O)NCC(=O)OCCOCCOC(=O)c3ccc(-c4c5nc(c(-c6c(F)c(F)c(F)c(F)c6F)c6ccc([nH]6)c(-c6c(F)c(F)c(F)c(F)c6F)c6nc(c(-c7c(F)c(F)c(F)c(F)c7F)c7ccc4[nH]7)C=C6)C=C5)cc3)c3ccccc32)cc1
REMARK SMILES IDX 25 1 24 2 22 3 23 4 21 5 20 6 18 7 19 8 17 10 16 11 14 12
REMARK SMILES IDX 15 13 12 15 13 16 11 17 9 18 10 19 101 20 96 21 100 22 97 23
REMARK SMILES IDX 99 24 98 25 6 26 7 27 8 28 5 29 1 30 2 31 3 32 103 33 4 34
REMARK SMILES IDX 102 35 26 36 27 37 28 38 29 39 30 40 31 41 32 42 33 43 34 44
REMARK SMILES IDX 95 45 35 46 94 47 36 48 37 49 38 50 88 51 39 52 93 53 87 54
REMARK SMILES IDX 89 55 40 56 92 57 86 58 85 59 41 61 73 62 53 63 72 64 54 65
REMARK SMILES IDX 57 66 71 67 90 68 55 69 56 70 70 72 91 73 58 74 42 75 43 76
REMARK SMILES IDX 51 77 44 78 45 79 49 80 52 81 46 82 47 83 50 84 48 85 74 86
REMARK SMILES IDX 75 87 83 88 76 89 77 90 81 91 84 92 78 93 79 94 82 95 80 96
REMARK SMILES IDX 59 97 60 98 68 99 61 100 62 101 66 102 69 103 63 104 64 105
REMARK SMILES IDX 67 106 65 107
REMARK H PARENT 20 9 16 14 89 60 57 71
REMARK Flexibility Score: inf
ROOT
ATOM      1  C   UNL     1     -10.765   3.733   2.511  1.00  0.00     0.261 C 
ENDROOT
BRANCH   1   2
ATOM      2  O   UNL     1      -9.850   4.718   2.036  1.00  0.00    -0.462 OA
BRANCH   2   3
ATOM      3  C   UNL     1      -9.483   4.653   0.724  1.00  0.00     0.325 C 
ATOM      4  O   UNL     1      -9.500   3.653   0.022  1.00  0.00    -0.250 OA
BRANCH   3   5
ATOM      5  C   UNL     1      -9.024   6.037   0.252  1.00  0.00     0.238 C 
BRANCH   5   6
ATOM      6  N   UNL     1      -9.394   7.072   1.220  1.00  0.00    -0.344 N 
ATOM      7  C   UNL     1      -8.721   7.445   2.350  1.00  0.00     0.239 C 
ATOM      8  O   UNL     1      -9.344   8.027   3.239  1.00  0.00    -0.273 OA
ATOM      9  H   UNL     1     -10.230   7.558   1.035  1.00  0.00     0.164 HD
BRANCH   7  10
ATOM     10  C   UNL     1      -7.229   7.129   2.481  1.00  0.00     0.216 C 
BRANCH  10  11
ATOM     11  N   UNL     1      -7.038   5.701   2.641  1.00  0.00    -0.340 N 
ATOM     12  C   UNL     1      -6.212   4.840   1.965  1.00  0.00     0.292 C 
ATOM     13  O   UNL     1      -6.446   3.643   2.058  1.00  0.00    -0.265 OA
ATOM     14  H   UNL     1      -7.588   5.285   3.344  1.00  0.00     0.164 HD
BRANCH  12  15
ATOM     15  C   UNL     1      -5.057   5.314   1.058  1.00  0.00     0.252 C 
ATOM     16  O   UNL     1      -4.875   6.515   0.894  1.00  0.00    -0.283 OA
BRANCH  15  17
ATOM     17  C   UNL     1      -4.234   4.322   0.353  1.00  0.00     0.054 A 
ATOM     18  N   UNL     1      -3.080   2.472  -0.142  1.00  0.00    -0.240 N 
ATOM     19  C   UNL     1      -3.773   3.117   0.854  1.00  0.00     0.117 A 
ATOM     20  C   UNL     1      -3.131   3.186  -1.319  1.00  0.00     0.065 A 
ATOM     21  C   UNL     1      -3.796   4.383  -1.012  1.00  0.00     0.012 A 
ATOM     22  C   UNL     1      -2.689   2.894  -2.619  1.00  0.00     0.028 A 
ATOM     23  C   UNL     1      -3.976   5.336  -2.036  1.00  0.00     0.011 A 
ATOM     24  C   UNL     1      -2.895   3.852  -3.614  1.00  0.00     0.002 A 
ATOM     25  C   UNL     1      -3.517   5.061  -3.327  1.00  0.00     0.001 A 
BRANCH  18  26
ATOM     26  S   UNL     1      -2.525   0.876  -0.005  1.00  0.00     0.268 S 
ATOM     27  O   UNL     1      -3.146   0.171  -1.086  1.00  0.00    -0.201 OA
ATOM     28  O   UNL     1      -2.689   0.552   1.414  1.00  0.00    -0.201 OA
BRANCH  26  29
ATOM     29  C   UNL     1      -0.799   0.737  -0.238  1.00  0.00     0.088 A 
ATOM     30  C   UNL     1       3.393  -0.029  -0.039  1.00  0.00     0.044 C 
ATOM     31  C   UNL     1       1.927   0.251  -0.166  1.00  0.00    -0.051 A 
ATOM     32  C   UNL     1       1.041  -0.823  -0.284  1.00  0.00     0.005 A 
ATOM     33  C   UNL     1       1.433   1.567  -0.120  1.00  0.00     0.005 A 
ATOM     34  C   UNL     1      -0.323  -0.582  -0.324  1.00  0.00     0.022 A 
ATOM     35  C   UNL     1       0.062   1.819  -0.153  1.00  0.00     0.022 A 
ENDBRANCH  26  29
ENDBRANCH  18  26
ENDBRANCH  15  17
ENDBRANCH  12  15
ENDBRANCH  10  11
ENDBRANCH   7  10
ENDBRANCH   5   6
ENDBRANCH   3   5
ENDBRANCH   2   3
ENDBRANCH   1   2
BRANCH   1  36
ATOM     36  C   UNL     1     -12.179   4.249   2.351  1.00  0.00     0.202 C 
BRANCH  36  37
ATOM     37  O   UNL     1     -12.570   4.028   0.999  1.00  0.00    -0.374 OA
BRANCH  37  38
ATOM     38  C   UNL     1     -13.815   4.614   0.625  1.00  0.00     0.202 C 
BRANCH  38  39
ATOM     39  C   UNL     1     -15.019   4.216   1.497  1.00  0.00     0.261 C 
BRANCH  39  40
ATOM     40  O   UNL     1     -15.263   2.805   1.370  1.00  0.00    -0.460 OA
BRANCH  40  41
ATOM     41  C   UNL     1     -15.052   2.078   2.499  1.00  0.00     0.338 C 
ATOM     42  O   UNL     1     -15.514   2.325   3.599  1.00  0.00    -0.246 OA
BRANCH  41  43
ATOM     43  C   UNL     1     -13.946   1.114   2.252  1.00  0.00     0.060 A 
ATOM     44  C   UNL     1     -13.351   0.440   3.333  1.00  0.00     0.016 A 
ATOM     45  C   UNL     1     -13.330   1.115   1.002  1.00  0.00     0.016 A 
ATOM     46  C   UNL     1     -12.088  -0.142   3.183  1.00  0.00     0.010 A 
ATOM     47  C   UNL     1     -12.044   0.643   0.891  1.00  0.00     0.010 A 
ATOM     48  C   UNL     1     -11.415   0.014   1.973  1.00  0.00    -0.014 A 
BRANCH  48  49
ATOM     49  C   UNL     1     -10.025  -0.344   1.722  1.00  0.00     0.031 A 
ATOM     50  C   UNL     1      -9.701  -1.335   0.657  1.00  0.00     0.074 A 
ATOM     51  C   UNL     1      -9.055   0.437   2.247  1.00  0.00     0.049 A 
ATOM     52  N   UNL     1      -8.550  -1.893   0.497  1.00  0.00    -0.248 NA
ATOM     53  C   UNL     1     -10.681  -1.813  -0.317  1.00  0.00     0.031 C 
ATOM     54  C   UNL     1      -7.707   0.603   1.734  1.00  0.00     0.029 A 
ATOM     55  N   UNL     1      -9.048   1.203   3.428  1.00  0.00    -0.354 N 
ATOM     56  C   UNL     1      -8.537  -2.503  -0.743  1.00  0.00     0.074 A 
ATOM     57  C   UNL     1      -9.912  -2.499  -1.168  1.00  0.00     0.031 C 
ATOM     58  C   UNL     1      -6.920   1.044   2.724  1.00  0.00     0.029 A 
ATOM     59  C   UNL     1      -7.725   1.132   3.917  1.00  0.00     0.049 A 
ATOM     60  H   UNL     1      -9.806   1.687   3.829  1.00  0.00     0.167 HD
ATOM     61  C   UNL     1      -7.335  -2.790  -1.328  1.00  0.00     0.037 A 
ATOM     62  C   UNL     1      -7.418   0.637   5.143  1.00  0.00     0.037 A 
ATOM     63  C   UNL     1      -6.256  -2.387  -0.437  1.00  0.00     0.049 A 
ATOM     64  C   UNL     1      -6.537  -0.571   5.013  1.00  0.00     0.074 A 
ATOM     65  C   UNL     1      -5.622  -1.167  -0.340  1.00  0.00     0.029 A 
ATOM     66  N   UNL     1      -6.005  -3.066   0.749  1.00  0.00    -0.354 N 
ATOM     67  N   UNL     1      -6.386  -1.214   3.886  1.00  0.00    -0.248 NA
ATOM     68  C   UNL     1      -5.766  -1.164   6.096  1.00  0.00     0.031 C 
ATOM     69  C   UNL     1      -5.096  -1.085   0.964  1.00  0.00     0.029 A 
ATOM     70  C   UNL     1      -5.252  -2.287   1.612  1.00  0.00     0.049 A 
ATOM     71  H   UNL     1      -6.320  -3.977   0.949  1.00  0.00     0.167 HD
ATOM     72  C   UNL     1      -5.390  -2.134   4.014  1.00  0.00     0.074 A 
ATOM     73  C   UNL     1      -5.129  -2.157   5.446  1.00  0.00     0.031 C 
ATOM     74  C   UNL     1      -4.818  -2.737   2.927  1.00  0.00     0.037 A 
BRANCH  61  75
ATOM     75  C   UNL     1      -7.102  -3.066  -2.804  1.00  0.00     0.064 A 
ATOM     76  C   UNL     1      -5.847  -2.782  -3.399  1.00  0.00     0.173 A 
ATOM     77  C   UNL     1      -8.069  -3.552  -3.701  1.00  0.00     0.173 A 
ATOM     78  F   UNL     1      -4.786  -2.425  -2.663  1.00  0.00    -0.203 F 
ATOM     79  C   UNL     1      -5.625  -2.866  -4.778  1.00  0.00     0.198 A 
ATOM     80  C   UNL     1      -7.860  -3.599  -5.085  1.00  0.00     0.198 A 
ATOM     81  F   UNL     1      -9.229  -4.060  -3.271  1.00  0.00    -0.203 F 
ATOM     82  F   UNL     1      -4.416  -2.573  -5.280  1.00  0.00    -0.200 F 
ATOM     83  C   UNL     1      -6.643  -3.244  -5.626  1.00  0.00     0.200 A 
ATOM     84  F   UNL     1      -8.853  -4.003  -5.892  1.00  0.00    -0.200 F 
ATOM     85  F   UNL     1      -6.443  -3.299  -6.950  1.00  0.00    -0.200 F 
ENDBRANCH  61  75
BRANCH  62  86
ATOM     86  C   UNL     1      -8.488   0.935   6.126  1.00  0.00     0.064 A 
ATOM     87  C   UNL     1      -8.760   2.304   6.359  1.00  0.00     0.173 A 
ATOM     88  C   UNL     1      -9.515   0.019   6.364  1.00  0.00     0.173 A 
ATOM     89  F   UNL     1      -7.809   3.226   6.135  1.00  0.00    -0.203 F 
ATOM     90  C   UNL     1     -10.054   2.746   6.621  1.00  0.00     0.198 A 
ATOM     91  C   UNL     1     -10.807   0.468   6.649  1.00  0.00     0.198 A 
ATOM     92  F   UNL     1      -9.311  -1.291   6.170  1.00  0.00    -0.203 F 
ATOM     93  F   UNL     1     -10.319   4.060   6.645  1.00  0.00    -0.200 F 
ATOM     94  C   UNL     1     -11.083   1.828   6.726  1.00  0.00     0.200 A 
ATOM     95  F   UNL     1     -11.814  -0.413   6.736  1.00  0.00    -0.200 F 
ATOM     96  F   UNL     1     -12.349   2.255   6.842  1.00  0.00    -0.200 F 
ENDBRANCH  62  86
BRANCH  74  97
ATOM     97  C   UNL     1      -3.676  -3.705   3.020  1.00  0.00     0.064 A 
ATOM     98  C   UNL     1      -2.670  -3.622   3.993  1.00  0.00     0.173 A 
ATOM     99  C   UNL     1      -3.533  -4.745   2.078  1.00  0.00     0.173 A 
ATOM    100  F   UNL     1      -2.567  -2.558   4.802  1.00  0.00    -0.203 F 
ATOM    101  C   UNL     1      -1.717  -4.629   4.145  1.00  0.00     0.198 A 
ATOM    102  C   UNL     1      -2.537  -5.709   2.186  1.00  0.00     0.198 A 
ATOM    103  F   UNL     1      -4.364  -4.881   1.036  1.00  0.00    -0.203 F 
ATOM    104  F   UNL     1      -0.856  -4.577   5.170  1.00  0.00    -0.200 F 
ATOM    105  C   UNL     1      -1.664  -5.682   3.252  1.00  0.00     0.200 A 
ATOM    106  F   UNL     1      -2.451  -6.679   1.266  1.00  0.00    -0.200 F 
ATOM    107  F   UNL     1      -0.769  -6.665   3.414  1.00  0.00    -0.200 F 
ENDBRANCH  74  97
ENDBRANCH  48  49
ENDBRANCH  41  43
ENDBRANCH  40  41
ENDBRANCH  39  40
ENDBRANCH  38  39
ENDBRANCH  37  38
ENDBRANCH  36  37
ENDBRANCH   1  36
TORSDOF 21
