REMARK SMILES CC[C@H]1CC[C@@](C(=O)OCCOCCOC(=O)c2ccc(-c3c4nc(c(-c5c(F)c(F)c(F)c(F)c5F)c5ccc([nH]5)c(-c5c(F)c(F)c(F)c(F)c5F)c5nc(c(-c6c(F)c(F)c(F)c(F)c6F)c6ccc3[nH]6)C=C5)C=C4)cc2)(C2CCCC2)C1
REMARK SMILES IDX 13 1 12 2 11 3 10 4 9 5 7 6 8 7 6 8 3 9 4 10 86 11 5 12 2 13
REMARK SMILES IDX 1 14 81 15 82 16 85 17 83 18 84 19 14 20 15 21 16 22 17 23
REMARK SMILES IDX 18 24 19 25 80 26 20 27 79 28 21 29 22 30 23 31 73 32 24 33
REMARK SMILES IDX 78 34 72 35 74 36 25 37 77 38 71 39 70 40 26 42 58 43 38 44
REMARK SMILES IDX 57 45 39 46 42 47 56 48 75 49 40 50 41 51 55 53 76 54 43 55
REMARK SMILES IDX 27 56 28 57 36 58 29 59 30 60 34 61 37 62 31 63 32 64 35 65
REMARK SMILES IDX 33 66 59 67 60 68 68 69 61 70 62 71 66 72 69 73 63 74 64 75
REMARK SMILES IDX 67 76 65 77 44 78 45 79 53 80 46 81 47 82 51 83 54 84 48 85
REMARK SMILES IDX 49 86 52 87 50 88
REMARK H PARENT 74 41 42 52
REMARK Flexibility Score: inf
ROOT
ATOM      1  C   UNL     1      -0.838   7.374  -3.163  1.00  0.00     0.202 C 
ENDROOT
BRANCH   1   2
ATOM      2  O   UNL     1      -2.128   7.220  -3.741  1.00  0.00    -0.374 OA
BRANCH   2   3
ATOM      3  C   UNL     1      -3.059   6.364  -3.080  1.00  0.00     0.202 C 
BRANCH   3   4
ATOM      4  C   UNL     1      -2.754   4.865  -3.010  1.00  0.00     0.261 C 
BRANCH   4   5
ATOM      5  O   UNL     1      -1.580   4.584  -2.224  1.00  0.00    -0.463 OA
BRANCH   5   6
ATOM      6  C   UNL     1      -0.577   3.961  -2.897  1.00  0.00     0.312 C 
ATOM      7  O   UNL     1      -0.682   3.559  -4.052  1.00  0.00    -0.252 OA
BRANCH   6   8
ATOM      8  C   UNL     1       0.710   3.756  -2.068  1.00  0.00     0.071 C 
ATOM      9  C   UNL     1       0.781   2.179  -0.113  1.00  0.00    -0.010 C 
ATOM     10  C   UNL     1       0.850   3.603   0.422  1.00  0.00     0.005 C 
ATOM     11  C   UNL     1       0.631   2.271  -1.632  1.00  0.00     0.022 C 
ATOM     12  C   UNL     1       0.814   4.565  -0.758  1.00  0.00     0.019 C 
BRANCH   9  13
ATOM     13  C   UNL     1       1.887   1.243   0.413  1.00  0.00     0.000 C 
ATOM     14  C   UNL     1       3.228   1.288  -0.298  1.00  0.00     0.004 C 
ENDBRANCH   9  13
BRANCH   8  15
ATOM     15  C   UNL     1       1.892   4.079  -3.057  1.00  0.00     0.006 C 
ATOM     16  C   UNL     1       2.073   5.568  -3.407  1.00  0.00     0.005 C 
ATOM     17  C   UNL     1       3.305   3.697  -2.629  1.00  0.00     0.005 C 
ATOM     18  C   UNL     1       3.471   5.694  -4.003  1.00  0.00     0.000 C 
ATOM     19  C   UNL     1       4.210   4.422  -3.619  1.00  0.00     0.000 C 
ENDBRANCH   8  15
ENDBRANCH   6   8
ENDBRANCH   5   6
ENDBRANCH   4   5
ENDBRANCH   3   4
ENDBRANCH   2   3
ENDBRANCH   1   2
BRANCH   1  20
ATOM     20  C   UNL     1      -0.675   8.287  -1.943  1.00  0.00     0.261 C 
BRANCH  20  21
ATOM     21  O   UNL     1      -1.653   8.052  -0.926  1.00  0.00    -0.460 OA
BRANCH  21  22
ATOM     22  C   UNL     1      -2.678   8.934  -0.951  1.00  0.00     0.338 C 
ATOM     23  O   UNL     1      -2.793   9.928  -1.658  1.00  0.00    -0.246 OA
BRANCH  22  24
ATOM     24  C   UNL     1      -3.773   8.442  -0.105  1.00  0.00     0.060 A 
ATOM     25  C   UNL     1      -5.036   8.322  -0.698  1.00  0.00     0.016 A 
ATOM     26  C   UNL     1      -3.583   8.157   1.248  1.00  0.00     0.016 A 
ATOM     27  C   UNL     1      -6.133   7.972   0.076  1.00  0.00     0.010 A 
ATOM     28  C   UNL     1      -4.690   7.818   2.029  1.00  0.00     0.010 A 
ATOM     29  C   UNL     1      -5.972   7.766   1.452  1.00  0.00    -0.014 A 
BRANCH  29  30
ATOM     30  C   UNL     1      -7.175   7.672   2.307  1.00  0.00     0.031 A 
ATOM     31  C   UNL     1      -7.629   8.898   3.046  1.00  0.00     0.074 A 
ATOM     32  C   UNL     1      -7.872   6.527   2.382  1.00  0.00     0.049 A 
ATOM     33  N   UNL     1      -8.639   9.049   3.865  1.00  0.00    -0.248 NA
ATOM     34  C   UNL     1      -6.835  10.119   2.836  1.00  0.00     0.031 C 
ATOM     35  C   UNL     1      -7.541   5.292   1.675  1.00  0.00     0.029 A 
ATOM     36  N   UNL     1      -9.000   6.218   3.097  1.00  0.00    -0.354 N 
ATOM     37  C   UNL     1      -8.598  10.377   4.269  1.00  0.00     0.074 A 
ATOM     38  C   UNL     1      -7.445  10.980   3.637  1.00  0.00     0.031 C 
ATOM     39  C   UNL     1      -8.441   4.350   2.004  1.00  0.00     0.029 A 
ATOM     40  C   UNL     1      -9.387   4.909   2.967  1.00  0.00     0.049 A 
ATOM     41  H   UNL     1      -9.485   6.873   3.650  1.00  0.00     0.167 HD
ATOM     42  C   UNL     1      -9.454  11.034   5.085  1.00  0.00     0.037 A 
ATOM     43  C   UNL     1     -10.381   4.237   3.579  1.00  0.00     0.037 A 
ATOM     44  C   UNL     1     -10.597  10.422   5.711  1.00  0.00     0.049 A 
ATOM     45  C   UNL     1     -11.281   4.973   4.537  1.00  0.00     0.074 A 
ATOM     46  C   UNL     1     -11.539  11.000   6.544  1.00  0.00     0.029 A 
ATOM     47  N   UNL     1     -10.945   9.085   5.579  1.00  0.00    -0.354 N 
ATOM     48  N   UNL     1     -11.255   6.234   4.896  1.00  0.00    -0.248 NA
ATOM     49  C   UNL     1     -12.353   4.193   5.170  1.00  0.00     0.031 C 
ATOM     50  C   UNL     1     -12.424  10.000   6.960  1.00  0.00     0.029 A 
ATOM     51  C   UNL     1     -12.071   8.812   6.338  1.00  0.00     0.049 A 
ATOM     52  H   UNL     1     -10.463   8.428   5.026  1.00  0.00     0.167 HD
ATOM     53  C   UNL     1     -12.318   6.406   5.773  1.00  0.00     0.074 A 
ATOM     54  C   UNL     1     -12.978   5.121   5.880  1.00  0.00     0.031 C 
ATOM     55  C   UNL     1     -12.713   7.524   6.430  1.00  0.00     0.037 A 
BRANCH  42  56
ATOM     56  C   UNL     1      -9.164  12.479   5.372  1.00  0.00     0.064 A 
ATOM     57  C   UNL     1      -9.301  13.472   4.389  1.00  0.00     0.173 A 
ATOM     58  C   UNL     1      -8.756  12.880   6.653  1.00  0.00     0.173 A 
ATOM     59  F   UNL     1      -9.673  13.141   3.143  1.00  0.00    -0.203 F 
ATOM     60  C   UNL     1      -9.008  14.804   4.669  1.00  0.00     0.198 A 
ATOM     61  C   UNL     1      -8.496  14.217   6.939  1.00  0.00     0.198 A 
ATOM     62  F   UNL     1      -8.611  11.973   7.631  1.00  0.00    -0.203 F 
ATOM     63  F   UNL     1      -9.092  15.726   3.700  1.00  0.00    -0.200 F 
ATOM     64  C   UNL     1      -8.613  15.177   5.945  1.00  0.00     0.200 A 
ATOM     65  F   UNL     1      -8.125  14.576   8.176  1.00  0.00    -0.200 F 
ATOM     66  F   UNL     1      -8.335  16.460   6.215  1.00  0.00    -0.200 F 
ENDBRANCH  42  56
BRANCH  43  67
ATOM     67  C   UNL     1     -10.559   2.786   3.316  1.00  0.00     0.064 A 
ATOM     68  C   UNL     1     -11.680   2.303   2.628  1.00  0.00     0.173 A 
ATOM     69  C   UNL     1      -9.608   1.850   3.750  1.00  0.00     0.173 A 
ATOM     70  F   UNL     1     -12.629   3.155   2.212  1.00  0.00    -0.203 F 
ATOM     71  C   UNL     1     -11.851   0.939   2.398  1.00  0.00     0.198 A 
ATOM     72  C   UNL     1      -9.764   0.490   3.493  1.00  0.00     0.198 A 
ATOM     73  F   UNL     1      -8.516   2.260   4.413  1.00  0.00    -0.203 F 
ATOM     74  F   UNL     1     -12.953   0.500   1.775  1.00  0.00    -0.200 F 
ATOM     75  C   UNL     1     -10.889   0.035   2.824  1.00  0.00     0.200 A 
ATOM     76  F   UNL     1      -8.825  -0.377   3.894  1.00  0.00    -0.200 F 
ATOM     77  F   UNL     1     -11.050  -1.276   2.596  1.00  0.00    -0.200 F 
ENDBRANCH  43  67
BRANCH  55  78
ATOM     78  C   UNL     1     -13.935   7.417   7.299  1.00  0.00     0.064 A 
ATOM     79  C   UNL     1     -13.919   6.712   8.511  1.00  0.00     0.173 A 
ATOM     80  C   UNL     1     -15.124   8.067   6.933  1.00  0.00     0.173 A 
ATOM     81  F   UNL     1     -12.811   6.062   8.899  1.00  0.00    -0.203 F 
ATOM     82  C   UNL     1     -15.057   6.637   9.310  1.00  0.00     0.198 A 
ATOM     83  C   UNL     1     -16.249   8.017   7.750  1.00  0.00     0.198 A 
ATOM     84  F   UNL     1     -15.190   8.763   5.788  1.00  0.00    -0.203 F 
ATOM     85  F   UNL     1     -15.034   5.914  10.439  1.00  0.00    -0.200 F 
ATOM     86  C   UNL     1     -16.218   7.296   8.933  1.00  0.00     0.200 A 
ATOM     87  F   UNL     1     -17.365   8.668   7.392  1.00  0.00    -0.200 F 
ATOM     88  F   UNL     1     -17.309   7.229   9.708  1.00  0.00    -0.200 F 
ENDBRANCH  55  78
ENDBRANCH  29  30
ENDBRANCH  22  24
ENDBRANCH  21  22
ENDBRANCH  20  21
ENDBRANCH   1  20
TORSDOF 16
