REMARK SMILES CC(C)(C)c1noc2ncc(C(=O)OCCOCCOC(=O)c3ccc(-c4c5nc(c(-c6c(F)c(F)c(F)c(F)c6F)c6ccc([nH]6)c(-c6c(F)c(F)c(F)c(F)c6F)c6nc(c(-c7c(F)c(F)c(F)c(F)c7F)c7ccc4[nH]7)C=C6)C=C5)cc3)cc12
REMARK SMILES IDX 18 1 17 2 16 3 15 4 14 5 12 6 13 7 11 8 5 9 6 10 87 11 7 12
REMARK SMILES IDX 8 13 86 14 9 15 10 16 2 17 1 18 3 19 4 20 19 21 20 22 21 23
REMARK SMILES IDX 22 24 23 25 24 26 85 27 25 28 84 29 26 30 27 31 28 32 78 33
REMARK SMILES IDX 29 34 83 35 77 36 79 37 30 38 82 39 76 40 75 41 31 43 63 44
REMARK SMILES IDX 43 45 62 46 44 47 47 48 61 49 80 50 45 51 46 52 60 54 81 55
REMARK SMILES IDX 48 56 32 57 33 58 41 59 34 60 35 61 39 62 42 63 36 64 37 65
REMARK SMILES IDX 40 66 38 67 64 68 65 69 73 70 66 71 67 72 71 73 74 74 68 75
REMARK SMILES IDX 69 76 72 77 70 78 49 79 50 80 58 81 51 82 52 83 56 84 59 85
REMARK SMILES IDX 53 86 54 87 57 88 55 89
REMARK H PARENT 79 42 47 53
REMARK Flexibility Score: inf
ROOT
ATOM      1  C   UNL     1       4.358   3.781   4.742  1.00  0.00     0.202 C 
ENDROOT
BRANCH   1   2
ATOM      2  O   UNL     1       4.354   4.843   5.689  1.00  0.00    -0.374 OA
BRANCH   2   3
ATOM      3  C   UNL     1       4.430   4.593   7.092  1.00  0.00     0.202 C 
BRANCH   3   4
ATOM      4  C   UNL     1       3.322   3.799   7.788  1.00  0.00     0.261 C 
BRANCH   4   5
ATOM      5  O   UNL     1       3.146   2.478   7.249  1.00  0.00    -0.460 OA
BRANCH   5   6
ATOM      6  C   UNL     1       1.953   2.300   6.632  1.00  0.00     0.339 C 
ATOM      7  O   UNL     1       1.037   3.100   6.554  1.00  0.00    -0.246 OA
BRANCH   6   8
ATOM      8  C   UNL     1       1.962   1.073   5.828  1.00  0.00     0.079 A 
ATOM      9  C   UNL     1       1.060  -0.368   2.426  1.00  0.00     0.099 A 
ATOM     10  N   UNL     1       1.172  -1.700   2.278  1.00  0.00    -0.081 NA
ATOM     11  C   UNL     1       1.441   0.012   3.744  1.00  0.00     0.066 A 
ATOM     12  O   UNL     1       1.667  -2.190   3.474  1.00  0.00    -0.336 OA
ATOM     13  C   UNL     1       1.840  -1.169   4.356  1.00  0.00     0.257 A 
ATOM     14  C   UNL     1       1.502   1.179   4.512  1.00  0.00     0.033 A 
ATOM     15  N   UNL     1       2.320  -1.321   5.612  1.00  0.00    -0.218 NA
ATOM     16  C   UNL     1       2.365  -0.160   6.314  1.00  0.00     0.131 A 
BRANCH   9  17
ATOM     17  C   UNL     1       0.538   0.479   1.270  1.00  0.00     0.008 C 
ATOM     18  C   UNL     1       1.054  -0.059  -0.084  1.00  0.00     0.018 C 
ATOM     19  C   UNL     1       0.986   1.954   1.356  1.00  0.00     0.018 C 
ATOM     20  C   UNL     1      -1.003   0.449   1.265  1.00  0.00     0.018 C 
ENDBRANCH   9  17
ENDBRANCH   6   8
ENDBRANCH   5   6
ENDBRANCH   4   5
ENDBRANCH   3   4
ENDBRANCH   2   3
ENDBRANCH   1   2
BRANCH   1  21
ATOM     21  C   UNL     1       5.631   2.970   4.527  1.00  0.00     0.261 C 
BRANCH  21  22
ATOM     22  O   UNL     1       6.101   2.425   5.747  1.00  0.00    -0.460 OA
BRANCH  22  23
ATOM     23  C   UNL     1       7.059   3.191   6.316  1.00  0.00     0.338 C 
ATOM     24  O   UNL     1       7.479   4.266   5.928  1.00  0.00    -0.246 OA
BRANCH  23  25
ATOM     25  C   UNL     1       7.598   2.491   7.489  1.00  0.00     0.060 A 
ATOM     26  C   UNL     1       8.549   3.229   8.198  1.00  0.00     0.016 A 
ATOM     27  C   UNL     1       7.613   1.096   7.421  1.00  0.00     0.016 A 
ATOM     28  C   UNL     1       9.737   2.606   8.477  1.00  0.00     0.010 A 
ATOM     29  C   UNL     1       8.811   0.484   7.660  1.00  0.00     0.010 A 
ATOM     30  C   UNL     1       9.881   1.279   8.069  1.00  0.00    -0.014 A 
BRANCH  30  31
ATOM     31  C   UNL     1      11.203   0.711   8.074  1.00  0.00     0.031 A 
ATOM     32  C   UNL     1      11.566   0.136   9.380  1.00  0.00     0.074 A 
ATOM     33  C   UNL     1      11.947   0.648   6.956  1.00  0.00     0.049 A 
ATOM     34  N   UNL     1      12.441   0.577  10.220  1.00  0.00    -0.248 NA
ATOM     35  C   UNL     1      10.707  -0.939   9.901  1.00  0.00     0.031 C 
ATOM     36  C   UNL     1      11.577   0.944   5.569  1.00  0.00     0.029 A 
ATOM     37  N   UNL     1      13.224   0.206   6.844  1.00  0.00    -0.354 N 
ATOM     38  C   UNL     1      12.350  -0.272  11.315  1.00  0.00     0.074 A 
ATOM     39  C   UNL     1      11.137  -1.027  11.157  1.00  0.00     0.031 C 
ATOM     40  C   UNL     1      12.537   0.464   4.741  1.00  0.00     0.029 A 
ATOM     41  C   UNL     1      13.633  -0.050   5.543  1.00  0.00     0.049 A 
ATOM     42  H   UNL     1      13.813   0.076   7.622  1.00  0.00     0.167 HD
ATOM     43  C   UNL     1      13.400  -0.473  12.153  1.00  0.00     0.037 A 
ATOM     44  C   UNL     1      14.756  -0.737   5.215  1.00  0.00     0.037 A 
ATOM     45  C   UNL     1      14.389   0.561  12.018  1.00  0.00     0.049 A 
ATOM     46  C   UNL     1      15.648  -0.708   6.412  1.00  0.00     0.074 A 
ATOM     47  C   UNL     1      14.385   1.921  12.261  1.00  0.00     0.029 A 
ATOM     48  N   UNL     1      15.458   0.334  11.184  1.00  0.00    -0.354 N 
ATOM     49  N   UNL     1      16.211   0.383   6.862  1.00  0.00    -0.248 NA
ATOM     50  C   UNL     1      15.493  -1.777   7.392  1.00  0.00     0.031 C 
ATOM     51  C   UNL     1      15.135   2.492  11.192  1.00  0.00     0.029 A 
ATOM     52  C   UNL     1      15.609   1.450  10.395  1.00  0.00     0.049 A 
ATOM     53  H   UNL     1      16.014  -0.478  11.157  1.00  0.00     0.167 HD
ATOM     54  C   UNL     1      16.116   0.295   8.245  1.00  0.00     0.074 A 
ATOM     55  C   UNL     1      15.710  -1.082   8.514  1.00  0.00     0.031 C 
ATOM     56  C   UNL     1      16.085   1.413   9.030  1.00  0.00     0.037 A 
BRANCH  43  57
ATOM     57  C   UNL     1      13.640  -1.772  12.866  1.00  0.00     0.064 A 
ATOM     58  C   UNL     1      14.563  -1.828  13.921  1.00  0.00     0.173 A 
ATOM     59  C   UNL     1      13.164  -3.021  12.401  1.00  0.00     0.173 A 
ATOM     60  F   UNL     1      15.111  -0.705  14.409  1.00  0.00    -0.203 F 
ATOM     61  C   UNL     1      14.995  -3.046  14.454  1.00  0.00     0.198 A 
ATOM     62  C   UNL     1      13.544  -4.228  12.978  1.00  0.00     0.198 A 
ATOM     63  F   UNL     1      12.400  -3.132  11.307  1.00  0.00    -0.203 F 
ATOM     64  F   UNL     1      15.954  -3.058  15.389  1.00  0.00    -0.200 F 
ATOM     65  C   UNL     1      14.481  -4.243  13.988  1.00  0.00     0.200 A 
ATOM     66  F   UNL     1      13.046  -5.375  12.495  1.00  0.00    -0.200 F 
ATOM     67  F   UNL     1      14.921  -5.410  14.473  1.00  0.00    -0.200 F 
ENDBRANCH  43  57
BRANCH  44  68
ATOM     68  C   UNL     1      14.918  -1.717   4.114  1.00  0.00     0.064 A 
ATOM     69  C   UNL     1      16.188  -2.127   3.680  1.00  0.00     0.173 A 
ATOM     70  C   UNL     1      13.824  -2.469   3.641  1.00  0.00     0.173 A 
ATOM     71  F   UNL     1      17.287  -1.501   4.126  1.00  0.00    -0.203 F 
ATOM     72  C   UNL     1      16.353  -3.229   2.831  1.00  0.00     0.198 A 
ATOM     73  C   UNL     1      13.988  -3.564   2.792  1.00  0.00     0.198 A 
ATOM     74  F   UNL     1      12.579  -2.216   4.069  1.00  0.00    -0.203 F 
ATOM     75  F   UNL     1      17.585  -3.624   2.478  1.00  0.00    -0.200 F 
ATOM     76  C   UNL     1      15.254  -3.950   2.394  1.00  0.00     0.200 A 
ATOM     77  F   UNL     1      12.918  -4.276   2.411  1.00  0.00    -0.200 F 
ATOM     78  F   UNL     1      15.414  -5.037   1.626  1.00  0.00    -0.200 F 
ENDBRANCH  44  68
BRANCH  56  79
ATOM     79  C   UNL     1      16.327   2.744   8.364  1.00  0.00     0.064 A 
ATOM     80  C   UNL     1      15.474   3.290   7.387  1.00  0.00     0.173 A 
ATOM     81  C   UNL     1      17.348   3.569   8.852  1.00  0.00     0.173 A 
ATOM     82  F   UNL     1      14.411   2.609   6.946  1.00  0.00    -0.203 F 
ATOM     83  C   UNL     1      15.658   4.583   6.898  1.00  0.00     0.198 A 
ATOM     84  C   UNL     1      17.508   4.874   8.390  1.00  0.00     0.198 A 
ATOM     85  F   UNL     1      18.156   3.129   9.828  1.00  0.00    -0.203 F 
ATOM     86  F   UNL     1      14.829   5.075   5.965  1.00  0.00    -0.200 F 
ATOM     87  C   UNL     1      16.670   5.378   7.407  1.00  0.00     0.200 A 
ATOM     88  F   UNL     1      18.454   5.658   8.925  1.00  0.00    -0.200 F 
ATOM     89  F   UNL     1      16.818   6.638   6.977  1.00  0.00    -0.200 F 
ENDBRANCH  56  79
ENDBRANCH  30  31
ENDBRANCH  23  25
ENDBRANCH  22  23
ENDBRANCH  21  22
ENDBRANCH   1  21
TORSDOF 15
