REMARK SMILES O=C(/C=C\c1ccc(OCc2ccc(Br)cc2)cc1)OCCOCCOC(=O)c1ccc(-c2c3nc(c(-c4c(F)c(F)c(F)c(F)c4F)c4ccc([nH]4)c(-c4c(F)c(F)c(F)c(F)c4F)c4nc(c(-c5c(F)c(F)c(F)c(F)c5F)c5ccc2[nH]5)C=C4)C=C3)cc1
REMARK SMILES IDX 22 1 21 2 20 3 2 4 1 5 3 6 4 7 5 8 6 9 19 10 7 11 18 12 8 13
REMARK SMILES IDX 9 14 10 15 11 16 12 17 17 18 13 19 16 20 14 21 15 22 23 23
REMARK SMILES IDX 24 24 25 25 26 26 27 27 28 28 29 29 30 30 91 31 31 32 90 33
REMARK SMILES IDX 32 34 33 35 34 36 84 37 35 38 89 39 83 40 85 41 36 42 88 43
REMARK SMILES IDX 82 44 81 45 37 47 69 48 49 49 68 50 50 51 53 52 67 53 86 54
REMARK SMILES IDX 51 55 52 56 66 58 87 59 54 60 38 61 39 62 47 63 40 64 41 65
REMARK SMILES IDX 45 66 48 67 42 68 43 69 46 70 44 71 70 72 71 73 79 74 72 75
REMARK SMILES IDX 73 76 77 77 80 78 74 79 75 80 78 81 76 82 55 83 56 84 64 85
REMARK SMILES IDX 57 86 58 87 62 88 65 89 59 90 60 91 63 92 61 93
REMARK H PARENT 85 46 53 57
REMARK Flexibility Score: inf
ROOT
ATOM      1  C   UNL     1       3.440   1.103   1.036  1.00  0.00     0.202 C 
ENDROOT
BRANCH   1   2
ATOM      2  C   UNL     1       3.112   0.775  -0.421  1.00  0.00     0.261 C 
BRANCH   2   3
ATOM      3  O   UNL     1       2.389  -0.445  -0.624  1.00  0.00    -0.460 OA
BRANCH   3   4
ATOM      4  C   UNL     1       2.608  -1.645  -0.069  1.00  0.00     0.330 C 
ATOM      5  O   UNL     1       1.688  -2.465  -0.052  1.00  0.00    -0.247 OA
BRANCH   4   6
ATOM      6  C   UNL     1       3.873  -2.057   0.586  1.00  0.00     0.094 C 
ATOM      7  C   UNL     1       5.210  -1.905   0.533  1.00  0.00     0.015 C 
BRANCH   7   8
ATOM      8  C   UNL     1       6.124  -1.159  -0.333  1.00  0.00    -0.025 A 
ATOM      9  C   UNL     1       6.911  -1.867  -1.248  1.00  0.00     0.012 A 
ATOM     10  C   UNL     1       6.344   0.212  -0.202  1.00  0.00     0.012 A 
ATOM     11  C   UNL     1       7.694  -1.187  -2.177  1.00  0.00     0.047 A 
ATOM     12  C   UNL     1       7.078   0.904  -1.158  1.00  0.00     0.047 A 
ATOM     13  C   UNL     1       7.639   0.198  -2.212  1.00  0.00     0.119 A 
BRANCH  13  14
ATOM     14  O   UNL     1       8.059   0.786  -3.368  1.00  0.00    -0.489 OA
BRANCH  14  15
ATOM     15  C   UNL     1       7.151   1.794  -3.830  1.00  0.00     0.265 C 
BRANCH  15  16
ATOM     16  C   UNL     1       5.679   1.412  -4.025  1.00  0.00    -0.011 A 
ATOM     17  C   UNL     1       5.297   0.322  -4.808  1.00  0.00     0.008 A 
ATOM     18  C   UNL     1       4.673   2.294  -3.598  1.00  0.00     0.008 A 
ATOM     19  C   UNL     1       3.983   0.226  -5.287  1.00  0.00     0.016 A 
ATOM     20  C   UNL     1       3.385   2.252  -4.133  1.00  0.00     0.016 A 
ATOM     21  C   UNL     1       3.057   1.230  -5.007  1.00  0.00     0.017 A 
ATOM     22  Br  UNL     1       1.383   1.256  -5.881  1.00  0.00    -0.051 Br
ENDBRANCH  15  16
ENDBRANCH  14  15
ENDBRANCH  13  14
ENDBRANCH   7   8
ENDBRANCH   4   6
ENDBRANCH   3   4
ENDBRANCH   2   3
ENDBRANCH   1   2
BRANCH   1  23
ATOM     23  O   UNL     1       2.333   1.191   1.917  1.00  0.00    -0.374 OA
BRANCH  23  24
ATOM     24  C   UNL     1       1.409   2.246   1.674  1.00  0.00     0.202 C 
BRANCH  24  25
ATOM     25  C   UNL     1       2.006   3.658   1.767  1.00  0.00     0.261 C 
BRANCH  25  26
ATOM     26  O   UNL     1       2.602   4.082   0.514  1.00  0.00    -0.460 OA
BRANCH  26  27
ATOM     27  C   UNL     1       3.877   4.556   0.571  1.00  0.00     0.338 C 
ATOM     28  O   UNL     1       4.609   4.550   1.542  1.00  0.00    -0.246 OA
BRANCH  27  29
ATOM     29  C   UNL     1       4.339   5.015  -0.769  1.00  0.00     0.060 A 
ATOM     30  C   UNL     1       5.696   4.874  -1.104  1.00  0.00     0.016 A 
ATOM     31  C   UNL     1       3.473   5.622  -1.681  1.00  0.00     0.016 A 
ATOM     32  C   UNL     1       6.177   5.297  -2.358  1.00  0.00     0.010 A 
ATOM     33  C   UNL     1       3.956   6.053  -2.928  1.00  0.00     0.010 A 
ATOM     34  C   UNL     1       5.306   5.879  -3.292  1.00  0.00    -0.014 A 
BRANCH  34  35
ATOM     35  C   UNL     1       5.782   6.482  -4.573  1.00  0.00     0.031 A 
ATOM     36  C   UNL     1       6.276   7.886  -4.545  1.00  0.00     0.074 A 
ATOM     37  C   UNL     1       5.721   5.853  -5.763  1.00  0.00     0.049 A 
ATOM     38  N   UNL     1       6.564   8.675  -5.544  1.00  0.00    -0.248 NA
ATOM     39  C   UNL     1       6.517   8.460  -3.216  1.00  0.00     0.031 C 
ATOM     40  C   UNL     1       5.502   4.436  -5.932  1.00  0.00     0.029 A 
ATOM     41  N   UNL     1       5.810   6.306  -7.059  1.00  0.00    -0.354 N 
ATOM     42  C   UNL     1       7.045   9.835  -4.967  1.00  0.00     0.074 A 
ATOM     43  C   UNL     1       6.979   9.658  -3.531  1.00  0.00     0.031 C 
ATOM     44  C   UNL     1       5.325   4.130  -7.223  1.00  0.00     0.029 A 
ATOM     45  C   UNL     1       5.438   5.357  -7.991  1.00  0.00     0.049 A 
ATOM     46  H   UNL     1       6.109   7.213  -7.297  1.00  0.00     0.167 HD
ATOM     47  C   UNL     1       7.501  10.945  -5.588  1.00  0.00     0.037 A 
ATOM     48  C   UNL     1       5.195   5.461  -9.311  1.00  0.00     0.037 A 
ATOM     49  C   UNL     1       7.484  11.131  -7.013  1.00  0.00     0.049 A 
ATOM     50  C   UNL     1       5.500   6.770  -9.974  1.00  0.00     0.074 A 
ATOM     51  C   UNL     1       7.856  12.243  -7.742  1.00  0.00     0.029 A 
ATOM     52  N   UNL     1       7.032  10.184  -7.928  1.00  0.00    -0.354 N 
ATOM     53  N   UNL     1       5.950   7.871  -9.424  1.00  0.00    -0.248 NA
ATOM     54  C   UNL     1       5.322   6.848 -11.428  1.00  0.00     0.031 C 
ATOM     55  C   UNL     1       7.557  12.000  -9.088  1.00  0.00     0.029 A 
ATOM     56  C   UNL     1       7.071  10.707  -9.210  1.00  0.00     0.049 A 
ATOM     57  H   UNL     1       6.730   9.276  -7.697  1.00  0.00     0.167 HD
ATOM     58  C   UNL     1       6.172   8.754 -10.466  1.00  0.00     0.074 A 
ATOM     59  C   UNL     1       5.784   8.066 -11.683  1.00  0.00     0.031 C 
ATOM     60  C   UNL     1       6.680  10.009 -10.413  1.00  0.00     0.037 A 
BRANCH  47  61
ATOM     61  C   UNL     1       7.935  12.058  -4.685  1.00  0.00     0.064 A 
ATOM     62  C   UNL     1       9.078  11.950  -3.876  1.00  0.00     0.173 A 
ATOM     63  C   UNL     1       7.119  13.186  -4.528  1.00  0.00     0.173 A 
ATOM     64  F   UNL     1       9.869  10.870  -3.963  1.00  0.00    -0.203 F 
ATOM     65  C   UNL     1       9.347  12.900  -2.894  1.00  0.00     0.198 A 
ATOM     66  C   UNL     1       7.411  14.150  -3.570  1.00  0.00     0.198 A 
ATOM     67  F   UNL     1       6.011  13.329  -5.271  1.00  0.00    -0.203 F 
ATOM     68  F   UNL     1      10.380  12.722  -2.058  1.00  0.00    -0.200 F 
ATOM     69  C   UNL     1       8.511  13.996  -2.739  1.00  0.00     0.200 A 
ATOM     70  F   UNL     1       6.602  15.208  -3.420  1.00  0.00    -0.200 F 
ATOM     71  F   UNL     1       8.748  14.888  -1.768  1.00  0.00    -0.200 F 
ENDBRANCH  47  61
BRANCH  48  72
ATOM     72  C   UNL     1       4.648   4.302 -10.070  1.00  0.00     0.064 A 
ATOM     73  C   UNL     1       5.423   3.602 -11.004  1.00  0.00     0.173 A 
ATOM     74  C   UNL     1       3.328   3.865  -9.867  1.00  0.00     0.173 A 
ATOM     75  F   UNL     1       6.684   3.986 -11.248  1.00  0.00    -0.203 F 
ATOM     76  C   UNL     1       4.896   2.525 -11.718  1.00  0.00     0.198 A 
ATOM     77  C   UNL     1       2.808   2.776 -10.567  1.00  0.00     0.198 A 
ATOM     78  F   UNL     1       2.540   4.499  -8.986  1.00  0.00    -0.203 F 
ATOM     79  F   UNL     1       5.649   1.897 -12.632  1.00  0.00    -0.200 F 
ATOM     80  C   UNL     1       3.591   2.110 -11.497  1.00  0.00     0.200 A 
ATOM     81  F   UNL     1       1.548   2.377 -10.347  1.00  0.00    -0.200 F 
ATOM     82  F   UNL     1       3.088   1.076 -12.185  1.00  0.00    -0.200 F 
ENDBRANCH  48  72
BRANCH  60  83
ATOM     83  C   UNL     1       6.889  10.720 -11.715  1.00  0.00     0.064 A 
ATOM     84  C   UNL     1       5.816  11.213 -12.471  1.00  0.00     0.173 A 
ATOM     85  C   UNL     1       8.192  10.986 -12.165  1.00  0.00     0.173 A 
ATOM     86  F   UNL     1       4.553  10.966 -12.092  1.00  0.00    -0.203 F 
ATOM     87  C   UNL     1       6.041  11.945 -13.633  1.00  0.00     0.198 A 
ATOM     88  C   UNL     1       8.412  11.746 -13.308  1.00  0.00     0.198 A 
ATOM     89  F   UNL     1       9.250  10.534 -11.476  1.00  0.00    -0.203 F 
ATOM     90  F   UNL     1       5.002  12.383 -14.357  1.00  0.00    -0.200 F 
ATOM     91  C   UNL     1       7.337  12.224 -14.042  1.00  0.00     0.200 A 
ATOM     92  F   UNL     1       9.665  12.027 -13.691  1.00  0.00    -0.200 F 
ATOM     93  F   UNL     1       7.551  12.953 -15.145  1.00  0.00    -0.200 F 
ENDBRANCH  60  83
ENDBRANCH  34  35
ENDBRANCH  27  29
ENDBRANCH  26  27
ENDBRANCH  25  26
ENDBRANCH  24  25
ENDBRANCH  23  24
ENDBRANCH   1  23
TORSDOF 18
