REMARK SMILES O=C(OCCOCCOC(=O)c1ccn(-c2cc(-c3ccncc3)nc(-c3ccccc3F)n2)n1)c1ccc(-c2c3nc(c(-c4c(F)c(F)c(F)c(F)c4F)c4ccc([nH]4)c(-c4c(F)c(F)c(F)c(F)c4F)c4nc(c(-c5c(F)c(F)c(F)c(F)c5F)c5ccc2[nH]5)C=C4)C=C3)cc1
REMARK SMILES IDX 6 1 5 2 4 3 3 4 2 5 1 6 36 7 37 8 98 9 38 10 97 11 39 12
REMARK SMILES IDX 40 13 41 14 91 15 42 16 96 17 90 18 92 19 43 20 95 21 89 22
REMARK SMILES IDX 88 23 44 25 76 26 56 27 75 28 57 29 60 30 74 31 93 32 58 33
REMARK SMILES IDX 59 34 73 36 94 37 61 38 45 39 46 40 54 41 47 42 48 43 52 44
REMARK SMILES IDX 55 45 49 46 50 47 53 48 51 49 77 50 78 51 86 52 79 53 80 54
REMARK SMILES IDX 84 55 87 56 81 57 82 58 85 59 83 60 62 61 63 62 71 63 64 64
REMARK SMILES IDX 65 65 69 66 72 67 66 68 67 69 70 70 68 71 7 72 8 73 9 74
REMARK SMILES IDX 10 75 11 76 12 77 13 78 35 79 14 80 15 81 16 82 17 83 34 84
REMARK SMILES IDX 18 85 26 86 25 87 19 88 20 89 24 90 21 91 23 92 22 93 27 94
REMARK SMILES IDX 28 95 32 96 29 97 31 98 33 99 30 100
REMARK H PARENT 92 24 60 35
REMARK Flexibility Score: inf
ROOT
ATOM      1  O   UNL     1       4.276  -1.224   0.381  1.00  0.00    -0.374 OA
ENDROOT
BRANCH   1   2
ATOM      2  C   UNL     1       4.795  -0.067   1.039  1.00  0.00     0.202 C 
BRANCH   2   3
ATOM      3  C   UNL     1       4.633   1.253   0.290  1.00  0.00     0.261 C 
BRANCH   3   4
ATOM      4  O   UNL     1       3.269   1.716   0.200  1.00  0.00    -0.460 OA
BRANCH   4   5
ATOM      5  C   UNL     1       2.248   0.960  -0.268  1.00  0.00     0.338 C 
ATOM      6  O   UNL     1       1.211   0.823   0.374  1.00  0.00    -0.246 OA
BRANCH   5   7
ATOM      7  C   UNL     1       2.276   0.610  -1.708  1.00  0.00     0.060 A 
ATOM      8  C   UNL     1       3.440   0.408  -2.447  1.00  0.00     0.016 A 
ATOM      9  C   UNL     1       1.033   0.586  -2.359  1.00  0.00     0.016 A 
ATOM     10  C   UNL     1       3.393   0.447  -3.826  1.00  0.00     0.010 A 
ATOM     11  C   UNL     1       0.974   0.545  -3.741  1.00  0.00     0.010 A 
ATOM     12  C   UNL     1       2.161   0.578  -4.466  1.00  0.00    -0.014 A 
BRANCH  12  13
ATOM     13  C   UNL     1       2.176   0.673  -5.917  1.00  0.00     0.031 A 
ATOM     14  C   UNL     1       2.784  -0.493  -6.618  1.00  0.00     0.074 A 
ATOM     15  C   UNL     1       1.602   1.700  -6.570  1.00  0.00     0.049 A 
ATOM     16  N   UNL     1       3.751  -0.509  -7.479  1.00  0.00    -0.248 NA
ATOM     17  C   UNL     1       2.305  -1.830  -6.226  1.00  0.00     0.031 C 
ATOM     18  C   UNL     1       0.751   2.763  -6.028  1.00  0.00     0.029 A 
ATOM     19  N   UNL     1       1.579   1.942  -7.907  1.00  0.00    -0.354 N 
ATOM     20  C   UNL     1       3.907  -1.843  -7.851  1.00  0.00     0.074 A 
ATOM     21  C   UNL     1       3.072  -2.622  -6.973  1.00  0.00     0.031 C 
ATOM     22  C   UNL     1       0.109   3.379  -7.046  1.00  0.00     0.029 A 
ATOM     23  C   UNL     1       0.608   2.848  -8.302  1.00  0.00     0.049 A 
ATOM     24  H   UNL     1       2.199   1.512  -8.540  1.00  0.00     0.167 HD
ATOM     25  C   UNL     1       4.572  -2.214  -8.977  1.00  0.00     0.037 A 
ATOM     26  C   UNL     1       0.189   3.060  -9.573  1.00  0.00     0.037 A 
ATOM     27  C   UNL     1       5.484  -1.201  -9.426  1.00  0.00     0.049 A 
ATOM     28  C   UNL     1       1.244   2.543 -10.482  1.00  0.00     0.074 A 
ATOM     29  C   UNL     1       6.612  -0.618  -8.883  1.00  0.00     0.029 A 
ATOM     30  N   UNL     1       5.103  -0.376 -10.454  1.00  0.00    -0.354 N 
ATOM     31  N   UNL     1       2.430   3.070 -10.604  1.00  0.00    -0.248 NA
ATOM     32  C   UNL     1       1.121   1.167 -10.942  1.00  0.00     0.031 C 
ATOM     33  C   UNL     1       6.543   0.751  -9.271  1.00  0.00     0.029 A 
ATOM     34  C   UNL     1       5.407   0.905 -10.066  1.00  0.00     0.049 A 
ATOM     35  H   UNL     1       4.692  -0.650 -11.306  1.00  0.00     0.167 HD
ATOM     36  C   UNL     1       3.284   1.989 -10.764  1.00  0.00     0.074 A 
ATOM     37  C   UNL     1       2.414   0.853 -11.051  1.00  0.00     0.031 C 
ATOM     38  C   UNL     1       4.591   2.055 -10.376  1.00  0.00     0.037 A 
BRANCH  25  39
ATOM     39  C   UNL     1       4.170  -3.393  -9.816  1.00  0.00     0.064 A 
ATOM     40  C   UNL     1       2.842  -3.874  -9.863  1.00  0.00     0.173 A 
ATOM     41  C   UNL     1       5.039  -3.902 -10.798  1.00  0.00     0.173 A 
ATOM     42  F   UNL     1       1.883  -3.372  -9.075  1.00  0.00    -0.203 F 
ATOM     43  C   UNL     1       2.422  -4.816 -10.799  1.00  0.00     0.198 A 
ATOM     44  C   UNL     1       4.600  -4.806 -11.770  1.00  0.00     0.198 A 
ATOM     45  F   UNL     1       6.308  -3.473 -10.874  1.00  0.00    -0.203 F 
ATOM     46  F   UNL     1       1.146  -5.226 -10.794  1.00  0.00    -0.200 F 
ATOM     47  C   UNL     1       3.294  -5.265 -11.767  1.00  0.00     0.200 A 
ATOM     48  F   UNL     1       5.433  -5.190 -12.747  1.00  0.00    -0.200 F 
ATOM     49  F   UNL     1       2.862  -6.097 -12.723  1.00  0.00    -0.200 F 
ENDBRANCH  25  39
BRANCH  26  50
ATOM     50  C   UNL     1      -1.198   3.318 -10.032  1.00  0.00     0.064 A 
ATOM     51  C   UNL     1      -2.315   2.860  -9.303  1.00  0.00     0.173 A 
ATOM     52  C   UNL     1      -1.448   3.768 -11.338  1.00  0.00     0.173 A 
ATOM     53  F   UNL     1      -2.174   2.334  -8.078  1.00  0.00    -0.203 F 
ATOM     54  C   UNL     1      -3.596   2.834  -9.854  1.00  0.00     0.198 A 
ATOM     55  C   UNL     1      -2.732   3.731 -11.893  1.00  0.00     0.198 A 
ATOM     56  F   UNL     1      -0.435   4.179 -12.114  1.00  0.00    -0.203 F 
ATOM     57  F   UNL     1      -4.616   2.337  -9.140  1.00  0.00    -0.200 F 
ATOM     58  C   UNL     1      -3.802   3.253 -11.154  1.00  0.00     0.200 A 
ATOM     59  F   UNL     1      -2.920   4.102 -13.167  1.00  0.00    -0.200 F 
ATOM     60  F   UNL     1      -5.019   3.156 -11.707  1.00  0.00    -0.200 F 
ENDBRANCH  26  50
BRANCH  38  61
ATOM     61  C   UNL     1       5.144   3.398  -9.985  1.00  0.00     0.064 A 
ATOM     62  C   UNL     1       6.287   3.869 -10.645  1.00  0.00     0.173 A 
ATOM     63  C   UNL     1       4.687   4.137  -8.880  1.00  0.00     0.173 A 
ATOM     64  F   UNL     1       6.804   3.174 -11.670  1.00  0.00    -0.203 F 
ATOM     65  C   UNL     1       6.944   5.021 -10.219  1.00  0.00     0.198 A 
ATOM     66  C   UNL     1       5.324   5.311  -8.479  1.00  0.00     0.198 A 
ATOM     67  F   UNL     1       3.666   3.701  -8.133  1.00  0.00    -0.203 F 
ATOM     68  F   UNL     1       8.071   5.408 -10.832  1.00  0.00    -0.200 F 
ATOM     69  C   UNL     1       6.458   5.745  -9.143  1.00  0.00     0.200 A 
ATOM     70  F   UNL     1       4.866   5.998  -7.422  1.00  0.00    -0.200 F 
ATOM     71  F   UNL     1       7.103   6.844  -8.726  1.00  0.00    -0.200 F 
ENDBRANCH  38  61
ENDBRANCH  12  13
ENDBRANCH   5   7
ENDBRANCH   4   5
ENDBRANCH   3   4
ENDBRANCH   2   3
ENDBRANCH   1   2
BRANCH   1  72
ATOM     72  C   UNL     1       3.101  -1.800   0.972  1.00  0.00     0.202 C 
BRANCH  72  73
ATOM     73  C   UNL     1       3.260  -2.580   2.286  1.00  0.00     0.261 C 
BRANCH  73  74
ATOM     74  O   UNL     1       3.535  -1.712   3.394  1.00  0.00    -0.458 OA
BRANCH  74  75
ATOM     75  C   UNL     1       4.869  -1.580   3.708  1.00  0.00     0.358 C 
ATOM     76  O   UNL     1       5.750  -2.277   3.248  1.00  0.00    -0.244 OA
BRANCH  75  77
ATOM     77  C   UNL     1       5.111  -0.409   4.558  1.00  0.00     0.170 A 
ATOM     78  C   UNL     1       4.485  -0.081   5.784  1.00  0.00     0.058 A 
ATOM     79  N   UNL     1       6.010   0.540   4.205  1.00  0.00    -0.159 NA
ATOM     80  C   UNL     1       5.220   0.967   6.283  1.00  0.00     0.118 A 
ATOM     81  N   UNL     1       6.140   1.299   5.321  1.00  0.00    -0.222 N 
BRANCH  81  82
ATOM     82  C   UNL     1       7.220   2.198   5.483  1.00  0.00     0.158 A 
ATOM     83  C   UNL     1       7.388   3.230   4.580  1.00  0.00     0.078 A 
ATOM     84  N   UNL     1       8.011   2.002   6.558  1.00  0.00    -0.209 NA
ATOM     85  C   UNL     1       8.413   4.110   4.875  1.00  0.00     0.077 A 
ATOM     86  C   UNL     1       9.047   2.840   6.681  1.00  0.00     0.165 A 
ATOM     87  N   UNL     1       9.281   3.895   5.887  1.00  0.00    -0.228 NA
BRANCH  85  88
ATOM     88  C   UNL     1       8.595   5.394   4.186  1.00  0.00     0.003 A 
ATOM     89  C   UNL     1       7.565   6.344   4.139  1.00  0.00     0.030 A 
ATOM     90  C   UNL     1       9.835   5.755   3.643  1.00  0.00     0.030 A 
ATOM     91  C   UNL     1       7.813   7.580   3.561  1.00  0.00     0.111 A 
ATOM     92  C   UNL     1       9.983   7.011   3.077  1.00  0.00     0.111 A 
ATOM     93  N   UNL     1       8.997   7.930   3.019  1.00  0.00    -0.265 NA
ENDBRANCH  85  88
BRANCH  86  94
ATOM     94  C   UNL     1      10.026   2.523   7.705  1.00  0.00     0.055 A 
ATOM     95  C   UNL     1      10.840   1.380   7.599  1.00  0.00     0.015 A 
ATOM     96  C   UNL     1      10.170   3.331   8.834  1.00  0.00     0.134 A 
ATOM     97  C   UNL     1      11.770   1.067   8.594  1.00  0.00     0.001 A 
ATOM     98  C   UNL     1      11.089   3.021   9.835  1.00  0.00     0.040 A 
ATOM     99  F   UNL     1       9.396   4.416   8.993  1.00  0.00    -0.206 F 
ATOM    100  C   UNL     1      11.892   1.888   9.714  1.00  0.00     0.003 A 
ENDBRANCH  86  94
ENDBRANCH  81  82
ENDBRANCH  75  77
ENDBRANCH  74  75
ENDBRANCH  73  74
ENDBRANCH  72  73
ENDBRANCH   1  72
TORSDOF 17
