REMARK SMILES C/C(=N\NC(N)=O)c1nnn(-c2ccc(C(=O)OCCOCCOC(=O)c3ccc(-c4c5nc(c(-c6c(F)c(F)c(F)c(F)c6F)c6ccc([nH]6)c(-c6c(F)c(F)c(F)c(F)c6F)c6nc(c(-c7c(F)c(F)c(F)c(F)c7F)c7ccc4[nH]7)C=C6)C=C5)cc3)cc2)c1C
REMARK SMILES IDX 20 1 19 2 18 3 16 4 17 5 15 6 12 7 13 8 91 9 14 10 90 11
REMARK SMILES IDX 11 12 8 13 9 14 92 15 10 16 93 17 2 18 1 19 3 20 4 21 5 22
REMARK SMILES IDX 6 24 7 25 21 28 22 29 23 30 24 31 25 32 26 33 27 34 28 35
REMARK SMILES IDX 89 36 29 37 88 38 30 39 31 40 32 41 82 42 33 43 87 44 81 45
REMARK SMILES IDX 83 46 34 47 86 48 80 49 79 50 35 52 67 53 47 54 66 55 48 56
REMARK SMILES IDX 51 57 65 58 84 59 49 60 50 61 64 63 85 64 52 65 36 66 37 67
REMARK SMILES IDX 45 68 38 69 39 70 43 71 46 72 40 73 41 74 44 75 42 76 68 77
REMARK SMILES IDX 69 78 77 79 70 80 71 81 75 82 78 83 72 84 73 85 76 86 74 87
REMARK SMILES IDX 53 88 54 89 62 90 55 91 56 92 60 93 63 94 57 95 58 96 61 97
REMARK SMILES IDX 59 98
REMARK H PARENT 4 23 6 26 6 27 83 51 51 62
REMARK Flexibility Score: inf
ROOT
ATOM      1  C   UNL     1       9.516  -3.459  -7.742  1.00  0.00     0.202 C 
ENDROOT
BRANCH   1   2
ATOM      2  C   UNL     1       9.291  -2.534  -6.548  1.00  0.00     0.261 C 
BRANCH   2   3
ATOM      3  O   UNL     1       8.094  -2.869  -5.827  1.00  0.00    -0.460 OA
BRANCH   3   4
ATOM      4  C   UNL     1       7.109  -1.948  -5.924  1.00  0.00     0.338 C 
ATOM      5  O   UNL     1       7.156  -0.877  -6.516  1.00  0.00    -0.246 OA
BRANCH   4   6
ATOM      6  C   UNL     1       5.866  -2.451  -5.314  1.00  0.00     0.060 A 
ATOM      7  C   UNL     1       3.487  -2.870  -3.978  1.00  0.00     0.067 A 
ATOM      8  C   UNL     1       3.445  -2.336  -5.268  1.00  0.00     0.029 A 
ATOM      9  C   UNL     1       4.686  -3.342  -3.423  1.00  0.00     0.029 A 
ATOM     10  C   UNL     1       4.650  -2.100  -5.923  1.00  0.00     0.018 A 
ATOM     11  C   UNL     1       5.885  -3.143  -4.101  1.00  0.00     0.018 A 
BRANCH   7  12
ATOM     12  N   UNL     1       2.368  -2.686  -3.141  1.00  0.00    -0.217 N 
ATOM     13  C   UNL     1       1.014  -1.934  -1.613  1.00  0.00     0.132 A 
ATOM     14  N   UNL     1       0.282  -2.585  -2.572  1.00  0.00    -0.128 NA
ATOM     15  C   UNL     1       2.350  -1.953  -1.966  1.00  0.00     0.071 A 
ATOM     16  N   UNL     1       1.108  -2.955  -3.543  1.00  0.00    -0.061 NA
ATOM     17  C   UNL     1       3.524  -1.253  -1.388  1.00  0.00     0.069 C 
BRANCH  13  18
ATOM     18  C   UNL     1       0.412  -1.222  -0.501  1.00  0.00     0.087 C 
ATOM     19  C   UNL     1       0.466   0.286  -0.547  1.00  0.00     0.071 C 
ATOM     20  N   UNL     1      -0.132  -1.975   0.410  1.00  0.00    -0.174 NA
BRANCH  20  21
ATOM     21  N   UNL     1      -0.647  -1.442   1.558  1.00  0.00    -0.229 N 
ATOM     22  C   UNL     1       0.003  -0.553   2.388  1.00  0.00     0.332 C 
ATOM     23  H   UNL     1      -1.558  -1.715   1.813  1.00  0.00     0.195 HD
ATOM     24  N   UNL     1      -0.737  -0.229   3.484  1.00  0.00    -0.350 N 
ATOM     25  O   UNL     1       1.109  -0.058   2.219  1.00  0.00    -0.247 OA
ATOM     26  H   UNL     1      -1.627  -0.630   3.614  1.00  0.00     0.161 HD
ATOM     27  H   UNL     1      -0.383   0.406   4.148  1.00  0.00     0.161 HD
ENDBRANCH  20  21
ENDBRANCH  13  18
ENDBRANCH   7  12
ENDBRANCH   4   6
ENDBRANCH   3   4
ENDBRANCH   2   3
ENDBRANCH   1   2
BRANCH   1  28
ATOM     28  O   UNL     1       8.619  -3.366  -8.849  1.00  0.00    -0.374 OA
BRANCH  28  29
ATOM     29  C   UNL     1       7.253  -3.741  -8.707  1.00  0.00     0.202 C 
BRANCH  29  30
ATOM     30  C   UNL     1       6.917  -5.224  -8.615  1.00  0.00     0.261 C 
BRANCH  30  31
ATOM     31  O   UNL     1       7.595  -5.852  -7.540  1.00  0.00    -0.460 OA
BRANCH  31  32
ATOM     32  C   UNL     1       8.726  -6.492  -7.905  1.00  0.00     0.338 C 
ATOM     33  O   UNL     1       9.273  -6.472  -9.002  1.00  0.00    -0.246 OA
BRANCH  32  34
ATOM     34  C   UNL     1       9.163  -7.343  -6.797  1.00  0.00     0.060 A 
ATOM     35  C   UNL     1      10.226  -8.207  -7.077  1.00  0.00     0.016 A 
ATOM     36  C   UNL     1       8.323  -7.519  -5.689  1.00  0.00     0.016 A 
ATOM     37  C   UNL     1      10.266  -9.412  -6.421  1.00  0.00     0.010 A 
ATOM     38  C   UNL     1       8.348  -8.732  -5.052  1.00  0.00     0.010 A 
ATOM     39  C   UNL     1       9.250  -9.694  -5.508  1.00  0.00    -0.014 A 
BRANCH  39  40
ATOM     40  C   UNL     1       9.088 -11.066  -5.086  1.00  0.00     0.031 A 
ATOM     41  C   UNL     1       9.958 -11.471  -3.962  1.00  0.00     0.074 A 
ATOM     42  C   UNL     1       8.097 -11.808  -5.616  1.00  0.00     0.049 A 
ATOM     43  N   UNL     1      10.759 -12.481  -3.882  1.00  0.00    -0.248 NA
ATOM     44  C   UNL     1      10.013 -10.562  -2.803  1.00  0.00     0.031 C 
ATOM     45  C   UNL     1       7.016 -11.362  -6.506  1.00  0.00     0.029 A 
ATOM     46  N   UNL     1       7.767 -13.100  -5.362  1.00  0.00    -0.354 N 
ATOM     47  C   UNL     1      11.294 -12.427  -2.598  1.00  0.00     0.074 A 
ATOM     48  C   UNL     1      10.931 -11.152  -2.044  1.00  0.00     0.031 C 
ATOM     49  C   UNL     1       6.040 -12.297  -6.521  1.00  0.00     0.029 A 
ATOM     50  C   UNL     1       6.475 -13.437  -5.734  1.00  0.00     0.049 A 
ATOM     51  H   UNL     1       8.391 -13.742  -4.951  1.00  0.00     0.167 HD
ATOM     52  C   UNL     1      11.784 -13.534  -1.985  1.00  0.00     0.037 A 
ATOM     53  C   UNL     1       5.786 -14.525  -5.312  1.00  0.00     0.037 A 
ATOM     54  C   UNL     1      12.171 -14.540  -2.935  1.00  0.00     0.049 A 
ATOM     55  C   UNL     1       6.770 -15.484  -4.743  1.00  0.00     0.074 A 
ATOM     56  C   UNL     1      13.095 -14.590  -3.961  1.00  0.00     0.029 A 
ATOM     57  N   UNL     1      11.337 -15.611  -3.134  1.00  0.00    -0.354 N 
ATOM     58  N   UNL     1       7.667 -16.122  -5.444  1.00  0.00    -0.248 NA
ATOM     59  C   UNL     1       7.043 -15.402  -3.314  1.00  0.00     0.031 C 
ATOM     60  C   UNL     1      12.492 -15.397  -4.969  1.00  0.00     0.029 A 
ATOM     61  C   UNL     1      11.249 -15.811  -4.488  1.00  0.00     0.049 A 
ATOM     62  H   UNL     1      10.886 -16.138  -2.436  1.00  0.00     0.167 HD
ATOM     63  C   UNL     1       8.790 -16.173  -4.630  1.00  0.00     0.074 A 
ATOM     64  C   UNL     1       8.318 -15.799  -3.302  1.00  0.00     0.031 C 
ATOM     65  C   UNL     1      10.046 -16.236  -5.163  1.00  0.00     0.037 A 
BRANCH  52  66
ATOM     66  C   UNL     1      11.574 -13.819  -0.520  1.00  0.00     0.064 A 
ATOM     67  C   UNL     1      12.245 -14.904   0.071  1.00  0.00     0.173 A 
ATOM     68  C   UNL     1      10.531 -13.254   0.251  1.00  0.00     0.173 A 
ATOM     69  F   UNL     1      13.235 -15.532  -0.581  1.00  0.00    -0.203 F 
ATOM     70  C   UNL     1      11.854 -15.426   1.307  1.00  0.00     0.198 A 
ATOM     71  C   UNL     1      10.184 -13.739   1.509  1.00  0.00     0.198 A 
ATOM     72  F   UNL     1       9.732 -12.288  -0.220  1.00  0.00    -0.203 F 
ATOM     73  F   UNL     1      12.439 -16.538   1.772  1.00  0.00    -0.200 F 
ATOM     74  C   UNL     1      10.822 -14.846   2.022  1.00  0.00     0.200 A 
ATOM     75  F   UNL     1       9.170 -13.171   2.177  1.00  0.00    -0.200 F 
ATOM     76  F   UNL     1      10.408 -15.381   3.178  1.00  0.00    -0.200 F 
ENDBRANCH  52  66
BRANCH  53  77
ATOM     77  C   UNL     1       4.329 -14.617  -5.054  1.00  0.00     0.064 A 
ATOM     78  C   UNL     1       3.686 -15.860  -4.953  1.00  0.00     0.173 A 
ATOM     79  C   UNL     1       3.576 -13.492  -4.660  1.00  0.00     0.173 A 
ATOM     80  F   UNL     1       4.349 -16.987  -5.253  1.00  0.00    -0.203 F 
ATOM     81  C   UNL     1       2.372 -15.970  -4.485  1.00  0.00     0.198 A 
ATOM     82  C   UNL     1       2.261 -13.600  -4.209  1.00  0.00     0.198 A 
ATOM     83  F   UNL     1       4.128 -12.271  -4.619  1.00  0.00    -0.203 F 
ATOM     84  F   UNL     1       1.809 -17.179  -4.350  1.00  0.00    -0.200 F 
ATOM     85  C   UNL     1       1.662 -14.841  -4.110  1.00  0.00     0.200 A 
ATOM     86  F   UNL     1       1.601 -12.501  -3.815  1.00  0.00    -0.200 F 
ATOM     87  F   UNL     1       0.421 -14.950  -3.617  1.00  0.00    -0.200 F 
ENDBRANCH  53  77
BRANCH  65  88
ATOM     88  C   UNL     1      10.162 -16.495  -6.638  1.00  0.00     0.064 A 
ATOM     89  C   UNL     1       9.722 -15.587  -7.616  1.00  0.00     0.173 A 
ATOM     90  C   UNL     1      10.889 -17.610  -7.074  1.00  0.00     0.173 A 
ATOM     91  F   UNL     1       9.117 -14.444  -7.269  1.00  0.00    -0.203 F 
ATOM     92  C   UNL     1       9.961 -15.807  -8.970  1.00  0.00     0.198 A 
ATOM     93  C   UNL     1      11.159 -17.810  -8.425  1.00  0.00     0.198 A 
ATOM     94  F   UNL     1      11.389 -18.477  -6.179  1.00  0.00    -0.203 F 
ATOM     95  F   UNL     1       9.526 -14.926  -9.883  1.00  0.00    -0.200 F 
ATOM     96  C   UNL     1      10.688 -16.915  -9.373  1.00  0.00     0.200 A 
ATOM     97  F   UNL     1      11.908 -18.854  -8.807  1.00  0.00    -0.200 F 
ATOM     98  F   UNL     1      10.963 -17.103 -10.671  1.00  0.00    -0.200 F 
ENDBRANCH  65  88
ENDBRANCH  39  40
ENDBRANCH  32  34
ENDBRANCH  31  32
ENDBRANCH  30  31
ENDBRANCH  29  30
ENDBRANCH  28  29
ENDBRANCH   1  28
TORSDOF 17
