REMARK SMILES CCCCCCNC(=O)Nc1cccc(-c2ccc([C@@H](C)C(=O)OCCOCCOC(=O)c3ccc(-c4c5nc(c(-c6c(F)c(F)c(F)c(F)c6F)c6ccc([nH]6)c(-c6c(F)c(F)c(F)c(F)c6F)c6nc(c(-c7c(F)c(F)c(F)c(F)c7F)c7ccc4[nH]7)C=C6)C=C5)cc3)cc2F)c1
REMARK SMILES IDX 24 1 22 2 23 3 20 4 21 5 19 6 16 7 17 8 97 9 18 10 96 11
REMARK SMILES IDX 98 12 15 13 11 14 12 15 99 16 13 17 14 18 10 19 7 20 8 21
REMARK SMILES IDX 9 23 6 25 5 26 4 27 3 28 2 29 1 30 25 31 26 32 27 33 28 34
REMARK SMILES IDX 29 35 30 36 31 37 32 38 33 39 34 40 95 41 35 42 94 43 36 44
REMARK SMILES IDX 37 45 38 46 88 47 39 48 93 49 87 50 89 51 40 52 92 53 86 54
REMARK SMILES IDX 85 55 41 57 73 58 53 59 72 60 54 61 57 62 71 63 90 64 55 65
REMARK SMILES IDX 56 66 70 68 91 69 58 70 42 71 43 72 51 73 44 74 45 75 49 76
REMARK SMILES IDX 52 77 46 78 47 79 50 80 48 81 74 82 75 83 83 84 76 85 77 86
REMARK SMILES IDX 81 87 84 88 78 89 79 90 82 91 80 92 59 93 60 94 68 95 61 96
REMARK SMILES IDX 62 97 66 98 69 99 63 100 64 101 67 102 65 103
REMARK H PARENT 7 22 10 24 89 56 57 67
REMARK Flexibility Score: inf
ROOT
ATOM      1  O   UNL     1      -0.338  -0.239  -5.620  1.00  0.00    -0.463 OA
ENDROOT
BRANCH   1   2
ATOM      2  C   UNL     1      -1.161  -0.619  -6.635  1.00  0.00     0.313 C 
ATOM      3  O   UNL     1      -0.839  -0.611  -7.820  1.00  0.00    -0.252 OA
BRANCH   2   4
ATOM      4  C   UNL     1      -2.564  -1.006  -6.200  1.00  0.00     0.126 C 
ATOM      5  C   UNL     1      -3.502   0.162  -6.512  1.00  0.00     0.025 C 
BRANCH   4   6
ATOM      6  C   UNL     1      -2.790  -1.550  -4.790  1.00  0.00    -0.031 A 
ATOM      7  C   UNL     1      -3.640  -2.545  -2.239  1.00  0.00     0.018 A 
ATOM      8  C   UNL     1      -3.128  -1.243  -2.389  1.00  0.00     0.012 A 
ATOM      9  C   UNL     1      -3.644  -3.354  -3.381  1.00  0.00     0.131 A 
ATOM     10  C   UNL     1      -2.709  -0.752  -3.641  1.00  0.00     0.005 A 
ATOM     11  C   UNL     1      -3.230  -2.874  -4.630  1.00  0.00     0.044 A 
ATOM     12  F   UNL     1      -4.116  -4.609  -3.319  1.00  0.00    -0.206 F 
BRANCH   7  13
ATOM     13  C   UNL     1      -4.236  -3.002  -0.963  1.00  0.00    -0.013 A 
ATOM     14  C   UNL     1      -4.459  -4.633   0.855  1.00  0.00     0.043 A 
ATOM     15  C   UNL     1      -5.511  -3.897   1.399  1.00  0.00     0.026 A 
ATOM     16  C   UNL     1      -3.853  -4.206  -0.339  1.00  0.00     0.035 A 
ATOM     17  C   UNL     1      -5.887  -2.690   0.815  1.00  0.00     0.003 A 
ATOM     18  C   UNL     1      -5.250  -2.246  -0.347  1.00  0.00     0.009 A 
BRANCH  14  19
ATOM     19  N   UNL     1      -4.038  -5.776   1.558  1.00  0.00    -0.308 N 
ATOM     20  N   UNL     1      -1.706  -5.499   1.781  1.00  0.00    -0.338 N 
ATOM     21  C   UNL     1      -2.797  -6.303   1.730  1.00  0.00     0.319 C 
ATOM     22  H   UNL     1      -0.832  -5.951   1.768  1.00  0.00     0.165 HD
ATOM     23  O   UNL     1      -2.661  -7.500   1.981  1.00  0.00    -0.249 OA
ATOM     24  H   UNL     1      -4.762  -6.277   1.999  1.00  0.00     0.171 HD
BRANCH  20  25
ATOM     25  C   UNL     1      -1.676  -4.059   1.851  1.00  0.00     0.117 C 
BRANCH  25  26
ATOM     26  C   UNL     1      -0.615  -3.482   2.776  1.00  0.00     0.021 C 
BRANCH  26  27
ATOM     27  C   UNL     1       0.814  -3.495   2.235  1.00  0.00     0.002 C 
BRANCH  27  28
ATOM     28  C   UNL     1       0.991  -2.992   0.798  1.00  0.00    -0.000 C 
BRANCH  28  29
ATOM     29  C   UNL     1       0.175  -1.755   0.418  1.00  0.00    -0.003 C 
ATOM     30  C   UNL     1       0.503  -0.543   1.256  1.00  0.00     0.004 C 
ENDBRANCH  28  29
ENDBRANCH  27  28
ENDBRANCH  26  27
ENDBRANCH  25  26
ENDBRANCH  20  25
ENDBRANCH  14  19
ENDBRANCH   7  13
ENDBRANCH   4   6
ENDBRANCH   2   4
ENDBRANCH   1   2
BRANCH   1  31
ATOM     31  C   UNL     1       0.981   0.145  -6.037  1.00  0.00     0.261 C 
BRANCH  31  32
ATOM     32  C   UNL     1       2.074  -0.924  -5.871  1.00  0.00     0.202 C 
BRANCH  32  33
ATOM     33  O   UNL     1       1.755  -2.298  -6.019  1.00  0.00    -0.374 OA
BRANCH  33  34
ATOM     34  C   UNL     1       0.769  -2.892  -5.185  1.00  0.00     0.202 C 
BRANCH  34  35
ATOM     35  C   UNL     1       0.853  -2.747  -3.661  1.00  0.00     0.261 C 
BRANCH  35  36
ATOM     36  O   UNL     1       0.973  -1.394  -3.182  1.00  0.00    -0.460 OA
BRANCH  36  37
ATOM     37  C   UNL     1       2.171  -1.110  -2.624  1.00  0.00     0.338 C 
ATOM     38  O   UNL     1       3.147  -1.861  -2.597  1.00  0.00    -0.246 OA
BRANCH  37  39
ATOM     39  C   UNL     1       2.227   0.234  -2.003  1.00  0.00     0.060 A 
ATOM     40  C   UNL     1       3.495   0.693  -1.625  1.00  0.00     0.016 A 
ATOM     41  C   UNL     1       1.088   0.960  -1.634  1.00  0.00     0.016 A 
ATOM     42  C   UNL     1       3.626   1.785  -0.775  1.00  0.00     0.010 A 
ATOM     43  C   UNL     1       1.220   2.046  -0.756  1.00  0.00     0.010 A 
ATOM     44  C   UNL     1       2.487   2.422  -0.276  1.00  0.00    -0.014 A 
BRANCH  44  45
ATOM     45  C   UNL     1       2.663   3.478   0.746  1.00  0.00     0.031 A 
ATOM     46  C   UNL     1       3.011   3.137   2.171  1.00  0.00     0.074 A 
ATOM     47  C   UNL     1       2.567   4.759   0.360  1.00  0.00     0.049 A 
ATOM     48  N   UNL     1       3.311   3.925   3.174  1.00  0.00    -0.248 NA
ATOM     49  C   UNL     1       2.998   1.716   2.526  1.00  0.00     0.031 C 
ATOM     50  C   UNL     1       2.243   5.202  -0.994  1.00  0.00     0.029 A 
ATOM     51  N   UNL     1       2.765   5.914   1.063  1.00  0.00    -0.354 N 
ATOM     52  C   UNL     1       3.499   3.090   4.273  1.00  0.00     0.074 A 
ATOM     53  C   UNL     1       3.220   1.743   3.831  1.00  0.00     0.031 C 
ATOM     54  C   UNL     1       2.278   6.542  -1.030  1.00  0.00     0.029 A 
ATOM     55  C   UNL     1       2.643   7.040   0.294  1.00  0.00     0.049 A 
ATOM     56  H   UNL     1       2.974   5.935   2.025  1.00  0.00     0.167 HD
ATOM     57  C   UNL     1       3.910   3.417   5.523  1.00  0.00     0.037 A 
ATOM     58  C   UNL     1       2.849   8.329   0.612  1.00  0.00     0.037 A 
ATOM     59  C   UNL     1       4.262   4.757   5.919  1.00  0.00     0.049 A 
ATOM     60  C   UNL     1       3.363   8.668   1.980  1.00  0.00     0.074 A 
ATOM     61  C   UNL     1       4.792   5.198   7.119  1.00  0.00     0.029 A 
ATOM     62  N   UNL     1       4.124   5.875   5.108  1.00  0.00    -0.354 N 
ATOM     63  N   UNL     1       3.618   7.871   2.990  1.00  0.00    -0.248 NA
ATOM     64  C   UNL     1       3.659  10.081   2.235  1.00  0.00     0.031 C 
ATOM     65  C   UNL     1       4.937   6.589   7.047  1.00  0.00     0.029 A 
ATOM     66  C   UNL     1       4.542   7.008   5.787  1.00  0.00     0.049 A 
ATOM     67  H   UNL     1       3.780   5.864   4.186  1.00  0.00     0.167 HD
ATOM     68  C   UNL     1       4.136   8.679   3.991  1.00  0.00     0.074 A 
ATOM     69  C   UNL     1       4.168  10.028   3.458  1.00  0.00     0.031 C 
ATOM     70  C   UNL     1       4.555   8.339   5.236  1.00  0.00     0.037 A 
BRANCH  57  71
ATOM     71  C   UNL     1       4.020   2.319   6.549  1.00  0.00     0.064 A 
ATOM     72  C   UNL     1       4.989   1.307   6.459  1.00  0.00     0.173 A 
ATOM     73  C   UNL     1       3.176   2.309   7.671  1.00  0.00     0.173 A 
ATOM     74  F   UNL     1       5.821   1.261   5.408  1.00  0.00    -0.203 F 
ATOM     75  C   UNL     1       5.086   0.312   7.431  1.00  0.00     0.198 A 
ATOM     76  C   UNL     1       3.297   1.332   8.658  1.00  0.00     0.198 A 
ATOM     77  F   UNL     1       2.237   3.256   7.820  1.00  0.00    -0.203 F 
ATOM     78  F   UNL     1       5.987  -0.671   7.293  1.00  0.00    -0.200 F 
ATOM     79  C   UNL     1       4.246   0.330   8.533  1.00  0.00     0.200 A 
ATOM     80  F   UNL     1       2.495   1.362   9.732  1.00  0.00    -0.200 F 
ATOM     81  F   UNL     1       4.348  -0.621   9.472  1.00  0.00    -0.200 F 
ENDBRANCH  57  71
BRANCH  58  82
ATOM     82  C   UNL     1       2.672   9.356  -0.441  1.00  0.00     0.064 A 
ATOM     83  C   UNL     1       3.783   9.943  -1.060  1.00  0.00     0.173 A 
ATOM     84  C   UNL     1       1.397   9.696  -0.913  1.00  0.00     0.173 A 
ATOM     85  F   UNL     1       5.020   9.646  -0.638  1.00  0.00    -0.203 F 
ATOM     86  C   UNL     1       3.624  10.838  -2.115  1.00  0.00     0.198 A 
ATOM     87  C   UNL     1       1.240  10.573  -1.982  1.00  0.00     0.198 A 
ATOM     88  F   UNL     1       0.307   9.139  -0.363  1.00  0.00    -0.203 F 
ATOM     89  F   UNL     1       4.700  11.396  -2.684  1.00  0.00    -0.200 F 
ATOM     90  C   UNL     1       2.354  11.145  -2.581  1.00  0.00     0.200 A 
ATOM     91  F   UNL     1       0.014  10.849  -2.446  1.00  0.00    -0.200 F 
ATOM     92  F   UNL     1       2.203  11.986  -3.613  1.00  0.00    -0.200 F 
ENDBRANCH  58  82
BRANCH  70  93
ATOM     93  C   UNL     1       5.103   9.446   6.087  1.00  0.00     0.064 A 
ATOM     94  C   UNL     1       4.272  10.441   6.622  1.00  0.00     0.173 A 
ATOM     95  C   UNL     1       6.477   9.514   6.364  1.00  0.00     0.173 A 
ATOM     96  F   UNL     1       2.954  10.425   6.373  1.00  0.00    -0.203 F 
ATOM     97  C   UNL     1       4.803  11.491   7.366  1.00  0.00     0.198 A 
ATOM     98  C   UNL     1       7.000  10.548   7.135  1.00  0.00     0.198 A 
ATOM     99  F   UNL     1       7.312   8.581   5.884  1.00  0.00    -0.203 F 
ATOM    100  F   UNL     1       4.000  12.467   7.810  1.00  0.00    -0.200 F 
ATOM    101  C   UNL     1       6.165  11.542   7.623  1.00  0.00     0.200 A 
ATOM    102  F   UNL     1       8.314  10.591   7.392  1.00  0.00    -0.200 F 
ATOM    103  F   UNL     1       6.676  12.559   8.332  1.00  0.00    -0.200 F 
ENDBRANCH  70  93
ENDBRANCH  44  45
ENDBRANCH  37  39
ENDBRANCH  36  37
ENDBRANCH  35  36
ENDBRANCH  34  35
ENDBRANCH  33  34
ENDBRANCH  32  33
ENDBRANCH  31  32
ENDBRANCH   1  31
TORSDOF 22
