REMARK SMILES Cc1ccc(-n2cnnn2)cc1OCC(=O)OCCOCCOC(=O)c1ccc(-c2c3nc(c(-c4c(F)c(F)c(F)c(F)c4F)c4ccc([nH]4)c(-c4c(F)c(F)c(F)c(F)c4F)c4nc(c(-c5c(F)c(F)c(F)c(F)c5F)c5ccc2[nH]5)C=C4)C=C3)cc1
REMARK SMILES IDX 19 1 18 2 17 3 15 4 16 5 14 6 13 7 12 8 1 9 2 10 3 11 4 12
REMARK SMILES IDX 11 13 5 14 6 15 7 16 10 17 8 18 9 19 20 20 21 21 22 22 23 23
REMARK SMILES IDX 24 24 25 25 26 26 27 27 88 28 28 29 87 30 29 31 30 32 31 33
REMARK SMILES IDX 81 34 32 35 86 36 80 37 82 38 33 39 85 40 79 41 78 42 34 44
REMARK SMILES IDX 66 45 46 46 65 47 47 48 50 49 64 50 83 51 48 52 49 53 63 55
REMARK SMILES IDX 84 56 51 57 35 58 36 59 44 60 37 61 38 62 42 63 45 64 39 65
REMARK SMILES IDX 40 66 43 67 41 68 67 69 68 70 76 71 69 72 70 73 74 74 77 75
REMARK SMILES IDX 71 76 72 77 75 78 73 79 52 80 53 81 61 82 54 83 55 84 59 85
REMARK SMILES IDX 62 86 56 87 57 88 60 89 58 90
REMARK H PARENT 82 43 50 54
REMARK Flexibility Score: inf
ROOT
ATOM      1  C   UNL     1       0.506   1.073   2.889  1.00  0.00     0.202 C 
ENDROOT
BRANCH   1   2
ATOM      2  C   UNL     1       1.237   2.273   2.354  1.00  0.00     0.261 C 
BRANCH   2   3
ATOM      3  O   UNL     1       1.054   2.473   0.947  1.00  0.00    -0.461 OA
BRANCH   3   4
ATOM      4  C   UNL     1       2.176   2.405   0.172  1.00  0.00     0.344 C 
ATOM      5  O   UNL     1       3.315   2.205   0.576  1.00  0.00    -0.248 OA
BRANCH   4   6
ATOM      6  C   UNL     1       1.867   2.697  -1.289  1.00  0.00     0.351 C 
BRANCH   6   7
ATOM      7  O   UNL     1       0.610   2.330  -1.824  1.00  0.00    -0.482 OA
BRANCH   7   8
ATOM      8  C   UNL     1       0.101   1.100  -1.513  1.00  0.00     0.125 A 
ATOM      9  C   UNL     1       2.213  -0.329  -1.906  1.00  0.00     0.048 C 
ATOM     10  C   UNL     1       0.761  -0.138  -1.569  1.00  0.00    -0.009 A 
ATOM     11  C   UNL     1       0.009  -1.304  -1.316  1.00  0.00     0.009 A 
ATOM     12  C   UNL     1      -1.335  -1.244  -0.941  1.00  0.00     0.029 A 
ATOM     13  C   UNL     1      -1.264   1.157  -1.177  1.00  0.00     0.075 A 
ATOM     14  C   UNL     1      -1.976  -0.007  -0.872  1.00  0.00     0.072 A 
BRANCH  14  15
ATOM     15  N   UNL     1      -3.335   0.053  -0.505  1.00  0.00    -0.200 N 
ATOM     16  C   UNL     1      -4.253   1.042  -0.745  1.00  0.00     0.252 A 
ATOM     17  N   UNL     1      -3.954  -0.942   0.167  1.00  0.00    -0.040 NA
ATOM     18  N   UNL     1      -5.404   0.701  -0.213  1.00  0.00    -0.117 NA
ATOM     19  N   UNL     1      -5.198  -0.526   0.364  1.00  0.00    -0.024 NA
ENDBRANCH  14  15
ENDBRANCH   7   8
ENDBRANCH   6   7
ENDBRANCH   4   6
ENDBRANCH   3   4
ENDBRANCH   2   3
ENDBRANCH   1   2
BRANCH   1  20
ATOM     20  O   UNL     1       1.371  -0.004   2.557  1.00  0.00    -0.374 OA
BRANCH  20  21
ATOM     21  C   UNL     1       0.777  -1.076   1.868  1.00  0.00     0.202 C 
BRANCH  21  22
ATOM     22  C   UNL     1       0.082  -2.027   2.834  1.00  0.00     0.261 C 
BRANCH  22  23
ATOM     23  O   UNL     1       1.056  -2.691   3.669  1.00  0.00    -0.460 OA
BRANCH  23  24
ATOM     24  C   UNL     1       1.324  -2.059   4.844  1.00  0.00     0.338 C 
ATOM     25  O   UNL     1       0.514  -1.918   5.758  1.00  0.00    -0.246 OA
BRANCH  24  26
ATOM     26  C   UNL     1       2.650  -1.383   4.786  1.00  0.00     0.060 A 
ATOM     27  C   UNL     1       2.939  -0.335   5.678  1.00  0.00     0.016 A 
ATOM     28  C   UNL     1       3.432  -1.558   3.647  1.00  0.00     0.016 A 
ATOM     29  C   UNL     1       3.897   0.630   5.336  1.00  0.00     0.010 A 
ATOM     30  C   UNL     1       4.240  -0.514   3.242  1.00  0.00     0.010 A 
ATOM     31  C   UNL     1       4.482   0.590   4.072  1.00  0.00    -0.014 A 
BRANCH  31  32
ATOM     32  C   UNL     1       5.364   1.618   3.507  1.00  0.00     0.031 A 
ATOM     33  C   UNL     1       6.754   1.220   3.150  1.00  0.00     0.074 A 
ATOM     34  C   UNL     1       4.918   2.849   3.149  1.00  0.00     0.049 A 
ATOM     35  N   UNL     1       7.709   2.062   2.963  1.00  0.00    -0.248 NA
ATOM     36  C   UNL     1       7.204  -0.163   2.983  1.00  0.00     0.031 C 
ATOM     37  C   UNL     1       5.566   3.832   2.273  1.00  0.00     0.029 A 
ATOM     38  N   UNL     1       3.732   3.521   3.500  1.00  0.00    -0.354 N 
ATOM     39  C   UNL     1       8.759   1.400   2.372  1.00  0.00     0.074 A 
ATOM     40  C   UNL     1       8.418   0.004   2.451  1.00  0.00     0.031 C 
ATOM     41  C   UNL     1       4.991   5.037   2.449  1.00  0.00     0.029 A 
ATOM     42  C   UNL     1       4.020   4.894   3.521  1.00  0.00     0.049 A 
ATOM     43  H   UNL     1       2.862   3.104   3.695  1.00  0.00     0.167 HD
ATOM     44  C   UNL     1       9.738   2.137   1.777  1.00  0.00     0.037 A 
ATOM     45  C   UNL     1       3.894   5.631   4.655  1.00  0.00     0.037 A 
ATOM     46  C   UNL     1       9.466   3.567   1.942  1.00  0.00     0.049 A 
ATOM     47  C   UNL     1       5.242   6.176   5.005  1.00  0.00     0.074 A 
ATOM     48  C   UNL     1       8.893   4.513   1.107  1.00  0.00     0.029 A 
ATOM     49  N   UNL     1       9.425   4.106   3.228  1.00  0.00    -0.354 N 
ATOM     50  N   UNL     1       6.341   5.608   4.587  1.00  0.00    -0.248 NA
ATOM     51  C   UNL     1       5.485   7.410   5.738  1.00  0.00     0.031 C 
ATOM     52  C   UNL     1       8.456   5.600   1.911  1.00  0.00     0.029 A 
ATOM     53  C   UNL     1       8.778   5.328   3.232  1.00  0.00     0.049 A 
ATOM     54  H   UNL     1       9.805   3.674   4.026  1.00  0.00     0.167 HD
ATOM     55  C   UNL     1       7.397   6.407   4.879  1.00  0.00     0.074 A 
ATOM     56  C   UNL     1       6.824   7.500   5.646  1.00  0.00     0.031 C 
ATOM     57  C   UNL     1       8.656   6.112   4.454  1.00  0.00     0.037 A 
BRANCH  44  58
ATOM     58  C   UNL     1      10.784   1.573   0.841  1.00  0.00     0.064 A 
ATOM     59  C   UNL     1      11.322   2.360  -0.201  1.00  0.00     0.173 A 
ATOM     60  C   UNL     1      11.290   0.260   0.904  1.00  0.00     0.173 A 
ATOM     61  F   UNL     1      10.990   3.649  -0.347  1.00  0.00    -0.203 F 
ATOM     62  C   UNL     1      12.224   1.854  -1.141  1.00  0.00     0.198 A 
ATOM     63  C   UNL     1      12.152  -0.263  -0.068  1.00  0.00     0.198 A 
ATOM     64  F   UNL     1      11.016  -0.545   1.938  1.00  0.00    -0.203 F 
ATOM     65  F   UNL     1      12.702   2.657  -2.102  1.00  0.00    -0.200 F 
ATOM     66  C   UNL     1      12.618   0.534  -1.092  1.00  0.00     0.200 A 
ATOM     67  F   UNL     1      12.535  -1.547   0.003  1.00  0.00    -0.200 F 
ATOM     68  F   UNL     1      13.460   0.041  -2.010  1.00  0.00    -0.200 F 
ENDBRANCH  44  58
BRANCH  45  69
ATOM     69  C   UNL     1       2.816   5.116   5.549  1.00  0.00     0.064 A 
ATOM     70  C   UNL     1       1.491   5.194   5.061  1.00  0.00     0.173 A 
ATOM     71  C   UNL     1       3.064   4.179   6.559  1.00  0.00     0.173 A 
ATOM     72  F   UNL     1       1.192   6.059   4.077  1.00  0.00    -0.203 F 
ATOM     73  C   UNL     1       0.511   4.280   5.451  1.00  0.00     0.198 A 
ATOM     74  C   UNL     1       2.071   3.273   6.958  1.00  0.00     0.198 A 
ATOM     75  F   UNL     1       4.298   4.042   7.065  1.00  0.00    -0.203 F 
ATOM     76  F   UNL     1      -0.682   4.278   4.837  1.00  0.00    -0.200 F 
ATOM     77  C   UNL     1       0.815   3.295   6.371  1.00  0.00     0.200 A 
ATOM     78  F   UNL     1       2.366   2.305   7.839  1.00  0.00    -0.200 F 
ATOM     79  F   UNL     1      -0.080   2.334   6.642  1.00  0.00    -0.200 F 
ENDBRANCH  45  69
BRANCH  57  80
ATOM     80  C   UNL     1       9.889   6.627   5.126  1.00  0.00     0.064 A 
ATOM     81  C   UNL     1       9.918   6.966   6.489  1.00  0.00     0.173 A 
ATOM     82  C   UNL     1      11.135   6.600   4.464  1.00  0.00     0.173 A 
ATOM     83  F   UNL     1       8.819   6.900   7.253  1.00  0.00    -0.203 F 
ATOM     84  C   UNL     1      11.101   7.326   7.127  1.00  0.00     0.198 A 
ATOM     85  C   UNL     1      12.323   6.887   5.124  1.00  0.00     0.198 A 
ATOM     86  F   UNL     1      11.240   6.253   3.172  1.00  0.00    -0.203 F 
ATOM     87  F   UNL     1      11.070   7.693   8.415  1.00  0.00    -0.200 F 
ATOM     88  C   UNL     1      12.304   7.272   6.449  1.00  0.00     0.200 A 
ATOM     89  F   UNL     1      13.489   6.762   4.475  1.00  0.00    -0.200 F 
ATOM     90  F   UNL     1      13.447   7.567   7.081  1.00  0.00    -0.200 F 
ENDBRANCH  57  80
ENDBRANCH  31  32
ENDBRANCH  24  26
ENDBRANCH  23  24
ENDBRANCH  22  23
ENDBRANCH  21  22
ENDBRANCH  20  21
ENDBRANCH   1  20
TORSDOF 17
