REMARK SMILES Cc1ncccc1C(=O)NCCOCC(=O)OCCOCCOC(=O)c1ccc(-c2c3nc(c(-c4c(F)c(F)c(F)c(F)c4F)c4ccc([nH]4)c(-c4c(F)c(F)c(F)c(F)c4F)c4nc(c(-c5c(F)c(F)c(F)c(F)c5F)c5ccc2[nH]5)C=C4)C=C3)cc1
REMARK SMILES IDX 18 1 17 2 15 3 16 4 14 5 13 6 12 7 11 8 10 9 8 10 9 11 7 13
REMARK SMILES IDX 1 14 2 15 3 16 4 17 6 18 5 19 19 20 20 21 21 22 22 23 23 24
REMARK SMILES IDX 24 25 25 26 26 27 27 28 88 29 28 30 87 31 29 32 30 33 31 34
REMARK SMILES IDX 81 35 32 36 86 37 80 38 82 39 33 40 85 41 79 42 78 43 34 45
REMARK SMILES IDX 66 46 46 47 65 48 47 49 50 50 64 51 83 52 48 53 49 54 63 56
REMARK SMILES IDX 84 57 51 58 35 59 36 60 44 61 37 62 38 63 42 64 45 65 39 66
REMARK SMILES IDX 40 67 43 68 41 69 67 70 68 71 76 72 69 73 70 74 74 75 77 76
REMARK SMILES IDX 71 77 72 78 75 79 73 80 52 81 53 82 61 83 54 84 55 85 59 86
REMARK SMILES IDX 62 87 56 88 57 89 60 90 58 91
REMARK H PARENT 10 12 82 44 50 55
REMARK Flexibility Score: inf
ROOT
ATOM      1  C   UNL     1       2.633  -4.606   4.514  1.00  0.00     0.261 C 
ENDROOT
BRANCH   1   2
ATOM      2  O   UNL     1       3.603  -4.319   3.481  1.00  0.00    -0.462 OA
BRANCH   2   3
ATOM      3  C   UNL     1       3.372  -4.888   2.267  1.00  0.00     0.332 C 
ATOM      4  O   UNL     1       2.402  -5.585   1.994  1.00  0.00    -0.250 OA
BRANCH   3   5
ATOM      5  C   UNL     1       4.518  -4.634   1.270  1.00  0.00     0.282 C 
BRANCH   5   6
ATOM      6  O   UNL     1       5.237  -3.432   1.080  1.00  0.00    -0.368 OA
BRANCH   6   7
ATOM      7  C   UNL     1       4.570  -2.210   1.355  1.00  0.00     0.182 C 
BRANCH   7   8
ATOM      8  C   UNL     1       3.638  -1.669   0.258  1.00  0.00     0.144 C 
BRANCH   8   9
ATOM      9  N   UNL     1       2.553  -2.533  -0.171  1.00  0.00    -0.350 N 
ATOM     10  C   UNL     1       1.255  -2.297  -0.549  1.00  0.00     0.253 C 
ATOM     11  O   UNL     1       0.636  -3.247  -1.031  1.00  0.00    -0.269 OA
ATOM     12  H   UNL     1       2.800  -3.486  -0.196  1.00  0.00     0.163 HD
BRANCH  10  13
ATOM     13  C   UNL     1       0.513  -1.027  -0.341  1.00  0.00     0.061 A 
ATOM     14  C   UNL     1       2.194   0.610  -1.371  1.00  0.00     0.067 C 
ATOM     15  C   UNL     1       0.914   0.266  -0.679  1.00  0.00     0.050 A 
ATOM     16  N   UNL     1       0.120   1.356  -0.454  1.00  0.00    -0.261 NA
ATOM     17  C   UNL     1      -1.131   1.161   0.015  1.00  0.00     0.111 A 
ATOM     18  C   UNL     1      -0.809  -1.183   0.124  1.00  0.00     0.017 A 
ATOM     19  C   UNL     1      -1.645  -0.085   0.298  1.00  0.00     0.021 A 
ENDBRANCH  10  13
ENDBRANCH   8   9
ENDBRANCH   7   8
ENDBRANCH   6   7
ENDBRANCH   5   6
ENDBRANCH   3   5
ENDBRANCH   2   3
ENDBRANCH   1   2
BRANCH   1  20
ATOM     20  C   UNL     1       2.107  -3.316   5.147  1.00  0.00     0.202 C 
BRANCH  20  21
ATOM     21  O   UNL     1       1.028  -2.690   4.449  1.00  0.00    -0.374 OA
BRANCH  21  22
ATOM     22  C   UNL     1       1.374  -1.965   3.273  1.00  0.00     0.202 C 
BRANCH  22  23
ATOM     23  C   UNL     1       1.806  -0.511   3.517  1.00  0.00     0.261 C 
BRANCH  23  24
ATOM     24  O   UNL     1       2.924  -0.430   4.420  1.00  0.00    -0.460 OA
BRANCH  24  25
ATOM     25  C   UNL     1       2.610   0.051   5.646  1.00  0.00     0.338 C 
ATOM     26  O   UNL     1       1.557   0.569   5.993  1.00  0.00    -0.246 OA
BRANCH  25  27
ATOM     27  C   UNL     1       3.664  -0.289   6.620  1.00  0.00     0.060 A 
ATOM     28  C   UNL     1       3.255  -0.932   7.795  1.00  0.00     0.016 A 
ATOM     29  C   UNL     1       5.002   0.068   6.436  1.00  0.00     0.016 A 
ATOM     30  C   UNL     1       4.170  -1.166   8.818  1.00  0.00     0.010 A 
ATOM     31  C   UNL     1       5.920  -0.163   7.468  1.00  0.00     0.010 A 
ATOM     32  C   UNL     1       5.498  -0.744   8.679  1.00  0.00    -0.014 A 
BRANCH  32  33
ATOM     33  C   UNL     1       6.382  -0.764   9.870  1.00  0.00     0.031 A 
ATOM     34  C   UNL     1       6.554   0.500  10.668  1.00  0.00     0.074 A 
ATOM     35  C   UNL     1       6.964  -1.904  10.280  1.00  0.00     0.049 A 
ATOM     36  N   UNL     1       7.242   0.707  11.762  1.00  0.00    -0.248 NA
ATOM     37  C   UNL     1       5.850   1.691  10.167  1.00  0.00     0.031 C 
ATOM     38  C   UNL     1       6.839  -3.200   9.617  1.00  0.00     0.029 A 
ATOM     39  N   UNL     1       7.773  -2.154  11.361  1.00  0.00    -0.354 N 
ATOM     40  C   UNL     1       7.053   2.046  12.079  1.00  0.00     0.074 A 
ATOM     41  C   UNL     1       6.214   2.613  11.046  1.00  0.00     0.031 C 
ATOM     42  C   UNL     1       7.548  -4.111  10.306  1.00  0.00     0.029 A 
ATOM     43  C   UNL     1       8.195  -3.458  11.443  1.00  0.00     0.049 A 
ATOM     44  H   UNL     1       8.026  -1.464  12.016  1.00  0.00     0.167 HD
ATOM     45  C   UNL     1       7.523   2.738  13.144  1.00  0.00     0.037 A 
ATOM     46  C   UNL     1       9.019  -4.050  12.329  1.00  0.00     0.037 A 
ATOM     47  C   UNL     1       8.355   2.175  14.174  1.00  0.00     0.049 A 
ATOM     48  C   UNL     1       9.587  -3.241  13.467  1.00  0.00     0.074 A 
ATOM     49  C   UNL     1       8.871   2.790  15.301  1.00  0.00     0.029 A 
ATOM     50  N   UNL     1       8.799   0.861  14.197  1.00  0.00    -0.354 N 
ATOM     51  N   UNL     1       9.380  -1.984  13.774  1.00  0.00    -0.248 NA
ATOM     52  C   UNL     1      10.500  -3.938  14.385  1.00  0.00     0.031 C 
ATOM     53  C   UNL     1       9.666   1.861  15.981  1.00  0.00     0.029 A 
ATOM     54  C   UNL     1       9.604   0.653  15.305  1.00  0.00     0.049 A 
ATOM     55  H   UNL     1       8.574   0.176  13.526  1.00  0.00     0.167 HD
ATOM     56  C   UNL     1      10.111  -1.746  14.930  1.00  0.00     0.074 A 
ATOM     57  C   UNL     1      10.759  -2.993  15.278  1.00  0.00     0.031 C 
ATOM     58  C   UNL     1      10.236  -0.597  15.640  1.00  0.00     0.037 A 
BRANCH  45  59
ATOM     59  C   UNL     1       7.166   4.192  13.236  1.00  0.00     0.064 A 
ATOM     60  C   UNL     1       5.868   4.613  13.560  1.00  0.00     0.173 A 
ATOM     61  C   UNL     1       8.142   5.177  13.024  1.00  0.00     0.173 A 
ATOM     62  F   UNL     1       4.895   3.710  13.757  1.00  0.00    -0.203 F 
ATOM     63  C   UNL     1       5.554   5.967  13.644  1.00  0.00     0.198 A 
ATOM     64  C   UNL     1       7.832   6.529  13.135  1.00  0.00     0.198 A 
ATOM     65  F   UNL     1       9.400   4.827  12.713  1.00  0.00    -0.203 F 
ATOM     66  F   UNL     1       4.297   6.347  13.912  1.00  0.00    -0.200 F 
ATOM     67  C   UNL     1       6.537   6.924  13.438  1.00  0.00     0.200 A 
ATOM     68  F   UNL     1       8.785   7.452  12.945  1.00  0.00    -0.200 F 
ATOM     69  F   UNL     1       6.235   8.226  13.524  1.00  0.00    -0.200 F 
ENDBRANCH  45  59
BRANCH  46  70
ATOM     70  C   UNL     1       9.365  -5.487  12.175  1.00  0.00     0.064 A 
ATOM     71  C   UNL     1       8.913  -6.446  13.092  1.00  0.00     0.173 A 
ATOM     72  C   UNL     1      10.171  -5.928  11.114  1.00  0.00     0.173 A 
ATOM     73  F   UNL     1       8.163  -6.069  14.138  1.00  0.00    -0.203 F 
ATOM     74  C   UNL     1       9.266  -7.788  12.964  1.00  0.00     0.198 A 
ATOM     75  C   UNL     1      10.501  -7.274  10.971  1.00  0.00     0.198 A 
ATOM     76  F   UNL     1      10.632  -5.050  10.211  1.00  0.00    -0.203 F 
ATOM     77  F   UNL     1       8.857  -8.676  13.879  1.00  0.00    -0.200 F 
ATOM     78  C   UNL     1      10.055  -8.202  11.900  1.00  0.00     0.200 A 
ATOM     79  F   UNL     1      11.254  -7.670   9.937  1.00  0.00    -0.200 F 
ATOM     80  F   UNL     1      10.391  -9.492  11.775  1.00  0.00    -0.200 F 
ENDBRANCH  46  70
BRANCH  58  81
ATOM     81  C   UNL     1      11.079  -0.642  16.882  1.00  0.00     0.064 A 
ATOM     82  C   UNL     1      12.477  -0.721  16.819  1.00  0.00     0.173 A 
ATOM     83  C   UNL     1      10.481  -0.558  18.149  1.00  0.00     0.173 A 
ATOM     84  F   UNL     1      13.095  -0.817  15.632  1.00  0.00    -0.203 F 
ATOM     85  C   UNL     1      13.245  -0.739  17.980  1.00  0.00     0.198 A 
ATOM     86  C   UNL     1      11.254  -0.548  19.307  1.00  0.00     0.198 A 
ATOM     87  F   UNL     1       9.147  -0.473  18.263  1.00  0.00    -0.203 F 
ATOM     88  F   UNL     1      14.578  -0.860  17.898  1.00  0.00    -0.200 F 
ATOM     89  C   UNL     1      12.634  -0.645  19.222  1.00  0.00     0.200 A 
ATOM     90  F   UNL     1      10.662  -0.445  20.505  1.00  0.00    -0.200 F 
ATOM     91  F   UNL     1      13.376  -0.656  20.338  1.00  0.00    -0.200 F 
ENDBRANCH  58  81
ENDBRANCH  32  33
ENDBRANCH  25  27
ENDBRANCH  24  25
ENDBRANCH  23  24
ENDBRANCH  22  23
ENDBRANCH  21  22
ENDBRANCH  20  21
ENDBRANCH   1  20
TORSDOF 19
