REMARK SMILES CC(C)[NH+]1CCC(NC(=O)OC(C)(C)C)(C(=O)OCCOCCOC(=O)c2ccc(-c3c4nc(c(-c5c(F)c(F)c(F)c(F)c5F)c5ccc([nH]5)c(-c5c(F)c(F)c(F)c(F)c5F)c5nc(c(-c6c(F)c(F)c(F)c(F)c6F)c6ccc3[nH]6)C=C5)C=C4)cc2)CC1
REMARK SMILES IDX 20 1 19 2 18 3 16 4 17 5 7 6 4 7 5 8 91 9 6 11 90 12 2 13
REMARK SMILES IDX 1 14 3 15 8 16 9 17 10 19 11 20 12 21 13 22 14 23 15 24
REMARK SMILES IDX 21 25 22 26 23 27 24 28 25 29 26 30 27 31 28 32 89 33 29 34
REMARK SMILES IDX 88 35 30 36 31 37 32 38 82 39 33 40 87 41 81 42 83 43 34 44
REMARK SMILES IDX 86 45 80 46 79 47 35 49 67 50 47 51 66 52 48 53 51 54 65 55
REMARK SMILES IDX 84 56 49 57 50 58 64 60 85 61 52 62 36 63 37 64 45 65 38 66
REMARK SMILES IDX 39 67 43 68 46 69 40 70 41 71 44 72 42 73 68 74 69 75 77 76
REMARK SMILES IDX 70 77 71 78 75 79 78 80 72 81 73 82 76 83 74 84 53 85 54 86
REMARK SMILES IDX 62 87 55 88 56 89 60 90 63 91 57 92 58 93 61 94 59 95
REMARK H PARENT 4 10 8 18 83 48 51 59
REMARK Flexibility Score: inf
ROOT
ATOM      1  C   UNL     1      -1.712   0.129  -7.205  1.00  0.00     0.202 C 
ENDROOT
BRANCH   1   2
ATOM      2  C   UNL     1      -3.017  -0.009  -6.422  1.00  0.00     0.261 C 
BRANCH   2   3
ATOM      3  O   UNL     1      -2.975   0.263  -5.012  1.00  0.00    -0.461 OA
BRANCH   3   4
ATOM      4  C   UNL     1      -3.361  -0.791  -4.228  1.00  0.00     0.332 C 
ATOM      5  O   UNL     1      -3.465  -1.947  -4.630  1.00  0.00    -0.249 OA
BRANCH   4   6
ATOM      6  C   UNL     1      -3.791  -0.356  -2.803  1.00  0.00     0.151 C 
ATOM      7  N   UNL     1      -1.177  -0.182  -1.367  1.00  0.00    -0.333 N 
ATOM      8  C   UNL     1      -1.742   1.002  -2.026  1.00  0.00     0.265 C 
ATOM      9  C   UNL     1      -1.731  -1.458  -1.805  1.00  0.00     0.265 C 
ATOM     10  H   UNL     1      -1.501  -0.140  -0.401  1.00  0.00     0.348 HD
ATOM     11  C   UNL     1      -3.254   0.990  -2.298  1.00  0.00     0.102 C 
ATOM     12  C   UNL     1      -3.255  -1.434  -1.832  1.00  0.00     0.102 C 
BRANCH   7  13
ATOM     13  C   UNL     1       0.307  -0.127  -1.292  1.00  0.00     0.177 C 
ATOM     14  C   UNL     1       0.722   0.022   0.174  1.00  0.00     0.075 C 
ATOM     15  C   UNL     1       1.089  -1.301  -1.907  1.00  0.00     0.075 C 
ENDBRANCH   7  13
BRANCH   6  16
ATOM     16  N   UNL     1      -5.273  -0.387  -2.685  1.00  0.00    -0.305 N 
ATOM     17  C   UNL     1      -6.268  -0.107  -3.576  1.00  0.00     0.408 C 
ATOM     18  H   UNL     1      -5.597  -0.660  -1.797  1.00  0.00     0.168 HD
ATOM     19  O   UNL     1      -7.407   0.055  -3.159  1.00  0.00    -0.225 OA
BRANCH  17  20
ATOM     20  O   UNL     1      -5.908  -0.130  -4.886  1.00  0.00    -0.444 OA
BRANCH  20  21
ATOM     21  C   UNL     1      -6.955  -0.196  -5.904  1.00  0.00     0.106 C 
ATOM     22  C   UNL     1      -7.822  -1.450  -5.719  1.00  0.00     0.056 C 
ATOM     23  C   UNL     1      -7.780   1.094  -5.936  1.00  0.00     0.056 C 
ATOM     24  C   UNL     1      -6.264  -0.335  -7.272  1.00  0.00     0.056 C 
ENDBRANCH  20  21
ENDBRANCH  17  20
ENDBRANCH   6  16
ENDBRANCH   4   6
ENDBRANCH   3   4
ENDBRANCH   2   3
ENDBRANCH   1   2
BRANCH   1  25
ATOM     25  O   UNL     1      -0.568  -0.565  -6.738  1.00  0.00    -0.374 OA
BRANCH  25  26
ATOM     26  C   UNL     1      -0.076  -0.214  -5.451  1.00  0.00     0.202 C 
BRANCH  26  27
ATOM     27  C   UNL     1       0.439   1.219  -5.250  1.00  0.00     0.261 C 
BRANCH  27  28
ATOM     28  O   UNL     1      -0.533   2.239  -5.558  1.00  0.00    -0.460 OA
BRANCH  28  29
ATOM     29  C   UNL     1      -0.115   3.153  -6.471  1.00  0.00     0.338 C 
ATOM     30  O   UNL     1       0.992   3.246  -6.974  1.00  0.00    -0.246 OA
BRANCH  29  31
ATOM     31  C   UNL     1      -1.235   3.998  -6.922  1.00  0.00     0.060 A 
ATOM     32  C   UNL     1      -1.713   3.822  -8.228  1.00  0.00     0.016 A 
ATOM     33  C   UNL     1      -1.688   5.060  -6.139  1.00  0.00     0.016 A 
ATOM     34  C   UNL     1      -2.633   4.723  -8.763  1.00  0.00     0.010 A 
ATOM     35  C   UNL     1      -2.601   5.972  -6.684  1.00  0.00     0.010 A 
ATOM     36  C   UNL     1      -3.056   5.824  -8.007  1.00  0.00    -0.014 A 
BRANCH  36  37
ATOM     37  C   UNL     1      -3.890   6.873  -8.642  1.00  0.00     0.031 A 
ATOM     38  C   UNL     1      -3.235   8.110  -9.193  1.00  0.00     0.074 A 
ATOM     39  C   UNL     1      -5.220   6.711  -8.750  1.00  0.00     0.049 A 
ATOM     40  N   UNL     1      -3.780   9.156  -9.760  1.00  0.00    -0.248 NA
ATOM     41  C   UNL     1      -1.769   8.174  -9.095  1.00  0.00     0.031 C 
ATOM     42  C   UNL     1      -5.964   5.540  -8.293  1.00  0.00     0.029 A 
ATOM     43  N   UNL     1      -6.181   7.541  -9.272  1.00  0.00    -0.354 N 
ATOM     44  C   UNL     1      -2.728  10.002 -10.086  1.00  0.00     0.074 A 
ATOM     45  C   UNL     1      -1.513   9.358  -9.633  1.00  0.00     0.031 C 
ATOM     46  C   UNL     1      -7.271   5.731  -8.542  1.00  0.00     0.029 A 
ATOM     47  C   UNL     1      -7.457   7.050  -9.145  1.00  0.00     0.049 A 
ATOM     48  H   UNL     1      -5.975   8.405  -9.697  1.00  0.00     0.167 HD
ATOM     49  C   UNL     1      -2.772  11.202 -10.713  1.00  0.00     0.037 A 
ATOM     50  C   UNL     1      -8.640   7.614  -9.456  1.00  0.00     0.037 A 
ATOM     51  C   UNL     1      -3.981  11.843 -11.160  1.00  0.00     0.049 A 
ATOM     52  C   UNL     1      -8.667   8.988 -10.072  1.00  0.00     0.074 A 
ATOM     53  C   UNL     1      -4.125  13.044 -11.832  1.00  0.00     0.029 A 
ATOM     54  N   UNL     1      -5.259  11.339 -10.966  1.00  0.00    -0.354 N 
ATOM     55  N   UNL     1      -7.666   9.766 -10.406  1.00  0.00    -0.248 NA
ATOM     56  C   UNL     1      -9.991   9.564 -10.351  1.00  0.00     0.031 C 
ATOM     57  C   UNL     1      -5.492  13.293 -11.998  1.00  0.00     0.029 A 
ATOM     58  C   UNL     1      -6.198  12.223 -11.473  1.00  0.00     0.049 A 
ATOM     59  H   UNL     1      -5.468  10.480 -10.532  1.00  0.00     0.167 HD
ATOM     60  C   UNL     1      -8.235  10.912 -10.946  1.00  0.00     0.074 A 
ATOM     61  C   UNL     1      -9.670  10.720 -10.914  1.00  0.00     0.031 C 
ATOM     62  C   UNL     1      -7.624  12.023 -11.425  1.00  0.00     0.037 A 
BRANCH  49  63
ATOM     63  C   UNL     1      -1.472  11.919 -10.932  1.00  0.00     0.064 A 
ATOM     64  C   UNL     1      -0.548  11.490 -11.897  1.00  0.00     0.173 A 
ATOM     65  C   UNL     1      -1.168  13.076 -10.199  1.00  0.00     0.173 A 
ATOM     66  F   UNL     1      -0.788  10.384 -12.616  1.00  0.00    -0.203 F 
ATOM     67  C   UNL     1       0.642  12.183 -12.104  1.00  0.00     0.198 A 
ATOM     68  C   UNL     1       0.011  13.780 -10.427  1.00  0.00     0.198 A 
ATOM     69  F   UNL     1      -2.021  13.531  -9.269  1.00  0.00    -0.203 F 
ATOM     70  F   UNL     1       1.528  11.735 -13.005  1.00  0.00    -0.200 F 
ATOM     71  C   UNL     1       0.918  13.329 -11.374  1.00  0.00     0.200 A 
ATOM     72  F   UNL     1       0.271  14.893  -9.728  1.00  0.00    -0.200 F 
ATOM     73  F   UNL     1       2.061  13.999 -11.581  1.00  0.00    -0.200 F 
ENDBRANCH  49  63
BRANCH  50  74
ATOM     74  C   UNL     1      -9.903   6.889  -9.162  1.00  0.00     0.064 A 
ATOM     75  C   UNL     1     -10.716   6.402 -10.194  1.00  0.00     0.173 A 
ATOM     76  C   UNL     1     -10.329   6.683  -7.841  1.00  0.00     0.173 A 
ATOM     77  F   UNL     1     -10.365   6.600 -11.473  1.00  0.00    -0.203 F 
ATOM     78  C   UNL     1     -11.914   5.746  -9.916  1.00  0.00     0.198 A 
ATOM     79  C   UNL     1     -11.513   6.003  -7.564  1.00  0.00     0.198 A 
ATOM     80  F   UNL     1      -9.588   7.134  -6.819  1.00  0.00    -0.203 F 
ATOM     81  F   UNL     1     -12.694   5.327 -10.921  1.00  0.00    -0.200 F 
ATOM     82  C   UNL     1     -12.308   5.541  -8.602  1.00  0.00     0.200 A 
ATOM     83  F   UNL     1     -11.884   5.799  -6.293  1.00  0.00    -0.200 F 
ATOM     84  F   UNL     1     -13.458   4.907  -8.336  1.00  0.00    -0.200 F 
ENDBRANCH  50  74
BRANCH  62  85
ATOM     85  C   UNL     1      -8.504  13.116 -11.959  1.00  0.00     0.064 A 
ATOM     86  C   UNL     1      -9.260  13.931 -11.103  1.00  0.00     0.173 A 
ATOM     87  C   UNL     1      -8.561  13.378 -13.336  1.00  0.00     0.173 A 
ATOM     88  F   UNL     1      -9.251  13.710  -9.780  1.00  0.00    -0.203 F 
ATOM     89  C   UNL     1     -10.057  14.954 -11.609  1.00  0.00     0.198 A 
ATOM     90  C   UNL     1      -9.338  14.420 -13.836  1.00  0.00     0.198 A 
ATOM     91  F   UNL     1      -7.852  12.632 -14.197  1.00  0.00    -0.203 F 
ATOM     92  F   UNL     1     -10.804  15.693 -10.777  1.00  0.00    -0.200 F 
ATOM     93  C   UNL     1     -10.090  15.203 -12.973  1.00  0.00     0.200 A 
ATOM     94  F   UNL     1      -9.359  14.666 -15.153  1.00  0.00    -0.200 F 
ATOM     95  F   UNL     1     -10.853  16.192 -13.457  1.00  0.00    -0.200 F 
ENDBRANCH  62  85
ENDBRANCH  36  37
ENDBRANCH  29  31
ENDBRANCH  28  29
ENDBRANCH  27  28
ENDBRANCH  26  27
ENDBRANCH  25  26
ENDBRANCH   1  25
TORSDOF 18
