REMARK SMILES Cc1c(CC(=O)OCCOCCOC(=O)c2ccc(-c3c4nc(c(-c5c(F)c(F)c(F)c(F)c5F)c5ccc([nH]5)c(-c5c(F)c(F)c(F)c(F)c5F)c5nc(c(-c6c(F)c(F)c(F)c(F)c6F)c6ccc3[nH]6)C=C5)C=C4)cc2)c2cc(O)ccc2n1C(=O)c1ccc(Cl)cc1
REMARK SMILES IDX 9 1 8 2 7 3 5 4 6 5 4 6 3 7 1 8 2 9 86 10 79 11 85 12 80 13
REMARK SMILES IDX 84 14 81 15 83 16 87 17 88 18 89 19 90 20 95 21 91 22 94 23
REMARK SMILES IDX 92 24 93 25 82 26 10 28 11 29 12 30 13 31 14 32 15 33 16 34
REMARK SMILES IDX 17 35 78 36 18 37 77 38 19 39 20 40 21 41 71 42 22 43 76 44
REMARK SMILES IDX 70 45 72 46 23 47 75 48 69 49 68 50 24 52 56 53 36 54 55 55
REMARK SMILES IDX 37 56 40 57 54 58 73 59 38 60 39 61 53 63 74 64 41 65 25 66
REMARK SMILES IDX 26 67 34 68 27 69 28 70 32 71 35 72 29 73 30 74 33 75 31 76
REMARK SMILES IDX 57 77 58 78 66 79 59 80 60 81 64 82 67 83 61 84 62 85 65 86
REMARK SMILES IDX 63 87 42 88 43 89 51 90 44 91 45 92 49 93 52 94 46 95 47 96
REMARK SMILES IDX 50 97 48 98
REMARK H PARENT 82 27 72 51 40 62
REMARK Flexibility Score: inf
ROOT
ATOM      1  C   UNL     1       2.307  -4.094   4.708  1.00  0.00     0.202 C 
ENDROOT
BRANCH   1   2
ATOM      2  C   UNL     1       2.325  -3.945   3.179  1.00  0.00     0.261 C 
BRANCH   2   3
ATOM      3  O   UNL     1       1.512  -2.872   2.670  1.00  0.00    -0.463 OA
BRANCH   3   4
ATOM      4  C   UNL     1       0.423  -3.277   1.963  1.00  0.00     0.310 C 
ATOM      5  O   UNL     1       0.183  -4.453   1.692  1.00  0.00    -0.252 OA
BRANCH   4   6
ATOM      6  C   UNL     1      -0.529  -2.188   1.523  1.00  0.00     0.160 C 
BRANCH   6   7
ATOM      7  C   UNL     1      -0.304  -0.763   1.962  1.00  0.00    -0.008 A 
ATOM      8  C   UNL     1       1.052   0.120  -0.062  1.00  0.00     0.065 C 
ATOM      9  C   UNL     1       0.364   0.233   1.264  1.00  0.00     0.028 A 
ATOM     10  N   UNL     1       0.264   1.448   1.965  1.00  0.00    -0.280 N 
ATOM     11  C   UNL     1      -0.864  -0.146   3.122  1.00  0.00     0.008 A 
ATOM     12  C   UNL     1      -0.462   1.196   3.144  1.00  0.00     0.057 A 
ATOM     13  C   UNL     1      -1.682  -0.632   4.170  1.00  0.00     0.056 A 
ATOM     14  C   UNL     1      -0.833   2.019   4.233  1.00  0.00     0.031 A 
ATOM     15  C   UNL     1      -1.933   0.163   5.284  1.00  0.00     0.116 A 
ATOM     16  C   UNL     1      -1.524   1.478   5.320  1.00  0.00     0.048 A 
BRANCH  10  17
ATOM     17  C   UNL     1       0.779   2.705   1.523  1.00  0.00     0.262 C 
ATOM     18  O   UNL     1       1.375   2.764   0.448  1.00  0.00    -0.268 OA
BRANCH  17  19
ATOM     19  C   UNL     1       0.628   3.990   2.226  1.00  0.00     0.040 A 
ATOM     20  C   UNL     1       1.399   4.273   3.359  1.00  0.00     0.015 A 
ATOM     21  C   UNL     1      -0.296   4.920   1.737  1.00  0.00     0.015 A 
ATOM     22  C   UNL     1       1.168   5.458   4.062  1.00  0.00     0.021 A 
ATOM     23  C   UNL     1      -0.508   6.111   2.435  1.00  0.00     0.021 A 
ATOM     24  C   UNL     1       0.208   6.364   3.605  1.00  0.00     0.041 A 
ATOM     25  Cl  UNL     1      -0.107   7.797   4.503  1.00  0.00    -0.084 Cl
ENDBRANCH  17  19
ENDBRANCH  10  17
BRANCH  15  26
ATOM     26  O   UNL     1      -2.520  -0.424   6.365  1.00  0.00    -0.508 OA
ATOM     27  H   UNL     1      -2.792  -1.319   6.322  1.00  0.00     0.293 HD
ENDBRANCH  15  26
ENDBRANCH   6   7
ENDBRANCH   4   6
ENDBRANCH   3   4
ENDBRANCH   2   3
ENDBRANCH   1   2
BRANCH   1  28
ATOM     28  O   UNL     1       1.091  -4.003   5.434  1.00  0.00    -0.374 OA
BRANCH  28  29
ATOM     29  C   UNL     1       0.423  -2.745   5.431  1.00  0.00     0.202 C 
BRANCH  29  30
ATOM     30  C   UNL     1       1.114  -1.523   6.067  1.00  0.00     0.261 C 
BRANCH  30  31
ATOM     31  O   UNL     1       2.382  -1.234   5.480  1.00  0.00    -0.460 OA
BRANCH  31  32
ATOM     32  C   UNL     1       3.337  -0.845   6.371  1.00  0.00     0.338 C 
ATOM     33  O   UNL     1       3.186  -0.331   7.455  1.00  0.00    -0.246 OA
BRANCH  32  34
ATOM     34  C   UNL     1       4.535  -1.579   5.931  1.00  0.00     0.060 A 
ATOM     35  C   UNL     1       4.943  -1.505   4.596  1.00  0.00     0.016 A 
ATOM     36  C   UNL     1       4.944  -2.626   6.773  1.00  0.00     0.016 A 
ATOM     37  C   UNL     1       5.672  -2.560   4.071  1.00  0.00     0.010 A 
ATOM     38  C   UNL     1       5.652  -3.691   6.234  1.00  0.00     0.010 A 
ATOM     39  C   UNL     1       5.970  -3.677   4.875  1.00  0.00    -0.014 A 
BRANCH  39  40
ATOM     40  C   UNL     1       6.830  -4.710   4.300  1.00  0.00     0.031 A 
ATOM     41  C   UNL     1       8.207  -4.194   4.056  1.00  0.00     0.074 A 
ATOM     42  C   UNL     1       6.505  -6.008   4.129  1.00  0.00     0.049 A 
ATOM     43  N   UNL     1       8.849  -4.112   2.937  1.00  0.00    -0.248 NA
ATOM     44  C   UNL     1       8.884  -3.539   5.190  1.00  0.00     0.031 C 
ATOM     45  C   UNL     1       5.310  -6.718   4.582  1.00  0.00     0.029 A 
ATOM     46  N   UNL     1       7.245  -7.007   3.564  1.00  0.00    -0.354 N 
ATOM     47  C   UNL     1      10.074  -3.528   3.252  1.00  0.00     0.074 A 
ATOM     48  C   UNL     1       9.979  -3.059   4.607  1.00  0.00     0.031 C 
ATOM     49  C   UNL     1       5.497  -8.053   4.462  1.00  0.00     0.029 A 
ATOM     50  C   UNL     1       6.776  -8.292   3.821  1.00  0.00     0.049 A 
ATOM     51  H   UNL     1       8.046  -6.832   3.019  1.00  0.00     0.167 HD
ATOM     52  C   UNL     1      11.160  -3.662   2.447  1.00  0.00     0.037 A 
ATOM     53  C   UNL     1       7.438  -9.455   3.588  1.00  0.00     0.037 A 
ATOM     54  C   UNL     1      10.784  -4.031   1.111  1.00  0.00     0.049 A 
ATOM     55  C   UNL     1       8.496  -9.159   2.594  1.00  0.00     0.074 A 
ATOM     56  C   UNL     1      10.110  -3.413   0.079  1.00  0.00     0.029 A 
ATOM     57  N   UNL     1      10.815  -5.364   0.798  1.00  0.00    -0.354 N 
ATOM     58  N   UNL     1       8.268  -8.831   1.355  1.00  0.00    -0.248 NA
ATOM     59  C   UNL     1       9.821  -8.835   3.097  1.00  0.00     0.031 C 
ATOM     60  C   UNL     1       9.391  -4.455  -0.578  1.00  0.00     0.029 A 
ATOM     61  C   UNL     1       9.698  -5.657   0.061  1.00  0.00     0.049 A 
ATOM     62  H   UNL     1      11.520  -6.001   1.057  1.00  0.00     0.167 HD
ATOM     63  C   UNL     1       9.243  -7.894   1.057  1.00  0.00     0.074 A 
ATOM     64  C   UNL     1      10.228  -8.015   2.127  1.00  0.00     0.031 C 
ATOM     65  C   UNL     1       9.012  -6.926   0.125  1.00  0.00     0.037 A 
BRANCH  52  66
ATOM     66  C   UNL     1      12.566  -3.810   2.970  1.00  0.00     0.064 A 
ATOM     67  C   UNL     1      13.649  -3.778   2.072  1.00  0.00     0.173 A 
ATOM     68  C   UNL     1      12.871  -4.263   4.274  1.00  0.00     0.173 A 
ATOM     69  F   UNL     1      13.468  -3.403   0.797  1.00  0.00    -0.203 F 
ATOM     70  C   UNL     1      14.926  -4.212   2.441  1.00  0.00     0.198 A 
ATOM     71  C   UNL     1      14.156  -4.640   4.654  1.00  0.00     0.198 A 
ATOM     72  F   UNL     1      11.924  -4.467   5.197  1.00  0.00    -0.203 F 
ATOM     73  F   UNL     1      15.899  -4.272   1.521  1.00  0.00    -0.200 F 
ATOM     74  C   UNL     1      15.179  -4.642   3.731  1.00  0.00     0.200 A 
ATOM     75  F   UNL     1      14.372  -5.077   5.903  1.00  0.00    -0.200 F 
ATOM     76  F   UNL     1      16.388  -5.106   4.072  1.00  0.00    -0.200 F 
ENDBRANCH  52  66
BRANCH  53  77
ATOM     77  C   UNL     1       7.512 -10.671   4.443  1.00  0.00     0.064 A 
ATOM     78  C   UNL     1       8.125 -11.845   3.961  1.00  0.00     0.173 A 
ATOM     79  C   UNL     1       7.304 -10.607   5.834  1.00  0.00     0.173 A 
ATOM     80  F   UNL     1       8.391 -11.977   2.653  1.00  0.00    -0.203 F 
ATOM     81  C   UNL     1       8.561 -12.857   4.824  1.00  0.00     0.198 A 
ATOM     82  C   UNL     1       7.733 -11.622   6.693  1.00  0.00     0.198 A 
ATOM     83  F   UNL     1       6.780  -9.512   6.402  1.00  0.00    -0.203 F 
ATOM     84  F   UNL     1       9.222 -13.915   4.334  1.00  0.00    -0.200 F 
ATOM     85  C   UNL     1       8.382 -12.735   6.191  1.00  0.00     0.200 A 
ATOM     86  F   UNL     1       7.585 -11.477   8.017  1.00  0.00    -0.200 F 
ATOM     87  F   UNL     1       8.873 -13.662   7.025  1.00  0.00    -0.200 F 
ENDBRANCH  53  77
BRANCH  65  88
ATOM     88  C   UNL     1       7.810  -7.095  -0.763  1.00  0.00     0.064 A 
ATOM     89  C   UNL     1       6.480  -7.056  -0.309  1.00  0.00     0.173 A 
ATOM     90  C   UNL     1       8.017  -7.162  -2.147  1.00  0.00     0.173 A 
ATOM     91  F   UNL     1       6.199  -6.902   0.992  1.00  0.00    -0.203 F 
ATOM     92  C   UNL     1       5.410  -7.114  -1.201  1.00  0.00     0.198 A 
ATOM     93  C   UNL     1       6.947  -7.182  -3.037  1.00  0.00     0.198 A 
ATOM     94  F   UNL     1       9.265  -7.154  -2.639  1.00  0.00    -0.203 F 
ATOM     95  F   UNL     1       4.149  -7.080  -0.744  1.00  0.00    -0.200 F 
ATOM     96  C   UNL     1       5.645  -7.166  -2.565  1.00  0.00     0.200 A 
ATOM     97  F   UNL     1       7.181  -7.184  -4.357  1.00  0.00    -0.200 F 
ATOM     98  F   UNL     1       4.618  -7.171  -3.427  1.00  0.00    -0.200 F 
ENDBRANCH  65  88
ENDBRANCH  39  40
ENDBRANCH  32  34
ENDBRANCH  31  32
ENDBRANCH  30  31
ENDBRANCH  29  30
ENDBRANCH  28  29
ENDBRANCH   1  28
TORSDOF 18
