REMARK SMILES Cc1ccc(-c2nc(NC(=O)[C@H]3[C@@H](C(=O)OCCOCCOC(=O)c4ccc(-c5c6nc(c(-c7c(F)c(F)c(F)c(F)c7F)c7ccc([nH]7)c(-c7c(F)c(F)c(F)c(F)c7F)c7nc(c(-c8c(F)c(F)c(F)c(F)c8F)c8ccc5[nH]8)C=C7)C=C6)cc4)[C@@H]4CC[C@H]3O4)sc2C)cc1
REMARK SMILES IDX 18 1 17 2 16 3 14 4 15 5 13 6 12 7 91 8 88 9 90 10 92 11
REMARK SMILES IDX 89 12 10 13 9 14 11 16 8 17 6 18 7 19 94 20 93 21 95 22 5 23
REMARK SMILES IDX 1 24 2 25 3 26 97 27 4 28 96 29 19 30 20 31 21 32 22 33
REMARK SMILES IDX 23 34 24 35 25 36 26 37 87 38 27 39 86 40 28 41 29 42 30 43
REMARK SMILES IDX 80 44 31 45 85 46 79 47 81 48 32 49 84 50 78 51 77 52 33 54
REMARK SMILES IDX 65 55 45 56 64 57 46 58 49 59 63 60 82 61 47 62 48 63 62 65
REMARK SMILES IDX 83 66 50 67 34 68 35 69 43 70 36 71 37 72 41 73 44 74 38 75
REMARK SMILES IDX 39 76 42 77 40 78 66 79 67 80 75 81 68 82 69 83 73 84 76 85
REMARK SMILES IDX 70 86 71 87 74 88 72 89 51 90 52 91 60 92 53 93 54 94 58 95
REMARK SMILES IDX 61 96 55 97 56 98 59 99 57 100
REMARK H PARENT 9 15 81 53 49 64
REMARK Flexibility Score: inf
ROOT
ATOM      1  C   UNL     1      -6.950   1.287  -1.964  1.00  0.00     0.202 C 
ENDROOT
BRANCH   1   2
ATOM      2  C   UNL     1      -7.038   1.338  -0.412  1.00  0.00     0.261 C 
BRANCH   2   3
ATOM      3  O   UNL     1      -8.195   1.160   0.529  1.00  0.00    -0.463 OA
BRANCH   3   4
ATOM      4  C   UNL     1      -9.225   0.521   1.107  1.00  0.00     0.312 C 
ATOM      5  O   UNL     1      -9.716   0.905   2.170  1.00  0.00    -0.252 OA
BRANCH   4   6
ATOM      6  C   UNL     1      -9.739  -0.735   0.542  1.00  0.00     0.143 C 
ATOM      7  C   UNL     1      -9.374  -0.899  -0.878  1.00  0.00     0.124 C 
ATOM      8  C   UNL     1     -10.331  -2.029  -1.257  1.00  0.00     0.132 C 
ATOM      9  C   UNL     1     -11.260  -1.067   0.460  1.00  0.00     0.133 C 
ATOM     10  C   UNL     1     -10.513  -3.178  -0.228  1.00  0.00     0.035 C 
ATOM     11  O   UNL     1     -11.527  -1.255  -0.975  1.00  0.00    -0.373 OA
ATOM     12  C   UNL     1     -11.477  -2.535   0.793  1.00  0.00     0.036 C 
BRANCH   7  13
ATOM     13  C   UNL     1      -9.714   0.265  -1.849  1.00  0.00     0.232 C 
ATOM     14  N   UNL     1     -10.004   1.583  -1.666  1.00  0.00    -0.302 N 
ATOM     15  H   UNL     1      -9.963   2.007  -2.554  1.00  0.00     0.172 HD
ATOM     16  O   UNL     1      -9.517  -0.050  -3.044  1.00  0.00    -0.274 OA
BRANCH  14  17
ATOM     17  C   UNL     1     -10.331   2.579  -0.767  1.00  0.00     0.190 A 
ATOM     18  C   UNL     1     -10.219   4.655   0.106  1.00  0.00     0.086 A 
ATOM     19  N   UNL     1      -9.760   3.766  -0.868  1.00  0.00    -0.220 NA
ATOM     20  C   UNL     1     -11.349   4.207   0.755  1.00  0.00     0.031 A 
ATOM     21  S   UNL     1     -11.693   2.566   0.252  1.00  0.00    -0.101 S 
ATOM     22  C   UNL     1     -12.153   4.888   1.800  1.00  0.00     0.059 C 
BRANCH  18  23
ATOM     23  C   UNL     1      -9.355   5.789   0.537  1.00  0.00     0.001 A 
ATOM     24  C   UNL     1      -5.514   8.836   1.714  1.00  0.00     0.044 C 
ATOM     25  C   UNL     1      -6.232   7.568   1.277  1.00  0.00    -0.051 A 
ATOM     26  C   UNL     1      -6.947   7.622  -0.375  1.00  0.00     0.004 A 
ATOM     27  C   UNL     1      -7.019   6.588   2.574  1.00  0.00     0.004 A 
ATOM     28  C   UNL     1      -8.471   6.684  -0.753  1.00  0.00     0.010 A 
ATOM     29  C   UNL     1      -8.671   5.830   2.235  1.00  0.00     0.010 A 
ENDBRANCH  18  23
ENDBRANCH  14  17
ENDBRANCH   7  13
ENDBRANCH   4   6
ENDBRANCH   3   4
ENDBRANCH   2   3
ENDBRANCH   1   2
BRANCH   1  30
ATOM     30  O   UNL     1      -7.693   2.338  -2.587  1.00  0.00    -0.374 OA
BRANCH  30  31
ATOM     31  C   UNL     1      -7.891   2.343  -4.006  1.00  0.00     0.202 C 
BRANCH  31  32
ATOM     32  C   UNL     1      -6.685   2.096  -4.918  1.00  0.00     0.261 C 
BRANCH  32  33
ATOM     33  O   UNL     1      -5.802   3.236  -4.974  1.00  0.00    -0.460 OA
BRANCH  33  34
ATOM     34  C   UNL     1      -4.772   3.249  -4.079  1.00  0.00     0.338 C 
ATOM     35  O   UNL     1      -3.904   2.397  -4.006  1.00  0.00    -0.246 OA
BRANCH  34  36
ATOM     36  C   UNL     1      -5.011   4.314  -3.054  1.00  0.00     0.060 A 
ATOM     37  C   UNL     1      -4.262   4.435  -1.872  1.00  0.00     0.016 A 
ATOM     38  C   UNL     1      -6.243   4.912  -3.105  1.00  0.00     0.016 A 
ATOM     39  C   UNL     1      -4.828   5.061  -0.722  1.00  0.00     0.010 A 
ATOM     40  C   UNL     1      -6.870   5.076  -1.897  1.00  0.00     0.010 A 
ATOM     41  C   UNL     1      -6.212   5.323  -0.681  1.00  0.00    -0.014 A 
BRANCH  41  42
ATOM     42  C   UNL     1      -7.187   5.687   0.672  1.00  0.00     0.031 A 
ATOM     43  C   UNL     1      -8.307   7.472   1.150  1.00  0.00     0.074 A 
ATOM     44  C   UNL     1      -7.128   4.321   1.244  1.00  0.00     0.049 A 
ATOM     45  N   UNL     1      -8.518   8.078   2.383  1.00  0.00    -0.248 NA
ATOM     46  C   UNL     1      -9.254   8.570   0.314  1.00  0.00     0.031 C 
ATOM     47  C   UNL     1      -8.156   3.541   2.024  1.00  0.00     0.029 A 
ATOM     48  N   UNL     1      -6.000   3.505   1.539  1.00  0.00    -0.354 N 
ATOM     49  C   UNL     1      -9.693   8.729   2.522  1.00  0.00     0.074 A 
ATOM     50  C   UNL     1     -10.053   9.150   1.210  1.00  0.00     0.031 C 
ATOM     51  C   UNL     1      -7.623   2.753   2.938  1.00  0.00     0.029 A 
ATOM     52  C   UNL     1      -6.224   2.795   2.718  1.00  0.00     0.049 A 
ATOM     53  H   UNL     1      -5.183   3.450   0.992  1.00  0.00     0.167 HD
ATOM     54  C   UNL     1     -10.317   8.751   3.736  1.00  0.00     0.037 A 
ATOM     55  C   UNL     1      -5.411   2.363   3.691  1.00  0.00     0.037 A 
ATOM     56  C   UNL     1      -9.932   7.637   4.650  1.00  0.00     0.049 A 
ATOM     57  C   UNL     1      -5.834   3.022   4.974  1.00  0.00     0.074 A 
ATOM     58  C   UNL     1     -10.613   6.482   5.023  1.00  0.00     0.029 A 
ATOM     59  N   UNL     1      -8.629   7.454   5.146  1.00  0.00    -0.354 N 
ATOM     60  N   UNL     1      -6.561   4.125   4.970  1.00  0.00    -0.248 NA
ATOM     61  C   UNL     1      -5.532   2.553   6.317  1.00  0.00     0.031 C 
ATOM     62  C   UNL     1      -9.715   5.602   5.693  1.00  0.00     0.029 A 
ATOM     63  C   UNL     1      -8.474   6.215   5.794  1.00  0.00     0.049 A 
ATOM     64  H   UNL     1      -7.908   8.117   5.050  1.00  0.00     0.167 HD
ATOM     65  C   UNL     1      -6.750   4.553   6.253  1.00  0.00     0.074 A 
ATOM     66  C   UNL     1      -6.104   3.521   7.057  1.00  0.00     0.031 C 
ATOM     67  C   UNL     1      -7.264   5.792   6.540  1.00  0.00     0.037 A 
BRANCH  54  68
ATOM     68  C   UNL     1     -11.499   9.670   3.938  1.00  0.00     0.064 A 
ATOM     69  C   UNL     1     -12.499   9.437   4.896  1.00  0.00     0.173 A 
ATOM     70  C   UNL     1     -11.625  10.889   3.230  1.00  0.00     0.173 A 
ATOM     71  F   UNL     1     -12.454   8.376   5.712  1.00  0.00    -0.203 F 
ATOM     72  C   UNL     1     -13.579  10.312   5.066  1.00  0.00     0.198 A 
ATOM     73  C   UNL     1     -12.741  11.714   3.338  1.00  0.00     0.198 A 
ATOM     74  F   UNL     1     -10.640  11.343   2.441  1.00  0.00    -0.203 F 
ATOM     75  F   UNL     1     -14.485  10.070   6.024  1.00  0.00    -0.200 F 
ATOM     76  C   UNL     1     -13.719  11.429   4.263  1.00  0.00     0.200 A 
ATOM     77  F   UNL     1     -12.846  12.796   2.553  1.00  0.00    -0.200 F 
ATOM     78  F   UNL     1     -14.770  12.247   4.407  1.00  0.00    -0.200 F 
ENDBRANCH  54  68
BRANCH  55  79
ATOM     79  C   UNL     1      -4.353   1.478   3.177  1.00  0.00     0.064 A 
ATOM     80  C   UNL     1      -4.768   0.180   2.785  1.00  0.00     0.173 A 
ATOM     81  C   UNL     1      -3.326   2.071   2.431  1.00  0.00     0.173 A 
ATOM     82  F   UNL     1      -5.775  -0.427   3.434  1.00  0.00    -0.203 F 
ATOM     83  C   UNL     1      -4.306  -0.403   1.602  1.00  0.00     0.198 A 
ATOM     84  C   UNL     1      -2.891   1.497   1.233  1.00  0.00     0.198 A 
ATOM     85  F   UNL     1      -2.935   3.319   2.723  1.00  0.00    -0.203 F 
ATOM     86  F   UNL     1      -4.857  -1.542   1.155  1.00  0.00    -0.200 F 
ATOM     87  C   UNL     1      -3.406   0.283   0.802  1.00  0.00     0.200 A 
ATOM     88  F   UNL     1      -2.085   2.199   0.424  1.00  0.00    -0.200 F 
ATOM     89  F   UNL     1      -3.113  -0.178  -0.422  1.00  0.00    -0.200 F 
ENDBRANCH  55  79
BRANCH  67  90
ATOM     90  C   UNL     1      -6.719   6.608   7.694  1.00  0.00     0.064 A 
ATOM     91  C   UNL     1      -5.465   6.362   8.298  1.00  0.00     0.173 A 
ATOM     92  C   UNL     1      -7.368   7.781   8.135  1.00  0.00     0.173 A 
ATOM     93  F   UNL     1      -4.655   5.380   7.882  1.00  0.00    -0.203 F 
ATOM     94  C   UNL     1      -4.957   7.159   9.324  1.00  0.00     0.198 A 
ATOM     95  C   UNL     1      -6.819   8.620   9.105  1.00  0.00     0.198 A 
ATOM     96  F   UNL     1      -8.538   8.178   7.618  1.00  0.00    -0.203 F 
ATOM     97  F   UNL     1      -3.792   6.831   9.900  1.00  0.00    -0.200 F 
ATOM     98  C   UNL     1      -5.628   8.295   9.719  1.00  0.00     0.200 A 
ATOM     99  F   UNL     1      -7.446   9.761   9.423  1.00  0.00    -0.200 F 
ATOM    100  F   UNL     1      -5.116   9.088  10.669  1.00  0.00    -0.200 F 
ENDBRANCH  67  90
ENDBRANCH  41  42
ENDBRANCH  34  36
ENDBRANCH  33  34
ENDBRANCH  32  33
ENDBRANCH  31  32
ENDBRANCH  30  31
ENDBRANCH   1  30
TORSDOF 17
