REMARK SMILES C[C@H]1[C@H](C(=O)OCCOCCOC(=O)c2ccc(-c3c4nc(c(-c5c(F)c(F)c(F)c(F)c5F)c5ccc([nH]5)c(-c5c(F)c(F)c(F)c(F)c5F)c5nc(c(-c6c(F)c(F)c(F)c(F)c6F)c6ccc3[nH]6)C=C5)C=C4)cc2)CCN1C(=O)[C@H]1CC[C@@H](C[NH3+])CC1
REMARK SMILES IDX 8 1 7 2 6 3 4 4 5 5 3 6 1 7 2 8 80 9 78 10 79 11 81 12 82 13
REMARK SMILES IDX 83 14 90 15 84 16 89 17 85 18 86 19 87 20 88 21 9 25 10 26
REMARK SMILES IDX 11 27 12 28 13 29 14 30 15 31 16 32 77 33 17 34 76 35 18 36
REMARK SMILES IDX 19 37 20 38 70 39 21 40 75 41 69 42 71 43 22 44 74 45 68 46
REMARK SMILES IDX 67 47 23 49 55 50 35 51 54 52 36 53 39 54 53 55 72 56 37 57
REMARK SMILES IDX 38 58 52 60 73 61 40 62 24 63 25 64 33 65 26 66 27 67 31 68
REMARK SMILES IDX 34 69 28 70 29 71 32 72 30 73 56 74 57 75 65 76 58 77 59 78
REMARK SMILES IDX 63 79 66 80 60 81 61 82 64 83 62 84 41 85 42 86 50 87 43 88
REMARK SMILES IDX 44 89 48 90 51 91 45 92 46 93 49 94 47 95
REMARK H PARENT 88 22 88 23 88 24 71 48 39 59
REMARK Flexibility Score: inf
ROOT
ATOM      1  C   UNL     1       0.188   4.020   3.373  1.00  0.00     0.202 C 
ENDROOT
BRANCH   1   2
ATOM      2  C   UNL     1      -1.055   3.294   2.848  1.00  0.00     0.261 C 
BRANCH   2   3
ATOM      3  O   UNL     1      -0.761   2.162   2.009  1.00  0.00    -0.463 OA
BRANCH   3   4
ATOM      4  C   UNL     1      -1.105   2.316   0.703  1.00  0.00     0.311 C 
ATOM      5  O   UNL     1      -1.618   3.323   0.228  1.00  0.00    -0.252 OA
BRANCH   4   6
ATOM      6  C   UNL     1      -0.865   1.088  -0.140  1.00  0.00     0.123 C 
ATOM      7  C   UNL     1       1.435   0.522  -0.859  1.00  0.00     0.032 C 
ATOM      8  C   UNL     1       0.362   0.193   0.187  1.00  0.00     0.096 C 
ATOM      9  N   UNL     1      -0.153  -1.192   0.074  1.00  0.00    -0.339 N 
ATOM     10  C   UNL     1      -2.065   0.159  -0.081  1.00  0.00     0.039 C 
ATOM     11  C   UNL     1      -1.480  -1.159  -0.533  1.00  0.00     0.121 C 
BRANCH   9  12
ATOM     12  C   UNL     1       0.311  -2.424   0.486  1.00  0.00     0.225 C 
ATOM     13  O   UNL     1      -0.366  -3.435   0.241  1.00  0.00    -0.275 OA
BRANCH  12  14
ATOM     14  C   UNL     1       1.632  -2.670   1.224  1.00  0.00     0.078 C 
ATOM     15  C   UNL     1       2.865  -2.614   0.323  1.00  0.00     0.014 C 
ATOM     16  C   UNL     1       1.823  -1.962   2.564  1.00  0.00     0.014 C 
ATOM     17  C   UNL     1       4.134  -3.060   1.050  1.00  0.00     0.010 C 
ATOM     18  C   UNL     1       3.097  -2.473   3.254  1.00  0.00     0.010 C 
ATOM     19  C   UNL     1       4.351  -2.313   2.378  1.00  0.00     0.044 C 
BRANCH  19  20
ATOM     20  C   UNL     1       4.751  -0.843   2.130  1.00  0.00     0.262 C 
BRANCH  20  21
ATOM     21  N   UNL     1       5.128  -0.164   3.364  1.00  0.00    -0.357 N 
ATOM     22  H   UNL     1       4.334  -0.157   4.004  1.00  0.00     0.344 HD
ATOM     23  H   UNL     1       5.404   0.795   3.154  1.00  0.00     0.344 HD
ATOM     24  H   UNL     1       5.910  -0.655   3.797  1.00  0.00     0.344 HD
ENDBRANCH  20  21
ENDBRANCH  19  20
ENDBRANCH  12  14
ENDBRANCH   9  12
ENDBRANCH   4   6
ENDBRANCH   3   4
ENDBRANCH   2   3
ENDBRANCH   1   2
BRANCH   1  25
ATOM     25  O   UNL     1       1.127   4.490   2.413  1.00  0.00    -0.374 OA
BRANCH  25  26
ATOM     26  C   UNL     1       1.935   3.530   1.738  1.00  0.00     0.202 C 
BRANCH  26  27
ATOM     27  C   UNL     1       2.991   2.795   2.570  1.00  0.00     0.261 C 
BRANCH  27  28
ATOM     28  O   UNL     1       2.416   1.982   3.614  1.00  0.00    -0.460 OA
BRANCH  28  29
ATOM     29  C   UNL     1       2.829   2.313   4.862  1.00  0.00     0.338 C 
ATOM     30  O   UNL     1       3.698   3.123   5.156  1.00  0.00    -0.246 OA
BRANCH  29  31
ATOM     31  C   UNL     1       2.011   1.658   5.900  1.00  0.00     0.060 A 
ATOM     32  C   UNL     1       1.501   2.467   6.921  1.00  0.00     0.016 A 
ATOM     33  C   UNL     1       1.867   0.272   5.965  1.00  0.00     0.016 A 
ATOM     34  C   UNL     1       0.922   1.885   8.047  1.00  0.00     0.010 A 
ATOM     35  C   UNL     1       1.293  -0.315   7.099  1.00  0.00     0.010 A 
ATOM     36  C   UNL     1       0.866   0.489   8.168  1.00  0.00    -0.014 A 
BRANCH  36  37
ATOM     37  C   UNL     1       0.494  -0.099   9.478  1.00  0.00     0.031 A 
ATOM     38  C   UNL     1       1.579  -0.518  10.432  1.00  0.00     0.074 A 
ATOM     39  C   UNL     1      -0.796  -0.188   9.844  1.00  0.00     0.049 A 
ATOM     40  N   UNL     1       1.481  -0.934  11.670  1.00  0.00    -0.248 NA
ATOM     41  C   UNL     1       2.959  -0.460   9.926  1.00  0.00     0.031 C 
ATOM     42  C   UNL     1      -1.936   0.183   9.009  1.00  0.00     0.029 A 
ATOM     43  N   UNL     1      -1.360  -0.611  11.021  1.00  0.00    -0.354 N 
ATOM     44  C   UNL     1       2.782  -1.174  12.093  1.00  0.00     0.074 A 
ATOM     45  C   UNL     1       3.650  -0.900  10.968  1.00  0.00     0.031 C 
ATOM     46  C   UNL     1      -3.068  -0.020   9.704  1.00  0.00     0.029 A 
ATOM     47  C   UNL     1      -2.731  -0.539  11.028  1.00  0.00     0.049 A 
ATOM     48  H   UNL     1      -0.833  -0.934  11.786  1.00  0.00     0.167 HD
ATOM     49  C   UNL     1       3.216  -1.567  13.315  1.00  0.00     0.037 A 
ATOM     50  C   UNL     1      -3.611  -0.849  11.999  1.00  0.00     0.037 A 
ATOM     51  C   UNL     1       2.355  -1.843  14.434  1.00  0.00     0.049 A 
ATOM     52  C   UNL     1      -3.104  -1.309  13.341  1.00  0.00     0.074 A 
ATOM     53  C   UNL     1       2.702  -2.222  15.720  1.00  0.00     0.029 A 
ATOM     54  N   UNL     1       0.970  -1.778  14.397  1.00  0.00    -0.354 N 
ATOM     55  N   UNL     1      -1.869  -1.467  13.751  1.00  0.00    -0.248 NA
ATOM     56  C   UNL     1      -4.118  -1.614  14.361  1.00  0.00     0.031 C 
ATOM     57  C   UNL     1       1.525  -2.424  16.450  1.00  0.00     0.029 A 
ATOM     58  C   UNL     1       0.447  -2.129  15.631  1.00  0.00     0.049 A 
ATOM     59  H   UNL     1       0.438  -1.521  13.610  1.00  0.00     0.167 HD
ATOM     60  C   UNL     1      -1.956  -1.863  15.080  1.00  0.00     0.074 A 
ATOM     61  C   UNL     1      -3.365  -1.906  15.412  1.00  0.00     0.031 C 
ATOM     62  C   UNL     1      -0.958  -2.162  15.947  1.00  0.00     0.037 A 
BRANCH  49  63
ATOM     63  C   UNL     1       4.696  -1.729  13.503  1.00  0.00     0.064 A 
ATOM     64  C   UNL     1       5.550  -0.618  13.581  1.00  0.00     0.173 A 
ATOM     65  C   UNL     1       5.263  -3.004  13.645  1.00  0.00     0.173 A 
ATOM     66  F   UNL     1       5.058   0.622  13.440  1.00  0.00    -0.203 F 
ATOM     67  C   UNL     1       6.920  -0.779  13.772  1.00  0.00     0.198 A 
ATOM     68  C   UNL     1       6.630  -3.160  13.860  1.00  0.00     0.198 A 
ATOM     69  F   UNL     1       4.489  -4.098  13.583  1.00  0.00    -0.203 F 
ATOM     70  F   UNL     1       7.721   0.294  13.804  1.00  0.00    -0.200 F 
ATOM     71  C   UNL     1       7.457  -2.049  13.917  1.00  0.00     0.200 A 
ATOM     72  F   UNL     1       7.146  -4.388  14.011  1.00  0.00    -0.200 F 
ATOM     73  F   UNL     1       8.775  -2.203  14.107  1.00  0.00    -0.200 F 
ENDBRANCH  49  63
BRANCH  50  74
ATOM     74  C   UNL     1      -5.067  -0.705  11.748  1.00  0.00     0.064 A 
ATOM     75  C   UNL     1      -5.812   0.305  12.369  1.00  0.00     0.173 A 
ATOM     76  C   UNL     1      -5.742  -1.582  10.886  1.00  0.00     0.173 A 
ATOM     77  F   UNL     1      -5.213   1.153  13.218  1.00  0.00    -0.203 F 
ATOM     78  C   UNL     1      -7.183   0.423  12.152  1.00  0.00     0.198 A 
ATOM     79  C   UNL     1      -7.108  -1.448  10.651  1.00  0.00     0.198 A 
ATOM     80  F   UNL     1      -5.070  -2.565  10.268  1.00  0.00    -0.203 F 
ATOM     81  F   UNL     1      -7.881   1.372  12.790  1.00  0.00    -0.200 F 
ATOM     82  C   UNL     1      -7.829  -0.451  11.289  1.00  0.00     0.200 A 
ATOM     83  F   UNL     1      -7.726  -2.287   9.809  1.00  0.00    -0.200 F 
ATOM     84  F   UNL     1      -9.147  -0.335  11.079  1.00  0.00    -0.200 F 
ENDBRANCH  50  74
BRANCH  62  85
ATOM     85  C   UNL     1      -1.354  -2.534  17.347  1.00  0.00     0.064 A 
ATOM     86  C   UNL     1      -1.951  -3.769  17.638  1.00  0.00     0.173 A 
ATOM     87  C   UNL     1      -1.109  -1.654  18.412  1.00  0.00     0.173 A 
ATOM     88  F   UNL     1      -2.219  -4.638  16.652  1.00  0.00    -0.203 F 
ATOM     89  C   UNL     1      -2.316  -4.097  18.941  1.00  0.00     0.198 A 
ATOM     90  C   UNL     1      -1.450  -1.997  19.717  1.00  0.00     0.198 A 
ATOM     91  F   UNL     1      -0.533  -0.464  18.187  1.00  0.00    -0.203 F 
ATOM     92  F   UNL     1      -2.931  -5.262  19.190  1.00  0.00    -0.200 F 
ATOM     93  C   UNL     1      -2.061  -3.214  19.980  1.00  0.00     0.200 A 
ATOM     94  F   UNL     1      -1.194  -1.147  20.721  1.00  0.00    -0.200 F 
ATOM     95  F   UNL     1      -2.413  -3.532  21.233  1.00  0.00    -0.200 F 
ENDBRANCH  62  85
ENDBRANCH  36  37
ENDBRANCH  29  31
ENDBRANCH  28  29
ENDBRANCH  27  28
ENDBRANCH  26  27
ENDBRANCH  25  26
ENDBRANCH   1  25
TORSDOF 18
