REMARK SMILES CC[C@H](C)[NH2+]CCc1ccc(C(=O)OCCOCCOC(=O)c2ccc(-c3c4nc(c(-c5c(F)c(F)c(F)c(F)c5F)c5ccc([nH]5)c(-c5c(F)c(F)c(F)c(F)c5F)c5nc(c(-c6c(F)c(F)c(F)c(F)c6F)c6ccc3[nH]6)C=C5)C=C4)cc2)cc1
REMARK SMILES IDX 15 1 14 2 12 3 13 4 11 5 8 6 9 7 87 8 10 9 86 10 7 11 6 12
REMARK SMILES IDX 5 13 3 16 4 17 2 18 1 19 16 20 17 21 18 22 19 23 20 24 21 25
REMARK SMILES IDX 22 26 23 27 24 28 85 29 25 30 84 31 26 32 27 33 28 34 78 35
REMARK SMILES IDX 29 36 83 37 77 38 79 39 30 40 82 41 76 42 75 43 31 45 63 46
REMARK SMILES IDX 43 47 62 48 44 49 47 50 61 51 80 52 45 53 46 54 60 56 81 57
REMARK SMILES IDX 48 58 32 59 33 60 41 61 34 62 35 63 39 64 42 65 36 66 37 67
REMARK SMILES IDX 40 68 38 69 64 70 65 71 73 72 66 73 67 74 71 75 74 76 68 77
REMARK SMILES IDX 69 78 72 79 70 80 49 81 50 82 58 83 51 84 52 85 56 86 59 87
REMARK SMILES IDX 53 88 54 89 57 90 55 91
REMARK H PARENT 5 14 5 15 79 44 47 55
REMARK Flexibility Score: inf
ROOT
ATOM      1  C   UNL     1      -7.407  -4.865   2.082  1.00  0.00     0.261 C 
ENDROOT
BRANCH   1   2
ATOM      2  O   UNL     1      -6.011  -5.190   2.172  1.00  0.00    -0.460 OA
BRANCH   2   3
ATOM      3  C   UNL     1      -5.186  -4.270   1.624  1.00  0.00     0.338 C 
ATOM      4  O   UNL     1      -5.503  -3.296   0.954  1.00  0.00    -0.246 OA
BRANCH   3   5
ATOM      5  C   UNL     1      -3.813  -4.473   2.117  1.00  0.00     0.060 A 
ATOM      6  C   UNL     1      -1.123  -4.644   2.829  1.00  0.00    -0.042 A 
ATOM      7  C   UNL     1      -1.824  -3.446   3.008  1.00  0.00     0.005 A 
ATOM      8  C   UNL     1      -1.816  -5.791   2.413  1.00  0.00     0.005 A 
ATOM      9  C   UNL     1      -3.150  -3.347   2.612  1.00  0.00     0.016 A 
ATOM     10  C   UNL     1      -3.171  -5.712   2.074  1.00  0.00     0.016 A 
BRANCH   6  11
ATOM     11  C   UNL     1       0.386  -4.630   2.925  1.00  0.00     0.097 C 
BRANCH  11  12
ATOM     12  C   UNL     1       1.073  -4.475   1.544  1.00  0.00     0.265 C 
BRANCH  12  13
ATOM     13  N   UNL     1       0.544  -3.460   0.629  1.00  0.00    -0.344 N 
ATOM     14  H   UNL     1       0.640  -3.823  -0.319  1.00  0.00     0.346 HD
ATOM     15  H   UNL     1      -0.414  -3.303   0.941  1.00  0.00     0.346 HD
BRANCH  13  16
ATOM     16  C   UNL     1       1.167  -2.133   0.657  1.00  0.00     0.178 C 
ATOM     17  C   UNL     1       0.650  -1.387  -0.582  1.00  0.00     0.075 C 
BRANCH  16  18
ATOM     18  C   UNL     1       0.852  -1.345   1.940  1.00  0.00     0.061 C 
ATOM     19  C   UNL     1       1.414   0.070   1.974  1.00  0.00     0.010 C 
ENDBRANCH  16  18
ENDBRANCH  13  16
ENDBRANCH  12  13
ENDBRANCH  11  12
ENDBRANCH   6  11
ENDBRANCH   3   5
ENDBRANCH   2   3
ENDBRANCH   1   2
BRANCH   1  20
ATOM     20  C   UNL     1      -7.996  -4.560   3.463  1.00  0.00     0.202 C 
BRANCH  20  21
ATOM     21  O   UNL     1      -7.515  -3.391   4.123  1.00  0.00    -0.374 OA
BRANCH  21  22
ATOM     22  C   UNL     1      -6.250  -3.479   4.779  1.00  0.00     0.202 C 
BRANCH  22  23
ATOM     23  C   UNL     1      -6.224  -4.181   6.142  1.00  0.00     0.261 C 
BRANCH  23  24
ATOM     24  O   UNL     1      -6.499  -5.589   6.026  1.00  0.00    -0.460 OA
BRANCH  24  25
ATOM     25  C   UNL     1      -7.687  -5.981   6.536  1.00  0.00     0.338 C 
ATOM     26  O   UNL     1      -8.496  -5.299   7.152  1.00  0.00    -0.246 OA
BRANCH  25  27
ATOM     27  C   UNL     1      -7.994  -7.351   6.090  1.00  0.00     0.060 A 
ATOM     28  C   UNL     1      -9.211  -7.559   5.428  1.00  0.00     0.016 A 
ATOM     29  C   UNL     1      -7.146  -8.423   6.373  1.00  0.00     0.016 A 
ATOM     30  C   UNL     1      -9.609  -8.848   5.087  1.00  0.00     0.010 A 
ATOM     31  C   UNL     1      -7.552  -9.719   6.040  1.00  0.00     0.010 A 
ATOM     32  C   UNL     1      -8.799  -9.940   5.427  1.00  0.00    -0.014 A 
BRANCH  32  33
ATOM     33  C   UNL     1      -9.327 -11.316   5.271  1.00  0.00     0.031 A 
ATOM     34  C   UNL     1      -9.884 -12.024   6.475  1.00  0.00     0.074 A 
ATOM     35  C   UNL     1      -9.339 -11.915   4.067  1.00  0.00     0.049 A 
ATOM     36  N   UNL     1     -10.366 -13.236   6.578  1.00  0.00    -0.248 NA
ATOM     37  C   UNL     1      -9.897 -11.261   7.733  1.00  0.00     0.031 C 
ATOM     38  C   UNL     1      -8.866 -11.315   2.822  1.00  0.00     0.029 A 
ATOM     39  N   UNL     1      -9.763 -13.167   3.700  1.00  0.00    -0.354 N 
ATOM     40  C   UNL     1     -10.733 -13.383   7.909  1.00  0.00     0.074 A 
ATOM     41  C   UNL     1     -10.390 -12.149   8.583  1.00  0.00     0.031 C 
ATOM     42  C   UNL     1      -9.015 -12.205   1.827  1.00  0.00     0.029 A 
ATOM     43  C   UNL     1      -9.564 -13.446   2.371  1.00  0.00     0.049 A 
ATOM     44  H   UNL     1     -10.171 -13.805   4.330  1.00  0.00     0.167 HD
ATOM     45  C   UNL     1     -11.312 -14.449   8.512  1.00  0.00     0.037 A 
ATOM     46  C   UNL     1      -9.780 -14.582   1.681  1.00  0.00     0.037 A 
ATOM     47  C   UNL     1     -11.654 -15.674   7.838  1.00  0.00     0.049 A 
ATOM     48  C   UNL     1     -10.359 -15.779   2.391  1.00  0.00     0.074 A 
ATOM     49  C   UNL     1     -12.265 -16.803   8.355  1.00  0.00     0.029 A 
ATOM     50  N   UNL     1     -11.406 -15.932   6.498  1.00  0.00    -0.354 N 
ATOM     51  N   UNL     1     -10.729 -15.902   3.643  1.00  0.00    -0.248 NA
ATOM     52  C   UNL     1     -10.552 -16.995   1.589  1.00  0.00     0.031 C 
ATOM     53  C   UNL     1     -12.338 -17.764   7.341  1.00  0.00     0.029 A 
ATOM     54  C   UNL     1     -11.825 -17.214   6.178  1.00  0.00     0.049 A 
ATOM     55  H   UNL     1     -10.993 -15.299   5.867  1.00  0.00     0.167 HD
ATOM     56  C   UNL     1     -11.223 -17.194   3.772  1.00  0.00     0.074 A 
ATOM     57  C   UNL     1     -11.118 -17.811   2.466  1.00  0.00     0.031 C 
ATOM     58  C   UNL     1     -11.719 -17.813   4.871  1.00  0.00     0.037 A 
BRANCH  45  59
ATOM     59  C   UNL     1     -11.590 -14.347   9.983  1.00  0.00     0.064 A 
ATOM     60  C   UNL     1     -12.601 -13.515  10.489  1.00  0.00     0.173 A 
ATOM     61  C   UNL     1     -10.857 -15.118  10.898  1.00  0.00     0.173 A 
ATOM     62  F   UNL     1     -13.321 -12.747   9.657  1.00  0.00    -0.203 F 
ATOM     63  C   UNL     1     -12.850 -13.440  11.857  1.00  0.00     0.198 A 
ATOM     64  C   UNL     1     -11.128 -15.062  12.263  1.00  0.00     0.198 A 
ATOM     65  F   UNL     1      -9.882 -15.932  10.468  1.00  0.00    -0.203 F 
ATOM     66  F   UNL     1     -13.789 -12.604  12.321  1.00  0.00    -0.200 F 
ATOM     67  C   UNL     1     -12.119 -14.219  12.742  1.00  0.00     0.200 A 
ATOM     68  F   UNL     1     -10.429 -15.825  13.114  1.00  0.00    -0.200 F 
ATOM     69  F   UNL     1     -12.364 -14.151  14.057  1.00  0.00    -0.200 F 
ENDBRANCH  45  59
BRANCH  46  70
ATOM     70  C   UNL     1      -9.435 -14.650   0.237  1.00  0.00     0.064 A 
ATOM     71  C   UNL     1     -10.432 -14.767  -0.741  1.00  0.00     0.173 A 
ATOM     72  C   UNL     1      -8.100 -14.620  -0.193  1.00  0.00     0.173 A 
ATOM     73  F   UNL     1     -11.722 -14.827  -0.379  1.00  0.00    -0.203 F 
ATOM     74  C   UNL     1     -10.106 -14.870  -2.092  1.00  0.00     0.198 A 
ATOM     75  C   UNL     1      -7.776 -14.694  -1.546  1.00  0.00     0.198 A 
ATOM     76  F   UNL     1      -7.108 -14.512   0.703  1.00  0.00    -0.203 F 
ATOM     77  F   UNL     1     -11.076 -15.030  -3.003  1.00  0.00    -0.200 F 
ATOM     78  C   UNL     1      -8.779 -14.827  -2.494  1.00  0.00     0.200 A 
ATOM     79  F   UNL     1      -6.494 -14.641  -1.930  1.00  0.00    -0.200 F 
ATOM     80  F   UNL     1      -8.467 -14.924  -3.793  1.00  0.00    -0.200 F 
ENDBRANCH  46  70
BRANCH  58  81
ATOM     81  C   UNL     1     -12.219 -19.220   4.705  1.00  0.00     0.064 A 
ATOM     82  C   UNL     1     -11.342 -20.296   4.506  1.00  0.00     0.173 A 
ATOM     83  C   UNL     1     -13.592 -19.499   4.789  1.00  0.00     0.173 A 
ATOM     84  F   UNL     1     -10.021 -20.080   4.405  1.00  0.00    -0.203 F 
ATOM     85  C   UNL     1     -11.823 -21.595   4.370  1.00  0.00     0.198 A 
ATOM     86  C   UNL     1     -14.067 -20.803   4.684  1.00  0.00     0.198 A 
ATOM     87  F   UNL     1     -14.473 -18.507   4.987  1.00  0.00    -0.203 F 
ATOM     88  F   UNL     1     -10.970 -22.602   4.131  1.00  0.00    -0.200 F 
ATOM     89  C   UNL     1     -13.183 -21.849   4.466  1.00  0.00     0.200 A 
ATOM     90  F   UNL     1     -15.380 -21.048   4.792  1.00  0.00    -0.200 F 
ATOM     91  F   UNL     1     -13.643 -23.102   4.343  1.00  0.00    -0.200 F 
ENDBRANCH  58  81
ENDBRANCH  32  33
ENDBRANCH  25  27
ENDBRANCH  24  25
ENDBRANCH  23  24
ENDBRANCH  22  23
ENDBRANCH  21  22
ENDBRANCH  20  21
ENDBRANCH   1  20
TORSDOF 19
