REMARK SMILES CC(C)[C@@H](NS(=O)(=O)c1ccc(Cl)c([N+](=O)[O-])c1)C(=O)OCCOCCOC(=O)c1ccc(-c2c3nc(c(-c4c(F)c(F)c(F)c(F)c4F)c4ccc([nH]4)c(-c4c(F)c(F)c(F)c(F)c4F)c4nc(c(-c5c(F)c(F)c(F)c(F)c5F)c5ccc2[nH]5)C=C4)C=C3)cc1
REMARK SMILES IDX 23 1 22 2 21 3 19 4 20 5 4 6 2 7 1 8 3 9 5 10 6 12 7 13 8 14
REMARK SMILES IDX 9 15 10 16 18 17 11 18 14 19 12 20 13 21 15 22 16 23 17 24
REMARK SMILES IDX 24 25 25 26 26 27 27 28 28 29 29 30 30 31 31 32 92 33 32 34
REMARK SMILES IDX 91 35 33 36 34 37 35 38 85 39 36 40 90 41 84 42 86 43 37 44
REMARK SMILES IDX 89 45 83 46 82 47 38 49 70 50 50 51 69 52 51 53 54 54 68 55
REMARK SMILES IDX 87 56 52 57 53 58 67 60 88 61 55 62 39 63 40 64 48 65 41 66
REMARK SMILES IDX 42 67 46 68 49 69 43 70 44 71 47 72 45 73 71 74 72 75 80 76
REMARK SMILES IDX 73 77 74 78 78 79 81 80 75 81 76 82 79 83 77 84 56 85 57 86
REMARK SMILES IDX 65 87 58 88 59 89 63 90 66 91 60 92 61 93 64 94 62 95
REMARK H PARENT 5 11 86 48 54 59
REMARK Flexibility Score: inf
ROOT
ATOM      1  C   UNL     1      -1.485   5.805   0.244  1.00  0.00     0.202 C 
ENDROOT
BRANCH   1   2
ATOM      2  C   UNL     1      -1.595   4.628   1.220  1.00  0.00     0.261 C 
BRANCH   2   3
ATOM      3  O   UNL     1      -0.888   3.414   0.958  1.00  0.00    -0.462 OA
BRANCH   3   4
ATOM      4  C   UNL     1      -1.460   2.581   0.043  1.00  0.00     0.324 C 
ATOM      5  O   UNL     1      -2.176   2.933  -0.883  1.00  0.00    -0.250 OA
BRANCH   4   6
ATOM      6  C   UNL     1      -1.234   1.119   0.380  1.00  0.00     0.182 C 
BRANCH   6   7
ATOM      7  C   UNL     1       0.245   0.796   0.718  1.00  0.00     0.012 C 
ATOM      8  C   UNL     1       0.499  -0.716   0.650  1.00  0.00     0.009 C 
ATOM      9  C   UNL     1       1.232   1.479  -0.247  1.00  0.00     0.009 C 
ENDBRANCH   6   7
BRANCH   6  10
ATOM     10  N   UNL     1      -2.160   0.790   1.516  1.00  0.00    -0.197 NA
ATOM     11  H   UNL     1      -2.113   1.565   2.177  1.00  0.00     0.142 HD
BRANCH  10  12
ATOM     12  S   UNL     1      -3.803   0.525   1.167  1.00  0.00     0.241 S 
ATOM     13  O   UNL     1      -3.937   0.195  -0.231  1.00  0.00    -0.207 OA
ATOM     14  O   UNL     1      -4.244  -0.388   2.200  1.00  0.00    -0.207 OA
BRANCH  12  15
ATOM     15  C   UNL     1      -4.656   2.071   1.466  1.00  0.00     0.089 A 
ATOM     16  C   UNL     1      -4.751   3.028   0.452  1.00  0.00     0.024 A 
ATOM     17  C   UNL     1      -5.391   2.262   2.641  1.00  0.00     0.109 A 
ATOM     18  C   UNL     1      -5.405   4.248   0.667  1.00  0.00     0.029 A 
ATOM     19  C   UNL     1      -6.127   3.454   2.807  1.00  0.00     0.289 A 
ATOM     20  C   UNL     1      -6.101   4.474   1.852  1.00  0.00     0.118 A 
ATOM     21  Cl  UNL     1      -6.927   5.981   2.005  1.00  0.00    -0.077 Cl
BRANCH  19  22
ATOM     22  N   UNL     1      -7.005   3.550   3.958  1.00  0.00     0.064 N 
ATOM     23  O   UNL     1      -7.799   2.616   4.127  1.00  0.00    -0.258 OA
ATOM     24  O   UNL     1      -6.872   4.526   4.707  1.00  0.00    -0.258 OA
ENDBRANCH  19  22
ENDBRANCH  12  15
ENDBRANCH  10  12
ENDBRANCH   6  10
ENDBRANCH   4   6
ENDBRANCH   3   4
ENDBRANCH   2   3
ENDBRANCH   1   2
BRANCH   1  25
ATOM     25  O   UNL     1      -1.472   5.561  -1.151  1.00  0.00    -0.374 OA
BRANCH  25  26
ATOM     26  C   UNL     1      -0.276   5.036  -1.733  1.00  0.00     0.202 C 
BRANCH  26  27
ATOM     27  C   UNL     1       0.947   5.945  -1.666  1.00  0.00     0.261 C 
BRANCH  27  28
ATOM     28  O   UNL     1       1.457   5.969  -0.318  1.00  0.00    -0.460 OA
BRANCH  28  29
ATOM     29  C   UNL     1       1.730   7.212   0.136  1.00  0.00     0.338 C 
ATOM     30  O   UNL     1       1.766   8.245  -0.512  1.00  0.00    -0.246 OA
BRANCH  29  31
ATOM     31  C   UNL     1       1.795   7.215   1.608  1.00  0.00     0.060 A 
ATOM     32  C   UNL     1       1.011   8.168   2.269  1.00  0.00     0.016 A 
ATOM     33  C   UNL     1       2.698   6.417   2.315  1.00  0.00     0.016 A 
ATOM     34  C   UNL     1       1.219   8.420   3.618  1.00  0.00     0.010 A 
ATOM     35  C   UNL     1       2.911   6.675   3.674  1.00  0.00     0.010 A 
ATOM     36  C   UNL     1       2.228   7.731   4.304  1.00  0.00    -0.014 A 
BRANCH  36  37
ATOM     37  C   UNL     1       2.732   8.332   5.563  1.00  0.00     0.031 A 
ATOM     38  C   UNL     1       3.918   9.258   5.483  1.00  0.00     0.074 A 
ATOM     39  C   UNL     1       2.079   8.164   6.725  1.00  0.00     0.049 A 
ATOM     40  N   UNL     1       4.468   9.992   6.417  1.00  0.00    -0.248 NA
ATOM     41  C   UNL     1       4.568   9.382   4.166  1.00  0.00     0.031 C 
ATOM     42  C   UNL     1       0.898   7.328   6.919  1.00  0.00     0.029 A 
ATOM     43  N   UNL     1       2.314   8.712   7.961  1.00  0.00    -0.354 N 
ATOM     44  C   UNL     1       5.518  10.662   5.801  1.00  0.00     0.074 A 
ATOM     45  C   UNL     1       5.556  10.224   4.424  1.00  0.00     0.031 C 
ATOM     46  C   UNL     1       0.506   7.420   8.202  1.00  0.00     0.029 A 
ATOM     47  C   UNL     1       1.415   8.315   8.918  1.00  0.00     0.049 A 
ATOM     48  H   UNL     1       3.058   9.331   8.144  1.00  0.00     0.167 HD
ATOM     49  C   UNL     1       6.365  11.576   6.329  1.00  0.00     0.037 A 
ATOM     50  C   UNL     1       1.337   8.642  10.222  1.00  0.00     0.037 A 
ATOM     51  C   UNL     1       6.325  12.022   7.695  1.00  0.00     0.049 A 
ATOM     52  C   UNL     1       2.314   9.637  10.794  1.00  0.00     0.074 A 
ATOM     53  C   UNL     1       7.139  12.944   8.328  1.00  0.00     0.029 A 
ATOM     54  N   UNL     1       5.413  11.575   8.639  1.00  0.00    -0.354 N 
ATOM     55  N   UNL     1       3.286  10.284  10.197  1.00  0.00    -0.248 NA
ATOM     56  C   UNL     1       2.170   9.960  12.221  1.00  0.00     0.031 C 
ATOM     57  C   UNL     1       6.743  13.028   9.667  1.00  0.00     0.029 A 
ATOM     58  C   UNL     1       5.654  12.192   9.855  1.00  0.00     0.049 A 
ATOM     59  H   UNL     1       4.701  10.918   8.470  1.00  0.00     0.167 HD
ATOM     60  C   UNL     1       3.846  11.111  11.163  1.00  0.00     0.074 A 
ATOM     61  C   UNL     1       3.097  10.893  12.383  1.00  0.00     0.031 C 
ATOM     62  C   UNL     1       4.887  11.973  11.052  1.00  0.00     0.037 A 
BRANCH  49  63
ATOM     63  C   UNL     1       7.423  12.139   5.428  1.00  0.00     0.064 A 
ATOM     64  C   UNL     1       7.115  13.070   4.425  1.00  0.00     0.173 A 
ATOM     65  C   UNL     1       8.764  11.762   5.587  1.00  0.00     0.173 A 
ATOM     66  F   UNL     1       5.843  13.447   4.221  1.00  0.00    -0.203 F 
ATOM     67  C   UNL     1       8.111  13.591   3.602  1.00  0.00     0.198 A 
ATOM     68  C   UNL     1       9.760  12.302   4.778  1.00  0.00     0.198 A 
ATOM     69  F   UNL     1       9.109  10.872   6.530  1.00  0.00    -0.203 F 
ATOM     70  F   UNL     1       7.790  14.449   2.624  1.00  0.00    -0.200 F 
ATOM     71  C   UNL     1       9.432  13.211   3.784  1.00  0.00     0.200 A 
ATOM     72  F   UNL     1      11.038  11.939   4.959  1.00  0.00    -0.200 F 
ATOM     73  F   UNL     1      10.391  13.717   2.995  1.00  0.00    -0.200 F 
ENDBRANCH  49  63
BRANCH  50  74
ATOM     74  C   UNL     1       0.290   8.030  11.080  1.00  0.00     0.064 A 
ATOM     75  C   UNL     1      -0.768   8.792  11.594  1.00  0.00     0.173 A 
ATOM     76  C   UNL     1       0.346   6.672  11.426  1.00  0.00     0.173 A 
ATOM     77  F   UNL     1      -0.851  10.100  11.310  1.00  0.00    -0.203 F 
ATOM     78  C   UNL     1      -1.717   8.224  12.441  1.00  0.00     0.198 A 
ATOM     79  C   UNL     1      -0.618   6.100  12.252  1.00  0.00     0.198 A 
ATOM     80  F   UNL     1       1.340   5.901  10.960  1.00  0.00    -0.203 F 
ATOM     81  F   UNL     1      -2.689   8.986  12.960  1.00  0.00    -0.200 F 
ATOM     82  C   UNL     1      -1.643   6.878  12.767  1.00  0.00     0.200 A 
ATOM     83  F   UNL     1      -0.547   4.796  12.556  1.00  0.00    -0.200 F 
ATOM     84  F   UNL     1      -2.554   6.333  13.585  1.00  0.00    -0.200 F 
ENDBRANCH  50  74
BRANCH  62  85
ATOM     85  C   UNL     1       5.248  12.773  12.269  1.00  0.00     0.064 A 
ATOM     86  C   UNL     1       5.881  12.187  13.374  1.00  0.00     0.173 A 
ATOM     87  C   UNL     1       4.986  14.151  12.314  1.00  0.00     0.173 A 
ATOM     88  F   UNL     1       6.143  10.871  13.382  1.00  0.00    -0.203 F 
ATOM     89  C   UNL     1       6.210  12.945  14.494  1.00  0.00     0.198 A 
ATOM     90  C   UNL     1       5.341  14.911  13.424  1.00  0.00     0.198 A 
ATOM     91  F   UNL     1       4.391  14.760  11.277  1.00  0.00    -0.203 F 
ATOM     92  F   UNL     1       6.769  12.355  15.559  1.00  0.00    -0.200 F 
ATOM     93  C   UNL     1       5.944  14.306  14.517  1.00  0.00     0.200 A 
ATOM     94  F   UNL     1       5.095  16.228  13.439  1.00  0.00    -0.200 F 
ATOM     95  F   UNL     1       6.263  15.034  15.595  1.00  0.00    -0.200 F 
ENDBRANCH  62  85
ENDBRANCH  36  37
ENDBRANCH  29  31
ENDBRANCH  28  29
ENDBRANCH  27  28
ENDBRANCH  26  27
ENDBRANCH  25  26
ENDBRANCH   1  25
TORSDOF 19
