REMARK SMILES O=C(OCCOCCOC(=O)[C@H]1CSCN1C(=O)c1cnc2ccccn2c1=O)c1ccc(-c2c3nc(c(-c4c(F)c(F)c(F)c(F)c4F)c4ccc([nH]4)c(-c4c(F)c(F)c(F)c(F)c4F)c4nc(c(-c5c(F)c(F)c(F)c(F)c5F)c5ccc2[nH]5)C=C4)C=C3)cc1
REMARK SMILES IDX 6 1 5 2 4 3 3 4 2 5 1 6 30 7 31 8 92 9 32 10 91 11 33 12
REMARK SMILES IDX 34 13 35 14 85 15 36 16 90 17 84 18 86 19 37 20 89 21 83 22
REMARK SMILES IDX 82 23 38 25 70 26 50 27 69 28 51 29 54 30 68 31 87 32 52 33
REMARK SMILES IDX 53 34 67 36 88 37 55 38 39 39 40 40 48 41 41 42 42 43 46 44
REMARK SMILES IDX 49 45 43 46 44 47 47 48 45 49 71 50 72 51 80 52 73 53 74 54
REMARK SMILES IDX 78 55 81 56 75 57 76 58 79 59 77 60 56 61 57 62 65 63 58 64
REMARK SMILES IDX 59 65 63 66 66 67 60 68 61 69 64 70 62 71 7 72 8 73 9 74
REMARK SMILES IDX 10 75 11 76 12 77 13 78 16 79 14 80 15 81 17 82 18 83 19 84
REMARK SMILES IDX 20 85 28 86 21 87 27 88 29 89 22 90 26 91 23 92 25 93 24 94
REMARK H PARENT 86 24 54 35
REMARK Flexibility Score: inf
ROOT
ATOM      1  O   UNL     1       3.869   1.578   0.284  1.00  0.00    -0.374 OA
ENDROOT
BRANCH   1   2
ATOM      2  C   UNL     1       4.343   0.955  -0.909  1.00  0.00     0.202 C 
BRANCH   2   3
ATOM      3  C   UNL     1       3.968  -0.515  -1.112  1.00  0.00     0.261 C 
BRANCH   3   4
ATOM      4  O   UNL     1       2.580  -0.738  -0.829  1.00  0.00    -0.460 OA
BRANCH   4   5
ATOM      5  C   UNL     1       2.063  -1.187   0.341  1.00  0.00     0.338 C 
ATOM      6  O   UNL     1       0.850  -1.365   0.430  1.00  0.00    -0.246 OA
BRANCH   5   7
ATOM      7  C   UNL     1       2.908  -1.501   1.531  1.00  0.00     0.060 A 
ATOM      8  C   UNL     1       4.109  -0.861   1.827  1.00  0.00     0.016 A 
ATOM      9  C   UNL     1       2.433  -2.449   2.449  1.00  0.00     0.016 A 
ATOM     10  C   UNL     1       4.855  -1.165   2.938  1.00  0.00     0.010 A 
ATOM     11  C   UNL     1       3.150  -2.727   3.619  1.00  0.00     0.010 A 
ATOM     12  C   UNL     1       4.365  -2.076   3.857  1.00  0.00    -0.014 A 
BRANCH  12  13
ATOM     13  C   UNL     1       5.258  -2.366   4.983  1.00  0.00     0.031 A 
ATOM     14  C   UNL     1       6.020  -3.647   4.954  1.00  0.00     0.074 A 
ATOM     15  C   UNL     1       5.536  -1.378   5.853  1.00  0.00     0.049 A 
ATOM     16  N   UNL     1       6.855  -4.130   5.830  1.00  0.00    -0.248 NA
ATOM     17  C   UNL     1       5.832  -4.495   3.763  1.00  0.00     0.031 C 
ATOM     18  C   UNL     1       4.960  -0.027   5.810  1.00  0.00     0.029 A 
ATOM     19  N   UNL     1       6.411  -1.328   6.902  1.00  0.00    -0.354 N 
ATOM     20  C   UNL     1       7.268  -5.348   5.313  1.00  0.00     0.074 A 
ATOM     21  C   UNL     1       6.589  -5.541   4.053  1.00  0.00     0.031 C 
ATOM     22  C   UNL     1       5.517   0.721   6.774  1.00  0.00     0.029 A 
ATOM     23  C   UNL     1       6.411  -0.120   7.556  1.00  0.00     0.049 A 
ATOM     24  H   UNL     1       6.985  -2.084   7.163  1.00  0.00     0.167 HD
ATOM     25  C   UNL     1       8.141  -6.220   5.864  1.00  0.00     0.037 A 
ATOM     26  C   UNL     1       7.030   0.232   8.696  1.00  0.00     0.037 A 
ATOM     27  C   UNL     1       8.790  -5.976   7.122  1.00  0.00     0.049 A 
ATOM     28  C   UNL     1       7.886  -0.814   9.358  1.00  0.00     0.074 A 
ATOM     29  C   UNL     1       9.606  -6.813   7.857  1.00  0.00     0.029 A 
ATOM     30  N   UNL     1       8.690  -4.782   7.830  1.00  0.00    -0.354 N 
ATOM     31  N   UNL     1       8.187  -2.022   8.940  1.00  0.00    -0.248 NA
ATOM     32  C   UNL     1       8.474  -0.462  10.653  1.00  0.00     0.031 C 
ATOM     33  C   UNL     1       9.964  -6.140   9.031  1.00  0.00     0.029 A 
ATOM     34  C   UNL     1       9.422  -4.862   9.000  1.00  0.00     0.049 A 
ATOM     35  H   UNL     1       8.174  -3.996   7.540  1.00  0.00     0.167 HD
ATOM     36  C   UNL     1       9.014  -2.569   9.907  1.00  0.00     0.074 A 
ATOM     37  C   UNL     1       9.189  -1.544  10.921  1.00  0.00     0.031 C 
ATOM     38  C   UNL     1       9.572  -3.803   9.968  1.00  0.00     0.037 A 
BRANCH  25  39
ATOM     39  C   UNL     1       8.353  -7.517   5.144  1.00  0.00     0.064 A 
ATOM     40  C   UNL     1       9.043  -7.588   3.924  1.00  0.00     0.173 A 
ATOM     41  C   UNL     1       7.810  -8.703   5.660  1.00  0.00     0.173 A 
ATOM     42  F   UNL     1       9.549  -6.476   3.369  1.00  0.00    -0.203 F 
ATOM     43  C   UNL     1       9.156  -8.793   3.234  1.00  0.00     0.198 A 
ATOM     44  C   UNL     1       7.950  -9.911   4.982  1.00  0.00     0.198 A 
ATOM     45  F   UNL     1       7.126  -8.688   6.814  1.00  0.00    -0.203 F 
ATOM     46  F   UNL     1       9.762  -8.825   2.039  1.00  0.00    -0.200 F 
ATOM     47  C   UNL     1       8.614  -9.954   3.766  1.00  0.00     0.200 A 
ATOM     48  F   UNL     1       7.425 -11.031   5.498  1.00  0.00    -0.200 F 
ATOM     49  F   UNL     1       8.716 -11.111   3.097  1.00  0.00    -0.200 F 
ENDBRANCH  25  39
BRANCH  26  50
ATOM     50  C   UNL     1       6.790   1.564   9.316  1.00  0.00     0.064 A 
ATOM     51  C   UNL     1       7.835   2.471   9.538  1.00  0.00     0.173 A 
ATOM     52  C   UNL     1       5.506   1.942   9.746  1.00  0.00     0.173 A 
ATOM     53  F   UNL     1       9.085   2.158   9.166  1.00  0.00    -0.203 F 
ATOM     54  C   UNL     1       7.613   3.681  10.196  1.00  0.00     0.198 A 
ATOM     55  C   UNL     1       5.279   3.167  10.368  1.00  0.00     0.198 A 
ATOM     56  F   UNL     1       4.464   1.116   9.565  1.00  0.00    -0.203 F 
ATOM     57  F   UNL     1       8.644   4.496  10.459  1.00  0.00    -0.200 F 
ATOM     58  C   UNL     1       6.335   4.030  10.607  1.00  0.00     0.200 A 
ATOM     59  F   UNL     1       4.038   3.503  10.748  1.00  0.00    -0.200 F 
ATOM     60  F   UNL     1       6.126   5.188  11.248  1.00  0.00    -0.200 F 
ENDBRANCH  26  50
BRANCH  38  61
ATOM     61  C   UNL     1      10.457  -4.079  11.146  1.00  0.00     0.064 A 
ATOM     62  C   UNL     1       9.935  -4.236  12.438  1.00  0.00     0.173 A 
ATOM     63  C   UNL     1      11.840  -4.220  10.967  1.00  0.00     0.173 A 
ATOM     64  F   UNL     1       8.619  -4.092  12.658  1.00  0.00    -0.203 F 
ATOM     65  C   UNL     1      10.775  -4.491  13.516  1.00  0.00     0.198 A 
ATOM     66  C   UNL     1      12.671  -4.514  12.041  1.00  0.00     0.198 A 
ATOM     67  F   UNL     1      12.383  -4.086   9.747  1.00  0.00    -0.203 F 
ATOM     68  F   UNL     1      10.265  -4.577  14.752  1.00  0.00    -0.200 F 
ATOM     69  C   UNL     1      12.139  -4.639  13.316  1.00  0.00     0.200 A 
ATOM     70  F   UNL     1      13.986  -4.675  11.844  1.00  0.00    -0.200 F 
ATOM     71  F   UNL     1      12.945  -4.895  14.355  1.00  0.00    -0.200 F 
ENDBRANCH  38  61
ENDBRANCH  12  13
ENDBRANCH   5   7
ENDBRANCH   4   5
ENDBRANCH   3   4
ENDBRANCH   2   3
ENDBRANCH   1   2
BRANCH   1  72
ATOM     72  C   UNL     1       2.557   2.125   0.249  1.00  0.00     0.202 C 
BRANCH  72  73
ATOM     73  C   UNL     1       2.654   3.635   0.453  1.00  0.00     0.261 C 
BRANCH  73  74
ATOM     74  O   UNL     1       3.301   4.192  -0.706  1.00  0.00    -0.462 OA
BRANCH  74  75
ATOM     75  C   UNL     1       4.669   4.267  -0.658  1.00  0.00     0.329 C 
ATOM     76  O   UNL     1       5.343   4.230   0.365  1.00  0.00    -0.250 OA
BRANCH  75  77
ATOM     77  C   UNL     1       5.207   4.254  -2.099  1.00  0.00     0.206 C 
ATOM     78  C   UNL     1       4.660   5.443  -2.878  1.00  0.00     0.108 C 
ATOM     79  N   UNL     1       6.676   4.214  -2.189  1.00  0.00    -0.314 N 
ATOM     80  S   UNL     1       5.998   6.648  -2.912  1.00  0.00    -0.138 SA
ATOM     81  C   UNL     1       7.271   5.388  -2.788  1.00  0.00     0.191 C 
BRANCH  79  82
ATOM     82  C   UNL     1       7.358   3.025  -2.018  1.00  0.00     0.262 C 
ATOM     83  O   UNL     1       6.798   1.940  -2.175  1.00  0.00    -0.269 OA
BRANCH  82  84
ATOM     84  C   UNL     1       8.816   3.056  -1.746  1.00  0.00     0.124 A 
ATOM     85  C   UNL     1       9.583   2.093  -2.274  1.00  0.00     0.133 A 
ATOM     86  C   UNL     1       9.496   4.054  -0.896  1.00  0.00     0.270 A 
ATOM     87  N   UNL     1      10.951   2.061  -2.238  1.00  0.00    -0.237 NA
ATOM     88  N   UNL     1      10.879   4.096  -1.020  1.00  0.00    -0.267 N 
ATOM     89  O   UNL     1       8.850   4.800  -0.163  1.00  0.00    -0.268 OA
ATOM     90  C   UNL     1      11.546   3.068  -1.675  1.00  0.00     0.139 A 
ATOM     91  C   UNL     1      11.575   5.160  -0.457  1.00  0.00     0.096 A 
ATOM     92  C   UNL     1      13.030   3.163  -1.743  1.00  0.00     0.048 A 
ATOM     93  C   UNL     1      12.905   5.261  -0.559  1.00  0.00     0.019 A 
ATOM     94  C   UNL     1      13.653   4.231  -1.229  1.00  0.00     0.005 A 
ENDBRANCH  82  84
ENDBRANCH  79  82
ENDBRANCH  75  77
ENDBRANCH  74  75
ENDBRANCH  73  74
ENDBRANCH  72  73
ENDBRANCH   1  72
TORSDOF 16
