REMARK SMILES CC(C)CN(C)c1ccc([N+](=O)[O-])cc1C(=O)OCCOCCOC(=O)c1ccc(-c2c3nc(c(-c4c(F)c(F)c(F)c(F)c4F)c4ccc([nH]4)c(-c4c(F)c(F)c(F)c(F)c4F)c4nc(c(-c5c(F)c(F)c(F)c(F)c5F)c5ccc2[nH]5)C=C4)C=C3)cc1
REMARK SMILES IDX 20 1 19 2 18 3 16 4 17 5 15 6 7 7 8 8 9 9 14 10 10 11 5 12
REMARK SMILES IDX 6 13 4 14 2 15 1 16 3 17 11 18 12 19 13 20 21 21 22 22 23 23
REMARK SMILES IDX 24 24 25 25 26 26 27 27 28 28 89 29 29 30 88 31 30 32 31 33
REMARK SMILES IDX 32 34 82 35 33 36 87 37 81 38 83 39 34 40 86 41 80 42 79 43
REMARK SMILES IDX 35 45 67 46 47 47 66 48 48 49 51 50 65 51 84 52 49 53 50 54
REMARK SMILES IDX 64 56 85 57 52 58 36 59 37 60 45 61 38 62 39 63 43 64 46 65
REMARK SMILES IDX 40 66 41 67 44 68 42 69 68 70 69 71 77 72 70 73 71 74 75 75
REMARK SMILES IDX 78 76 72 77 73 78 76 79 74 80 53 81 54 82 62 83 55 84 56 85
REMARK SMILES IDX 60 86 63 87 57 88 58 89 61 90 59 91
REMARK H PARENT 83 44 51 55
REMARK Flexibility Score: inf
ROOT
ATOM      1  C   UNL     1       3.827   1.713   1.157  1.00  0.00     0.202 C 
ENDROOT
BRANCH   1   2
ATOM      2  C   UNL     1       3.009   0.929   0.134  1.00  0.00     0.261 C 
BRANCH   2   3
ATOM      3  O   UNL     1       1.808   0.381   0.714  1.00  0.00    -0.460 OA
BRANCH   3   4
ATOM      4  C   UNL     1       1.442  -0.808   0.177  1.00  0.00     0.340 C 
ATOM      5  O   UNL     1       2.042  -1.405  -0.708  1.00  0.00    -0.246 OA
BRANCH   4   6
ATOM      6  C   UNL     1       0.273  -1.437   0.834  1.00  0.00     0.090 A 
ATOM      7  C   UNL     1      -0.972  -0.812   1.069  1.00  0.00     0.052 A 
ATOM      8  C   UNL     1      -2.025  -1.630   1.542  1.00  0.00     0.034 A 
ATOM      9  C   UNL     1      -1.855  -2.994   1.801  1.00  0.00     0.088 A 
ATOM     10  C   UNL     1       0.454  -2.809   1.113  1.00  0.00     0.103 A 
ATOM     11  C   UNL     1      -0.606  -3.576   1.597  1.00  0.00     0.270 A 
BRANCH   7  12
ATOM     12  N   UNL     1      -1.219   0.547   0.848  1.00  0.00    -0.374 N 
ATOM     13  C   UNL     1      -1.763   1.285   1.991  1.00  0.00     0.143 C 
BRANCH  12  14
ATOM     14  C   UNL     1      -1.726   0.946  -0.479  1.00  0.00     0.119 C 
BRANCH  14  15
ATOM     15  C   UNL     1      -0.576   1.408  -1.392  1.00  0.00     0.002 C 
ATOM     16  C   UNL     1      -0.224   0.336  -2.424  1.00  0.00     0.009 C 
ATOM     17  C   UNL     1      -0.904   2.719  -2.107  1.00  0.00     0.009 C 
ENDBRANCH  14  15
ENDBRANCH  12  14
ENDBRANCH   7  12
BRANCH  11  18
ATOM     18  N   UNL     1      -0.408  -5.005   1.868  1.00  0.00     0.062 N 
ATOM     19  O   UNL     1      -1.408  -5.679   2.152  1.00  0.00    -0.258 OA
ATOM     20  O   UNL     1       0.747  -5.448   1.806  1.00  0.00    -0.258 OA
ENDBRANCH  11  18
ENDBRANCH   4   6
ENDBRANCH   3   4
ENDBRANCH   2   3
ENDBRANCH   1   2
BRANCH   1  21
ATOM     21  O   UNL     1       4.445   0.941   2.185  1.00  0.00    -0.374 OA
BRANCH  21  22
ATOM     22  C   UNL     1       3.591   0.210   3.060  1.00  0.00     0.202 C 
BRANCH  22  23
ATOM     23  C   UNL     1       2.832   1.027   4.114  1.00  0.00     0.261 C 
BRANCH  23  24
ATOM     24  O   UNL     1       1.956   2.035   3.574  1.00  0.00    -0.460 OA
BRANCH  24  25
ATOM     25  C   UNL     1       2.373   3.309   3.784  1.00  0.00     0.338 C 
ATOM     26  O   UNL     1       3.389   3.675   4.349  1.00  0.00    -0.246 OA
BRANCH  25  27
ATOM     27  C   UNL     1       1.454   4.280   3.163  1.00  0.00     0.060 A 
ATOM     28  C   UNL     1       1.970   5.151   2.195  1.00  0.00     0.016 A 
ATOM     29  C   UNL     1       0.173   4.476   3.683  1.00  0.00     0.016 A 
ATOM     30  C   UNL     1       1.228   6.262   1.789  1.00  0.00     0.010 A 
ATOM     31  C   UNL     1      -0.566   5.595   3.281  1.00  0.00     0.010 A 
ATOM     32  C   UNL     1      -0.021   6.518   2.369  1.00  0.00    -0.014 A 
BRANCH  32  33
ATOM     33  C   UNL     1      -0.677   7.833   2.157  1.00  0.00     0.031 A 
ATOM     34  C   UNL     1      -0.511   8.912   3.195  1.00  0.00     0.074 A 
ATOM     35  C   UNL     1      -1.399   8.078   1.051  1.00  0.00     0.049 A 
ATOM     36  N   UNL     1      -1.028  10.114   3.235  1.00  0.00    -0.248 NA
ATOM     37  C   UNL     1       0.353   8.590   4.341  1.00  0.00     0.031 C 
ATOM     38  C   UNL     1      -1.610   7.137  -0.045  1.00  0.00     0.029 A 
ATOM     39  N   UNL     1      -2.098   9.199   0.676  1.00  0.00    -0.354 N 
ATOM     40  C   UNL     1      -0.561  10.688   4.411  1.00  0.00     0.074 A 
ATOM     41  C   UNL     1       0.263   9.695   5.067  1.00  0.00     0.031 C 
ATOM     42  C   UNL     1      -2.400   7.714  -0.966  1.00  0.00     0.029 A 
ATOM     43  C   UNL     1      -2.769   9.055  -0.511  1.00  0.00     0.049 A 
ATOM     44  H   UNL     1      -2.115  10.027   1.208  1.00  0.00     0.167 HD
ATOM     45  C   UNL     1      -0.791  11.931   4.897  1.00  0.00     0.037 A 
ATOM     46  C   UNL     1      -3.602   9.901  -1.148  1.00  0.00     0.037 A 
ATOM     47  C   UNL     1      -1.597  12.929   4.245  1.00  0.00     0.049 A 
ATOM     48  C   UNL     1      -3.886  11.258  -0.562  1.00  0.00     0.074 A 
ATOM     49  C   UNL     1      -1.852  14.229   4.645  1.00  0.00     0.029 A 
ATOM     50  N   UNL     1      -2.283  12.734   3.057  1.00  0.00    -0.354 N 
ATOM     51  N   UNL     1      -3.421  11.799   0.537  1.00  0.00    -0.248 NA
ATOM     52  C   UNL     1      -4.814  12.122  -1.308  1.00  0.00     0.031 C 
ATOM     53  C   UNL     1      -2.726  14.809   3.719  1.00  0.00     0.029 A 
ATOM     54  C   UNL     1      -2.984  13.881   2.723  1.00  0.00     0.049 A 
ATOM     55  H   UNL     1      -2.274  11.903   2.530  1.00  0.00     0.167 HD
ATOM     56  C   UNL     1      -3.979  13.069   0.604  1.00  0.00     0.074 A 
ATOM     57  C   UNL     1      -4.814  13.223  -0.569  1.00  0.00     0.031 C 
ATOM     58  C   UNL     1      -3.812  14.023   1.553  1.00  0.00     0.037 A 
BRANCH  45  59
ATOM     59  C   UNL     1      -0.173  12.278   6.218  1.00  0.00     0.064 A 
ATOM     60  C   UNL     1       1.198  12.548   6.340  1.00  0.00     0.173 A 
ATOM     61  C   UNL     1      -0.968  12.371   7.369  1.00  0.00     0.173 A 
ATOM     62  F   UNL     1       2.001  12.459   5.268  1.00  0.00    -0.203 F 
ATOM     63  C   UNL     1       1.754  12.878   7.573  1.00  0.00     0.198 A 
ATOM     64  C   UNL     1      -0.413  12.722   8.596  1.00  0.00     0.198 A 
ATOM     65  F   UNL     1      -2.285  12.125   7.303  1.00  0.00    -0.203 F 
ATOM     66  F   UNL     1       3.072  13.095   7.675  1.00  0.00    -0.200 F 
ATOM     67  C   UNL     1       0.948  12.969   8.698  1.00  0.00     0.200 A 
ATOM     68  F   UNL     1      -1.194  12.818   9.681  1.00  0.00    -0.200 F 
ATOM     69  F   UNL     1       1.485  13.290   9.884  1.00  0.00    -0.200 F 
ENDBRANCH  45  59
BRANCH  46  70
ATOM     70  C   UNL     1      -4.242   9.478  -2.418  1.00  0.00     0.064 A 
ATOM     71  C   UNL     1      -3.845  10.027  -3.644  1.00  0.00     0.173 A 
ATOM     72  C   UNL     1      -5.261   8.515  -2.429  1.00  0.00     0.173 A 
ATOM     73  F   UNL     1      -2.892  10.970  -3.678  1.00  0.00    -0.203 F 
ATOM     74  C   UNL     1      -4.449   9.632  -4.836  1.00  0.00     0.198 A 
ATOM     75  C   UNL     1      -5.849   8.106  -3.622  1.00  0.00     0.198 A 
ATOM     76  F   UNL     1      -5.676   7.964  -1.278  1.00  0.00    -0.203 F 
ATOM     77  F   UNL     1      -4.074  10.194  -5.993  1.00  0.00    -0.200 F 
ATOM     78  C   UNL     1      -5.446   8.668  -4.824  1.00  0.00     0.200 A 
ATOM     79  F   UNL     1      -6.806   7.168  -3.608  1.00  0.00    -0.200 F 
ATOM     80  F   UNL     1      -6.022   8.283  -5.971  1.00  0.00    -0.200 F 
ENDBRANCH  46  70
BRANCH  58  81
ATOM     81  C   UNL     1      -4.528  15.326   1.357  1.00  0.00     0.064 A 
ATOM     82  C   UNL     1      -5.907  15.444   1.582  1.00  0.00     0.173 A 
ATOM     83  C   UNL     1      -3.820  16.478   0.985  1.00  0.00     0.173 A 
ATOM     84  F   UNL     1      -6.629  14.367   1.926  1.00  0.00    -0.203 F 
ATOM     85  C   UNL     1      -6.554  16.667   1.425  1.00  0.00     0.198 A 
ATOM     86  C   UNL     1      -4.466  17.704   0.850  1.00  0.00     0.198 A 
ATOM     87  F   UNL     1      -2.498  16.417   0.762  1.00  0.00    -0.203 F 
ATOM     88  F   UNL     1      -7.878  16.751   1.612  1.00  0.00    -0.200 F 
ATOM     89  C   UNL     1      -5.833  17.796   1.066  1.00  0.00     0.200 A 
ATOM     90  F   UNL     1      -3.767  18.795   0.510  1.00  0.00    -0.200 F 
ATOM     91  F   UNL     1      -6.457  18.974   0.920  1.00  0.00    -0.200 F 
ENDBRANCH  58  81
ENDBRANCH  32  33
ENDBRANCH  25  27
ENDBRANCH  24  25
ENDBRANCH  23  24
ENDBRANCH  22  23
ENDBRANCH  21  22
ENDBRANCH   1  21
TORSDOF 18
