REMARK SMILES CCCCCCCNC(=O)Oc1cccc(-c2ccc([C@@H](C)C(=O)OCCOCCOC(=O)c3ccc(-c4c5nc(c(-c6c(F)c(F)c(F)c(F)c6F)c6ccc([nH]6)c(-c6c(F)c(F)c(F)c(F)c6F)c6nc(c(-c7c(F)c(F)c(F)c(F)c7F)c7ccc4[nH]7)C=C6)C=C5)cc3)cc2F)c1
REMARK SMILES IDX 23 1 24 2 21 3 22 4 20 5 17 6 18 7 98 8 19 9 97 10 99 11
REMARK SMILES IDX 16 12 12 13 13 14 100 15 14 16 15 17 11 18 9 19 8 20 10 22
REMARK SMILES IDX 7 23 6 24 5 25 4 26 3 27 2 28 1 29 25 30 26 31 27 32 28 33
REMARK SMILES IDX 29 34 30 35 31 36 32 37 33 38 34 39 35 40 96 41 36 42 95 43
REMARK SMILES IDX 37 44 38 45 39 46 89 47 40 48 94 49 88 50 90 51 41 52 93 53
REMARK SMILES IDX 87 54 86 55 42 57 74 58 54 59 73 60 55 61 58 62 72 63 91 64
REMARK SMILES IDX 56 65 57 66 71 68 92 69 59 70 43 71 44 72 52 73 45 74 46 75
REMARK SMILES IDX 50 76 53 77 47 78 48 79 51 80 49 81 75 82 76 83 84 84 77 85
REMARK SMILES IDX 78 86 82 87 85 88 79 89 80 90 83 91 81 92 60 93 61 94 69 95
REMARK SMILES IDX 62 96 63 97 67 98 70 99 64 100 65 101 68 102 66 103
REMARK H PARENT 8 21 90 56 58 67
REMARK Flexibility Score: inf
ROOT
ATOM      1  C   UNL     1     -11.190 -10.366   3.561  1.00  0.00     0.313 C 
ATOM      2  O   UNL     1     -12.230  -9.996   4.097  1.00  0.00    -0.252 OA
ENDROOT
BRANCH   1   3
ATOM      3  C   UNL     1     -11.002 -10.305   2.053  1.00  0.00     0.126 C 
ATOM      4  C   UNL     1     -11.723 -11.488   1.412  1.00  0.00     0.025 C 
BRANCH   3   5
ATOM      5  C   UNL     1      -9.585 -10.143   1.510  1.00  0.00    -0.031 A 
ATOM      6  C   UNL     1      -7.032  -9.860   0.255  1.00  0.00     0.018 A 
ATOM      7  C   UNL     1      -7.355 -11.002   1.007  1.00  0.00     0.012 A 
ATOM      8  C   UNL     1      -7.999  -8.849   0.187  1.00  0.00     0.131 A 
ATOM      9  C   UNL     1      -8.610 -11.144   1.623  1.00  0.00     0.005 A 
ATOM     10  C   UNL     1      -9.249  -8.981   0.798  1.00  0.00     0.044 A 
ATOM     11  F   UNL     1      -7.762  -7.730  -0.515  1.00  0.00    -0.206 F 
BRANCH   6  12
ATOM     12  C   UNL     1      -5.755  -9.759  -0.474  1.00  0.00    -0.012 A 
ATOM     13  C   UNL     1      -3.724  -8.564  -1.068  1.00  0.00     0.133 A 
ATOM     14  C   UNL     1      -3.358  -9.566  -1.964  1.00  0.00     0.047 A 
ATOM     15  C   UNL     1      -4.914  -8.643  -0.339  1.00  0.00     0.056 A 
ATOM     16  C   UNL     1      -4.179 -10.679  -2.110  1.00  0.00     0.004 A 
ATOM     17  C   UNL     1      -5.363 -10.774  -1.371  1.00  0.00     0.009 A 
BRANCH  13  18
ATOM     18  O   UNL     1      -2.906  -7.424  -1.026  1.00  0.00    -0.410 OA
BRANCH  18  19
ATOM     19  C   UNL     1      -2.405  -7.040   0.208  1.00  0.00     0.412 C 
ATOM     20  N   UNL     1      -1.612  -5.928   0.147  1.00  0.00    -0.321 N 
ATOM     21  H   UNL     1      -1.247  -5.603   1.001  1.00  0.00     0.167 HD
ATOM     22  O   UNL     1      -2.606  -7.610   1.277  1.00  0.00    -0.224 OA
BRANCH  20  23
ATOM     23  C   UNL     1      -1.251  -5.174  -1.039  1.00  0.00     0.119 C 
BRANCH  23  24
ATOM     24  C   UNL     1      -1.717  -3.720  -0.963  1.00  0.00     0.021 C 
BRANCH  24  25
ATOM     25  C   UNL     1      -1.108  -2.904   0.185  1.00  0.00     0.002 C 
BRANCH  25  26
ATOM     26  C   UNL     1       0.420  -2.786   0.173  1.00  0.00     0.000 C 
BRANCH  26  27
ATOM     27  C   UNL     1       1.014  -2.088  -1.054  1.00  0.00    -0.000 C 
BRANCH  27  28
ATOM     28  C   UNL     1       0.564  -0.640  -1.268  1.00  0.00    -0.003 C 
ATOM     29  C   UNL     1       0.941   0.287  -0.121  1.00  0.00     0.004 C 
ENDBRANCH  27  28
ENDBRANCH  26  27
ENDBRANCH  25  26
ENDBRANCH  24  25
ENDBRANCH  23  24
ENDBRANCH  20  23
ENDBRANCH  18  19
ENDBRANCH  13  18
ENDBRANCH   6  12
ENDBRANCH   3   5
ENDBRANCH   1   3
BRANCH   1  30
ATOM     30  O   UNL     1     -10.130 -10.895   4.227  1.00  0.00    -0.463 OA
BRANCH  30  31
ATOM     31  C   UNL     1     -10.206 -10.848   5.663  1.00  0.00     0.261 C 
BRANCH  31  32
ATOM     32  C   UNL     1      -9.090  -9.979   6.249  1.00  0.00     0.202 C 
BRANCH  32  33
ATOM     33  O   UNL     1      -9.156  -8.585   5.958  1.00  0.00    -0.374 OA
BRANCH  33  34
ATOM     34  C   UNL     1      -8.762  -8.164   4.652  1.00  0.00     0.202 C 
BRANCH  34  35
ATOM     35  C   UNL     1      -7.255  -8.116   4.367  1.00  0.00     0.261 C 
BRANCH  35  36
ATOM     36  O   UNL     1      -6.647  -9.420   4.401  1.00  0.00    -0.460 OA
BRANCH  36  37
ATOM     37  C   UNL     1      -5.793  -9.617   5.436  1.00  0.00     0.338 C 
ATOM     38  O   UNL     1      -5.455  -8.811   6.282  1.00  0.00    -0.246 OA
BRANCH  37  39
ATOM     39  C   UNL     1      -5.447 -11.049   5.538  1.00  0.00     0.060 A 
ATOM     40  C   UNL     1      -5.636 -11.664   6.782  1.00  0.00     0.016 A 
ATOM     41  C   UNL     1      -4.875 -11.754   4.477  1.00  0.00     0.016 A 
ATOM     42  C   UNL     1      -5.205 -12.972   6.988  1.00  0.00     0.010 A 
ATOM     43  C   UNL     1      -4.437 -13.068   4.688  1.00  0.00     0.010 A 
ATOM     44  C   UNL     1      -4.567 -13.670   5.954  1.00  0.00    -0.014 A 
BRANCH  44  45
ATOM     45  C   UNL     1      -3.920 -14.972   6.253  1.00  0.00     0.031 A 
ATOM     46  C   UNL     1      -2.434 -15.017   6.484  1.00  0.00     0.074 A 
ATOM     47  C   UNL     1      -4.654 -16.092   6.373  1.00  0.00     0.049 A 
ATOM     48  N   UNL     1      -1.667 -16.041   6.763  1.00  0.00    -0.248 NA
ATOM     49  C   UNL     1      -1.718 -13.736   6.391  1.00  0.00     0.031 C 
ATOM     50  C   UNL     1      -6.104 -16.171   6.216  1.00  0.00     0.029 A 
ATOM     51  N   UNL     1      -4.274 -17.381   6.657  1.00  0.00    -0.354 N 
ATOM     52  C   UNL     1      -0.381 -15.529   6.876  1.00  0.00     0.074 A 
ATOM     53  C   UNL     1      -0.464 -14.110   6.604  1.00  0.00     0.031 C 
ATOM     54  C   UNL     1      -6.494 -17.444   6.401  1.00  0.00     0.029 A 
ATOM     55  C   UNL     1      -5.317 -18.273   6.659  1.00  0.00     0.049 A 
ATOM     56  H   UNL     1      -3.343 -17.640   6.841  1.00  0.00     0.167 HD
ATOM     57  C   UNL     1       0.765 -16.181   7.189  1.00  0.00     0.037 A 
ATOM     58  C   UNL     1      -5.319 -19.609   6.832  1.00  0.00     0.037 A 
ATOM     59  C   UNL     1       0.849 -17.592   7.462  1.00  0.00     0.049 A 
ATOM     60  C   UNL     1      -4.020 -20.322   7.106  1.00  0.00     0.074 A 
ATOM     61  C   UNL     1       1.960 -18.340   7.808  1.00  0.00     0.029 A 
ATOM     62  N   UNL     1      -0.224 -18.471   7.411  1.00  0.00    -0.354 N 
ATOM     63  N   UNL     1      -2.814 -19.827   7.237  1.00  0.00    -0.248 NA
ATOM     64  C   UNL     1      -4.086 -21.783   7.260  1.00  0.00     0.031 C 
ATOM     65  C   UNL     1       1.571 -19.680   7.915  1.00  0.00     0.029 A 
ATOM     66  C   UNL     1       0.206 -19.759   7.690  1.00  0.00     0.049 A 
ATOM     67  H   UNL     1      -1.153 -18.218   7.206  1.00  0.00     0.167 HD
ATOM     68  C   UNL     1      -1.984 -20.906   7.514  1.00  0.00     0.074 A 
ATOM     69  C   UNL     1      -2.827 -22.082   7.548  1.00  0.00     0.031 C 
ATOM     70  C   UNL     1      -0.644 -20.921   7.723  1.00  0.00     0.037 A 
BRANCH  57  71
ATOM     71  C   UNL     1       2.031 -15.377   7.228  1.00  0.00     0.064 A 
ATOM     72  C   UNL     1       2.289 -14.456   8.255  1.00  0.00     0.173 A 
ATOM     73  C   UNL     1       3.017 -15.557   6.246  1.00  0.00     0.173 A 
ATOM     74  F   UNL     1       1.374 -14.239   9.212  1.00  0.00    -0.203 F 
ATOM     75  C   UNL     1       3.477 -13.729   8.284  1.00  0.00     0.198 A 
ATOM     76  C   UNL     1       4.215 -14.849   6.294  1.00  0.00     0.198 A 
ATOM     77  F   UNL     1       2.823 -16.429   5.245  1.00  0.00    -0.203 F 
ATOM     78  F   UNL     1       3.684 -12.824   9.251  1.00  0.00    -0.200 F 
ATOM     79  C   UNL     1       4.441 -13.931   7.308  1.00  0.00     0.200 A 
ATOM     80  F   UNL     1       5.151 -15.056   5.357  1.00  0.00    -0.200 F 
ATOM     81  F   UNL     1       5.587 -13.237   7.341  1.00  0.00    -0.200 F 
ENDBRANCH  57  71
BRANCH  58  82
ATOM     82  C   UNL     1      -6.594 -20.368   6.739  1.00  0.00     0.064 A 
ATOM     83  C   UNL     1      -7.154 -20.986   7.865  1.00  0.00     0.173 A 
ATOM     84  C   UNL     1      -7.267 -20.506   5.516  1.00  0.00     0.173 A 
ATOM     85  F   UNL     1      -6.533 -20.905   9.051  1.00  0.00    -0.203 F 
ATOM     86  C   UNL     1      -8.329 -21.729   7.768  1.00  0.00     0.198 A 
ATOM     87  C   UNL     1      -8.457 -21.225   5.426  1.00  0.00     0.198 A 
ATOM     88  F   UNL     1      -6.771 -19.937   4.407  1.00  0.00    -0.203 F 
ATOM     89  F   UNL     1      -8.818 -22.350   8.850  1.00  0.00    -0.200 F 
ATOM     90  C   UNL     1      -8.983 -21.842   6.550  1.00  0.00     0.200 A 
ATOM     91  F   UNL     1      -9.091 -21.322   4.249  1.00  0.00    -0.200 F 
ATOM     92  F   UNL     1     -10.114 -22.554   6.458  1.00  0.00    -0.200 F 
ENDBRANCH  58  82
BRANCH  70  93
ATOM     93  C   UNL     1      -0.009 -22.246   8.035  1.00  0.00     0.064 A 
ATOM     94  C   UNL     1       0.137 -23.242   7.058  1.00  0.00     0.173 A 
ATOM     95  C   UNL     1       0.490 -22.510   9.320  1.00  0.00     0.173 A 
ATOM     96  F   UNL     1      -0.336 -23.046   5.818  1.00  0.00    -0.203 F 
ATOM     97  C   UNL     1       0.735 -24.462   7.363  1.00  0.00     0.198 A 
ATOM     98  C   UNL     1       1.114 -23.719   9.614  1.00  0.00     0.198 A 
ATOM     99  F   UNL     1       0.382 -21.589  10.290  1.00  0.00    -0.203 F 
ATOM    100  F   UNL     1       0.819 -25.418   6.427  1.00  0.00    -0.200 F 
ATOM    101  C   UNL     1       1.228 -24.698   8.638  1.00  0.00     0.200 A 
ATOM    102  F   UNL     1       1.603 -23.939  10.842  1.00  0.00    -0.200 F 
ATOM    103  F   UNL     1       1.808 -25.871   8.928  1.00  0.00    -0.200 F 
ENDBRANCH  70  93
ENDBRANCH  44  45
ENDBRANCH  37  39
ENDBRANCH  36  37
ENDBRANCH  35  36
ENDBRANCH  34  35
ENDBRANCH  33  34
ENDBRANCH  32  33
ENDBRANCH  31  32
ENDBRANCH  30  31
ENDBRANCH   1  30
TORSDOF 24
