REMARK SMILES O=C(COc1ccc(-c2cc3cc(Br)ccc3oc2=O)cc1)OCCOCCOC(=O)c1ccc(-c2c3nc(c(-c4c(F)c(F)c(F)c(F)c4F)c4ccc([nH]4)c(-c4c(F)c(F)c(F)c(F)c4F)c4nc(c(-c5c(F)c(F)c(F)c(F)c5F)c5ccc2[nH]5)C=C4)C=C3)cc1
REMARK SMILES IDX 25 1 24 2 23 3 2 4 1 5 3 6 4 7 5 8 6 9 22 10 7 11 21 12 8 13
REMARK SMILES IDX 9 14 10 15 19 16 11 17 18 18 20 19 12 20 17 21 13 22 16 23
REMARK SMILES IDX 14 24 15 25 26 26 27 27 28 28 29 29 30 30 31 31 32 32 33 33
REMARK SMILES IDX 94 34 34 35 93 36 35 37 36 38 37 39 87 40 38 41 92 42 86 43
REMARK SMILES IDX 88 44 39 45 91 46 85 47 84 48 40 50 72 51 52 52 71 53 53 54
REMARK SMILES IDX 56 55 70 56 89 57 54 58 55 59 69 61 90 62 57 63 41 64 42 65
REMARK SMILES IDX 50 66 43 67 44 68 48 69 51 70 45 71 46 72 49 73 47 74 73 75
REMARK SMILES IDX 74 76 82 77 75 78 76 79 80 80 83 81 77 82 78 83 81 84 79 85
REMARK SMILES IDX 58 86 59 87 67 88 60 89 61 90 65 91 68 92 62 93 63 94 66 95
REMARK SMILES IDX 64 96
REMARK H PARENT 88 49 56 60
REMARK Flexibility Score: inf
ROOT
ATOM      1  C   UNL     1       4.944  -1.210   0.050  1.00  0.00     0.202 C 
ENDROOT
BRANCH   1   2
ATOM      2  C   UNL     1       4.288   0.116   0.445  1.00  0.00     0.261 C 
BRANCH   2   3
ATOM      3  O   UNL     1       2.860   0.057   0.488  1.00  0.00    -0.461 OA
BRANCH   3   4
ATOM      4  C   UNL     1       2.092   0.221  -0.615  1.00  0.00     0.344 C 
ATOM      5  O   UNL     1       0.895  -0.066  -0.568  1.00  0.00    -0.248 OA
BRANCH   4   6
ATOM      6  C   UNL     1       2.722   0.755  -1.905  1.00  0.00     0.351 C 
BRANCH   6   7
ATOM      7  O   UNL     1       3.508   1.935  -1.886  1.00  0.00    -0.482 OA
BRANCH   7   8
ATOM      8  C   UNL     1       2.833   3.094  -1.636  1.00  0.00     0.120 A 
ATOM      9  C   UNL     1       3.399   4.263  -2.141  1.00  0.00     0.047 A 
ATOM     10  C   UNL     1       1.677   3.181  -0.876  1.00  0.00     0.047 A 
ATOM     11  C   UNL     1       2.838   5.510  -1.833  1.00  0.00     0.013 A 
ATOM     12  C   UNL     1       1.091   4.408  -0.617  1.00  0.00     0.013 A 
ATOM     13  C   UNL     1       1.699   5.597  -1.019  1.00  0.00    -0.011 A 
BRANCH  13  14
ATOM     14  C   UNL     1       1.305   6.914  -0.432  1.00  0.00     0.068 A 
ATOM     15  C   UNL     1       0.075   7.184   0.070  1.00  0.00     0.028 A 
ATOM     16  C   UNL     1       2.317   7.396   0.578  1.00  0.00     0.344 A 
ATOM     17  C   UNL     1      -0.191   6.442   1.327  1.00  0.00     0.019 A 
ATOM     18  O   UNL     1       2.155   6.813   1.847  1.00  0.00    -0.422 OA
ATOM     19  O   UNL     1       3.247   8.137   0.289  1.00  0.00    -0.246 OA
ATOM     20  C   UNL     1      -1.418   5.846   1.612  1.00  0.00     0.027 A 
ATOM     21  C   UNL     1       0.919   6.191   2.148  1.00  0.00     0.138 A 
ATOM     22  C   UNL     1      -1.494   4.951   2.683  1.00  0.00     0.018 A 
ATOM     23  C   UNL     1       0.849   5.297   3.209  1.00  0.00     0.049 A 
ATOM     24  Br  UNL     1      -3.128   4.067   3.040  1.00  0.00    -0.051 Br
ATOM     25  C   UNL     1      -0.368   4.660   3.465  1.00  0.00     0.019 A 
ENDBRANCH  13  14
ENDBRANCH   7   8
ENDBRANCH   6   7
ENDBRANCH   4   6
ENDBRANCH   3   4
ENDBRANCH   2   3
ENDBRANCH   1   2
BRANCH   1  26
ATOM     26  O   UNL     1       4.424  -1.901  -1.080  1.00  0.00    -0.374 OA
BRANCH  26  27
ATOM     27  C   UNL     1       3.227  -2.672  -0.930  1.00  0.00     0.202 C 
BRANCH  27  28
ATOM     28  C   UNL     1       3.275  -3.973  -0.129  1.00  0.00     0.261 C 
BRANCH  28  29
ATOM     29  O   UNL     1       3.538  -3.740   1.262  1.00  0.00    -0.460 OA
BRANCH  29  30
ATOM     30  C   UNL     1       4.767  -4.120   1.667  1.00  0.00     0.338 C 
ATOM     31  O   UNL     1       5.637  -4.664   0.994  1.00  0.00    -0.246 OA
BRANCH  30  32
ATOM     32  C   UNL     1       5.025  -3.622   3.025  1.00  0.00     0.060 A 
ATOM     33  C   UNL     1       6.245  -2.970   3.251  1.00  0.00     0.016 A 
ATOM     34  C   UNL     1       4.138  -3.872   4.074  1.00  0.00     0.016 A 
ATOM     35  C   UNL     1       6.624  -2.640   4.545  1.00  0.00     0.010 A 
ATOM     36  C   UNL     1       4.524  -3.551   5.375  1.00  0.00     0.010 A 
ATOM     37  C   UNL     1       5.789  -2.986   5.615  1.00  0.00    -0.014 A 
BRANCH  37  38
ATOM     38  C   UNL     1       6.333  -2.949   6.988  1.00  0.00     0.031 A 
ATOM     39  C   UNL     1       6.880  -4.221   7.571  1.00  0.00     0.074 A 
ATOM     40  C   UNL     1       6.364  -1.800   7.681  1.00  0.00     0.049 A 
ATOM     41  N   UNL     1       7.366  -4.449   8.763  1.00  0.00    -0.248 NA
ATOM     42  C   UNL     1       6.875  -5.400   6.688  1.00  0.00     0.031 C 
ATOM     43  C   UNL     1       5.900  -0.505   7.187  1.00  0.00     0.029 A 
ATOM     44  N   UNL     1       6.800  -1.543   8.954  1.00  0.00    -0.354 N 
ATOM     45  C   UNL     1       7.715  -5.793   8.776  1.00  0.00     0.074 A 
ATOM     46  C   UNL     1       7.362  -6.339   7.485  1.00  0.00     0.031 C 
ATOM     47  C   UNL     1       6.062   0.411   8.156  1.00  0.00     0.029 A 
ATOM     48  C   UNL     1       6.611  -0.241   9.343  1.00  0.00     0.049 A 
ATOM     49  H   UNL     1       7.208  -2.226   9.533  1.00  0.00     0.167 HD
ATOM     50  C   UNL     1       8.287  -6.503   9.776  1.00  0.00     0.037 A 
ATOM     51  C   UNL     1       6.837   0.343  10.534  1.00  0.00     0.037 A 
ATOM     52  C   UNL     1       8.634  -5.945  11.056  1.00  0.00     0.049 A 
ATOM     53  C   UNL     1       7.416  -0.483  11.653  1.00  0.00     0.074 A 
ATOM     54  C   UNL     1       9.229  -6.567  12.138  1.00  0.00     0.029 A 
ATOM     55  N   UNL     1       8.407  -4.626  11.424  1.00  0.00    -0.354 N 
ATOM     56  N   UNL     1       7.762  -1.749  11.655  1.00  0.00    -0.248 NA
ATOM     57  C   UNL     1       7.641   0.201  12.933  1.00  0.00     0.031 C 
ATOM     58  C   UNL     1       9.320  -5.636  13.178  1.00  0.00     0.029 A 
ATOM     59  C   UNL     1       8.829  -4.420  12.726  1.00  0.00     0.049 A 
ATOM     60  H   UNL     1       8.005  -3.939  10.845  1.00  0.00     0.167 HD
ATOM     61  C   UNL     1       8.268  -2.006  12.921  1.00  0.00     0.074 A 
ATOM     62  C   UNL     1       8.195  -0.761  13.658  1.00  0.00     0.031 C 
ATOM     63  C   UNL     1       8.750  -3.167  13.432  1.00  0.00     0.037 A 
BRANCH  50  64
ATOM     64  C   UNL     1       8.543  -7.961   9.534  1.00  0.00     0.064 A 
ATOM     65  C   UNL     1       9.547  -8.399   8.657  1.00  0.00     0.173 A 
ATOM     66  C   UNL     1       7.786  -8.934  10.203  1.00  0.00     0.173 A 
ATOM     67  F   UNL     1      10.287  -7.509   7.979  1.00  0.00    -0.203 F 
ATOM     68  C   UNL     1       9.768  -9.758   8.442  1.00  0.00     0.198 A 
ATOM     69  C   UNL     1       8.027 -10.291  10.006  1.00  0.00     0.198 A 
ATOM     70  F   UNL     1       6.812  -8.569  11.050  1.00  0.00    -0.203 F 
ATOM     71  F   UNL     1      10.701 -10.153   7.565  1.00  0.00    -0.200 F 
ATOM     72  C   UNL     1       9.013 -10.702   9.121  1.00  0.00     0.200 A 
ATOM     73  F   UNL     1       7.302 -11.203  10.670  1.00  0.00    -0.200 F 
ATOM     74  F   UNL     1       9.229 -12.009   8.917  1.00  0.00    -0.200 F 
ENDBRANCH  50  64
BRANCH  51  75
ATOM     75  C   UNL     1       6.506   1.777  10.730  1.00  0.00     0.064 A 
ATOM     76  C   UNL     1       7.513   2.735  10.906  1.00  0.00     0.173 A 
ATOM     77  C   UNL     1       5.174   2.220  10.745  1.00  0.00     0.173 A 
ATOM     78  F   UNL     1       8.800   2.358  10.921  1.00  0.00    -0.203 F 
ATOM     79  C   UNL     1       7.201   4.079  11.106  1.00  0.00     0.198 A 
ATOM     80  C   UNL     1       4.865   3.567  10.917  1.00  0.00     0.198 A 
ATOM     81  F   UNL     1       4.173   1.343  10.579  1.00  0.00    -0.203 F 
ATOM     82  F   UNL     1       8.182   4.968  11.313  1.00  0.00    -0.200 F 
ATOM     83  C   UNL     1       5.878   4.494  11.105  1.00  0.00     0.200 A 
ATOM     84  F   UNL     1       3.585   3.965  10.902  1.00  0.00    -0.200 F 
ATOM     85  F   UNL     1       5.579   5.787  11.291  1.00  0.00    -0.200 F 
ENDBRANCH  51  75
BRANCH  63  86
ATOM     86  C   UNL     1       9.267  -3.132  14.840  1.00  0.00     0.064 A 
ATOM     87  C   UNL     1       8.402  -3.038  15.939  1.00  0.00     0.173 A 
ATOM     88  C   UNL     1      10.643  -3.240  15.092  1.00  0.00     0.173 A 
ATOM     89  F   UNL     1       7.079  -2.919  15.749  1.00  0.00    -0.203 F 
ATOM     90  C   UNL     1       8.898  -3.028  17.240  1.00  0.00     0.198 A 
ATOM     91  C   UNL     1      11.133  -3.260  16.394  1.00  0.00     0.198 A 
ATOM     92  F   UNL     1      11.511  -3.341  14.074  1.00  0.00    -0.203 F 
ATOM     93  F   UNL     1       8.057  -2.891  18.274  1.00  0.00    -0.200 F 
ATOM     94  C   UNL     1      10.261  -3.146  17.466  1.00  0.00     0.200 A 
ATOM     95  F   UNL     1      12.449  -3.388  16.611  1.00  0.00    -0.200 F 
ATOM     96  F   UNL     1      10.736  -3.144  18.719  1.00  0.00    -0.200 F 
ENDBRANCH  63  86
ENDBRANCH  37  38
ENDBRANCH  30  32
ENDBRANCH  29  30
ENDBRANCH  28  29
ENDBRANCH  27  28
ENDBRANCH  26  27
ENDBRANCH   1  26
TORSDOF 17
