REMARK SMILES Nc1c(CC(=O)OCCOCCOC(=O)c2ccc(-c3c4nc(c(-c5c(F)c(F)c(F)c(F)c5F)c5ccc([nH]5)c(-c5c(F)c(F)c(F)c(F)c5F)c5nc(c(-c6c(F)c(F)c(F)c(F)c6F)c6ccc3[nH]6)C=C5)C=C4)cc2)cccc1C(=O)c1ccc(Br)cc1
REMARK SMILES IDX 9 1 8 2 7 3 5 4 6 5 4 6 3 7 2 8 82 9 79 10 81 11 80 12 1 13
REMARK SMILES IDX 83 16 84 17 85 18 86 19 91 20 87 21 90 22 88 23 89 24 10 25
REMARK SMILES IDX 11 26 12 27 13 28 14 29 15 30 16 31 17 32 78 33 18 34 77 35
REMARK SMILES IDX 19 36 20 37 21 38 71 39 22 40 76 41 70 42 72 43 23 44 75 45
REMARK SMILES IDX 69 46 68 47 24 49 56 50 36 51 55 52 37 53 40 54 54 55 73 56
REMARK SMILES IDX 38 57 39 58 53 60 74 61 41 62 25 63 26 64 34 65 27 66 28 67
REMARK SMILES IDX 32 68 35 69 29 70 30 71 33 72 31 73 57 74 58 75 66 76 59 77
REMARK SMILES IDX 60 78 64 79 67 80 61 81 62 82 65 83 63 84 42 85 43 86 51 87
REMARK SMILES IDX 44 88 45 89 49 90 52 91 46 92 47 93 50 94 48 95
REMARK H PARENT 1 14 1 15 72 48 40 59
REMARK Flexibility Score: inf
ROOT
ATOM      1  C   UNL     1      -0.341  -4.239   3.511  1.00  0.00     0.202 C 
ENDROOT
BRANCH   1   2
ATOM      2  C   UNL     1       1.054  -4.020   2.920  1.00  0.00     0.261 C 
BRANCH   2   3
ATOM      3  O   UNL     1       1.002  -3.068   1.843  1.00  0.00    -0.463 OA
BRANCH   3   4
ATOM      4  C   UNL     1       1.738  -3.382   0.749  1.00  0.00     0.310 C 
ATOM      5  O   UNL     1       2.585  -4.269   0.715  1.00  0.00    -0.252 OA
BRANCH   4   6
ATOM      6  C   UNL     1       1.351  -2.606  -0.488  1.00  0.00     0.160 C 
BRANCH   6   7
ATOM      7  C   UNL     1       0.618  -1.289  -0.311  1.00  0.00    -0.013 A 
ATOM      8  C   UNL     1       1.271  -0.127   0.156  1.00  0.00     0.047 A 
ATOM      9  C   UNL     1       0.573   1.106   0.073  1.00  0.00     0.046 A 
ATOM     10  C   UNL     1      -0.739  -1.227  -0.689  1.00  0.00     0.006 A 
ATOM     11  C   UNL     1      -0.786   1.136  -0.282  1.00  0.00     0.014 A 
ATOM     12  C   UNL     1      -1.446  -0.031  -0.642  1.00  0.00     0.001 A 
BRANCH   8  13
ATOM     13  N   UNL     1       2.598  -0.209   0.575  1.00  0.00    -0.398 N 
ATOM     14  H   UNL     1       3.047  -1.085   0.619  1.00  0.00     0.156 HD
ATOM     15  H   UNL     1       3.086   0.607   0.828  1.00  0.00     0.156 HD
ENDBRANCH   8  13
BRANCH   9  16
ATOM     16  C   UNL     1       1.190   2.439   0.340  1.00  0.00     0.195 C 
ATOM     17  O   UNL     1       0.521   3.331   0.857  1.00  0.00    -0.289 OA
BRANCH  16  18
ATOM     18  C   UNL     1       2.606   2.722   0.001  1.00  0.00     0.023 A 
ATOM     19  C   UNL     1       3.377   3.419   0.938  1.00  0.00     0.013 A 
ATOM     20  C   UNL     1       3.192   2.246  -1.179  1.00  0.00     0.013 A 
ATOM     21  C   UNL     1       4.749   3.572   0.733  1.00  0.00     0.016 A 
ATOM     22  C   UNL     1       4.565   2.400  -1.381  1.00  0.00     0.016 A 
ATOM     23  C   UNL     1       5.339   3.047  -0.417  1.00  0.00     0.018 A 
ATOM     24  Br  UNL     1       7.208   3.187  -0.656  1.00  0.00    -0.051 Br
ENDBRANCH  16  18
ENDBRANCH   9  16
ENDBRANCH   6   7
ENDBRANCH   4   6
ENDBRANCH   3   4
ENDBRANCH   2   3
ENDBRANCH   1   2
BRANCH   1  25
ATOM     25  O   UNL     1      -1.308  -4.805   2.623  1.00  0.00    -0.374 OA
BRANCH  25  26
ATOM     26  C   UNL     1      -1.835  -3.956   1.603  1.00  0.00     0.202 C 
BRANCH  26  27
ATOM     27  C   UNL     1      -2.886  -2.932   2.046  1.00  0.00     0.261 C 
BRANCH  27  28
ATOM     28  O   UNL     1      -2.372  -2.003   3.016  1.00  0.00    -0.460 OA
BRANCH  28  29
ATOM     29  C   UNL     1      -2.980  -2.068   4.222  1.00  0.00     0.338 C 
ATOM     30  O   UNL     1      -3.972  -2.726   4.515  1.00  0.00    -0.246 OA
BRANCH  29  31
ATOM     31  C   UNL     1      -2.206  -1.351   5.251  1.00  0.00     0.060 A 
ATOM     32  C   UNL     1      -1.955  -2.044   6.442  1.00  0.00     0.016 A 
ATOM     33  C   UNL     1      -1.841  -0.009   5.121  1.00  0.00     0.016 A 
ATOM     34  C   UNL     1      -1.424  -1.374   7.539  1.00  0.00     0.010 A 
ATOM     35  C   UNL     1      -1.307   0.665   6.229  1.00  0.00     0.010 A 
ATOM     36  C   UNL     1      -1.151  -0.002   7.458  1.00  0.00    -0.014 A 
BRANCH  36  37
ATOM     37  C   UNL     1      -0.889   0.734   8.721  1.00  0.00     0.031 A 
ATOM     38  C   UNL     1      -2.025   1.462   9.389  1.00  0.00     0.074 A 
ATOM     39  C   UNL     1       0.311   0.662   9.324  1.00  0.00     0.049 A 
ATOM     40  N   UNL     1      -2.058   2.068  10.550  1.00  0.00    -0.248 NA
ATOM     41  C   UNL     1      -3.298   1.508   8.652  1.00  0.00     0.031 C 
ATOM     42  C   UNL     1       1.479  -0.038   8.795  1.00  0.00     0.029 A 
ATOM     43  N   UNL     1       0.736   1.170  10.526  1.00  0.00    -0.354 N 
ATOM     44  C   UNL     1      -3.351   2.558  10.683  1.00  0.00     0.074 A 
ATOM     45  C   UNL     1      -4.062   2.216   9.471  1.00  0.00     0.031 C 
ATOM     46  C   UNL     1       2.489   0.076   9.674  1.00  0.00     0.029 A 
ATOM     47  C   UNL     1       2.042   0.869  10.819  1.00  0.00     0.049 A 
ATOM     48  H   UNL     1       0.159   1.701  11.121  1.00  0.00     0.167 HD
ATOM     49  C   UNL     1      -3.903   3.218  11.729  1.00  0.00     0.037 A 
ATOM     50  C   UNL     1       2.790   1.194  11.891  1.00  0.00     0.037 A 
ATOM     51  C   UNL     1      -3.200   3.557  12.938  1.00  0.00     0.049 A 
ATOM     52  C   UNL     1       2.166   1.972  13.021  1.00  0.00     0.074 A 
ATOM     53  C   UNL     1      -3.677   4.210  14.062  1.00  0.00     0.029 A 
ATOM     54  N   UNL     1      -1.864   3.275  13.177  1.00  0.00    -0.354 N 
ATOM     55  N   UNL     1       0.932   2.394  13.155  1.00  0.00    -0.248 NA
ATOM     56  C   UNL     1       3.039   2.305  14.155  1.00  0.00     0.031 C 
ATOM     57  C   UNL     1      -2.617   4.362  14.963  1.00  0.00     0.029 A 
ATOM     58  C   UNL     1      -1.492   3.762  14.420  1.00  0.00     0.049 A 
ATOM     59  H   UNL     1      -1.267   2.799  12.555  1.00  0.00     0.167 HD
ATOM     60  C   UNL     1       0.875   3.023  14.392  1.00  0.00     0.074 A 
ATOM     61  C   UNL     1       2.194   2.908  14.979  1.00  0.00     0.031 C 
ATOM     62  C   UNL     1      -0.174   3.640  14.989  1.00  0.00     0.037 A 
BRANCH  49  63
ATOM     63  C   UNL     1      -5.340   3.633  11.603  1.00  0.00     0.064 A 
ATOM     64  C   UNL     1      -6.384   2.699  11.668  1.00  0.00     0.173 A 
ATOM     65  C   UNL     1      -5.677   4.985  11.443  1.00  0.00     0.173 A 
ATOM     66  F   UNL     1      -6.113   1.392  11.806  1.00  0.00    -0.203 F 
ATOM     67  C   UNL     1      -7.713   3.100  11.553  1.00  0.00     0.198 A 
ATOM     68  C   UNL     1      -7.008   5.386  11.355  1.00  0.00     0.198 A 
ATOM     69  F   UNL     1      -4.716   5.919  11.380  1.00  0.00    -0.203 F 
ATOM     70  F   UNL     1      -8.693   2.186  11.574  1.00  0.00    -0.200 F 
ATOM     71  C   UNL     1      -8.024   4.444  11.402  1.00  0.00     0.200 A 
ATOM     72  F   UNL     1      -7.307   6.686  11.220  1.00  0.00    -0.200 F 
ATOM     73  F   UNL     1      -9.303   4.829  11.297  1.00  0.00    -0.200 F 
ENDBRANCH  49  63
BRANCH  50  74
ATOM     74  C   UNL     1       4.215   0.778  11.954  1.00  0.00     0.064 A 
ATOM     75  C   UNL     1       4.650  -0.188  12.872  1.00  0.00     0.173 A 
ATOM     76  C   UNL     1       5.173   1.352  11.106  1.00  0.00     0.173 A 
ATOM     77  F   UNL     1       3.776  -0.747  13.721  1.00  0.00    -0.203 F 
ATOM     78  C   UNL     1       5.994  -0.551  12.950  1.00  0.00     0.198 A 
ATOM     79  C   UNL     1       6.511   0.969  11.168  1.00  0.00     0.198 A 
ATOM     80  F   UNL     1       4.808   2.283  10.212  1.00  0.00    -0.203 F 
ATOM     81  F   UNL     1       6.391  -1.444  13.867  1.00  0.00    -0.200 F 
ATOM     82  C   UNL     1       6.922   0.023  12.095  1.00  0.00     0.200 A 
ATOM     83  F   UNL     1       7.402   1.519  10.332  1.00  0.00    -0.200 F 
ATOM     84  F   UNL     1       8.212  -0.329  12.169  1.00  0.00    -0.200 F 
ENDBRANCH  50  74
BRANCH  62  85
ATOM     85  C   UNL     1       0.057   4.222  16.354  1.00  0.00     0.064 A 
ATOM     86  C   UNL     1       0.830   5.377  16.538  1.00  0.00     0.173 A 
ATOM     87  C   UNL     1      -0.524   3.632  17.487  1.00  0.00     0.173 A 
ATOM     88  F   UNL     1       1.418   5.970  15.488  1.00  0.00    -0.203 F 
ATOM     89  C   UNL     1       1.039   5.904  17.810  1.00  0.00     0.198 A 
ATOM     90  C   UNL     1      -0.336   4.177  18.754  1.00  0.00     0.198 A 
ATOM     91  F   UNL     1      -1.278   2.530  17.364  1.00  0.00    -0.203 F 
ATOM     92  F   UNL     1       1.823   6.979  17.968  1.00  0.00    -0.200 F 
ATOM     93  C   UNL     1       0.451   5.307  18.915  1.00  0.00     0.200 A 
ATOM     94  F   UNL     1      -0.915   3.606  19.820  1.00  0.00    -0.200 F 
ATOM     95  F   UNL     1       0.652   5.815  20.139  1.00  0.00    -0.200 F 
ENDBRANCH  62  85
ENDBRANCH  36  37
ENDBRANCH  29  31
ENDBRANCH  28  29
ENDBRANCH  27  28
ENDBRANCH  26  27
ENDBRANCH  25  26
ENDBRANCH   1  25
TORSDOF 18
