REMARK SMILES O=C(OCCOCCOC(=O)c1nccnc1C(=O)Nc1ccc(-n2cncn2)c(Cl)c1)c1ccc(-c2c3nc(c(-c4c(F)c(F)c(F)c(F)c4F)c4ccc([nH]4)c(-c4c(F)c(F)c(F)c(F)c4F)c4nc(c(-c5c(F)c(F)c(F)c(F)c5F)c5ccc2[nH]5)C=C4)C=C3)cc1
REMARK SMILES IDX 7 1 6 2 5 3 4 4 3 5 2 6 1 7 33 8 34 9 95 10 35 11 94 12
REMARK SMILES IDX 36 13 37 14 38 15 88 16 39 17 93 18 87 19 89 20 40 21 92 22
REMARK SMILES IDX 86 23 85 24 41 26 73 27 53 28 72 29 54 30 57 31 71 32 90 33
REMARK SMILES IDX 55 34 56 35 70 37 91 38 58 39 42 40 43 41 51 42 44 43 45 44
REMARK SMILES IDX 49 45 52 46 46 47 47 48 50 49 48 50 74 51 75 52 83 53 76 54
REMARK SMILES IDX 77 55 81 56 84 57 78 58 79 59 82 60 80 61 59 62 60 63 68 64
REMARK SMILES IDX 61 65 62 66 66 67 69 68 63 69 64 70 67 71 65 72 8 73 9 74
REMARK SMILES IDX 10 75 11 76 12 77 13 78 17 79 14 80 16 81 15 82 18 83 19 84
REMARK SMILES IDX 20 85 21 87 22 88 32 89 23 90 30 91 24 92 31 93 25 94 26 95
REMARK SMILES IDX 29 96 27 97 28 98
REMARK H PARENT 89 25 57 36 20 86
REMARK Flexibility Score: inf
ROOT
ATOM      1  C   UNL     1       2.545  -0.997  -1.088  1.00  0.00     0.202 C 
ENDROOT
BRANCH   1   2
ATOM      2  O   UNL     1       3.516  -0.040  -0.654  1.00  0.00    -0.374 OA
BRANCH   2   3
ATOM      3  C   UNL     1       4.464  -0.355   0.347  1.00  0.00     0.202 C 
BRANCH   3   4
ATOM      4  C   UNL     1       4.073   0.015   1.782  1.00  0.00     0.261 C 
BRANCH   4   5
ATOM      5  O   UNL     1       2.680  -0.163   2.061  1.00  0.00    -0.460 OA
BRANCH   5   6
ATOM      6  C   UNL     1       1.648   0.465   1.454  1.00  0.00     0.338 C 
ATOM      7  O   UNL     1       0.529  -0.043   1.534  1.00  0.00    -0.246 OA
BRANCH   6   8
ATOM      8  C   UNL     1       1.767   1.782   0.759  1.00  0.00     0.060 A 
ATOM      9  C   UNL     1       2.942   2.518   0.569  1.00  0.00     0.016 A 
ATOM     10  C   UNL     1       0.548   2.340   0.335  1.00  0.00     0.016 A 
ATOM     11  C   UNL     1       2.888   3.846   0.228  1.00  0.00     0.010 A 
ATOM     12  C   UNL     1       0.481   3.666  -0.033  1.00  0.00     0.010 A 
ATOM     13  C   UNL     1       1.643   4.421   0.037  1.00  0.00    -0.014 A 
BRANCH  13  14
ATOM     14  C   UNL     1       1.609   5.861  -0.025  1.00  0.00     0.031 A 
ATOM     15  C   UNL     1       2.172   6.431  -1.266  1.00  0.00     0.074 A 
ATOM     16  C   UNL     1       1.081   6.546   1.004  1.00  0.00     0.049 A 
ATOM     17  N   UNL     1       3.204   7.198  -1.392  1.00  0.00    -0.248 NA
ATOM     18  C   UNL     1       1.607   5.960  -2.539  1.00  0.00     0.031 C 
ATOM     19  C   UNL     1       0.327   6.020   2.147  1.00  0.00     0.029 A 
ATOM     20  N   UNL     1       1.012   7.888   1.186  1.00  0.00    -0.354 N 
ATOM     21  C   UNL     1       3.298   7.468  -2.753  1.00  0.00     0.074 A 
ATOM     22  C   UNL     1       2.414   6.550  -3.420  1.00  0.00     0.031 C 
ATOM     23  C   UNL     1      -0.330   7.034   2.749  1.00  0.00     0.029 A 
ATOM     24  C   UNL     1       0.059   8.279   2.114  1.00  0.00     0.049 A 
ATOM     25  H   UNL     1       1.587   8.525   0.704  1.00  0.00     0.167 HD
ATOM     26  C   UNL     1       3.892   8.607  -3.201  1.00  0.00     0.037 A 
ATOM     27  C   UNL     1      -0.445   9.531   2.230  1.00  0.00     0.037 A 
ATOM     28  C   UNL     1       4.769   9.169  -2.209  1.00  0.00     0.049 A 
ATOM     29  C   UNL     1       0.511  10.455   1.559  1.00  0.00     0.074 A 
ATOM     30  C   UNL     1       5.910   8.727  -1.569  1.00  0.00     0.029 A 
ATOM     31  N   UNL     1       4.310  10.231  -1.468  1.00  0.00    -0.354 N 
ATOM     32  N   UNL     1       1.708  10.712   2.014  1.00  0.00    -0.248 NA
ATOM     33  C   UNL     1       0.320  10.711   0.137  1.00  0.00     0.031 C 
ATOM     34  C   UNL     1       5.808   9.229  -0.239  1.00  0.00     0.029 A 
ATOM     35  C   UNL     1       4.644   9.994  -0.160  1.00  0.00     0.049 A 
ATOM     36  H   UNL     1       3.830  11.017  -1.813  1.00  0.00     0.167 HD
ATOM     37  C   UNL     1       2.517  10.752   0.886  1.00  0.00     0.074 A 
ATOM     38  C   UNL     1       1.596  10.823  -0.244  1.00  0.00     0.031 C 
ATOM     39  C   UNL     1       3.841  10.426   0.959  1.00  0.00     0.037 A 
BRANCH  26  40
ATOM     40  C   UNL     1       3.372   9.404  -4.369  1.00  0.00     0.064 A 
ATOM     41  C   UNL     1       4.135  10.479  -4.859  1.00  0.00     0.173 A 
ATOM     42  C   UNL     1       2.033   9.349  -4.819  1.00  0.00     0.173 A 
ATOM     43  F   UNL     1       5.410  10.642  -4.476  1.00  0.00    -0.203 F 
ATOM     44  C   UNL     1       3.575  11.466  -5.675  1.00  0.00     0.198 A 
ATOM     45  C   UNL     1       1.495  10.303  -5.678  1.00  0.00     0.198 A 
ATOM     46  F   UNL     1       1.158   8.448  -4.357  1.00  0.00    -0.203 F 
ATOM     47  F   UNL     1       4.301  12.541  -6.010  1.00  0.00    -0.200 F 
ATOM     48  C   UNL     1       2.255  11.379  -6.079  1.00  0.00     0.200 A 
ATOM     49  F   UNL     1       0.208  10.210  -6.040  1.00  0.00    -0.200 F 
ATOM     50  F   UNL     1       1.699  12.356  -6.807  1.00  0.00    -0.200 F 
ENDBRANCH  26  40
BRANCH  27  51
ATOM     51  C   UNL     1      -1.847   9.901   2.536  1.00  0.00     0.064 A 
ATOM     52  C   UNL     1      -2.181  11.212   2.908  1.00  0.00     0.173 A 
ATOM     53  C   UNL     1      -2.926   9.047   2.225  1.00  0.00     0.173 A 
ATOM     54  F   UNL     1      -1.214  12.103   3.172  1.00  0.00    -0.203 F 
ATOM     55  C   UNL     1      -3.510  11.647   2.948  1.00  0.00     0.198 A 
ATOM     56  C   UNL     1      -4.251   9.477   2.278  1.00  0.00     0.198 A 
ATOM     57  F   UNL     1      -2.716   7.803   1.772  1.00  0.00    -0.203 F 
ATOM     58  F   UNL     1      -3.786  12.923   3.250  1.00  0.00    -0.200 F 
ATOM     59  C   UNL     1      -4.543  10.781   2.627  1.00  0.00     0.200 A 
ATOM     60  F   UNL     1      -5.237   8.638   1.929  1.00  0.00    -0.200 F 
ATOM     61  F   UNL     1      -5.812  11.213   2.612  1.00  0.00    -0.200 F 
ENDBRANCH  27  51
BRANCH  39  62
ATOM     62  C   UNL     1       4.447  10.267   2.324  1.00  0.00     0.064 A 
ATOM     63  C   UNL     1       4.059   9.273   3.241  1.00  0.00     0.173 A 
ATOM     64  C   UNL     1       5.561  11.048   2.654  1.00  0.00     0.173 A 
ATOM     65  F   UNL     1       3.074   8.415   2.949  1.00  0.00    -0.203 F 
ATOM     66  C   UNL     1       4.729   9.106   4.451  1.00  0.00     0.198 A 
ATOM     67  C   UNL     1       6.252  10.854   3.846  1.00  0.00     0.198 A 
ATOM     68  F   UNL     1       6.014  11.969   1.789  1.00  0.00    -0.203 F 
ATOM     69  F   UNL     1       4.334   8.157   5.314  1.00  0.00    -0.200 F 
ATOM     70  C   UNL     1       5.830   9.892   4.749  1.00  0.00     0.200 A 
ATOM     71  F   UNL     1       7.349  11.579   4.105  1.00  0.00    -0.200 F 
ATOM     72  F   UNL     1       6.503   9.702   5.893  1.00  0.00    -0.200 F 
ENDBRANCH  39  62
ENDBRANCH  13  14
ENDBRANCH   6   8
ENDBRANCH   5   6
ENDBRANCH   4   5
ENDBRANCH   3   4
ENDBRANCH   2   3
ENDBRANCH   1   2
BRANCH   1  73
ATOM     73  C   UNL     1       2.171  -2.274  -0.308  1.00  0.00     0.261 C 
BRANCH  73  74
ATOM     74  O   UNL     1       3.225  -2.792   0.517  1.00  0.00    -0.458 OA
BRANCH  74  75
ATOM     75  C   UNL     1       3.377  -4.120   0.536  1.00  0.00     0.359 C 
ATOM     76  O   UNL     1       2.703  -4.933  -0.110  1.00  0.00    -0.244 OA
BRANCH  75  77
ATOM     77  C   UNL     1       4.431  -4.551   1.480  1.00  0.00     0.179 A 
ATOM     78  N   UNL     1       3.969  -5.561   2.296  1.00  0.00    -0.245 NA
ATOM     79  C   UNL     1       5.744  -4.090   1.568  1.00  0.00     0.161 A 
ATOM     80  C   UNL     1       4.810  -6.037   3.232  1.00  0.00     0.132 A 
ATOM     81  N   UNL     1       6.581  -4.618   2.527  1.00  0.00    -0.247 NA
ATOM     82  C   UNL     1       6.093  -5.564   3.354  1.00  0.00     0.132 A 
BRANCH  79  83
ATOM     83  C   UNL     1       6.445  -2.953   0.899  1.00  0.00     0.276 C 
ATOM     84  O   UNL     1       6.989  -2.130   1.656  1.00  0.00    -0.267 OA
ATOM     85  N   UNL     1       6.612  -2.655  -0.438  1.00  0.00    -0.321 N 
ATOM     86  H   UNL     1       7.367  -2.041  -0.590  1.00  0.00     0.170 HD
BRANCH  85  87
ATOM     87  C   UNL     1       5.976  -3.009  -1.630  1.00  0.00     0.043 A 
ATOM     88  C   UNL     1       5.225  -4.155  -1.796  1.00  0.00     0.028 A 
ATOM     89  C   UNL     1       6.005  -2.050  -2.661  1.00  0.00     0.049 A 
ATOM     90  C   UNL     1       4.326  -4.244  -2.859  1.00  0.00     0.032 A 
ATOM     91  C   UNL     1       5.118  -2.134  -3.741  1.00  0.00     0.068 A 
ATOM     92  C   UNL     1       4.234  -3.208  -3.801  1.00  0.00     0.085 A 
ATOM     93  Cl  UNL     1       5.206  -0.921  -4.965  1.00  0.00    -0.082 Cl
BRANCH  92  94
ATOM     94  N   UNL     1       3.133  -3.231  -4.677  1.00  0.00    -0.220 N 
ATOM     95  C   UNL     1       2.614  -4.335  -5.306  1.00  0.00     0.226 A 
ATOM     96  N   UNL     1       2.193  -2.254  -4.635  1.00  0.00    -0.155 NA
ATOM     97  N   UNL     1       1.355  -4.138  -5.616  1.00  0.00    -0.223 NA
ATOM     98  C   UNL     1       1.132  -2.873  -5.159  1.00  0.00     0.246 A 
ENDBRANCH  92  94
ENDBRANCH  85  87
ENDBRANCH  79  83
ENDBRANCH  75  77
ENDBRANCH  74  75
ENDBRANCH  73  74
ENDBRANCH   1  73
TORSDOF 17
