REMARK SMILES Cc1nsc(NC(=O)CC[C@H](C)CC[NH3+])c1C(=O)OCCOCCOC(=O)c1ccc(-c2c3nc(c(-c4c(F)c(F)c(F)c(F)c4F)c4ccc([nH]4)c(-c4c(F)c(F)c(F)c(F)c4F)c4nc(c(-c5c(F)c(F)c(F)c(F)c5F)c5ccc2[nH]5)C=C4)C=C3)cc1
REMARK SMILES IDX 20 1 19 2 17 3 18 4 16 5 1 6 2 7 3 8 4 9 5 10 6 11 7 12 8 14
REMARK SMILES IDX 9 15 10 16 11 17 12 18 13 19 14 20 15 21 21 25 22 26 23 27
REMARK SMILES IDX 24 28 25 29 26 30 27 31 28 32 29 33 90 34 30 35 89 36 31 37
REMARK SMILES IDX 32 38 33 39 83 40 34 41 88 42 82 43 84 44 35 45 87 46 81 47
REMARK SMILES IDX 80 48 36 50 68 51 48 52 67 53 49 54 52 55 66 56 85 57 50 58
REMARK SMILES IDX 51 59 65 61 86 62 53 63 37 64 38 65 46 66 39 67 40 68 44 69
REMARK SMILES IDX 47 70 41 71 42 72 45 73 43 74 69 75 70 76 78 77 71 78 72 79
REMARK SMILES IDX 76 80 79 81 73 82 74 83 77 84 75 85 54 86 55 87 63 88 56 89
REMARK SMILES IDX 57 90 61 91 64 92 58 93 59 94 62 95 60 96
REMARK H PARENT 6 13 15 22 15 23 15 24 84 49 52 60
REMARK Flexibility Score: inf
ROOT
ATOM      1  C   UNL     1      -7.659   0.816   0.493  1.00  0.00     0.261 C 
ENDROOT
BRANCH   1   2
ATOM      2  O   UNL     1      -6.968   1.532   1.532  1.00  0.00    -0.460 OA
BRANCH   2   3
ATOM      3  C   UNL     1      -6.213   0.754   2.358  1.00  0.00     0.343 C 
ATOM      4  O   UNL     1      -6.097  -0.460   2.255  1.00  0.00    -0.246 OA
BRANCH   3   5
ATOM      5  C   UNL     1      -5.503   1.503   3.380  1.00  0.00     0.117 A 
ATOM      6  C   UNL     1      -6.474   3.938   3.122  1.00  0.00     0.069 C 
ATOM      7  C   UNL     1      -5.675   2.876   3.799  1.00  0.00     0.068 A 
ATOM      8  N   UNL     1      -5.000   3.231   4.895  1.00  0.00    -0.195 NA
ATOM      9  S   UNL     1      -4.083   1.947   5.384  1.00  0.00    -0.017 S 
ATOM     10  C   UNL     1      -4.368   1.004   4.011  1.00  0.00     0.130 A 
BRANCH  10  11
ATOM     11  N   UNL     1      -3.599  -0.079   3.627  1.00  0.00    -0.316 N 
ATOM     12  C   UNL     1      -2.242  -0.258   3.640  1.00  0.00     0.225 C 
ATOM     13  H   UNL     1      -4.112  -0.848   3.288  1.00  0.00     0.170 HD
ATOM     14  O   UNL     1      -1.807  -1.201   2.965  1.00  0.00    -0.275 OA
BRANCH  12  15
ATOM     15  C   UNL     1      -1.242   0.638   4.361  1.00  0.00     0.101 C 
BRANCH  15  16
ATOM     16  C   UNL     1      -0.327   1.492   3.457  1.00  0.00     0.013 C 
BRANCH  16  17
ATOM     17  C   UNL     1      -0.847   2.864   2.940  1.00  0.00    -0.008 C 
ATOM     18  C   UNL     1      -1.081   3.846   4.091  1.00  0.00     0.008 C 
BRANCH  17  19
ATOM     19  C   UNL     1      -2.026   2.683   1.968  1.00  0.00     0.064 C 
BRANCH  19  20
ATOM     20  C   UNL     1      -2.864   3.905   1.594  1.00  0.00     0.259 C 
BRANCH  20  21
ATOM     21  N   UNL     1      -2.172   4.790   0.673  1.00  0.00    -0.358 N 
ATOM     22  H   UNL     1      -1.320   5.139   1.113  1.00  0.00     0.344 HD
ATOM     23  H   UNL     1      -2.779   5.575   0.436  1.00  0.00     0.344 HD
ATOM     24  H   UNL     1      -1.931   4.278  -0.175  1.00  0.00     0.344 HD
ENDBRANCH  20  21
ENDBRANCH  19  20
ENDBRANCH  17  19
ENDBRANCH  16  17
ENDBRANCH  15  16
ENDBRANCH  12  15
ENDBRANCH  10  11
ENDBRANCH   3   5
ENDBRANCH   2   3
ENDBRANCH   1   2
BRANCH   1  25
ATOM     25  C   UNL     1      -6.846   0.743  -0.799  1.00  0.00     0.202 C 
BRANCH  25  26
ATOM     26  O   UNL     1      -5.640  -0.012  -0.711  1.00  0.00    -0.374 OA
BRANCH  26  27
ATOM     27  C   UNL     1      -4.449   0.689  -0.351  1.00  0.00     0.202 C 
BRANCH  27  28
ATOM     28  C   UNL     1      -3.797   1.475  -1.478  1.00  0.00     0.261 C 
BRANCH  28  29
ATOM     29  O   UNL     1      -4.502   2.695  -1.684  1.00  0.00    -0.460 OA
BRANCH  29  30
ATOM     30  C   UNL     1      -5.293   2.746  -2.779  1.00  0.00     0.338 C 
ATOM     31  O   UNL     1      -5.605   1.838  -3.514  1.00  0.00    -0.246 OA
BRANCH  30  32
ATOM     32  C   UNL     1      -5.656   4.155  -2.992  1.00  0.00     0.060 A 
ATOM     33  C   UNL     1      -6.376   4.448  -4.151  1.00  0.00     0.016 A 
ATOM     34  C   UNL     1      -5.104   5.165  -2.187  1.00  0.00     0.016 A 
ATOM     35  C   UNL     1      -6.357   5.742  -4.618  1.00  0.00     0.010 A 
ATOM     36  C   UNL     1      -5.083   6.456  -2.654  1.00  0.00     0.010 A 
ATOM     37  C   UNL     1      -5.632   6.706  -3.906  1.00  0.00    -0.014 A 
BRANCH  37  38
ATOM     38  C   UNL     1      -5.523   8.029  -4.478  1.00  0.00     0.031 A 
ATOM     39  C   UNL     1      -6.801   8.763  -4.441  1.00  0.00     0.074 A 
ATOM     40  C   UNL     1      -4.354   8.525  -4.923  1.00  0.00     0.049 A 
ATOM     41  N   UNL     1      -7.549   9.072  -5.446  1.00  0.00    -0.248 NA
ATOM     42  C   UNL     1      -7.415   9.021  -3.130  1.00  0.00     0.031 C 
ATOM     43  C   UNL     1      -3.016   7.944  -4.764  1.00  0.00     0.029 A 
ATOM     44  N   UNL     1      -4.104   9.710  -5.547  1.00  0.00    -0.354 N 
ATOM     45  C   UNL     1      -8.625   9.765  -4.905  1.00  0.00     0.074 A 
ATOM     46  C   UNL     1      -8.595   9.531  -3.486  1.00  0.00     0.031 C 
ATOM     47  C   UNL     1      -2.085   8.873  -5.077  1.00  0.00     0.029 A 
ATOM     48  C   UNL     1      -2.759  10.053  -5.592  1.00  0.00     0.049 A 
ATOM     49  H   UNL     1      -4.813  10.273  -5.933  1.00  0.00     0.167 HD
ATOM     50  C   UNL     1      -9.242  10.730  -5.636  1.00  0.00     0.037 A 
ATOM     51  C   UNL     1      -2.247  11.243  -5.987  1.00  0.00     0.037 A 
ATOM     52  C   UNL     1      -8.905  10.611  -7.031  1.00  0.00     0.049 A 
ATOM     53  C   UNL     1      -3.254  11.894  -6.854  1.00  0.00     0.074 A 
ATOM     54  C   UNL     1      -9.254   9.785  -8.076  1.00  0.00     0.029 A 
ATOM     55  N   UNL     1      -7.735  11.236  -7.374  1.00  0.00    -0.354 N 
ATOM     56  N   UNL     1      -3.591  11.429  -8.026  1.00  0.00    -0.248 NA
ATOM     57  C   UNL     1      -4.183  12.862  -6.279  1.00  0.00     0.031 C 
ATOM     58  C   UNL     1      -8.152   9.805  -8.983  1.00  0.00     0.029 A 
ATOM     59  C   UNL     1      -7.176  10.666  -8.485  1.00  0.00     0.049 A 
ATOM     60  H   UNL     1      -7.347  11.996  -6.885  1.00  0.00     0.167 HD
ATOM     61  C   UNL     1      -4.942  11.701  -8.128  1.00  0.00     0.074 A 
ATOM     62  C   UNL     1      -5.206  12.728  -7.129  1.00  0.00     0.031 C 
ATOM     63  C   UNL     1      -5.773  10.840  -8.782  1.00  0.00     0.037 A 
BRANCH  50  64
ATOM     64  C   UNL     1      -9.689  12.055  -5.061  1.00  0.00     0.064 A 
ATOM     65  C   UNL     1     -10.414  12.942  -5.882  1.00  0.00     0.173 A 
ATOM     66  C   UNL     1      -9.156  12.619  -3.880  1.00  0.00     0.173 A 
ATOM     67  F   UNL     1     -10.938  12.520  -7.043  1.00  0.00    -0.203 F 
ATOM     68  C   UNL     1     -10.534  14.300  -5.574  1.00  0.00     0.198 A 
ATOM     69  C   UNL     1      -9.324  13.962  -3.550  1.00  0.00     0.198 A 
ATOM     70  F   UNL     1      -8.352  11.936  -3.058  1.00  0.00    -0.203 F 
ATOM     71  F   UNL     1     -11.126  15.130  -6.444  1.00  0.00    -0.200 F 
ATOM     72  C   UNL     1      -9.986  14.809  -4.411  1.00  0.00     0.200 A 
ATOM     73  F   UNL     1      -8.760  14.439  -2.432  1.00  0.00    -0.200 F 
ATOM     74  F   UNL     1     -10.048  16.120  -4.143  1.00  0.00    -0.200 F 
ENDBRANCH  50  64
BRANCH  51  75
ATOM     75  C   UNL     1      -1.063  11.951  -5.452  1.00  0.00     0.064 A 
ATOM     76  C   UNL     1      -0.420  12.966  -6.178  1.00  0.00     0.173 A 
ATOM     77  C   UNL     1      -0.708  11.828  -4.095  1.00  0.00     0.173 A 
ATOM     78  F   UNL     1      -0.737  13.181  -7.462  1.00  0.00    -0.203 F 
ATOM     79  C   UNL     1       0.511  13.820  -5.574  1.00  0.00     0.198 A 
ATOM     80  C   UNL     1       0.222  12.678  -3.494  1.00  0.00     0.198 A 
ATOM     81  F   UNL     1      -1.329  10.943  -3.301  1.00  0.00    -0.203 F 
ATOM     82  F   UNL     1       1.063  14.816  -6.282  1.00  0.00    -0.200 F 
ATOM     83  C   UNL     1       0.823  13.682  -4.231  1.00  0.00     0.200 A 
ATOM     84  F   UNL     1       0.481  12.560  -2.184  1.00  0.00    -0.200 F 
ATOM     85  F   UNL     1       1.665  14.538  -3.637  1.00  0.00    -0.200 F 
ENDBRANCH  51  75
BRANCH  63  86
ATOM     86  C   UNL     1      -5.138   9.894  -9.753  1.00  0.00     0.064 A 
ATOM     87  C   UNL     1      -4.310   8.822  -9.384  1.00  0.00     0.173 A 
ATOM     88  C   UNL     1      -5.446  10.039 -11.111  1.00  0.00     0.173 A 
ATOM     89  F   UNL     1      -4.038   8.574  -8.097  1.00  0.00    -0.203 F 
ATOM     90  C   UNL     1      -3.781   7.959 -10.342  1.00  0.00     0.198 A 
ATOM     91  C   UNL     1      -4.946   9.157 -12.062  1.00  0.00     0.198 A 
ATOM     92  F   UNL     1      -6.270  11.021 -11.510  1.00  0.00    -0.203 F 
ATOM     93  F   UNL     1      -2.977   6.952  -9.970  1.00  0.00    -0.200 F 
ATOM     94  C   UNL     1      -4.104   8.124 -11.679  1.00  0.00     0.200 A 
ATOM     95  F   UNL     1      -5.296   9.295 -13.347  1.00  0.00    -0.200 F 
ATOM     96  F   UNL     1      -3.623   7.275 -12.598  1.00  0.00    -0.200 F 
ENDBRANCH  63  86
ENDBRANCH  37  38
ENDBRANCH  30  32
ENDBRANCH  29  30
ENDBRANCH  28  29
ENDBRANCH  27  28
ENDBRANCH  26  27
ENDBRANCH  25  26
ENDBRANCH   1  25
TORSDOF 21
