REMARK SMILES C[NH2+][C@@]1(C(=O)OCCOCCOC(=O)c2ccc(-c3c4nc(c(-c5c(F)c(F)c(F)c(F)c5F)c5ccc([nH]5)c(-c5c(F)c(F)c(F)c(F)c5F)c5nc(c(-c6c(F)c(F)c(F)c(F)c6F)c6ccc3[nH]6)C=C5)C=C4)cc2)CCC[C@H]([N@H+](C)C2CC[NH+](C)CC2)C1
REMARK SMILES IDX 9 1 8 2 7 3 6 4 4 5 5 6 3 7 78 8 91 9 79 10 81 11 80 12 2 13
REMARK SMILES IDX 1 14 82 17 83 18 84 20 85 21 90 22 86 23 89 24 87 25 88 26
REMARK SMILES IDX 10 28 11 29 12 30 13 31 14 32 15 33 16 34 77 35 17 36 76 37
REMARK SMILES IDX 18 38 19 39 20 40 70 41 21 42 75 43 69 44 71 45 22 46 74 47
REMARK SMILES IDX 68 48 67 49 23 51 55 52 35 53 54 54 36 55 39 56 53 57 72 58
REMARK SMILES IDX 37 59 38 60 52 62 73 63 40 64 24 65 25 66 33 67 26 68 27 69
REMARK SMILES IDX 31 70 34 71 28 72 29 73 32 74 30 75 56 76 57 77 65 78 58 79
REMARK SMILES IDX 59 80 63 81 66 82 60 83 61 84 64 85 62 86 41 87 42 88 50 89
REMARK SMILES IDX 43 90 44 91 48 92 51 93 45 94 46 95 49 96 47 97
REMARK H PARENT 2 15 2 16 82 19 87 27 71 50 39 61
REMARK Flexibility Score: inf
ROOT
ATOM      1  O   UNL     1      -0.934   1.763  -5.678  1.00  0.00    -0.374 OA
ENDROOT
BRANCH   1   2
ATOM      2  C   UNL     1      -1.948   0.767  -5.517  1.00  0.00     0.202 C 
BRANCH   2   3
ATOM      3  C   UNL     1      -1.486  -0.434  -4.689  1.00  0.00     0.261 C 
BRANCH   3   4
ATOM      4  O   UNL     1      -1.386  -0.046  -3.309  1.00  0.00    -0.459 OA
BRANCH   4   5
ATOM      5  C   UNL     1      -1.111  -1.046  -2.426  1.00  0.00     0.368 C 
ATOM      6  O   UNL     1      -1.069  -2.232  -2.740  1.00  0.00    -0.245 OA
BRANCH   5   7
ATOM      7  C   UNL     1      -0.652  -0.463  -1.038  1.00  0.00     0.199 C 
ATOM      8  C   UNL     1      -0.843  -1.550   0.042  1.00  0.00     0.081 C 
ATOM      9  C   UNL     1      -1.412   0.829  -0.631  1.00  0.00     0.146 C 
ATOM     10  C   UNL     1      -2.304  -1.760   0.418  1.00  0.00     0.013 C 
ATOM     11  C   UNL     1      -2.906   0.658  -0.206  1.00  0.00     0.190 C 
ATOM     12  C   UNL     1      -2.964  -0.455   0.846  1.00  0.00     0.065 C 
BRANCH   7  13
ATOM     13  N   UNL     1       0.797  -0.135  -1.247  1.00  0.00    -0.334 N 
ATOM     14  C   UNL     1       1.596   0.109  -0.059  1.00  0.00     0.331 C 
ATOM     15  H   UNL     1       1.221  -0.916  -1.747  1.00  0.00     0.347 HD
ATOM     16  H   UNL     1       0.798   0.751  -1.752  1.00  0.00     0.347 HD
ENDBRANCH   7  13
BRANCH  11  17
ATOM     17  N   UNL     1      -3.777   0.640  -1.411  1.00  0.00    -0.332 N 
ATOM     18  C   UNL     1      -3.894   2.059  -1.852  1.00  0.00     0.333 C 
ATOM     19  H   UNL     1      -3.315  -0.010  -2.048  1.00  0.00     0.348 HD
BRANCH  17  20
ATOM     20  C   UNL     1      -5.167   0.076  -1.319  1.00  0.00     0.195 C 
ATOM     21  C   UNL     1      -5.341  -1.435  -1.061  1.00  0.00     0.126 C 
ATOM     22  C   UNL     1      -5.958   0.272  -2.645  1.00  0.00     0.126 C 
ATOM     23  C   UNL     1      -4.807  -2.293  -2.207  1.00  0.00     0.268 C 
ATOM     24  C   UNL     1      -5.383  -0.574  -3.788  1.00  0.00     0.268 C 
ATOM     25  N   UNL     1      -5.503  -2.001  -3.469  1.00  0.00    -0.337 N 
ATOM     26  C   UNL     1      -4.945  -2.835  -4.535  1.00  0.00     0.332 C 
ATOM     27  H   UNL     1      -6.496  -2.218  -3.376  1.00  0.00     0.347 HD
ENDBRANCH  17  20
ENDBRANCH  11  17
ENDBRANCH   5   7
ENDBRANCH   4   5
ENDBRANCH   3   4
ENDBRANCH   2   3
ENDBRANCH   1   2
BRANCH   1  28
ATOM     28  C   UNL     1      -0.726   2.615  -4.553  1.00  0.00     0.202 C 
BRANCH  28  29
ATOM     29  C   UNL     1      -1.512   3.927  -4.618  1.00  0.00     0.261 C 
BRANCH  29  30
ATOM     30  O   UNL     1      -2.930   3.726  -4.464  1.00  0.00    -0.460 OA
BRANCH  30  31
ATOM     31  C   UNL     1      -3.657   3.725  -5.608  1.00  0.00     0.338 C 
ATOM     32  O   UNL     1      -3.241   3.893  -6.743  1.00  0.00    -0.246 OA
BRANCH  31  33
ATOM     33  C   UNL     1      -5.071   3.386  -5.314  1.00  0.00     0.060 A 
ATOM     34  C   UNL     1      -5.750   2.541  -6.200  1.00  0.00     0.016 A 
ATOM     35  C   UNL     1      -5.742   3.910  -4.205  1.00  0.00     0.016 A 
ATOM     36  C   UNL     1      -7.104   2.244  -5.999  1.00  0.00     0.010 A 
ATOM     37  C   UNL     1      -7.088   3.586  -3.988  1.00  0.00     0.010 A 
ATOM     38  C   UNL     1      -7.795   2.780  -4.903  1.00  0.00    -0.014 A 
BRANCH  38  39
ATOM     39  C   UNL     1      -9.278   2.649  -4.794  1.00  0.00     0.031 A 
ATOM     40  C   UNL     1     -10.126   3.877  -5.008  1.00  0.00     0.074 A 
ATOM     41  C   UNL     1      -9.888   1.480  -4.512  1.00  0.00     0.049 A 
ATOM     42  N   UNL     1     -11.426   4.016  -4.937  1.00  0.00    -0.248 NA
ATOM     43  C   UNL     1      -9.409   5.118  -5.342  1.00  0.00     0.031 C 
ATOM     44  C   UNL     1      -9.220   0.200  -4.309  1.00  0.00     0.029 A 
ATOM     45  N   UNL     1     -11.220   1.186  -4.326  1.00  0.00    -0.354 N 
ATOM     46  C   UNL     1     -11.677   5.350  -5.227  1.00  0.00     0.074 A 
ATOM     47  C   UNL     1     -10.395   5.998  -5.390  1.00  0.00     0.031 C 
ATOM     48  C   UNL     1     -10.130  -0.732  -3.977  1.00  0.00     0.029 A 
ATOM     49  C   UNL     1     -11.455  -0.119  -3.962  1.00  0.00     0.049 A 
ATOM     50  H   UNL     1     -11.938   1.850  -4.442  1.00  0.00     0.167 HD
ATOM     51  C   UNL     1     -12.865   5.977  -5.392  1.00  0.00     0.037 A 
ATOM     52  C   UNL     1     -12.605  -0.753  -3.658  1.00  0.00     0.037 A 
ATOM     53  C   UNL     1     -14.148   5.345  -5.255  1.00  0.00     0.049 A 
ATOM     54  C   UNL     1     -13.916  -0.018  -3.773  1.00  0.00     0.074 A 
ATOM     55  C   UNL     1     -15.404   5.893  -5.450  1.00  0.00     0.029 A 
ATOM     56  N   UNL     1     -14.341   4.024  -4.883  1.00  0.00    -0.354 N 
ATOM     57  N   UNL     1     -14.141   1.223  -4.127  1.00  0.00    -0.248 NA
ATOM     58  C   UNL     1     -15.137  -0.784  -3.478  1.00  0.00     0.031 C 
ATOM     59  C   UNL     1     -16.359   4.917  -5.151  1.00  0.00     0.029 A 
ATOM     60  C   UNL     1     -15.697   3.746  -4.818  1.00  0.00     0.049 A 
ATOM     61  H   UNL     1     -13.622   3.379  -4.694  1.00  0.00     0.167 HD
ATOM     62  C   UNL     1     -15.523   1.371  -4.145  1.00  0.00     0.074 A 
ATOM     63  C   UNL     1     -16.087   0.094  -3.766  1.00  0.00     0.031 C 
ATOM     64  C   UNL     1     -16.255   2.468  -4.460  1.00  0.00     0.037 A 
BRANCH  51  65
ATOM     65  C   UNL     1     -12.822   7.431  -5.757  1.00  0.00     0.064 A 
ATOM     66  C   UNL     1     -12.383   7.853  -7.022  1.00  0.00     0.173 A 
ATOM     67  C   UNL     1     -13.227   8.409  -4.840  1.00  0.00     0.173 A 
ATOM     68  F   UNL     1     -11.968   6.954  -7.928  1.00  0.00    -0.203 F 
ATOM     69  C   UNL     1     -12.317   9.206  -7.341  1.00  0.00     0.198 A 
ATOM     70  C   UNL     1     -13.190   9.760  -5.174  1.00  0.00     0.198 A 
ATOM     71  F   UNL     1     -13.657   8.057  -3.619  1.00  0.00    -0.203 F 
ATOM     72  F   UNL     1     -11.836   9.588  -8.532  1.00  0.00    -0.200 F 
ATOM     73  C   UNL     1     -12.726  10.157  -6.419  1.00  0.00     0.200 A 
ATOM     74  F   UNL     1     -13.594  10.679  -4.287  1.00  0.00    -0.200 F 
ATOM     75  F   UNL     1     -12.661  11.460  -6.727  1.00  0.00    -0.200 F 
ENDBRANCH  51  65
BRANCH  52  76
ATOM     76  C   UNL     1     -12.586  -2.182  -3.244  1.00  0.00     0.064 A 
ATOM     77  C   UNL     1     -13.088  -3.185  -4.085  1.00  0.00     0.173 A 
ATOM     78  C   UNL     1     -12.111  -2.566  -1.982  1.00  0.00     0.173 A 
ATOM     79  F   UNL     1     -13.581  -2.862  -5.290  1.00  0.00    -0.203 F 
ATOM     80  C   UNL     1     -13.143  -4.513  -3.669  1.00  0.00     0.198 A 
ATOM     81  C   UNL     1     -12.144  -3.899  -1.576  1.00  0.00     0.198 A 
ATOM     82  F   UNL     1     -11.628  -1.643  -1.137  1.00  0.00    -0.203 F 
ATOM     83  F   UNL     1     -13.683  -5.442  -4.470  1.00  0.00    -0.200 F 
ATOM     84  C   UNL     1     -12.669  -4.870  -2.415  1.00  0.00     0.200 A 
ATOM     85  F   UNL     1     -11.685  -4.240  -0.363  1.00  0.00    -0.200 F 
ATOM     86  F   UNL     1     -12.734  -6.146  -2.010  1.00  0.00    -0.200 F 
ENDBRANCH  52  76
BRANCH  64  87
ATOM     87  C   UNL     1     -17.750   2.333  -4.462  1.00  0.00     0.064 A 
ATOM     88  C   UNL     1     -18.483   2.212  -3.272  1.00  0.00     0.173 A 
ATOM     89  C   UNL     1     -18.464   2.386  -5.670  1.00  0.00     0.173 A 
ATOM     90  F   UNL     1     -17.848   2.143  -2.092  1.00  0.00    -0.203 F 
ATOM     91  C   UNL     1     -19.873   2.128  -3.293  1.00  0.00     0.198 A 
ATOM     92  C   UNL     1     -19.855   2.332  -5.685  1.00  0.00     0.198 A 
ATOM     93  F   UNL     1     -17.812   2.510  -6.835  1.00  0.00    -0.203 F 
ATOM     94  F   UNL     1     -20.550   1.971  -2.147  1.00  0.00    -0.200 F 
ATOM     95  C   UNL     1     -20.558   2.197  -4.497  1.00  0.00     0.200 A 
ATOM     96  F   UNL     1     -20.515   2.416  -6.848  1.00  0.00    -0.200 F 
ATOM     97  F   UNL     1     -21.896   2.130  -4.514  1.00  0.00    -0.200 F 
ENDBRANCH  64  87
ENDBRANCH  38  39
ENDBRANCH  31  33
ENDBRANCH  30  31
ENDBRANCH  29  30
ENDBRANCH  28  29
ENDBRANCH   1  28
TORSDOF 17
