REMARK SMILES CN(CC(=O)OCCOCCOC(=O)c1ccc(-c2c3nc(c(-c4c(F)c(F)c(F)c(F)c4F)c4ccc([nH]4)c(-c4c(F)c(F)c(F)c(F)c4F)c4nc(c(-c5c(F)c(F)c(F)c(F)c5F)c5ccc2[nH]5)C=C4)C=C3)cc1)c1ncc(-c2nnnn2-c2ccccc2)c(-c2ccc(Cl)cc2)n1
REMARK SMILES IDX 8 1 7 2 6 3 4 4 5 5 3 6 2 7 1 8 78 9 79 10 101 11 80 12
REMARK SMILES IDX 93 13 81 14 94 15 95 16 100 17 96 18 99 19 97 20 98 21 82 22
REMARK SMILES IDX 83 23 86 24 84 25 85 26 87 27 88 28 92 29 89 30 91 31 90 32
REMARK SMILES IDX 9 33 10 34 11 35 12 36 13 37 14 38 15 39 16 40 77 41 17 42
REMARK SMILES IDX 76 43 18 44 19 45 20 46 70 47 21 48 75 49 69 50 71 51 22 52
REMARK SMILES IDX 74 53 68 54 67 55 23 57 55 58 35 59 54 60 36 61 39 62 53 63
REMARK SMILES IDX 72 64 37 65 38 66 52 68 73 69 40 70 24 71 25 72 33 73 26 74
REMARK SMILES IDX 27 75 31 76 34 77 28 78 29 79 32 80 30 81 56 82 57 83 65 84
REMARK SMILES IDX 58 85 59 86 63 87 66 88 60 89 61 90 64 91 62 92 41 93 42 94
REMARK SMILES IDX 50 95 43 96 44 97 48 98 51 99 45 100 46 101 49 102 47 103
REMARK H PARENT 71 56 39 67
REMARK Flexibility Score: inf
ROOT
ATOM      1  C   UNL     1      -4.309   2.752  -0.325  1.00  0.00     0.202 C 
ENDROOT
BRANCH   1   2
ATOM      2  C   UNL     1      -3.475   1.599  -0.898  1.00  0.00     0.261 C 
BRANCH   2   3
ATOM      3  O   UNL     1      -2.117   1.639  -0.434  1.00  0.00    -0.462 OA
BRANCH   3   4
ATOM      4  C   UNL     1      -1.200   1.095  -1.285  1.00  0.00     0.325 C 
ATOM      5  O   UNL     1      -1.482   0.412  -2.265  1.00  0.00    -0.250 OA
BRANCH   4   6
ATOM      6  C   UNL     1       0.218   1.539  -0.952  1.00  0.00     0.241 C 
BRANCH   6   7
ATOM      7  N   UNL     1       0.761   0.918   0.255  1.00  0.00    -0.333 N 
ATOM      8  C   UNL     1       1.515  -0.307   0.130  1.00  0.00     0.147 C 
BRANCH   7   9
ATOM      9  C   UNL     1       1.151   1.824   1.216  1.00  0.00     0.226 A 
ATOM     10  N   UNL     1       0.171   2.499   1.818  1.00  0.00    -0.221 NA
ATOM     11  N   UNL     1       2.452   2.038   1.482  1.00  0.00    -0.212 NA
ATOM     12  C   UNL     1       0.526   3.418   2.728  1.00  0.00     0.129 A 
ATOM     13  C   UNL     1       2.777   3.009   2.385  1.00  0.00     0.087 A 
ATOM     14  C   UNL     1       1.819   3.736   3.067  1.00  0.00     0.066 A 
BRANCH  13  15
ATOM     15  C   UNL     1       4.221   3.218   2.586  1.00  0.00     0.001 A 
ATOM     16  C   UNL     1       5.032   3.689   1.540  1.00  0.00     0.012 A 
ATOM     17  C   UNL     1       4.818   2.996   3.840  1.00  0.00     0.012 A 
ATOM     18  C   UNL     1       6.390   3.958   1.749  1.00  0.00     0.021 A 
ATOM     19  C   UNL     1       6.173   3.266   4.052  1.00  0.00     0.021 A 
ATOM     20  C   UNL     1       6.952   3.751   3.006  1.00  0.00     0.041 A 
ATOM     21  Cl  UNL     1       8.616   4.095   3.272  1.00  0.00    -0.084 Cl
ENDBRANCH  13  15
BRANCH  14  22
ATOM     22  C   UNL     1       2.051   4.825   4.005  1.00  0.00     0.190 A 
ATOM     23  N   UNL     1       2.704   5.941   3.743  1.00  0.00    -0.108 NA
ATOM     24  N   UNL     1       1.394   4.995   5.222  1.00  0.00    -0.193 N 
ATOM     25  N   UNL     1       2.350   6.835   4.718  1.00  0.00    -0.023 NA
ATOM     26  N   UNL     1       1.498   6.294   5.576  1.00  0.00    -0.040 NA
BRANCH  24  27
ATOM     27  C   UNL     1       0.702   4.051   6.017  1.00  0.00     0.069 A 
ATOM     28  C   UNL     1      -0.376   4.471   6.806  1.00  0.00     0.028 A 
ATOM     29  C   UNL     1       1.091   2.704   6.025  1.00  0.00     0.028 A 
ATOM     30  C   UNL     1      -1.078   3.538   7.572  1.00  0.00     0.002 A 
ATOM     31  C   UNL     1       0.405   1.785   6.819  1.00  0.00     0.002 A 
ATOM     32  C   UNL     1      -0.679   2.202   7.588  1.00  0.00     0.000 A 
ENDBRANCH  24  27
ENDBRANCH  14  22
ENDBRANCH   7   9
ENDBRANCH   6   7
ENDBRANCH   4   6
ENDBRANCH   3   4
ENDBRANCH   2   3
ENDBRANCH   1   2
BRANCH   1  33
ATOM     33  O   UNL     1      -3.880   4.067  -0.692  1.00  0.00    -0.374 OA
BRANCH  33  34
ATOM     34  C   UNL     1      -2.629   4.520  -0.166  1.00  0.00     0.202 C 
BRANCH  34  35
ATOM     35  C   UNL     1      -2.585   4.695   1.353  1.00  0.00     0.261 C 
BRANCH  35  36
ATOM     36  O   UNL     1      -2.799   3.441   2.017  1.00  0.00    -0.460 OA
BRANCH  36  37
ATOM     37  C   UNL     1      -2.876   3.519   3.359  1.00  0.00     0.338 C 
ATOM     38  O   UNL     1      -2.592   4.474   4.060  1.00  0.00    -0.246 OA
BRANCH  37  39
ATOM     39  C   UNL     1      -3.462   2.277   3.880  1.00  0.00     0.060 A 
ATOM     40  C   UNL     1      -4.845   2.244   4.070  1.00  0.00     0.016 A 
ATOM     41  C   UNL     1      -2.651   1.229   4.323  1.00  0.00     0.016 A 
ATOM     42  C   UNL     1      -5.416   1.195   4.787  1.00  0.00     0.010 A 
ATOM     43  C   UNL     1      -3.229   0.169   5.033  1.00  0.00     0.010 A 
ATOM     44  C   UNL     1      -4.606   0.178   5.318  1.00  0.00    -0.014 A 
BRANCH  44  45
ATOM     45  C   UNL     1      -5.199  -0.754   6.310  1.00  0.00     0.031 A 
ATOM     46  C   UNL     1      -5.015  -0.481   7.778  1.00  0.00     0.074 A 
ATOM     47  C   UNL     1      -5.955  -1.793   5.918  1.00  0.00     0.049 A 
ATOM     48  N   UNL     1      -5.529  -1.096   8.814  1.00  0.00    -0.248 NA
ATOM     49  C   UNL     1      -4.119   0.629   8.126  1.00  0.00     0.031 C 
ATOM     50  C   UNL     1      -6.202  -2.182   4.532  1.00  0.00     0.029 A 
ATOM     51  N   UNL     1      -6.666  -2.703   6.660  1.00  0.00    -0.354 N 
ATOM     52  C   UNL     1      -5.007  -0.457   9.932  1.00  0.00     0.074 A 
ATOM     53  C   UNL     1      -4.105   0.567   9.449  1.00  0.00     0.031 C 
ATOM     54  C   UNL     1      -7.020  -3.248   4.521  1.00  0.00     0.029 A 
ATOM     55  C   UNL     1      -7.354  -3.612   5.898  1.00  0.00     0.049 A 
ATOM     56  H   UNL     1      -6.680  -2.703   7.644  1.00  0.00     0.167 HD
ATOM     57  C   UNL     1      -5.273  -0.684  11.241  1.00  0.00     0.037 A 
ATOM     58  C   UNL     1      -8.176  -4.612   6.269  1.00  0.00     0.037 A 
ATOM     59  C   UNL     1      -6.207  -1.666  11.724  1.00  0.00     0.049 A 
ATOM     60  C   UNL     1      -8.501  -4.814   7.725  1.00  0.00     0.074 A 
ATOM     61  C   UNL     1      -6.597  -1.921  13.027  1.00  0.00     0.029 A 
ATOM     62  N   UNL     1      -6.903  -2.554  10.918  1.00  0.00    -0.354 N 
ATOM     63  N   UNL     1      -8.058  -4.160   8.771  1.00  0.00    -0.248 NA
ATOM     64  C   UNL     1      -9.462  -5.879   8.047  1.00  0.00     0.031 C 
ATOM     65  C   UNL     1      -7.507  -2.985  13.013  1.00  0.00     0.029 A 
ATOM     66  C   UNL     1      -7.710  -3.367  11.697  1.00  0.00     0.049 A 
ATOM     67  H   UNL     1      -6.833  -2.599   9.937  1.00  0.00     0.167 HD
ATOM     68  C   UNL     1      -8.701  -4.716   9.870  1.00  0.00     0.074 A 
ATOM     69  C   UNL     1      -9.574  -5.754   9.363  1.00  0.00     0.031 C 
ATOM     70  C   UNL     1      -8.578  -4.394  11.181  1.00  0.00     0.037 A 
BRANCH  57  71
ATOM     71  C   UNL     1      -4.537   0.149  12.249  1.00  0.00     0.064 A 
ATOM     72  C   UNL     1      -4.834   1.507  12.440  1.00  0.00     0.173 A 
ATOM     73  C   UNL     1      -3.539  -0.425  13.049  1.00  0.00     0.173 A 
ATOM     74  F   UNL     1      -5.770   2.106  11.689  1.00  0.00    -0.203 F 
ATOM     75  C   UNL     1      -4.137   2.267  13.376  1.00  0.00     0.198 A 
ATOM     76  C   UNL     1      -2.862   0.332  14.002  1.00  0.00     0.198 A 
ATOM     77  F   UNL     1      -3.220  -1.720  12.907  1.00  0.00    -0.203 F 
ATOM     78  F   UNL     1      -4.402   3.574  13.506  1.00  0.00    -0.200 F 
ATOM     79  C   UNL     1      -3.155   1.678  14.159  1.00  0.00     0.200 A 
ATOM     80  F   UNL     1      -1.919  -0.240  14.764  1.00  0.00    -0.200 F 
ATOM     81  F   UNL     1      -2.485   2.411  15.059  1.00  0.00    -0.200 F 
ENDBRANCH  57  71
BRANCH  58  82
ATOM     82  C   UNL     1      -8.790  -5.471   5.227  1.00  0.00     0.064 A 
ATOM     83  C   UNL     1     -10.140  -5.333   4.880  1.00  0.00     0.173 A 
ATOM     84  C   UNL     1      -8.029  -6.430   4.545  1.00  0.00     0.173 A 
ATOM     85  F   UNL     1     -10.908  -4.441   5.522  1.00  0.00    -0.203 F 
ATOM     86  C   UNL     1     -10.710  -6.131   3.892  1.00  0.00     0.198 A 
ATOM     87  C   UNL     1      -8.596  -7.214   3.543  1.00  0.00     0.198 A 
ATOM     88  F   UNL     1      -6.732  -6.595   4.844  1.00  0.00    -0.203 F 
ATOM     89  F   UNL     1     -12.011  -6.001   3.596  1.00  0.00    -0.200 F 
ATOM     90  C   UNL     1      -9.937  -7.066   3.220  1.00  0.00     0.200 A 
ATOM     91  F   UNL     1      -7.843  -8.110   2.890  1.00  0.00    -0.200 F 
ATOM     92  F   UNL     1     -10.484  -7.828   2.263  1.00  0.00    -0.200 F 
ENDBRANCH  58  82
BRANCH  70  93
ATOM     93  C   UNL     1      -9.424  -5.153  12.160  1.00  0.00     0.064 A 
ATOM     94  C   UNL     1      -9.132  -6.479  12.508  1.00  0.00     0.173 A 
ATOM     95  C   UNL     1     -10.517  -4.534  12.786  1.00  0.00     0.173 A 
ATOM     96  F   UNL     1      -8.104  -7.118  11.928  1.00  0.00    -0.203 F 
ATOM     97  C   UNL     1      -9.917  -7.167  13.429  1.00  0.00     0.198 A 
ATOM     98  C   UNL     1     -11.286  -5.217  13.724  1.00  0.00     0.198 A 
ATOM     99  F   UNL     1     -10.833  -3.264  12.493  1.00  0.00    -0.203 F 
ATOM    100  F   UNL     1      -9.644  -8.447  13.716  1.00  0.00    -0.200 F 
ATOM    101  C   UNL     1     -10.990  -6.534  14.040  1.00  0.00     0.200 A 
ATOM    102  F   UNL     1     -12.317  -4.601  14.320  1.00  0.00    -0.200 F 
ATOM    103  F   UNL     1     -11.744  -7.197  14.928  1.00  0.00    -0.200 F 
ENDBRANCH  70  93
ENDBRANCH  44  45
ENDBRANCH  37  39
ENDBRANCH  36  37
ENDBRANCH  35  36
ENDBRANCH  34  35
ENDBRANCH  33  34
ENDBRANCH   1  33
TORSDOF 19
