REMARK SMILES COC(=O)[C@H]1CCN(S(=O)(=O)N2CCC[C@H](C(=O)OCCOCCOC(=O)c3ccc(-c4c5nc(c(-c6c(F)c(F)c(F)c(F)c6F)c6ccc([nH]6)c(-c6c(F)c(F)c(F)c(F)c6F)c6nc(c(-c7c(F)c(F)c(F)c(F)c7F)c7ccc4[nH]7)C=C6)C=C5)cc3)C2)C1
REMARK SMILES IDX 21 1 20 2 19 3 17 4 18 5 16 6 12 7 13 8 91 9 14 10 15 11
REMARK SMILES IDX 9 12 10 13 11 14 8 15 5 16 6 17 92 18 7 19 3 20 4 21 2 22
REMARK SMILES IDX 1 23 22 24 23 25 24 26 25 27 26 28 27 29 28 30 29 31 90 32
REMARK SMILES IDX 30 33 89 34 31 35 32 36 33 37 83 38 34 39 88 40 82 41 84 42
REMARK SMILES IDX 35 43 87 44 81 45 80 46 36 48 68 49 48 50 67 51 49 52 52 53
REMARK SMILES IDX 66 54 85 55 50 56 51 57 65 59 86 60 53 61 37 62 38 63 46 64
REMARK SMILES IDX 39 65 40 66 44 67 47 68 41 69 42 70 45 71 43 72 69 73 70 74
REMARK SMILES IDX 78 75 71 76 72 77 76 78 79 79 73 80 74 81 77 82 75 83 54 84
REMARK SMILES IDX 55 85 63 86 56 87 57 88 61 89 64 90 58 91 59 92 62 93 60 94
REMARK H PARENT 84 47 52 58
REMARK Flexibility Score: inf
ROOT
ATOM      1  C   UNL     1       3.068   5.525 -11.800  1.00  0.00     0.202 C 
ENDROOT
BRANCH   1   2
ATOM      2  C   UNL     1       2.174   5.041 -10.657  1.00  0.00     0.261 C 
BRANCH   2   3
ATOM      3  O   UNL     1       2.872   5.090  -9.406  1.00  0.00    -0.463 OA
BRANCH   3   4
ATOM      4  C   UNL     1       3.209   3.883  -8.892  1.00  0.00     0.310 C 
ATOM      5  O   UNL     1       2.883   2.798  -9.361  1.00  0.00    -0.252 OA
BRANCH   4   6
ATOM      6  C   UNL     1       4.092   3.984  -7.668  1.00  0.00     0.114 C 
ATOM      7  N   UNL     1       2.393   4.821  -6.112  1.00  0.00    -0.188 NA
ATOM      8  C   UNL     1       3.160   6.020  -5.728  1.00  0.00     0.103 C 
ATOM      9  C   UNL     1       3.231   3.666  -6.475  1.00  0.00     0.118 C 
ATOM     10  C   UNL     1       4.085   6.423  -6.879  1.00  0.00     0.018 C 
ATOM     11  C   UNL     1       4.909   5.253  -7.413  1.00  0.00     0.018 C 
BRANCH   7  12
ATOM     12  S   UNL     1       0.940   4.516  -5.330  1.00  0.00     0.282 S 
ATOM     13  O   UNL     1       0.260   3.455  -6.028  1.00  0.00    -0.195 OA
ATOM     14  O   UNL     1       0.293   5.789  -5.096  1.00  0.00    -0.195 OA
BRANCH  12  15
ATOM     15  N   UNL     1       1.443   3.909  -3.822  1.00  0.00    -0.188 NA
ATOM     16  C   UNL     1       0.053   2.352  -2.560  1.00  0.00     0.116 C 
ATOM     17  C   UNL     1       0.946   1.597  -3.522  1.00  0.00     0.033 C 
ATOM     18  C   UNL     1       0.314   3.838  -2.826  1.00  0.00     0.118 C 
ATOM     19  C   UNL     1       2.074   2.566  -3.763  1.00  0.00     0.104 C 
BRANCH  16  20
ATOM     20  C   UNL     1      -1.381   1.928  -2.745  1.00  0.00     0.310 C 
ATOM     21  O   UNL     1      -1.904   1.047  -2.073  1.00  0.00    -0.252 OA
BRANCH  20  22
ATOM     22  O   UNL     1      -1.972   2.572  -3.781  1.00  0.00    -0.469 OA
ATOM     23  C   UNL     1      -3.312   2.163  -4.050  1.00  0.00     0.282 C 
ENDBRANCH  20  22
ENDBRANCH  16  20
ENDBRANCH  12  15
ENDBRANCH   7  12
ENDBRANCH   4   6
ENDBRANCH   3   4
ENDBRANCH   2   3
ENDBRANCH   1   2
BRANCH   1  24
ATOM     24  O   UNL     1       4.261   4.795 -12.076  1.00  0.00    -0.374 OA
BRANCH  24  25
ATOM     25  C   UNL     1       5.353   4.887 -11.166  1.00  0.00     0.202 C 
BRANCH  25  26
ATOM     26  C   UNL     1       6.108   6.220 -11.054  1.00  0.00     0.261 C 
BRANCH  26  27
ATOM     27  O   UNL     1       5.287   7.307 -10.589  1.00  0.00    -0.460 OA
BRANCH  27  28
ATOM     28  C   UNL     1       5.041   8.255 -11.527  1.00  0.00     0.338 C 
ATOM     29  O   UNL     1       5.478   8.298 -12.665  1.00  0.00    -0.246 OA
BRANCH  28  30
ATOM     30  C   UNL     1       3.992   9.183 -11.070  1.00  0.00     0.060 A 
ATOM     31  C   UNL     1       2.838   9.284 -11.859  1.00  0.00     0.016 A 
ATOM     32  C   UNL     1       4.184  10.033  -9.980  1.00  0.00     0.016 A 
ATOM     33  C   UNL     1       1.898  10.275 -11.598  1.00  0.00     0.010 A 
ATOM     34  C   UNL     1       3.240  11.034  -9.724  1.00  0.00     0.010 A 
ATOM     35  C   UNL     1       2.115  11.186 -10.557  1.00  0.00    -0.014 A 
BRANCH  35  36
ATOM     36  C   UNL     1       1.235  12.376 -10.442  1.00  0.00     0.031 A 
ATOM     37  C   UNL     1       1.739  13.711 -10.918  1.00  0.00     0.074 A 
ATOM     38  C   UNL     1      -0.015  12.258  -9.962  1.00  0.00     0.049 A 
ATOM     39  N   UNL     1       1.155  14.882 -10.880  1.00  0.00    -0.248 NA
ATOM     40  C   UNL     1       3.083  13.731 -11.517  1.00  0.00     0.031 C 
ATOM     41  C   UNL     1      -0.630  11.011  -9.513  1.00  0.00     0.029 A 
ATOM     42  N   UNL     1      -0.989  13.205  -9.767  1.00  0.00    -0.354 N 
ATOM     43  C   UNL     1       2.063  15.777 -11.431  1.00  0.00     0.074 A 
ATOM     44  C   UNL     1       3.248  15.020 -11.774  1.00  0.00     0.031 C 
ATOM     45  C   UNL     1      -1.875  11.271  -9.080  1.00  0.00     0.029 A 
ATOM     46  C   UNL     1      -2.128  12.707  -9.185  1.00  0.00     0.049 A 
ATOM     47  H   UNL     1      -0.881  14.150 -10.019  1.00  0.00     0.167 HD
ATOM     48  C   UNL     1       1.917  17.108 -11.638  1.00  0.00     0.037 A 
ATOM     49  C   UNL     1      -3.236  13.343  -8.758  1.00  0.00     0.037 A 
ATOM     50  C   UNL     1       0.730  17.853 -11.307  1.00  0.00     0.049 A 
ATOM     51  C   UNL     1      -3.346  14.835  -8.941  1.00  0.00     0.074 A 
ATOM     52  C   UNL     1       0.472  19.197 -11.509  1.00  0.00     0.029 A 
ATOM     53  N   UNL     1      -0.394  17.319 -10.694  1.00  0.00    -0.354 N 
ATOM     54  N   UNL     1      -2.497  15.670  -9.490  1.00  0.00    -0.248 NA
ATOM     55  C   UNL     1      -4.575  15.475  -8.447  1.00  0.00     0.031 C 
ATOM     56  C   UNL     1      -0.778  19.492 -10.956  1.00  0.00     0.029 A 
ATOM     57  C   UNL     1      -1.333  18.316 -10.477  1.00  0.00     0.049 A 
ATOM     58  H   UNL     1      -0.509  16.372 -10.448  1.00  0.00     0.167 HD
ATOM     59  C   UNL     1      -3.099  16.921  -9.438  1.00  0.00     0.074 A 
ATOM     60  C   UNL     1      -4.393  16.734  -8.817  1.00  0.00     0.031 C 
ATOM     61  C   UNL     1      -2.623  18.116  -9.866  1.00  0.00     0.037 A 
BRANCH  48  62
ATOM     62  C   UNL     1       3.080  17.860 -12.220  1.00  0.00     0.064 A 
ATOM     63  C   UNL     1       3.481  17.698 -13.554  1.00  0.00     0.173 A 
ATOM     64  C   UNL     1       3.768  18.805 -11.441  1.00  0.00     0.173 A 
ATOM     65  F   UNL     1       2.865  16.801 -14.339  1.00  0.00    -0.203 F 
ATOM     66  C   UNL     1       4.539  18.435 -14.080  1.00  0.00     0.198 A 
ATOM     67  C   UNL     1       4.803  19.564 -11.979  1.00  0.00     0.198 A 
ATOM     68  F   UNL     1       3.423  19.005 -10.159  1.00  0.00    -0.203 F 
ATOM     69  F   UNL     1       4.932  18.232 -15.345  1.00  0.00    -0.200 F 
ATOM     70  C   UNL     1       5.193  19.374 -13.295  1.00  0.00     0.200 A 
ATOM     71  F   UNL     1       5.421  20.482 -11.223  1.00  0.00    -0.200 F 
ATOM     72  F   UNL     1       6.201  20.093 -13.807  1.00  0.00    -0.200 F 
ENDBRANCH  48  62
BRANCH  49  73
ATOM     73  C   UNL     1      -4.321  12.578  -8.087  1.00  0.00     0.064 A 
ATOM     74  C   UNL     1      -5.589  12.449  -8.671  1.00  0.00     0.173 A 
ATOM     75  C   UNL     1      -4.119  11.983  -6.832  1.00  0.00     0.173 A 
ATOM     76  F   UNL     1      -5.842  13.022  -9.857  1.00  0.00    -0.203 F 
ATOM     77  C   UNL     1      -6.619  11.779  -8.013  1.00  0.00     0.198 A 
ATOM     78  C   UNL     1      -5.139  11.284  -6.192  1.00  0.00     0.198 A 
ATOM     79  F   UNL     1      -2.925  12.080  -6.227  1.00  0.00    -0.203 F 
ATOM     80  F   UNL     1      -7.839  11.725  -8.566  1.00  0.00    -0.200 F 
ATOM     81  C   UNL     1      -6.392  11.192  -6.778  1.00  0.00     0.200 A 
ATOM     82  F   UNL     1      -4.911  10.709  -5.003  1.00  0.00    -0.200 F 
ATOM     83  F   UNL     1      -7.383  10.550  -6.146  1.00  0.00    -0.200 F 
ENDBRANCH  49  73
BRANCH  61  84
ATOM     84  C   UNL     1      -3.522  19.313  -9.724  1.00  0.00     0.064 A 
ATOM     85  C   UNL     1      -3.831  19.865  -8.472  1.00  0.00     0.173 A 
ATOM     86  C   UNL     1      -4.049  19.941 -10.864  1.00  0.00     0.173 A 
ATOM     87  F   UNL     1      -3.364  19.297  -7.349  1.00  0.00    -0.203 F 
ATOM     88  C   UNL     1      -4.659  20.980  -8.365  1.00  0.00     0.198 A 
ATOM     89  C   UNL     1      -4.845  21.078 -10.755  1.00  0.00     0.198 A 
ATOM     90  F   UNL     1      -3.778  19.462 -12.087  1.00  0.00    -0.203 F 
ATOM     91  F   UNL     1      -4.985  21.456  -7.155  1.00  0.00    -0.200 F 
ATOM     92  C   UNL     1      -5.158  21.590  -9.506  1.00  0.00     0.200 A 
ATOM     93  F   UNL     1      -5.310  21.677 -11.860  1.00  0.00    -0.200 F 
ATOM     94  F   UNL     1      -5.946  22.669  -9.401  1.00  0.00    -0.200 F 
ENDBRANCH  61  84
ENDBRANCH  35  36
ENDBRANCH  28  30
ENDBRANCH  27  28
ENDBRANCH  26  27
ENDBRANCH  25  26
ENDBRANCH  24  25
ENDBRANCH   1  24
TORSDOF 18
