REMARK SMILES CC(C)[N@@H+](C)Cc1cc2c(cc1Cl)C=C(C(=O)OCCOCCOC(=O)c1ccc(-c3c4nc(c(-c5c(F)c(F)c(F)c(F)c5F)c5ccc([nH]5)c(-c5c(F)c(F)c(F)c(F)c5F)c5nc(c(-c6c(F)c(F)c(F)c(F)c6F)c6ccc3[nH]6)C=C5)C=C4)cc1)[C@@H](C(F)(F)F)O2
REMARK SMILES IDX 20 1 19 2 18 3 16 4 17 5 15 6 7 7 8 8 12 9 9 10 11 11 13 12
REMARK SMILES IDX 10 13 95 14 14 15 90 16 6 17 4 18 5 19 2 21 1 22 3 23 91 24
REMARK SMILES IDX 92 25 93 26 94 27 21 28 22 29 23 30 24 31 25 32 26 33 27 34
REMARK SMILES IDX 28 35 89 36 29 37 88 38 30 39 31 40 32 41 82 42 33 43 87 44
REMARK SMILES IDX 81 45 83 46 34 47 86 48 80 49 79 50 35 52 67 53 47 54 66 55
REMARK SMILES IDX 48 56 51 57 65 58 84 59 49 60 50 61 64 63 85 64 52 65 36 66
REMARK SMILES IDX 37 67 45 68 38 69 39 70 43 71 46 72 40 73 41 74 44 75 42 76
REMARK SMILES IDX 68 77 69 78 77 79 70 80 71 81 75 82 78 83 72 84 73 85 76 86
REMARK SMILES IDX 74 87 53 88 54 89 62 90 55 91 56 92 60 93 63 94 57 95 58 96
REMARK SMILES IDX 61 97 59 98
REMARK H PARENT 4 20 83 51 51 62
REMARK Flexibility Score: inf
ROOT
ATOM      1  C   UNL     1       0.847  11.952   1.527  1.00  0.00     0.202 C 
ENDROOT
BRANCH   1   2
ATOM      2  C   UNL     1       0.398  11.528   0.125  1.00  0.00     0.261 C 
BRANCH   2   3
ATOM      3  O   UNL     1      -0.318  10.285   0.129  1.00  0.00    -0.460 OA
BRANCH   3   4
ATOM      4  C   UNL     1       0.368   9.278  -0.458  1.00  0.00     0.338 C 
ATOM      5  O   UNL     1       1.410   9.376  -1.087  1.00  0.00    -0.246 OA
BRANCH   4   6
ATOM      6  C   UNL     1      -0.230   7.978  -0.127  1.00  0.00     0.087 C 
ATOM      7  C   UNL     1      -0.676   3.007  -0.056  1.00  0.00     0.029 A 
ATOM      8  C   UNL     1      -1.593   4.058   0.203  1.00  0.00     0.058 A 
ATOM      9  C   UNL     1       0.646   3.361  -0.371  1.00  0.00     0.050 A 
ATOM     10  C   UNL     1      -1.169   5.391   0.197  1.00  0.00     0.128 A 
ATOM     11  C   UNL     1       1.094   4.663  -0.191  1.00  0.00     0.033 A 
ATOM     12  Cl  UNL     1       1.792   2.298  -1.098  1.00  0.00    -0.084 Cl
ATOM     13  C   UNL     1       0.189   5.671   0.097  1.00  0.00     0.019 A 
ATOM     14  O   UNL     1      -2.106   6.391   0.280  1.00  0.00    -0.475 OA
ATOM     15  C   UNL     1       0.672   7.029   0.136  1.00  0.00     0.027 C 
ATOM     16  C   UNL     1      -1.700   7.703  -0.251  1.00  0.00     0.316 C 
BRANCH   7  17
ATOM     17  C   UNL     1      -1.152   1.565  -0.025  1.00  0.00     0.300 C 
BRANCH  17  18
ATOM     18  N   UNL     1      -0.938   0.792   1.212  1.00  0.00    -0.332 N 
ATOM     19  C   UNL     1      -1.646   1.324   2.370  1.00  0.00     0.333 C 
ATOM     20  H   UNL     1      -1.389  -0.074   0.916  1.00  0.00     0.348 HD
BRANCH  18  21
ATOM     21  C   UNL     1       0.394   0.255   1.541  1.00  0.00     0.177 C 
ATOM     22  C   UNL     1       1.057  -0.548   0.410  1.00  0.00     0.075 C 
ATOM     23  C   UNL     1       1.358   1.227   2.240  1.00  0.00     0.075 C 
ENDBRANCH  18  21
ENDBRANCH  17  18
ENDBRANCH   7  17
BRANCH  16  24
ATOM     24  C   UNL     1      -2.171   7.889  -1.701  1.00  0.00     0.430 C 
ATOM     25  F   UNL     1      -3.489   7.614  -1.836  1.00  0.00    -0.167 F 
ATOM     26  F   UNL     1      -1.998   9.172  -2.105  1.00  0.00    -0.167 F 
ATOM     27  F   UNL     1      -1.497   7.100  -2.566  1.00  0.00    -0.167 F 
ENDBRANCH  16  24
ENDBRANCH   4   6
ENDBRANCH   3   4
ENDBRANCH   2   3
ENDBRANCH   1   2
BRANCH   1  28
ATOM     28  O   UNL     1       1.603  11.033   2.307  1.00  0.00    -0.374 OA
BRANCH  28  29
ATOM     29  C   UNL     1       0.965   9.875   2.839  1.00  0.00     0.202 C 
BRANCH  29  30
ATOM     30  C   UNL     1      -0.158  10.041   3.872  1.00  0.00     0.261 C 
BRANCH  30  31
ATOM     31  O   UNL     1      -1.307  10.734   3.357  1.00  0.00    -0.460 OA
BRANCH  31  32
ATOM     32  C   UNL     1      -1.517  11.962   3.899  1.00  0.00     0.338 C 
ATOM     33  O   UNL     1      -0.864  12.517   4.761  1.00  0.00    -0.246 OA
BRANCH  32  34
ATOM     34  C   UNL     1      -2.571  12.649   3.130  1.00  0.00     0.060 A 
ATOM     35  C   UNL     1      -3.865  12.135   3.076  1.00  0.00     0.016 A 
ATOM     36  C   UNL     1      -2.253  13.863   2.507  1.00  0.00     0.016 A 
ATOM     37  C   UNL     1      -4.855  12.859   2.409  1.00  0.00     0.010 A 
ATOM     38  C   UNL     1      -3.241  14.581   1.837  1.00  0.00     0.010 A 
ATOM     39  C   UNL     1      -4.555  14.094   1.804  1.00  0.00    -0.014 A 
BRANCH  39  40
ATOM     40  C   UNL     1      -5.643  14.943   1.264  1.00  0.00     0.031 A 
ATOM     41  C   UNL     1      -5.848  15.113  -0.209  1.00  0.00     0.074 A 
ATOM     42  C   UNL     1      -6.439  15.586   2.138  1.00  0.00     0.049 A 
ATOM     43  N   UNL     1      -6.794  15.767  -0.835  1.00  0.00    -0.248 NA
ATOM     44  C   UNL     1      -4.863  14.478  -1.094  1.00  0.00     0.031 C 
ATOM     45  C   UNL     1      -6.298  15.529   3.594  1.00  0.00     0.029 A 
ATOM     46  N   UNL     1      -7.521  16.403   1.937  1.00  0.00    -0.354 N 
ATOM     47  C   UNL     1      -6.534  15.605  -2.188  1.00  0.00     0.074 A 
ATOM     48  C   UNL     1      -5.310  14.837  -2.291  1.00  0.00     0.031 C 
ATOM     49  C   UNL     1      -7.279  16.248   4.156  1.00  0.00     0.029 A 
ATOM     50  C   UNL     1      -8.098  16.843   3.103  1.00  0.00     0.049 A 
ATOM     51  H   UNL     1      -7.853  16.651   1.044  1.00  0.00     0.167 HD
ATOM     52  C   UNL     1      -7.266  16.041  -3.242  1.00  0.00     0.037 A 
ATOM     53  C   UNL     1      -9.169  17.633   3.303  1.00  0.00     0.037 A 
ATOM     54  C   UNL     1      -8.472  16.824  -3.125  1.00  0.00     0.049 A 
ATOM     55  C   UNL     1      -9.938  18.140   2.116  1.00  0.00     0.074 A 
ATOM     56  C   UNL     1      -9.303  17.281  -4.133  1.00  0.00     0.029 A 
ATOM     57  N   UNL     1      -9.010  17.282  -1.930  1.00  0.00    -0.354 N 
ATOM     58  N   UNL     1      -9.734  17.913   0.841  1.00  0.00    -0.248 NA
ATOM     59  C   UNL     1     -11.091  19.007   2.394  1.00  0.00     0.031 C 
ATOM     60  C   UNL     1     -10.305  18.066  -3.555  1.00  0.00     0.029 A 
ATOM     61  C   UNL     1     -10.142  18.044  -2.179  1.00  0.00     0.049 A 
ATOM     62  H   UNL     1      -8.642  17.093  -1.036  1.00  0.00     0.167 HD
ATOM     63  C   UNL     1     -10.741  18.588   0.166  1.00  0.00     0.074 A 
ATOM     64  C   UNL     1     -11.567  19.220   1.174  1.00  0.00     0.031 C 
ATOM     65  C   UNL     1     -10.958  18.674  -1.170  1.00  0.00     0.037 A 
BRANCH  52  66
ATOM     66  C   UNL     1      -6.792  15.680  -4.621  1.00  0.00     0.064 A 
ATOM     67  C   UNL     1      -6.843  14.358  -5.090  1.00  0.00     0.173 A 
ATOM     68  C   UNL     1      -6.348  16.671  -5.509  1.00  0.00     0.173 A 
ATOM     69  F   UNL     1      -7.255  13.370  -4.280  1.00  0.00    -0.203 F 
ATOM     70  C   UNL     1      -6.449  14.040  -6.387  1.00  0.00     0.198 A 
ATOM     71  C   UNL     1      -5.984  16.354  -6.816  1.00  0.00     0.198 A 
ATOM     72  F   UNL     1      -6.287  17.953  -5.118  1.00  0.00    -0.203 F 
ATOM     73  F   UNL     1      -6.471  12.764  -6.798  1.00  0.00    -0.200 F 
ATOM     74  C   UNL     1      -6.029  15.039  -7.252  1.00  0.00     0.200 A 
ATOM     75  F   UNL     1      -5.596  17.324  -7.656  1.00  0.00    -0.200 F 
ATOM     76  F   UNL     1      -5.665  14.733  -8.505  1.00  0.00    -0.200 F 
ENDBRANCH  52  66
BRANCH  53  77
ATOM     77  C   UNL     1      -9.595  17.940   4.692  1.00  0.00     0.064 A 
ATOM     78  C   UNL     1     -10.769  17.388   5.221  1.00  0.00     0.173 A 
ATOM     79  C   UNL     1      -8.812  18.743   5.534  1.00  0.00     0.173 A 
ATOM     80  F   UNL     1     -11.559  16.628   4.449  1.00  0.00    -0.203 F 
ATOM     81  C   UNL     1     -11.145  17.630   6.541  1.00  0.00     0.198 A 
ATOM     82  C   UNL     1      -9.173  18.959   6.862  1.00  0.00     0.198 A 
ATOM     83  F   UNL     1      -7.675  19.287   5.076  1.00  0.00    -0.203 F 
ATOM     84  F   UNL     1     -12.286  17.110   7.015  1.00  0.00    -0.200 F 
ATOM     85  C   UNL     1     -10.341  18.405   7.363  1.00  0.00     0.200 A 
ATOM     86  F   UNL     1      -8.383  19.692   7.658  1.00  0.00    -0.200 F 
ATOM     87  F   UNL     1     -10.692  18.618   8.638  1.00  0.00    -0.200 F 
ENDBRANCH  53  77
BRANCH  65  88
ATOM     88  C   UNL     1     -12.148  19.468  -1.632  1.00  0.00     0.064 A 
ATOM     89  C   UNL     1     -12.183  20.867  -1.533  1.00  0.00     0.173 A 
ATOM     90  C   UNL     1     -13.236  18.828  -2.247  1.00  0.00     0.173 A 
ATOM     91  F   UNL     1     -11.176  21.528  -0.942  1.00  0.00    -0.203 F 
ATOM     92  C   UNL     1     -13.270  21.593  -2.015  1.00  0.00     0.198 A 
ATOM     93  C   UNL     1     -14.304  19.559  -2.758  1.00  0.00     0.198 A 
ATOM     94  F   UNL     1     -13.251  17.492  -2.374  1.00  0.00    -0.203 F 
ATOM     95  F   UNL     1     -13.299  22.925  -1.873  1.00  0.00    -0.200 F 
ATOM     96  C   UNL     1     -14.323  20.940  -2.637  1.00  0.00     0.200 A 
ATOM     97  F   UNL     1     -15.313  18.927  -3.375  1.00  0.00    -0.200 F 
ATOM     98  F   UNL     1     -15.359  21.642  -3.118  1.00  0.00    -0.200 F 
ENDBRANCH  65  88
ENDBRANCH  39  40
ENDBRANCH  32  34
ENDBRANCH  31  32
ENDBRANCH  30  31
ENDBRANCH  29  30
ENDBRANCH  28  29
ENDBRANCH   1  28
TORSDOF 18
