REMARK SMILES CS(=O)(=O)CC[C@H](NC(=O)Cc1ccn[nH]1)C(=O)OCCOCCOC(=O)c1ccc(-c2c3nc(c(-c4c(F)c(F)c(F)c(F)c4F)c4ccc([nH]4)c(-c4c(F)c(F)c(F)c(F)c4F)c4nc(c(-c5c(F)c(F)c(F)c(F)c5F)c5ccc2[nH]5)C=C4)C=C3)cc1
REMARK SMILES IDX 21 1 20 2 19 3 17 4 18 5 7 6 6 7 5 8 2 9 1 10 3 11 4 12 8 13
REMARK SMILES IDX 9 14 10 16 11 17 12 18 13 19 16 20 14 21 15 22 22 24 23 25
REMARK SMILES IDX 24 26 25 27 26 28 27 29 28 30 29 31 90 32 30 33 89 34 31 35
REMARK SMILES IDX 32 36 33 37 83 38 34 39 88 40 82 41 84 42 35 43 87 44 81 45
REMARK SMILES IDX 80 46 36 48 68 49 48 50 67 51 49 52 52 53 66 54 85 55 50 56
REMARK SMILES IDX 51 57 65 59 86 60 53 61 37 62 38 63 46 64 39 65 40 66 44 67
REMARK SMILES IDX 47 68 41 69 42 70 45 71 43 72 69 73 70 74 78 75 71 76 72 77
REMARK SMILES IDX 76 78 79 79 73 80 74 81 77 82 75 83 54 84 55 85 63 86 56 87
REMARK SMILES IDX 57 88 61 89 64 90 58 91 59 92 62 93 60 94
REMARK H PARENT 8 15 16 23 84 47 52 58
REMARK Flexibility Score: inf
ROOT
ATOM      1  C   UNL     1      -0.282   0.491  -6.692  1.00  0.00     0.202 C 
ENDROOT
BRANCH   1   2
ATOM      2  C   UNL     1       1.444   0.687  -6.443  1.00  0.00     0.261 C 
BRANCH   2   3
ATOM      3  O   UNL     1       2.136  -0.254  -5.585  1.00  0.00    -0.462 OA
BRANCH   3   4
ATOM      4  C   UNL     1       2.620   0.222  -4.416  1.00  0.00     0.328 C 
ATOM      5  O   UNL     1       3.032   1.370  -4.274  1.00  0.00    -0.250 OA
BRANCH   4   6
ATOM      6  C   UNL     1       2.355  -0.716  -3.192  1.00  0.00     0.193 C 
BRANCH   6   7
ATOM      7  C   UNL     1       3.621  -0.685  -2.307  1.00  0.00     0.053 C 
BRANCH   7   8
ATOM      8  C   UNL     1       3.388  -0.056  -0.933  1.00  0.00     0.139 C 
BRANCH   8   9
ATOM      9  S   UNL     1       2.622  -1.137   0.273  1.00  0.00     0.147 S 
ATOM     10  C   UNL     1       0.891  -0.737   0.235  1.00  0.00     0.158 C 
ATOM     11  O   UNL     1       3.116  -0.734   1.576  1.00  0.00    -0.229 OA
ATOM     12  O   UNL     1       2.760  -2.505  -0.186  1.00  0.00    -0.229 OA
ENDBRANCH   8   9
ENDBRANCH   7   8
ENDBRANCH   6   7
BRANCH   6  13
ATOM     13  N   UNL     1       1.882  -2.110  -3.257  1.00  0.00    -0.342 N 
ATOM     14  C   UNL     1       0.753  -2.598  -3.848  1.00  0.00     0.226 C 
ATOM     15  H   UNL     1       2.456  -2.777  -2.816  1.00  0.00     0.164 HD
ATOM     16  O   UNL     1       0.077  -3.422  -3.229  1.00  0.00    -0.275 OA
BRANCH  14  17
ATOM     17  C   UNL     1       0.446  -2.245  -5.277  1.00  0.00     0.155 C 
BRANCH  17  18
ATOM     18  C   UNL     1      -0.334  -0.974  -5.443  1.00  0.00     0.044 A 
ATOM     19  C   UNL     1      -0.251   0.692  -4.710  1.00  0.00     0.045 A 
ATOM     20  N   UNL     1      -1.676  -0.865  -6.760  1.00  0.00    -0.282 N 
ATOM     21  C   UNL     1      -1.478   1.802  -5.701  1.00  0.00     0.135 A 
ATOM     22  N   UNL     1      -2.258   0.893  -6.913  1.00  0.00    -0.184 NA
ATOM     23  H   UNL     1      -2.017  -1.623  -7.287  1.00  0.00     0.190 HD
ENDBRANCH  17  18
ENDBRANCH  14  17
ENDBRANCH   6  13
ENDBRANCH   4   6
ENDBRANCH   3   4
ENDBRANCH   2   3
ENDBRANCH   1   2
BRANCH   1  24
ATOM     24  O   UNL     1      -1.839   0.082  -5.323  1.00  0.00    -0.374 OA
BRANCH  24  25
ATOM     25  C   UNL     1      -2.250  -0.829  -4.137  1.00  0.00     0.202 C 
BRANCH  25  26
ATOM     26  C   UNL     1      -2.971  -2.203  -4.390  1.00  0.00     0.261 C 
BRANCH  26  27
ATOM     27  O   UNL     1      -2.286  -3.126  -5.282  1.00  0.00    -0.460 OA
BRANCH  27  28
ATOM     28  C   UNL     1      -2.939  -3.628  -6.364  1.00  0.00     0.338 C 
ATOM     29  O   UNL     1      -4.105  -3.428  -6.652  1.00  0.00    -0.246 OA
BRANCH  28  30
ATOM     30  C   UNL     1      -1.932  -4.099  -7.362  1.00  0.00     0.060 A 
ATOM     31  C   UNL     1      -1.734  -3.328  -8.522  1.00  0.00     0.016 A 
ATOM     32  C   UNL     1      -1.167  -5.249  -7.169  1.00  0.00     0.016 A 
ATOM     33  C   UNL     1      -0.756  -3.672  -9.463  1.00  0.00     0.010 A 
ATOM     34  C   UNL     1      -0.232  -5.631  -8.149  1.00  0.00     0.010 A 
ATOM     35  C   UNL     1      -0.024  -4.852  -9.306  1.00  0.00    -0.014 A 
BRANCH  35  36
ATOM     36  C   UNL     1       0.783  -5.390 -10.437  1.00  0.00     0.031 A 
ATOM     37  C   UNL     1       0.111  -6.332 -11.400  1.00  0.00     0.074 A 
ATOM     38  C   UNL     1       2.078  -5.075 -10.625  1.00  0.00     0.049 A 
ATOM     39  N   UNL     1       0.631  -7.081 -12.339  1.00  0.00    -0.248 NA
ATOM     40  C   UNL     1      -1.352  -6.439 -11.284  1.00  0.00     0.031 C 
ATOM     41  C   UNL     1       2.837  -4.099  -9.849  1.00  0.00     0.029 A 
ATOM     42  N   UNL     1       2.993  -5.572 -11.527  1.00  0.00    -0.354 N 
ATOM     43  C   UNL     1      -0.435  -7.769 -12.905  1.00  0.00     0.074 A 
ATOM     44  C   UNL     1      -1.631  -7.347 -12.207  1.00  0.00     0.031 C 
ATOM     45  C   UNL     1       4.113  -4.099 -10.278  1.00  0.00     0.029 A 
ATOM     46  C   UNL     1       4.272  -5.113 -11.323  1.00  0.00     0.049 A 
ATOM     47  H   UNL     1       2.753  -6.197 -12.249  1.00  0.00     0.167 HD
ATOM     48  C   UNL     1      -0.420  -8.680 -13.906  1.00  0.00     0.037 A 
ATOM     49  C   UNL     1       5.442  -5.505 -11.873  1.00  0.00     0.037 A 
ATOM     50  C   UNL     1       0.765  -9.105 -14.602  1.00  0.00     0.049 A 
ATOM     51  C   UNL     1       5.454  -6.614 -12.902  1.00  0.00     0.074 A 
ATOM     52  C   UNL     1       0.876 -10.015 -15.639  1.00  0.00     0.029 A 
ATOM     53  N   UNL     1       2.047  -8.657 -14.325  1.00  0.00    -0.354 N 
ATOM     54  N   UNL     1       4.448  -7.272 -13.425  1.00  0.00    -0.248 NA
ATOM     55  C   UNL     1       6.769  -7.045 -13.403  1.00  0.00     0.031 C 
ATOM     56  C   UNL     1       2.232 -10.167 -15.945  1.00  0.00     0.029 A 
ATOM     57  C   UNL     1       2.960  -9.304 -15.142  1.00  0.00     0.049 A 
ATOM     58  H   UNL     1       2.276  -7.979 -13.648  1.00  0.00     0.167 HD
ATOM     59  C   UNL     1       5.005  -8.173 -14.327  1.00  0.00     0.074 A 
ATOM     60  C   UNL     1       6.436  -7.968 -14.295  1.00  0.00     0.031 C 
ATOM     61  C   UNL     1       4.385  -9.092 -15.109  1.00  0.00     0.037 A 
BRANCH  48  62
ATOM     62  C   UNL     1      -1.722  -9.328 -14.274  1.00  0.00     0.064 A 
ATOM     63  C   UNL     1      -2.735  -8.631 -14.948  1.00  0.00     0.173 A 
ATOM     64  C   UNL     1      -1.942 -10.681 -13.974  1.00  0.00     0.173 A 
ATOM     65  F   UNL     1      -2.580  -7.332 -15.242  1.00  0.00    -0.203 F 
ATOM     66  C   UNL     1      -3.931  -9.260 -15.287  1.00  0.00     0.198 A 
ATOM     67  C   UNL     1      -3.125 -11.315 -14.343  1.00  0.00     0.198 A 
ATOM     68  F   UNL     1      -1.004 -11.394 -13.333  1.00  0.00    -0.203 F 
ATOM     69  F   UNL     1      -4.904  -8.563 -15.889  1.00  0.00    -0.200 F 
ATOM     70  C   UNL     1      -4.121 -10.602 -14.992  1.00  0.00     0.200 A 
ATOM     71  F   UNL     1      -3.301 -12.615 -14.069  1.00  0.00    -0.200 F 
ATOM     72  F   UNL     1      -5.269 -11.207 -15.328  1.00  0.00    -0.200 F 
ENDBRANCH  48  62
BRANCH  49  73
ATOM     73  C   UNL     1       6.726  -4.899 -11.420  1.00  0.00     0.064 A 
ATOM     74  C   UNL     1       7.521  -4.141 -12.291  1.00  0.00     0.173 A 
ATOM     75  C   UNL     1       7.211  -5.112 -10.120  1.00  0.00     0.173 A 
ATOM     76  F   UNL     1       7.124  -3.941 -13.556  1.00  0.00    -0.203 F 
ATOM     77  C   UNL     1       8.756  -3.634 -11.886  1.00  0.00     0.198 A 
ATOM     78  C   UNL     1       8.429  -4.577  -9.706  1.00  0.00     0.198 A 
ATOM     79  F   UNL     1       6.500  -5.843  -9.248  1.00  0.00    -0.203 F 
ATOM     80  F   UNL     1       9.520  -2.961 -12.757  1.00  0.00    -0.200 F 
ATOM     81  C   UNL     1       9.205  -3.846 -10.591  1.00  0.00     0.200 A 
ATOM     82  F   UNL     1       8.855  -4.777  -8.451  1.00  0.00    -0.200 F 
ATOM     83  F   UNL     1      10.390  -3.357 -10.202  1.00  0.00    -0.200 F 
ENDBRANCH  49  73
BRANCH  61  84
ATOM     84  C   UNL     1       5.236  -9.934 -16.017  1.00  0.00     0.064 A 
ATOM     85  C   UNL     1       6.063 -10.951 -15.517  1.00  0.00     0.173 A 
ATOM     86  C   UNL     1       5.173  -9.768 -17.410  1.00  0.00     0.173 A 
ATOM     87  F   UNL     1       6.170 -11.144 -14.194  1.00  0.00    -0.203 F 
ATOM     88  C   UNL     1       6.805 -11.759 -16.376  1.00  0.00     0.198 A 
ATOM     89  C   UNL     1       5.893 -10.597 -18.267  1.00  0.00     0.198 A 
ATOM     90  F   UNL     1       4.393  -8.816 -17.942  1.00  0.00    -0.203 F 
ATOM     91  F   UNL     1       7.617 -12.700 -15.873  1.00  0.00    -0.200 F 
ATOM     92  C   UNL     1       6.712 -11.588 -17.749  1.00  0.00     0.200 A 
ATOM     93  F   UNL     1       5.788 -10.441 -19.593  1.00  0.00    -0.200 F 
ATOM     94  F   UNL     1       7.415 -12.377 -18.574  1.00  0.00    -0.200 F 
ENDBRANCH  61  84
ENDBRANCH  35  36
ENDBRANCH  28  30
ENDBRANCH  27  28
ENDBRANCH  26  27
ENDBRANCH  25  26
ENDBRANCH  24  25
ENDBRANCH   1  24
TORSDOF 20
