REMARK SMILES CCOc1cc(CO)cc(Br)c1OCC(C)(C)C(=O)OCCOCCOC(=O)c1ccc(-c2c3nc(c(-c4c(F)c(F)c(F)c(F)c4F)c4ccc([nH]4)c(-c4c(F)c(F)c(F)c(F)c4F)c4nc(c(-c5c(F)c(F)c(F)c(F)c5F)c5ccc2[nH]5)C=C4)C=C3)cc1
REMARK SMILES IDX 21 1 20 2 18 3 19 4 15 5 16 6 17 7 14 8 13 9 12 10 4 11 5 12
REMARK SMILES IDX 6 13 10 14 9 15 11 16 3 17 2 18 1 19 7 20 8 21 22 23 23 24
REMARK SMILES IDX 24 25 25 26 26 27 27 28 28 29 29 30 30 31 91 32 31 33 90 34
REMARK SMILES IDX 32 35 33 36 34 37 84 38 35 39 89 40 83 41 85 42 36 43 88 44
REMARK SMILES IDX 82 45 81 46 37 48 69 49 49 50 68 51 50 52 53 53 67 54 86 55
REMARK SMILES IDX 51 56 52 57 66 59 87 60 54 61 38 62 39 63 47 64 40 65 41 66
REMARK SMILES IDX 45 67 48 68 42 69 43 70 46 71 44 72 70 73 71 74 79 75 72 76
REMARK SMILES IDX 73 77 77 78 80 79 74 80 75 81 78 82 76 83 55 84 56 85 64 86
REMARK SMILES IDX 57 87 58 88 62 89 65 90 59 91 60 92 63 93 61 94
REMARK H PARENT 8 22 85 47 53 58
REMARK Flexibility Score: inf
ROOT
ATOM      1  C   UNL     1       2.456   0.909   6.670  1.00  0.00     0.261 C 
ENDROOT
BRANCH   1   2
ATOM      2  O   UNL     1       3.277   2.010   6.247  1.00  0.00    -0.463 OA
BRANCH   2   3
ATOM      3  C   UNL     1       3.067   2.443   4.970  1.00  0.00     0.315 C 
ATOM      4  O   UNL     1       2.305   1.891   4.190  1.00  0.00    -0.251 OA
BRANCH   3   5
ATOM      5  C   UNL     1       3.950   3.639   4.611  1.00  0.00     0.096 C 
ATOM      6  C   UNL     1       5.242   3.057   4.027  1.00  0.00     0.027 C 
ATOM      7  C   UNL     1       4.369   4.469   5.853  1.00  0.00     0.027 C 
BRANCH   5   8
ATOM      8  C   UNL     1       3.145   4.620   3.699  1.00  0.00     0.248 C 
BRANCH   8   9
ATOM      9  O   UNL     1       2.588   4.230   2.436  1.00  0.00    -0.487 OA
BRANCH   9  10
ATOM     10  C   UNL     1       3.373   3.587   1.524  1.00  0.00     0.175 A 
ATOM     11  C   UNL     1       2.853   2.382   1.009  1.00  0.00     0.162 A 
ATOM     12  C   UNL     1       3.666   1.549   0.240  1.00  0.00     0.056 A 
ATOM     13  C   UNL     1       4.987   1.910  -0.052  1.00  0.00    -0.018 A 
ATOM     14  C   UNL     1       4.615   4.037   1.065  1.00  0.00     0.064 A 
ATOM     15  C   UNL     1       5.430   3.187   0.310  1.00  0.00     0.026 A 
ATOM     16  Br  UNL     1       5.252   5.809   1.325  1.00  0.00    -0.047 Br
BRANCH  11  17
ATOM     17  O   UNL     1       1.514   2.147   1.188  1.00  0.00    -0.490 OA
BRANCH  17  18
ATOM     18  C   UNL     1       1.096   0.809   1.465  1.00  0.00     0.226 C 
ATOM     19  C   UNL     1       0.680   0.057   0.208  1.00  0.00     0.049 C 
ENDBRANCH  17  18
ENDBRANCH  11  17
BRANCH  13  20
ATOM     20  C   UNL     1       5.880   0.980  -0.828  1.00  0.00     0.191 C 
BRANCH  20  21
ATOM     21  O   UNL     1       5.774  -0.354  -0.342  1.00  0.00    -0.392 OA
ATOM     22  H   UNL     1       6.045  -0.382   0.589  1.00  0.00     0.211 HD
ENDBRANCH  20  21
ENDBRANCH  13  20
ENDBRANCH   9  10
ENDBRANCH   8   9
ENDBRANCH   5   8
ENDBRANCH   3   5
ENDBRANCH   2   3
ENDBRANCH   1   2
BRANCH   1  23
ATOM     23  C   UNL     1       1.512   1.302   7.808  1.00  0.00     0.202 C 
BRANCH  23  24
ATOM     24  O   UNL     1       0.534   2.299   7.522  1.00  0.00    -0.374 OA
BRANCH  24  25
ATOM     25  C   UNL     1       0.974   3.652   7.413  1.00  0.00     0.202 C 
BRANCH  25  26
ATOM     26  C   UNL     1       1.370   4.357   8.717  1.00  0.00     0.261 C 
BRANCH  26  27
ATOM     27  O   UNL     1       2.526   3.759   9.336  1.00  0.00    -0.460 OA
BRANCH  27  28
ATOM     28  C   UNL     1       2.305   3.271  10.581  1.00  0.00     0.338 C 
ATOM     29  O   UNL     1       1.292   3.378  11.252  1.00  0.00    -0.246 OA
BRANCH  28  30
ATOM     30  C   UNL     1       3.420   2.401  10.998  1.00  0.00     0.060 A 
ATOM     31  C   UNL     1       3.107   1.076  11.325  1.00  0.00     0.016 A 
ATOM     32  C   UNL     1       4.715   2.892  11.178  1.00  0.00     0.016 A 
ATOM     33  C   UNL     1       4.077   0.250  11.886  1.00  0.00     0.010 A 
ATOM     34  C   UNL     1       5.687   2.062  11.752  1.00  0.00     0.010 A 
ATOM     35  C   UNL     1       5.359   0.751  12.146  1.00  0.00    -0.014 A 
BRANCH  35  36
ATOM     36  C   UNL     1       6.287  -0.065  12.965  1.00  0.00     0.031 A 
ATOM     37  C   UNL     1       6.371   0.184  14.446  1.00  0.00     0.074 A 
ATOM     38  C   UNL     1       6.982  -1.074  12.413  1.00  0.00     0.049 A 
ATOM     39  N   UNL     1       7.031  -0.475  15.365  1.00  0.00    -0.248 NA
ATOM     40  C   UNL     1       5.602   1.327  14.960  1.00  0.00     0.031 C 
ATOM     41  C   UNL     1       6.958  -1.437  10.998  1.00  0.00     0.029 A 
ATOM     42  N   UNL     1       7.829  -1.990  12.985  1.00  0.00    -0.354 N 
ATOM     43  C   UNL     1       6.751   0.166  16.564  1.00  0.00     0.074 A 
ATOM     44  C   UNL     1       5.894   1.291  16.251  1.00  0.00     0.031 C 
ATOM     45  C   UNL     1       7.744  -2.511  10.813  1.00  0.00     0.029 A 
ATOM     46  C   UNL     1       8.336  -2.899  12.092  1.00  0.00     0.049 A 
ATOM     47  H   UNL     1       8.052  -1.993  13.944  1.00  0.00     0.167 HD
ATOM     48  C   UNL     1       7.156  -0.160  17.815  1.00  0.00     0.037 A 
ATOM     49  C   UNL     1       9.179  -3.931  12.288  1.00  0.00     0.037 A 
ATOM     50  C   UNL     1       8.015  -1.273  18.127  1.00  0.00     0.049 A 
ATOM     51  C   UNL     1       9.675  -4.231  13.677  1.00  0.00     0.074 A 
ATOM     52  C   UNL     1       8.462  -1.701  19.365  1.00  0.00     0.029 A 
ATOM     53  N   UNL     1       8.568  -2.129  17.185  1.00  0.00    -0.354 N 
ATOM     54  N   UNL     1       9.373  -3.644  14.810  1.00  0.00    -0.248 NA
ATOM     55  C   UNL     1      10.626  -5.343  13.812  1.00  0.00     0.031 C 
ATOM     56  C   UNL     1       9.326  -2.786  19.168  1.00  0.00     0.029 A 
ATOM     57  C   UNL     1       9.379  -3.063  17.811  1.00  0.00     0.049 A 
ATOM     58  H   UNL     1       8.408  -2.080  16.215  1.00  0.00     0.167 HD
ATOM     59  C   UNL     1      10.078  -4.326  15.793  1.00  0.00     0.074 A 
ATOM     60  C   UNL     1      10.811  -5.381  15.124  1.00  0.00     0.031 C 
ATOM     61  C   UNL     1      10.114  -4.100  17.130  1.00  0.00     0.037 A 
BRANCH  48  62
ATOM     62  C   UNL     1       6.692   0.724  18.935  1.00  0.00     0.064 A 
ATOM     63  C   UNL     1       5.356   0.729  19.365  1.00  0.00     0.173 A 
ATOM     64  C   UNL     1       7.594   1.579  19.585  1.00  0.00     0.173 A 
ATOM     65  F   UNL     1       4.451  -0.059  18.766  1.00  0.00    -0.203 F 
ATOM     66  C   UNL     1       4.934   1.584  20.380  1.00  0.00     0.198 A 
ATOM     67  C   UNL     1       7.174   2.413  20.618  1.00  0.00     0.198 A 
ATOM     68  F   UNL     1       8.883   1.611  19.215  1.00  0.00    -0.203 F 
ATOM     69  F   UNL     1       3.642   1.613  20.736  1.00  0.00    -0.200 F 
ATOM     70  C   UNL     1       5.843   2.423  21.008  1.00  0.00     0.200 A 
ATOM     71  F   UNL     1       8.055   3.217  21.229  1.00  0.00    -0.200 F 
ATOM     72  F   UNL     1       5.434   3.249  21.980  1.00  0.00    -0.200 F 
ENDBRANCH  48  62
BRANCH  49  73
ATOM     73  C   UNL     1       9.588  -4.775  11.137  1.00  0.00     0.064 A 
ATOM     74  C   UNL     1       9.120  -6.089  11.005  1.00  0.00     0.173 A 
ATOM     75  C   UNL     1      10.446  -4.282  10.143  1.00  0.00     0.173 A 
ATOM     76  F   UNL     1       8.318  -6.611  11.944  1.00  0.00    -0.203 F 
ATOM     77  C   UNL     1       9.501  -6.882   9.925  1.00  0.00     0.198 A 
ATOM     78  C   UNL     1      10.807  -5.068   9.052  1.00  0.00     0.198 A 
ATOM     79  F   UNL     1      10.922  -3.031  10.227  1.00  0.00    -0.203 F 
ATOM     80  F   UNL     1       9.064  -8.146   9.838  1.00  0.00    -0.200 F 
ATOM     81  C   UNL     1      10.338  -6.369   8.945  1.00  0.00     0.200 A 
ATOM     82  F   UNL     1      11.608  -4.565   8.103  1.00  0.00    -0.200 F 
ATOM     83  F   UNL     1      10.695  -7.128   7.901  1.00  0.00    -0.200 F 
ENDBRANCH  49  73
BRANCH  61  84
ATOM     84  C   UNL     1      10.966  -5.020  17.956  1.00  0.00     0.064 A 
ATOM     85  C   UNL     1      12.367  -4.960  17.912  1.00  0.00     0.173 A 
ATOM     86  C   UNL     1      10.376  -5.963  18.812  1.00  0.00     0.173 A 
ATOM     87  F   UNL     1      12.980  -4.088  17.098  1.00  0.00    -0.203 F 
ATOM     88  C   UNL     1      13.145  -5.832  18.669  1.00  0.00     0.198 A 
ATOM     89  C   UNL     1      11.157  -6.814  19.589  1.00  0.00     0.198 A 
ATOM     90  F   UNL     1       9.041  -6.057  18.896  1.00  0.00    -0.203 F 
ATOM     91  F   UNL     1      14.481  -5.793  18.570  1.00  0.00    -0.200 F 
ATOM     92  C   UNL     1      12.540  -6.754  19.510  1.00  0.00     0.200 A 
ATOM     93  F   UNL     1      10.571  -7.697  20.409  1.00  0.00    -0.200 F 
ATOM     94  F   UNL     1      13.291  -7.593  20.237  1.00  0.00    -0.200 F 
ENDBRANCH  61  84
ENDBRANCH  35  36
ENDBRANCH  28  30
ENDBRANCH  27  28
ENDBRANCH  26  27
ENDBRANCH  25  26
ENDBRANCH  24  25
ENDBRANCH  23  24
ENDBRANCH   1  23
TORSDOF 21
