REMARK SMILES O=C1NC(=S)/C(=C/c2ccc(-c3ccc(C(=O)OCCOCCOC(=O)c4ccc(-c5c6nc(c(-c7c(F)c(F)c(F)c(F)c7F)c7ccc([nH]7)c(-c7c(F)c(F)c(F)c(F)c7F)c7nc(c(-c8c(F)c(F)c(F)c(F)c8F)c8ccc5[nH]8)C=C7)C=C6)cc4)cc3)o2)S1
REMARK SMILES IDX 21 1 20 2 19 3 18 4 16 5 17 6 15 7 12 8 13 9 91 10 14 11
REMARK SMILES IDX 90 12 11 13 8 14 9 15 92 16 10 17 7 18 1 19 2 20 3 21 93 22
REMARK SMILES IDX 4 23 6 25 5 26 22 27 23 28 24 29 25 30 26 31 27 32 28 33
REMARK SMILES IDX 89 34 29 35 88 36 30 37 31 38 32 39 82 40 33 41 87 42 81 43
REMARK SMILES IDX 83 44 34 45 86 46 80 47 79 48 35 50 67 51 47 52 66 53 48 54
REMARK SMILES IDX 51 55 65 56 84 57 49 58 50 59 64 61 85 62 52 63 36 64 37 65
REMARK SMILES IDX 45 66 38 67 39 68 43 69 46 70 40 71 41 72 44 73 42 74 68 75
REMARK SMILES IDX 69 76 77 77 70 78 71 79 75 80 78 81 72 82 73 83 76 84 74 85
REMARK SMILES IDX 53 86 54 87 62 88 55 89 56 90 60 91 63 92 57 93 58 94 61 95
REMARK SMILES IDX 59 96
REMARK H PARENT 3 24 83 49 51 60
REMARK Flexibility Score: inf
ROOT
ATOM      1  O   UNL     1      10.461  -9.513   5.210  1.00  0.00    -0.374 OA
ENDROOT
BRANCH   1   2
ATOM      2  C   UNL     1      10.350 -10.739   4.493  1.00  0.00     0.202 C 
BRANCH   2   3
ATOM      3  C   UNL     1       9.010 -11.076   3.833  1.00  0.00     0.261 C 
BRANCH   3   4
ATOM      4  O   UNL     1       8.606 -10.080   2.884  1.00  0.00    -0.460 OA
BRANCH   4   5
ATOM      5  C   UNL     1       7.594  -9.284   3.310  1.00  0.00     0.338 C 
ATOM      6  O   UNL     1       6.955  -9.405   4.342  1.00  0.00    -0.246 OA
BRANCH   5   7
ATOM      7  C   UNL     1       7.434  -8.123   2.405  1.00  0.00     0.060 A 
ATOM      8  C   UNL     1       6.790  -5.954   0.764  1.00  0.00     0.017 A 
ATOM      9  C   UNL     1       6.677  -5.834   2.153  1.00  0.00     0.013 A 
ATOM     10  C   UNL     1       7.337  -7.124   0.214  1.00  0.00     0.013 A 
ATOM     11  C   UNL     1       6.985  -6.922   2.970  1.00  0.00     0.016 A 
ATOM     12  C   UNL     1       7.669  -8.207   1.031  1.00  0.00     0.016 A 
BRANCH   8  13
ATOM     13  C   UNL     1       6.154  -4.980  -0.104  1.00  0.00     0.134 A 
ATOM     14  C   UNL     1       5.619  -2.929  -0.749  1.00  0.00     0.128 A 
ATOM     15  C   UNL     1       4.877  -3.826  -1.511  1.00  0.00     0.051 A 
ATOM     16  O   UNL     1       6.419  -3.661   0.104  1.00  0.00    -0.457 OA
ATOM     17  C   UNL     1       5.218  -5.128  -1.099  1.00  0.00     0.051 A 
BRANCH  14  18
ATOM     18  C   UNL     1       5.618  -1.509  -0.800  1.00  0.00     0.065 C 
ATOM     19  O   UNL     1       1.147   0.508   0.395  1.00  0.00    -0.261 OA
ATOM     20  C   UNL     1       2.289   0.258   0.040  1.00  0.00     0.289 C 
ATOM     21  N   UNL     1       3.224   1.166  -0.338  1.00  0.00    -0.307 N 
ATOM     22  S   UNL     1       2.962  -1.347  -0.070  1.00  0.00    -0.025 SA
ATOM     23  C   UNL     1       4.471   0.720  -0.697  1.00  0.00     0.120 C 
ATOM     24  H   UNL     1       3.012   2.127  -0.352  1.00  0.00     0.171 HD
ATOM     25  C   UNL     1       4.521  -0.768  -0.575  1.00  0.00     0.056 C 
ATOM     26  S   UNL     1       5.637   1.798  -1.204  1.00  0.00    -0.059 S 
ENDBRANCH  14  18
ENDBRANCH   8  13
ENDBRANCH   5   7
ENDBRANCH   4   5
ENDBRANCH   3   4
ENDBRANCH   2   3
ENDBRANCH   1   2
BRANCH   1  27
ATOM     27  C   UNL     1      10.564  -8.299   4.469  1.00  0.00     0.202 C 
BRANCH  27  28
ATOM     28  C   UNL     1      11.881  -7.996   3.742  1.00  0.00     0.261 C 
BRANCH  28  29
ATOM     29  O   UNL     1      12.224  -8.978   2.750  1.00  0.00    -0.460 OA
BRANCH  29  30
ATOM     30  C   UNL     1      13.252  -9.789   3.099  1.00  0.00     0.338 C 
ATOM     31  O   UNL     1      13.921  -9.746   4.117  1.00  0.00    -0.246 OA
BRANCH  30  32
ATOM     32  C   UNL     1      13.364 -10.896   2.133  1.00  0.00     0.060 A 
ATOM     33  C   UNL     1      13.287 -12.204   2.630  1.00  0.00     0.016 A 
ATOM     34  C   UNL     1      13.626 -10.660   0.784  1.00  0.00     0.016 A 
ATOM     35  C   UNL     1      13.518 -13.285   1.784  1.00  0.00     0.010 A 
ATOM     36  C   UNL     1      13.864 -11.747  -0.063  1.00  0.00     0.010 A 
ATOM     37  C   UNL     1      13.846 -13.062   0.440  1.00  0.00    -0.014 A 
BRANCH  37  38
ATOM     38  C   UNL     1      14.296 -14.194  -0.406  1.00  0.00     0.031 A 
ATOM     39  C   UNL     1      15.761 -14.346  -0.708  1.00  0.00     0.074 A 
ATOM     40  C   UNL     1      13.411 -15.087  -0.881  1.00  0.00     0.049 A 
ATOM     41  N   UNL     1      16.367 -15.223  -1.466  1.00  0.00    -0.248 NA
ATOM     42  C   UNL     1      16.664 -13.374  -0.071  1.00  0.00     0.031 C 
ATOM     43  C   UNL     1      11.973 -15.067  -0.625  1.00  0.00     0.029 A 
ATOM     44  N   UNL     1      13.595 -16.181  -1.689  1.00  0.00    -0.354 N 
ATOM     45  C   UNL     1      17.718 -14.905  -1.406  1.00  0.00     0.074 A 
ATOM     46  C   UNL     1      17.839 -13.732  -0.567  1.00  0.00     0.031 C 
ATOM     47  C   UNL     1      11.401 -16.096  -1.273  1.00  0.00     0.029 A 
ATOM     48  C   UNL     1      12.427 -16.820  -2.020  1.00  0.00     0.049 A 
ATOM     49  H   UNL     1      14.480 -16.479  -2.001  1.00  0.00     0.167 HD
ATOM     50  C   UNL     1      18.763 -15.541  -1.988  1.00  0.00     0.037 A 
ATOM     51  C   UNL     1      12.209 -17.855  -2.855  1.00  0.00     0.037 A 
ATOM     52  C   UNL     1      18.635 -16.708  -2.823  1.00  0.00     0.049 A 
ATOM     53  C   UNL     1      13.380 -18.498  -3.554  1.00  0.00     0.074 A 
ATOM     54  C   UNL     1      19.633 -17.437  -3.446  1.00  0.00     0.029 A 
ATOM     55  N   UNL     1      17.431 -17.311  -3.160  1.00  0.00    -0.354 N 
ATOM     56  N   UNL     1      14.656 -18.209  -3.472  1.00  0.00    -0.248 NA
ATOM     57  C   UNL     1      13.078 -19.617  -4.457  1.00  0.00     0.031 C 
ATOM     58  C   UNL     1      19.030 -18.440  -4.211  1.00  0.00     0.029 A 
ATOM     59  C   UNL     1      17.660 -18.384  -4.008  1.00  0.00     0.049 A 
ATOM     60  H   UNL     1      16.546 -17.019  -2.844  1.00  0.00     0.167 HD
ATOM     61  C   UNL     1      15.310 -19.127  -4.284  1.00  0.00     0.074 A 
ATOM     62  C   UNL     1      14.291 -19.993  -4.838  1.00  0.00     0.031 C 
ATOM     63  C   UNL     1      16.636 -19.244  -4.546  1.00  0.00     0.037 A 
BRANCH  50  64
ATOM     64  C   UNL     1      20.136 -14.972  -1.767  1.00  0.00     0.064 A 
ATOM     65  C   UNL     1      20.766 -15.024  -0.514  1.00  0.00     0.173 A 
ATOM     66  C   UNL     1      20.847 -14.400  -2.833  1.00  0.00     0.173 A 
ATOM     67  F   UNL     1      20.128 -15.550   0.542  1.00  0.00    -0.203 F 
ATOM     68  C   UNL     1      22.043 -14.497  -0.331  1.00  0.00     0.198 A 
ATOM     69  C   UNL     1      22.136 -13.906  -2.654  1.00  0.00     0.198 A 
ATOM     70  F   UNL     1      20.295 -14.329  -4.054  1.00  0.00    -0.203 F 
ATOM     71  F   UNL     1      22.603 -14.511   0.887  1.00  0.00    -0.200 F 
ATOM     72  C   UNL     1      22.730 -13.947  -1.402  1.00  0.00     0.200 A 
ATOM     73  F   UNL     1      22.805 -13.389  -3.695  1.00  0.00    -0.200 F 
ATOM     74  F   UNL     1      23.961 -13.449  -1.226  1.00  0.00    -0.200 F 
ENDBRANCH  50  64
BRANCH  51  75
ATOM     75  C   UNL     1      10.823 -18.340  -3.091  1.00  0.00     0.064 A 
ATOM     76  C   UNL     1      10.418 -19.614  -2.670  1.00  0.00     0.173 A 
ATOM     77  C   UNL     1       9.880 -17.546  -3.761  1.00  0.00     0.173 A 
ATOM     78  F   UNL     1      11.289 -20.421  -2.046  1.00  0.00    -0.203 F 
ATOM     79  C   UNL     1       9.132 -20.084  -2.930  1.00  0.00     0.198 A 
ATOM     80  C   UNL     1       8.584 -18.004  -3.991  1.00  0.00     0.198 A 
ATOM     81  F   UNL     1      10.214 -16.318  -4.186  1.00  0.00    -0.203 F 
ATOM     82  F   UNL     1       8.789 -21.327  -2.565  1.00  0.00    -0.200 F 
ATOM     83  C   UNL     1       8.214 -19.276  -3.584  1.00  0.00     0.200 A 
ATOM     84  F   UNL     1       7.697 -17.213  -4.609  1.00  0.00    -0.200 F 
ATOM     85  F   UNL     1       6.977 -19.727  -3.832  1.00  0.00    -0.200 F 
ENDBRANCH  51  75
BRANCH  63  86
ATOM     86  C   UNL     1      17.070 -20.376  -5.436  1.00  0.00     0.064 A 
ATOM     87  C   UNL     1      16.778 -20.396  -6.808  1.00  0.00     0.173 A 
ATOM     88  C   UNL     1      17.824 -21.438  -4.913  1.00  0.00     0.173 A 
ATOM     89  F   UNL     1      16.049 -19.412  -7.358  1.00  0.00    -0.203 F 
ATOM     90  C   UNL     1      17.196 -21.451  -7.615  1.00  0.00     0.198 A 
ATOM     91  C   UNL     1      18.272 -22.473  -5.729  1.00  0.00     0.198 A 
ATOM     92  F   UNL     1      18.140 -21.466  -3.609  1.00  0.00    -0.203 F 
ATOM     93  F   UNL     1      16.857 -21.476  -8.911  1.00  0.00    -0.200 F 
ATOM     94  C   UNL     1      17.950 -22.484  -7.077  1.00  0.00     0.200 A 
ATOM     95  F   UNL     1      19.016 -23.460  -5.210  1.00  0.00    -0.200 F 
ATOM     96  F   UNL     1      18.359 -23.494  -7.857  1.00  0.00    -0.200 F 
ENDBRANCH  63  86
ENDBRANCH  37  38
ENDBRANCH  30  32
ENDBRANCH  29  30
ENDBRANCH  28  29
ENDBRANCH  27  28
ENDBRANCH   1  27
TORSDOF 16
