REMARK SMILES COc1cc(F)ccc1NCC(C)(C)C(=O)OCCOCCOC(=O)c1ccc(-c2c3nc(c(-c4c(F)c(F)c(F)c(F)c4F)c4ccc([nH]4)c(-c4c(F)c(F)c(F)c(F)c4F)c4nc(c(-c5c(F)c(F)c(F)c(F)c5F)c5ccc2[nH]5)C=C4)C=C3)cc1
REMARK SMILES IDX 19 1 18 2 17 3 15 4 16 5 12 6 13 7 14 8 11 9 10 10 9 12 3 13
REMARK SMILES IDX 4 14 5 15 8 16 6 17 7 18 2 19 1 20 20 21 21 22 22 23 23 24
REMARK SMILES IDX 24 25 25 26 26 27 27 28 88 29 28 30 87 31 29 32 30 33 31 34
REMARK SMILES IDX 81 35 32 36 86 37 80 38 82 39 33 40 85 41 79 42 78 43 34 45
REMARK SMILES IDX 66 46 46 47 65 48 47 49 50 50 64 51 83 52 48 53 49 54 63 56
REMARK SMILES IDX 84 57 51 58 35 59 36 60 44 61 37 62 38 63 42 64 45 65 39 66
REMARK SMILES IDX 40 67 43 68 41 69 67 70 68 71 76 72 69 73 70 74 74 75 77 76
REMARK SMILES IDX 71 77 72 78 75 79 73 80 52 81 53 82 61 83 54 84 55 85 59 86
REMARK SMILES IDX 62 87 56 88 57 89 60 90 58 91
REMARK H PARENT 10 11 82 44 50 55
REMARK Flexibility Score: inf
ROOT
ATOM      1  C   UNL     1      -0.130   4.954  -5.825  1.00  0.00     0.202 C 
ENDROOT
BRANCH   1   2
ATOM      2  C   UNL     1      -0.791   3.604  -5.537  1.00  0.00     0.261 C 
BRANCH   2   3
ATOM      3  O   UNL     1      -1.947   3.768  -4.703  1.00  0.00    -0.463 OA
BRANCH   3   4
ATOM      4  C   UNL     1      -2.156   2.769  -3.805  1.00  0.00     0.313 C 
ATOM      5  O   UNL     1      -1.561   1.697  -3.827  1.00  0.00    -0.252 OA
BRANCH   4   6
ATOM      6  C   UNL     1      -3.222   3.127  -2.763  1.00  0.00     0.080 C 
ATOM      7  C   UNL     1      -4.066   1.862  -2.529  1.00  0.00     0.025 C 
ATOM      8  C   UNL     1      -4.176   4.235  -3.259  1.00  0.00     0.025 C 
BRANCH   6   9
ATOM      9  C   UNL     1      -2.561   3.614  -1.451  1.00  0.00     0.131 C 
BRANCH   9  10
ATOM     10  N   UNL     1      -1.483   2.763  -0.986  1.00  0.00    -0.381 N 
ATOM     11  H   UNL     1      -1.698   1.815  -0.830  1.00  0.00     0.160 HD
BRANCH  10  12
ATOM     12  C   UNL     1      -0.173   3.159  -0.739  1.00  0.00     0.077 A 
ATOM     13  C   UNL     1       0.828   2.162  -0.642  1.00  0.00     0.144 A 
ATOM     14  C   UNL     1       2.171   2.498  -0.452  1.00  0.00     0.087 A 
ATOM     15  C   UNL     1       2.518   3.832  -0.304  1.00  0.00     0.127 A 
ATOM     16  C   UNL     1       0.212   4.491  -0.543  1.00  0.00     0.032 A 
ATOM     17  F   UNL     1       3.804   4.163  -0.126  1.00  0.00    -0.207 F 
ATOM     18  C   UNL     1       1.554   4.829  -0.334  1.00  0.00     0.041 A 
BRANCH  13  19
ATOM     19  O   UNL     1       0.411   0.860  -0.820  1.00  0.00    -0.494 OA
ATOM     20  C   UNL     1       1.007  -0.066   0.083  1.00  0.00     0.278 C 
ENDBRANCH  13  19
ENDBRANCH  10  12
ENDBRANCH   9  10
ENDBRANCH   6   9
ENDBRANCH   4   6
ENDBRANCH   3   4
ENDBRANCH   2   3
ENDBRANCH   1   2
BRANCH   1  21
ATOM     21  O   UNL     1       0.320   5.696  -4.693  1.00  0.00    -0.374 OA
BRANCH  21  22
ATOM     22  C   UNL     1      -0.671   6.276  -3.845  1.00  0.00     0.202 C 
BRANCH  22  23
ATOM     23  C   UNL     1      -1.411   7.505  -4.388  1.00  0.00     0.261 C 
BRANCH  23  24
ATOM     24  O   UNL     1      -2.196   7.214  -5.559  1.00  0.00    -0.460 OA
BRANCH  24  25
ATOM     25  C   UNL     1      -1.796   7.862  -6.680  1.00  0.00     0.338 C 
ATOM     26  O   UNL     1      -0.912   8.702  -6.778  1.00  0.00    -0.246 OA
BRANCH  25  27
ATOM     27  C   UNL     1      -2.470   7.307  -7.866  1.00  0.00     0.060 A 
ATOM     28  C   UNL     1      -1.661   6.807  -8.895  1.00  0.00     0.016 A 
ATOM     29  C   UNL     1      -3.855   7.378  -8.023  1.00  0.00     0.016 A 
ATOM     30  C   UNL     1      -2.230   6.420 -10.105  1.00  0.00     0.010 A 
ATOM     31  C   UNL     1      -4.425   7.000  -9.245  1.00  0.00     0.010 A 
ATOM     32  C   UNL     1      -3.610   6.554 -10.302  1.00  0.00    -0.014 A 
BRANCH  32  33
ATOM     33  C   UNL     1      -4.171   6.368 -11.662  1.00  0.00     0.031 A 
ATOM     34  C   UNL     1      -4.412   7.576 -12.525  1.00  0.00     0.074 A 
ATOM     35  C   UNL     1      -4.418   5.137 -12.142  1.00  0.00     0.049 A 
ATOM     36  N   UNL     1      -4.912   7.648 -13.732  1.00  0.00    -0.248 NA
ATOM     37  C   UNL     1      -4.032   8.878 -11.952  1.00  0.00     0.031 C 
ATOM     38  C   UNL     1      -4.177   3.889 -11.422  1.00  0.00     0.029 A 
ATOM     39  N   UNL     1      -4.927   4.736 -13.353  1.00  0.00    -0.354 N 
ATOM     40  C   UNL     1      -4.907   8.997 -14.062  1.00  0.00     0.074 A 
ATOM     41  C   UNL     1      -4.380   9.713 -12.921  1.00  0.00     0.031 C 
ATOM     42  C   UNL     1      -4.542   2.858 -12.203  1.00  0.00     0.029 A 
ATOM     43  C   UNL     1      -5.071   3.376 -13.464  1.00  0.00     0.049 A 
ATOM     44  H   UNL     1      -5.165   5.364 -14.072  1.00  0.00     0.167 HD
ATOM     45  C   UNL     1      -5.296   9.582 -15.219  1.00  0.00     0.037 A 
ATOM     46  C   UNL     1      -5.588   2.635 -14.464  1.00  0.00     0.037 A 
ATOM     47  C   UNL     1      -5.814   8.868 -16.356  1.00  0.00     0.049 A 
ATOM     48  C   UNL     1      -6.085   3.316 -15.712  1.00  0.00     0.074 A 
ATOM     49  C   UNL     1      -6.228   9.376 -17.575  1.00  0.00     0.029 A 
ATOM     50  N   UNL     1      -5.990   7.494 -16.412  1.00  0.00    -0.354 N 
ATOM     51  N   UNL     1      -6.075   4.591 -16.017  1.00  0.00    -0.248 NA
ATOM     52  C   UNL     1      -6.667   2.457 -16.755  1.00  0.00     0.031 C 
ATOM     53  C   UNL     1      -6.696   8.313 -18.354  1.00  0.00     0.029 A 
ATOM     54  C   UNL     1      -6.528   7.139 -17.638  1.00  0.00     0.049 A 
ATOM     55  H   UNL     1      -5.766   6.865 -15.689  1.00  0.00     0.167 HD
ATOM     56  C   UNL     1      -6.626   4.686 -17.288  1.00  0.00     0.074 A 
ATOM     57  C   UNL     1      -6.952   3.338 -17.705  1.00  0.00     0.031 C 
ATOM     58  C   UNL     1      -6.841   5.792 -18.041  1.00  0.00     0.037 A 
BRANCH  45  59
ATOM     59  C   UNL     1      -5.191  11.074 -15.319  1.00  0.00     0.064 A 
ATOM     60  C   UNL     1      -6.348  11.868 -15.325  1.00  0.00     0.173 A 
ATOM     61  C   UNL     1      -3.954  11.711 -15.485  1.00  0.00     0.173 A 
ATOM     62  F   UNL     1      -7.556  11.304 -15.173  1.00  0.00    -0.203 F 
ATOM     63  C   UNL     1      -6.270  13.245 -15.509  1.00  0.00     0.198 A 
ATOM     64  C   UNL     1      -3.877  13.092 -15.646  1.00  0.00     0.198 A 
ATOM     65  F   UNL     1      -2.819  10.996 -15.474  1.00  0.00    -0.203 F 
ATOM     66  F   UNL     1      -7.390  13.980 -15.542  1.00  0.00    -0.200 F 
ATOM     67  C   UNL     1      -5.035  13.857 -15.668  1.00  0.00     0.200 A 
ATOM     68  F   UNL     1      -2.683  13.685 -15.780  1.00  0.00    -0.200 F 
ATOM     69  F   UNL     1      -4.961  15.183 -15.842  1.00  0.00    -0.200 F 
ENDBRANCH  45  59
BRANCH  46  70
ATOM     70  C   UNL     1      -5.666   1.158 -14.319  1.00  0.00     0.064 A 
ATOM     71  C   UNL     1      -6.551   0.566 -13.406  1.00  0.00     0.173 A 
ATOM     72  C   UNL     1      -4.848   0.312 -15.079  1.00  0.00     0.173 A 
ATOM     73  F   UNL     1      -7.358   1.333 -12.658  1.00  0.00    -0.203 F 
ATOM     74  C   UNL     1      -6.600  -0.817 -13.245  1.00  0.00     0.198 A 
ATOM     75  C   UNL     1      -4.916  -1.072 -14.935  1.00  0.00     0.198 A 
ATOM     76  F   UNL     1      -4.005   0.831 -15.984  1.00  0.00    -0.203 F 
ATOM     77  F   UNL     1      -7.434  -1.356 -12.345  1.00  0.00    -0.200 F 
ATOM     78  C   UNL     1      -5.785  -1.635 -14.012  1.00  0.00     0.200 A 
ATOM     79  F   UNL     1      -4.146  -1.861 -15.696  1.00  0.00    -0.200 F 
ATOM     80  F   UNL     1      -5.841  -2.966 -13.866  1.00  0.00    -0.200 F 
ENDBRANCH  46  70
BRANCH  58  81
ATOM     81  C   UNL     1      -7.440   5.606 -19.404  1.00  0.00     0.064 A 
ATOM     82  C   UNL     1      -6.665   5.817 -20.555  1.00  0.00     0.173 A 
ATOM     83  C   UNL     1      -8.800   5.311 -19.571  1.00  0.00     0.173 A 
ATOM     84  F   UNL     1      -5.361   6.111 -20.447  1.00  0.00    -0.203 F 
ATOM     85  C   UNL     1      -7.236   5.757 -21.823  1.00  0.00     0.198 A 
ATOM     86  C   UNL     1      -9.362   5.227 -20.842  1.00  0.00     0.198 A 
ATOM     87  F   UNL     1      -9.579   5.091 -18.501  1.00  0.00    -0.203 F 
ATOM     88  F   UNL     1      -6.485   5.998 -22.907  1.00  0.00    -0.200 F 
ATOM     89  C   UNL     1      -8.583   5.460 -21.966  1.00  0.00     0.200 A 
ATOM     90  F   UNL     1     -10.659   4.920 -20.980  1.00  0.00    -0.200 F 
ATOM     91  F   UNL     1      -9.130   5.398 -23.187  1.00  0.00    -0.200 F 
ENDBRANCH  58  81
ENDBRANCH  32  33
ENDBRANCH  25  27
ENDBRANCH  24  25
ENDBRANCH  23  24
ENDBRANCH  22  23
ENDBRANCH  21  22
ENDBRANCH   1  21
TORSDOF 18
