REMARK SMILES CCc1ccc2c(CC(=O)OCCOCCOC(=O)c3ccc(-c4c5nc(c(-c6c(F)c(F)c(F)c(F)c6F)c6ccc([nH]6)c(-c6c(F)c(F)c(F)c(F)c6F)c6nc(c(-c7c(F)c(F)c(F)c(F)c7F)c7ccc4[nH]7)C=C6)C=C5)cc3)c(C(=O)c3cc(C)ccn3)[nH]c2c1
REMARK SMILES IDX 13 1 12 2 11 3 9 4 10 5 8 6 7 7 3 8 4 9 95 10 5 11 94 12
REMARK SMILES IDX 6 13 93 14 83 15 2 17 1 18 84 19 85 20 86 21 87 22 92 23
REMARK SMILES IDX 88 24 91 25 89 26 90 27 14 28 15 29 16 30 17 31 18 32 19 33
REMARK SMILES IDX 20 34 21 35 82 36 22 37 81 38 23 39 24 40 25 41 75 42 26 43
REMARK SMILES IDX 80 44 74 45 76 46 27 47 79 48 73 49 72 50 28 52 60 53 40 54
REMARK SMILES IDX 59 55 41 56 44 57 58 58 77 59 42 60 43 61 57 63 78 64 45 65
REMARK SMILES IDX 29 66 30 67 38 68 31 69 32 70 36 71 39 72 33 73 34 74 37 75
REMARK SMILES IDX 35 76 61 77 62 78 70 79 63 80 64 81 68 82 71 83 65 84 66 85
REMARK SMILES IDX 69 86 67 87 46 88 47 89 55 90 48 91 49 92 53 93 56 94 50 95
REMARK SMILES IDX 51 96 54 97 52 98
REMARK H PARENT 93 16 76 51 44 62
REMARK Flexibility Score: inf
ROOT
ATOM      1  C   UNL     1       1.703   8.998   6.145  1.00  0.00     0.202 C 
ENDROOT
BRANCH   1   2
ATOM      2  C   UNL     1       0.788   8.570   4.988  1.00  0.00     0.261 C 
BRANCH   2   3
ATOM      3  O   UNL     1       1.417   7.663   4.059  1.00  0.00    -0.463 OA
BRANCH   3   4
ATOM      4  C   UNL     1       1.098   7.877   2.751  1.00  0.00     0.310 C 
ATOM      5  O   UNL     1       0.211   8.645   2.382  1.00  0.00    -0.252 OA
BRANCH   4   6
ATOM      6  C   UNL     1       2.021   7.204   1.755  1.00  0.00     0.161 C 
BRANCH   6   7
ATOM      7  C   UNL     1       2.566   5.846   2.110  1.00  0.00     0.000 A 
ATOM      8  C   UNL     1       0.959   1.951   1.839  1.00  0.00    -0.046 A 
ATOM      9  C   UNL     1       0.059   2.998   1.613  1.00  0.00     0.004 A 
ATOM     10  C   UNL     1       2.276   2.235   2.238  1.00  0.00     0.030 A 
ATOM     11  C   UNL     1       0.459   4.335   1.734  1.00  0.00     0.011 A 
ATOM     12  C   UNL     1       2.663   3.579   2.324  1.00  0.00     0.046 A 
ATOM     13  C   UNL     1       1.798   4.633   2.059  1.00  0.00     0.004 A 
ATOM     14  N   UNL     1       3.884   4.130   2.629  1.00  0.00    -0.352 N 
ATOM     15  C   UNL     1       3.899   5.483   2.350  1.00  0.00     0.093 A 
ATOM     16  H   UNL     1       4.646   3.628   2.998  1.00  0.00     0.167 HD
BRANCH   8  17
ATOM     17  C   UNL     1       0.538   0.523   1.584  1.00  0.00     0.032 C 
ATOM     18  C   UNL     1       0.965   0.055   0.197  1.00  0.00     0.009 C 
ENDBRANCH   8  17
BRANCH  15  19
ATOM     19  C   UNL     1       5.107   6.311   2.310  1.00  0.00     0.227 C 
ATOM     20  O   UNL     1       5.119   7.462   1.878  1.00  0.00    -0.285 OA
BRANCH  19  21
ATOM     21  C   UNL     1       6.390   5.776   2.861  1.00  0.00     0.113 A 
ATOM     22  C   UNL     1       7.117   4.792   2.205  1.00  0.00     0.036 A 
ATOM     23  N   UNL     1       6.774   6.321   4.043  1.00  0.00    -0.253 NA
ATOM     24  C   UNL     1       8.290   4.328   2.814  1.00  0.00    -0.047 A 
ATOM     25  C   UNL     1       7.898   5.854   4.615  1.00  0.00     0.112 A 
ATOM     26  C   UNL     1       9.153   3.285   2.171  1.00  0.00     0.044 C 
ATOM     27  C   UNL     1       8.677   4.867   4.046  1.00  0.00     0.023 A 
ENDBRANCH  19  21
ENDBRANCH  15  19
ENDBRANCH   6   7
ENDBRANCH   4   6
ENDBRANCH   3   4
ENDBRANCH   2   3
ENDBRANCH   1   2
BRANCH   1  28
ATOM     28  O   UNL     1       2.953   9.597   5.803  1.00  0.00    -0.374 OA
BRANCH  28  29
ATOM     29  C   UNL     1       3.856   8.817   5.025  1.00  0.00     0.202 C 
BRANCH  29  30
ATOM     30  C   UNL     1       4.410   7.550   5.678  1.00  0.00     0.261 C 
BRANCH  30  31
ATOM     31  O   UNL     1       3.442   6.747   6.356  1.00  0.00    -0.460 OA
BRANCH  31  32
ATOM     32  C   UNL     1       3.860   6.251   7.533  1.00  0.00     0.338 C 
ATOM     33  O   UNL     1       4.975   6.326   8.046  1.00  0.00    -0.246 OA
BRANCH  32  34
ATOM     34  C   UNL     1       2.727   5.635   8.216  1.00  0.00     0.060 A 
ATOM     35  C   UNL     1       2.158   6.320   9.293  1.00  0.00     0.016 A 
ATOM     36  C   UNL     1       2.333   4.335   7.888  1.00  0.00     0.016 A 
ATOM     37  C   UNL     1       1.237   5.667  10.102  1.00  0.00     0.010 A 
ATOM     38  C   UNL     1       1.403   3.685   8.698  1.00  0.00     0.010 A 
ATOM     39  C   UNL     1       0.897   4.331   9.839  1.00  0.00    -0.014 A 
BRANCH  39  40
ATOM     40  C   UNL     1       0.156   3.574  10.871  1.00  0.00     0.031 A 
ATOM     41  C   UNL     1       0.929   2.714  11.832  1.00  0.00     0.074 A 
ATOM     42  C   UNL     1      -1.173   3.723  10.996  1.00  0.00     0.049 A 
ATOM     43  N   UNL     1       0.508   2.047  12.875  1.00  0.00    -0.248 NA
ATOM     44  C   UNL     1       2.376   2.591  11.585  1.00  0.00     0.031 C 
ATOM     45  C   UNL     1      -2.011   4.546  10.126  1.00  0.00     0.029 A 
ATOM     46  N   UNL     1      -2.045   3.201  11.915  1.00  0.00    -0.354 N 
ATOM     47  C   UNL     1       1.634   1.435  13.411  1.00  0.00     0.074 A 
ATOM     48  C   UNL     1       2.750   1.772  12.556  1.00  0.00     0.031 C 
ATOM     49  C   UNL     1      -3.280   4.486  10.563  1.00  0.00     0.029 A 
ATOM     50  C   UNL     1      -3.341   3.612  11.733  1.00  0.00     0.049 A 
ATOM     51  H   UNL     1      -1.768   2.590  12.635  1.00  0.00     0.167 HD
ATOM     52  C   UNL     1       1.729   0.675  14.528  1.00  0.00     0.037 A 
ATOM     53  C   UNL     1      -4.446   3.319  12.443  1.00  0.00     0.037 A 
ATOM     54  C   UNL     1       0.611   0.343  15.371  1.00  0.00     0.049 A 
ATOM     55  C   UNL     1      -4.318   2.451  13.667  1.00  0.00     0.074 A 
ATOM     56  C   UNL     1       0.591  -0.423  16.522  1.00  0.00     0.029 A 
ATOM     57  N   UNL     1      -0.692   0.763  15.145  1.00  0.00    -0.354 N 
ATOM     58  N   UNL     1      -3.245   1.903  14.185  1.00  0.00    -0.248 NA
ATOM     59  C   UNL     1      -5.552   2.177  14.414  1.00  0.00     0.031 C 
ATOM     60  C   UNL     1      -0.733  -0.497  16.973  1.00  0.00     0.029 A 
ATOM     61  C   UNL     1      -1.528   0.261  16.128  1.00  0.00     0.049 A 
ATOM     62  H   UNL     1      -0.980   1.333  14.395  1.00  0.00     0.167 HD
ATOM     63  C   UNL     1      -3.668   1.244  15.331  1.00  0.00     0.074 A 
ATOM     64  C   UNL     1      -5.094   1.475  15.440  1.00  0.00     0.031 C 
ATOM     65  C   UNL     1      -2.944   0.514  16.216  1.00  0.00     0.037 A 
BRANCH  52  66
ATOM     66  C   UNL     1       3.085   0.141  14.885  1.00  0.00     0.064 A 
ATOM     67  C   UNL     1       4.101   0.979  15.372  1.00  0.00     0.173 A 
ATOM     68  C   UNL     1       3.371  -1.225  14.750  1.00  0.00     0.173 A 
ATOM     69  F   UNL     1       3.884   2.296  15.504  1.00  0.00    -0.203 F 
ATOM     70  C   UNL     1       5.360   0.472  15.684  1.00  0.00     0.198 A 
ATOM     71  C   UNL     1       4.623  -1.733  15.088  1.00  0.00     0.198 A 
ATOM     72  F   UNL     1       2.437  -2.070  14.289  1.00  0.00    -0.203 F 
ATOM     73  F   UNL     1       6.330   1.298  16.101  1.00  0.00    -0.200 F 
ATOM     74  C   UNL     1       5.619  -0.883  15.547  1.00  0.00     0.200 A 
ATOM     75  F   UNL     1       4.870  -3.044  14.961  1.00  0.00    -0.200 F 
ATOM     76  F   UNL     1       6.831  -1.370  15.847  1.00  0.00    -0.200 F 
ENDBRANCH  52  66
BRANCH  53  77
ATOM     77  C   UNL     1      -5.758   3.879  12.031  1.00  0.00     0.064 A 
ATOM     78  C   UNL     1      -6.402   4.860  12.798  1.00  0.00     0.173 A 
ATOM     79  C   UNL     1      -6.394   3.446  10.858  1.00  0.00     0.173 A 
ATOM     80  F   UNL     1      -5.843   5.291  13.938  1.00  0.00    -0.203 F 
ATOM     81  C   UNL     1      -7.639   5.375  12.416  1.00  0.00     0.198 A 
ATOM     82  C   UNL     1      -7.619   3.981  10.463  1.00  0.00     0.198 A 
ATOM     83  F   UNL     1      -5.819   2.511  10.088  1.00  0.00    -0.203 F 
ATOM     84  F   UNL     1      -8.252   6.282  13.189  1.00  0.00    -0.200 F 
ATOM     85  C   UNL     1      -8.243   4.939  11.246  1.00  0.00     0.200 A 
ATOM     86  F   UNL     1      -8.193   3.566   9.326  1.00  0.00    -0.200 F 
ATOM     87  F   UNL     1      -9.431   5.439  10.877  1.00  0.00    -0.200 F 
ENDBRANCH  53  77
BRANCH  65  88
ATOM     88  C   UNL     1      -3.679  -0.052  17.394  1.00  0.00     0.064 A 
ATOM     89  C   UNL     1      -4.566  -1.130  17.259  1.00  0.00     0.173 A 
ATOM     90  C   UNL     1      -3.472   0.474  18.678  1.00  0.00     0.173 A 
ATOM     91  F   UNL     1      -4.807  -1.659  16.050  1.00  0.00    -0.203 F 
ATOM     92  C   UNL     1      -5.245  -1.639  18.363  1.00  0.00     0.198 A 
ATOM     93  C   UNL     1      -4.131  -0.056  19.783  1.00  0.00     0.198 A 
ATOM     94  F   UNL     1      -2.626   1.500  18.861  1.00  0.00    -0.203 F 
ATOM     95  F   UNL     1      -6.128  -2.634  18.203  1.00  0.00    -0.200 F 
ATOM     96  C   UNL     1      -5.023  -1.105  19.624  1.00  0.00     0.200 A 
ATOM     97  F   UNL     1      -3.906   0.453  21.003  1.00  0.00    -0.200 F 
ATOM     98  F   UNL     1      -5.677  -1.597  20.685  1.00  0.00    -0.200 F 
ENDBRANCH  65  88
ENDBRANCH  39  40
ENDBRANCH  32  34
ENDBRANCH  31  32
ENDBRANCH  30  31
ENDBRANCH  29  30
ENDBRANCH  28  29
ENDBRANCH   1  28
TORSDOF 18
