REMARK SMILES O=C(OCCOCCOC(=O)c1ccc(-c2c3nc(c(-c4c(F)c(F)c(F)c(F)c4F)c4ccc([nH]4)c(-c4c(F)c(F)c(F)c(F)c4F)c4nc(c(-c5c(F)c(F)c(F)c(F)c5F)c5ccc2[nH]5)C=C4)C=C3)cc1)c1ccc(C[C@H]2SC(=O)N(c3ccccc3)C2=O)cc1
REMARK SMILES IDX 5 1 4 2 3 3 2 4 1 5 75 6 76 7 94 8 77 9 93 10 78 11 79 12
REMARK SMILES IDX 80 13 81 14 91 15 82 16 84 17 92 18 83 19 85 20 86 21 90 22
REMARK SMILES IDX 87 23 89 24 88 25 6 26 7 27 8 28 9 29 10 30 11 31 12 32
REMARK SMILES IDX 13 33 74 34 14 35 73 36 15 37 16 38 17 39 67 40 18 41 72 42
REMARK SMILES IDX 66 43 68 44 19 45 71 46 65 47 64 48 20 50 52 51 32 52 51 53
REMARK SMILES IDX 33 54 36 55 50 56 69 57 34 58 35 59 49 61 70 62 37 63 21 64
REMARK SMILES IDX 22 65 30 66 23 67 24 68 28 69 31 70 25 71 26 72 29 73 27 74
REMARK SMILES IDX 53 75 54 76 62 77 55 78 56 79 60 80 63 81 57 82 58 83 61 84
REMARK SMILES IDX 59 85 38 86 39 87 47 88 40 89 41 90 45 91 48 92 42 93 43 94
REMARK SMILES IDX 46 95 44 96
REMARK H PARENT 68 49 36 60
REMARK Flexibility Score: inf
ROOT
ATOM      1  C   UNL     1       8.555   7.743  -0.681  1.00  0.00     0.202 C 
ENDROOT
BRANCH   1   2
ATOM      2  C   UNL     1       7.158   7.802  -0.066  1.00  0.00     0.261 C 
BRANCH   2   3
ATOM      3  O   UNL     1       7.019   8.989   0.742  1.00  0.00    -0.460 OA
BRANCH   3   4
ATOM      4  C   UNL     1       6.989   9.020   2.098  1.00  0.00     0.338 C 
ATOM      5  O   UNL     1       6.896  10.079   2.706  1.00  0.00    -0.246 OA
BRANCH   4   6
ATOM      6  C   UNL     1       6.995   7.751   2.856  1.00  0.00     0.060 A 
ATOM      7  C   UNL     1       8.087   6.883   2.836  1.00  0.00     0.016 A 
ATOM      8  C   UNL     1       5.890   7.446   3.653  1.00  0.00     0.016 A 
ATOM      9  C   UNL     1       8.029   5.661   3.488  1.00  0.00     0.004 A 
ATOM     10  C   UNL     1       5.833   6.219   4.319  1.00  0.00     0.004 A 
ATOM     11  C   UNL     1       6.883   5.298   4.197  1.00  0.00    -0.046 A 
BRANCH  11  12
ATOM     12  C   UNL     1       6.778   3.901   4.750  1.00  0.00     0.060 C 
BRANCH  12  13
ATOM     13  C   UNL     1       6.188   2.901   3.740  1.00  0.00     0.151 C 
ATOM     14  S   UNL     1       7.222   2.622   2.276  1.00  0.00    -0.050 SA
ATOM     15  C   UNL     1       6.098   1.553   4.413  1.00  0.00     0.248 C 
ATOM     16  C   UNL     1       7.821   1.092   2.877  1.00  0.00     0.293 C 
ATOM     17  N   UNL     1       7.071   0.677   3.956  1.00  0.00    -0.240 N 
ATOM     18  O   UNL     1       5.299   1.366   5.329  1.00  0.00    -0.273 OA
ATOM     19  O   UNL     1       8.743   0.528   2.316  1.00  0.00    -0.261 OA
BRANCH  17  20
ATOM     20  C   UNL     1       7.293  -0.584   4.580  1.00  0.00     0.053 A 
ATOM     21  C   UNL     1       6.217  -1.334   5.076  1.00  0.00     0.027 A 
ATOM     22  C   UNL     1       8.590  -1.093   4.742  1.00  0.00     0.027 A 
ATOM     23  C   UNL     1       6.429  -2.551   5.726  1.00  0.00     0.002 A 
ATOM     24  C   UNL     1       8.804  -2.297   5.418  1.00  0.00     0.002 A 
ATOM     25  C   UNL     1       7.724  -3.025   5.909  1.00  0.00     0.000 A 
ENDBRANCH  17  20
ENDBRANCH  12  13
ENDBRANCH  11  12
ENDBRANCH   4   6
ENDBRANCH   3   4
ENDBRANCH   2   3
ENDBRANCH   1   2
BRANCH   1  26
ATOM     26  O   UNL     1       9.604   7.749   0.284  1.00  0.00    -0.374 OA
BRANCH  26  27
ATOM     27  C   UNL     1      10.022   9.046   0.734  1.00  0.00     0.202 C 
BRANCH  27  28
ATOM     28  C   UNL     1      11.541   9.162   0.611  1.00  0.00     0.261 C 
BRANCH  28  29
ATOM     29  O   UNL     1      11.874   9.180  -0.782  1.00  0.00    -0.460 OA
BRANCH  29  30
ATOM     30  C   UNL     1      11.968   7.956  -1.361  1.00  0.00     0.338 C 
ATOM     31  O   UNL     1      12.207   6.891  -0.821  1.00  0.00    -0.246 OA
BRANCH  30  32
ATOM     32  C   UNL     1      11.500   8.098  -2.755  1.00  0.00     0.060 A 
ATOM     33  C   UNL     1      10.743   7.061  -3.317  1.00  0.00     0.016 A 
ATOM     34  C   UNL     1      11.736   9.274  -3.474  1.00  0.00     0.016 A 
ATOM     35  C   UNL     1      10.224   7.195  -4.604  1.00  0.00     0.010 A 
ATOM     36  C   UNL     1      11.223   9.407  -4.758  1.00  0.00     0.010 A 
ATOM     37  C   UNL     1      10.483   8.361  -5.334  1.00  0.00    -0.014 A 
BRANCH  37  38
ATOM     38  C   UNL     1      10.123   8.465  -6.762  1.00  0.00     0.031 A 
ATOM     39  C   UNL     1      11.207   8.255  -7.777  1.00  0.00     0.074 A 
ATOM     40  C   UNL     1       8.879   8.818  -7.130  1.00  0.00     0.049 A 
ATOM     41  N   UNL     1      11.187   8.459  -9.067  1.00  0.00    -0.248 NA
ATOM     42  C   UNL     1      12.498   7.767  -7.263  1.00  0.00     0.031 C 
ATOM     43  C   UNL     1       7.757   9.032  -6.219  1.00  0.00     0.029 A 
ATOM     44  N   UNL     1       8.365   9.096  -8.371  1.00  0.00    -0.354 N 
ATOM     45  C   UNL     1      12.462   8.142  -9.514  1.00  0.00     0.074 A 
ATOM     46  C   UNL     1      13.240   7.754  -8.360  1.00  0.00     0.031 C 
ATOM     47  C   UNL     1       6.690   9.438  -6.930  1.00  0.00     0.029 A 
ATOM     48  C   UNL     1       7.070   9.554  -8.336  1.00  0.00     0.049 A 
ATOM     49  H   UNL     1       8.874   8.978  -9.206  1.00  0.00     0.167 HD
ATOM     50  C   UNL     1      12.934   8.174 -10.781  1.00  0.00     0.037 A 
ATOM     51  C   UNL     1       6.303  10.050  -9.326  1.00  0.00     0.037 A 
ATOM     52  C   UNL     1      12.142   8.558 -11.918  1.00  0.00     0.049 A 
ATOM     53  C   UNL     1       6.878  10.129 -10.720  1.00  0.00     0.074 A 
ATOM     54  C   UNL     1      12.502   8.572 -13.253  1.00  0.00     0.029 A 
ATOM     55  N   UNL     1      10.832   9.009 -11.848  1.00  0.00    -0.354 N 
ATOM     56  N   UNL     1       8.064   9.767 -11.150  1.00  0.00    -0.248 NA
ATOM     57  C   UNL     1       6.011  10.690 -11.765  1.00  0.00     0.031 C 
ATOM     58  C   UNL     1      11.433   9.096 -13.984  1.00  0.00     0.029 A 
ATOM     59  C   UNL     1      10.384   9.346 -13.114  1.00  0.00     0.049 A 
ATOM     60  H   UNL     1      10.301   9.079 -11.023  1.00  0.00     0.167 HD
ATOM     61  C   UNL     1       8.075  10.034 -12.514  1.00  0.00     0.074 A 
ATOM     62  C   UNL     1       6.769  10.563 -12.844  1.00  0.00     0.031 C 
ATOM     63  C   UNL     1       9.075   9.866 -13.414  1.00  0.00     0.037 A 
BRANCH  50  64
ATOM     64  C   UNL     1      14.370   7.810 -11.010  1.00  0.00     0.064 A 
ATOM     65  C   UNL     1      14.825   6.488 -10.895  1.00  0.00     0.173 A 
ATOM     66  C   UNL     1      15.288   8.787 -11.423  1.00  0.00     0.173 A 
ATOM     67  F   UNL     1      13.991   5.520 -10.488  1.00  0.00    -0.203 F 
ATOM     68  C   UNL     1      16.148   6.160 -11.180  1.00  0.00     0.198 A 
ATOM     69  C   UNL     1      16.602   8.451 -11.734  1.00  0.00     0.198 A 
ATOM     70  F   UNL     1      14.904  10.067 -11.546  1.00  0.00    -0.203 F 
ATOM     71  F   UNL     1      16.568   4.895 -11.037  1.00  0.00    -0.200 F 
ATOM     72  C   UNL     1      17.031   7.138 -11.611  1.00  0.00     0.200 A 
ATOM     73  F   UNL     1      17.450   9.396 -12.163  1.00  0.00    -0.200 F 
ATOM     74  F   UNL     1      18.298   6.816 -11.908  1.00  0.00    -0.200 F 
ENDBRANCH  50  64
BRANCH  51  75
ATOM     75  C   UNL     1       4.930  10.550  -9.043  1.00  0.00     0.064 A 
ATOM     76  C   UNL     1       3.804   9.931  -9.604  1.00  0.00     0.173 A 
ATOM     77  C   UNL     1       4.717  11.688  -8.250  1.00  0.00     0.173 A 
ATOM     78  F   UNL     1       3.954   8.854 -10.389  1.00  0.00    -0.203 F 
ATOM     79  C   UNL     1       2.525  10.451  -9.414  1.00  0.00     0.198 A 
ATOM     80  C   UNL     1       3.434  12.185  -8.030  1.00  0.00     0.198 A 
ATOM     81  F   UNL     1       5.757  12.321  -7.688  1.00  0.00    -0.203 F 
ATOM     82  F   UNL     1       1.475   9.879 -10.020  1.00  0.00    -0.200 F 
ATOM     83  C   UNL     1       2.340  11.575  -8.624  1.00  0.00     0.200 A 
ATOM     84  F   UNL     1       3.259  13.264  -7.254  1.00  0.00    -0.200 F 
ATOM     85  F   UNL     1       1.111  12.078  -8.447  1.00  0.00    -0.200 F 
ENDBRANCH  51  75
BRANCH  63  86
ATOM     86  C   UNL     1       8.787  10.235 -14.841  1.00  0.00     0.064 A 
ATOM     87  C   UNL     1       8.646  11.573 -15.238  1.00  0.00     0.173 A 
ATOM     88  C   UNL     1       8.706   9.243 -15.830  1.00  0.00     0.173 A 
ATOM     89  F   UNL     1       8.702  12.557 -14.328  1.00  0.00    -0.203 F 
ATOM     90  C   UNL     1       8.408  11.902 -16.570  1.00  0.00     0.198 A 
ATOM     91  C   UNL     1       8.505   9.578 -17.165  1.00  0.00     0.198 A 
ATOM     92  F   UNL     1       8.845   7.949 -15.503  1.00  0.00    -0.203 F 
ATOM     93  F   UNL     1       8.226  13.182 -16.919  1.00  0.00    -0.200 F 
ATOM     94  C   UNL     1       8.348  10.905 -17.533  1.00  0.00     0.200 A 
ATOM     95  F   UNL     1       8.466   8.615 -18.097  1.00  0.00    -0.200 F 
ATOM     96  F   UNL     1       8.132  11.225 -18.816  1.00  0.00    -0.200 F 
ENDBRANCH  63  86
ENDBRANCH  37  38
ENDBRANCH  30  32
ENDBRANCH  29  30
ENDBRANCH  28  29
ENDBRANCH  27  28
ENDBRANCH  26  27
ENDBRANCH   1  26
TORSDOF 17
