REMARK SMILES CC[C@@H](C(=O)OCCOCCOC(=O)c1ccc(-c2c3nc(c(-c4c(F)c(F)c(F)c(F)c4F)c4ccc([nH]4)c(-c4c(F)c(F)c(F)c(F)c4F)c4nc(c(-c5c(F)c(F)c(F)c(F)c5F)c5ccc2[nH]5)C=C4)C=C3)cc1)n1c(SCc2cccc(C(F)(F)F)c2)nc2ccncc21
REMARK SMILES IDX 7 1 6 2 4 3 5 4 3 5 2 6 1 7 78 8 79 9 98 10 92 11 93 12
REMARK SMILES IDX 97 13 94 14 96 15 95 16 80 17 81 18 82 19 83 20 91 21 84 22
REMARK SMILES IDX 86 23 85 24 87 25 88 26 89 27 90 28 8 29 9 30 10 31 11 32
REMARK SMILES IDX 12 33 13 34 14 35 15 36 16 37 77 38 17 39 76 40 18 41 19 42
REMARK SMILES IDX 20 43 70 44 21 45 75 46 69 47 71 48 22 49 74 50 68 51 67 52
REMARK SMILES IDX 23 54 55 55 35 56 54 57 36 58 39 59 53 60 72 61 37 62 38 63
REMARK SMILES IDX 52 65 73 66 40 67 24 68 25 69 33 70 26 71 27 72 31 73 34 74
REMARK SMILES IDX 28 75 29 76 32 77 30 78 56 79 57 80 65 81 58 82 59 83 63 84
REMARK SMILES IDX 66 85 60 86 61 87 64 88 62 89 41 90 42 91 50 92 43 93 44 94
REMARK SMILES IDX 48 95 51 96 45 97 46 98 49 99 47 100
REMARK H PARENT 71 53 39 64
REMARK Flexibility Score: inf
ROOT
ATOM      1  C   UNL     1       1.496   2.252  -3.574  1.00  0.00     0.261 C 
ENDROOT
BRANCH   1   2
ATOM      2  O   UNL     1       1.313   2.018  -2.159  1.00  0.00    -0.462 OA
BRANCH   2   3
ATOM      3  C   UNL     1       2.074   2.797  -1.341  1.00  0.00     0.329 C 
ATOM      4  O   UNL     1       2.919   3.585  -1.753  1.00  0.00    -0.250 OA
BRANCH   3   5
ATOM      5  C   UNL     1       1.761   2.638   0.155  1.00  0.00     0.199 C 
BRANCH   5   6
ATOM      6  C   UNL     1       1.370   1.217   0.597  1.00  0.00     0.034 C 
ATOM      7  C   UNL     1       2.184   0.081  -0.003  1.00  0.00     0.007 C 
ENDBRANCH   5   6
BRANCH   5   8
ATOM      8  N   UNL     1       0.854   3.707   0.602  1.00  0.00    -0.303 N 
ATOM      9  C   UNL     1      -0.413   3.624   1.157  1.00  0.00     0.170 A 
ATOM     10  C   UNL     1       1.133   5.062   0.511  1.00  0.00     0.088 A 
ATOM     11  N   UNL     1      -1.081   4.731   0.890  1.00  0.00    -0.222 NA
ATOM     12  C   UNL     1      -0.109   5.672   0.651  1.00  0.00     0.093 A 
ATOM     13  C   UNL     1       2.291   5.804   0.319  1.00  0.00     0.139 A 
ATOM     14  C   UNL     1      -0.206   7.063   0.597  1.00  0.00     0.051 A 
ATOM     15  N   UNL     1       2.202   7.155   0.310  1.00  0.00    -0.262 NA
ATOM     16  C   UNL     1       0.991   7.743   0.445  1.00  0.00     0.113 A 
BRANCH   9  17
ATOM     17  S   UNL     1      -0.682   2.880   2.717  1.00  0.00    -0.083 SA
BRANCH  17  18
ATOM     18  C   UNL     1      -1.653   1.391   2.536  1.00  0.00     0.113 C 
BRANCH  18  19
ATOM     19  C   UNL     1      -2.687   1.185   1.460  1.00  0.00    -0.037 A 
ATOM     20  C   UNL     1      -3.525   2.186   0.961  1.00  0.00     0.004 A 
ATOM     21  C   UNL     1      -2.905  -0.141   1.026  1.00  0.00     0.017 A 
ATOM     22  C   UNL     1      -4.522   1.875   0.027  1.00  0.00     0.001 A 
ATOM     23  C   UNL     1      -3.896  -0.469   0.086  1.00  0.00     0.056 A 
ATOM     24  C   UNL     1      -4.708   0.558  -0.408  1.00  0.00     0.013 A 
BRANCH  23  25
ATOM     25  C   UNL     1      -4.075  -1.893  -0.382  1.00  0.00     0.416 C 
ATOM     26  F   UNL     1      -5.272  -2.425  -0.018  1.00  0.00    -0.166 F 
ATOM     27  F   UNL     1      -3.994  -2.028  -1.733  1.00  0.00    -0.166 F 
ATOM     28  F   UNL     1      -3.125  -2.740   0.115  1.00  0.00    -0.166 F 
ENDBRANCH  23  25
ENDBRANCH  18  19
ENDBRANCH  17  18
ENDBRANCH   9  17
ENDBRANCH   5   8
ENDBRANCH   3   5
ENDBRANCH   2   3
ENDBRANCH   1   2
BRANCH   1  29
ATOM     29  C   UNL     1       0.226   1.995  -4.395  1.00  0.00     0.202 C 
BRANCH  29  30
ATOM     30  O   UNL     1      -0.948   2.720  -4.044  1.00  0.00    -0.374 OA
BRANCH  30  31
ATOM     31  C   UNL     1      -1.328   2.742  -2.679  1.00  0.00     0.202 C 
BRANCH  31  32
ATOM     32  C   UNL     1      -1.670   1.414  -1.991  1.00  0.00     0.261 C 
BRANCH  32  33
ATOM     33  O   UNL     1      -1.108   0.207  -2.513  1.00  0.00    -0.460 OA
BRANCH  33  34
ATOM     34  C   UNL     1      -1.934  -0.459  -3.361  1.00  0.00     0.338 C 
ATOM     35  O   UNL     1      -3.032  -0.110  -3.754  1.00  0.00    -0.246 OA
BRANCH  34  36
ATOM     36  C   UNL     1      -1.256  -1.670  -3.850  1.00  0.00     0.060 A 
ATOM     37  C   UNL     1      -1.067  -1.798  -5.229  1.00  0.00     0.016 A 
ATOM     38  C   UNL     1      -0.848  -2.681  -2.974  1.00  0.00     0.016 A 
ATOM     39  C   UNL     1      -0.449  -2.938  -5.738  1.00  0.00     0.010 A 
ATOM     40  C   UNL     1      -0.234  -3.827  -3.488  1.00  0.00     0.010 A 
ATOM     41  C   UNL     1      -0.029  -3.957  -4.871  1.00  0.00    -0.014 A 
BRANCH  41  42
ATOM     42  C   UNL     1       0.681  -5.134  -5.419  1.00  0.00     0.031 A 
ATOM     43  C   UNL     1      -0.049  -6.415  -5.681  1.00  0.00     0.074 A 
ATOM     44  C   UNL     1       1.996  -5.024  -5.682  1.00  0.00     0.049 A 
ATOM     45  N   UNL     1       0.405  -7.537  -6.181  1.00  0.00    -0.248 NA
ATOM     46  C   UNL     1      -1.477  -6.442  -5.335  1.00  0.00     0.031 C 
ATOM     47  C   UNL     1       2.794  -3.817  -5.461  1.00  0.00     0.029 A 
ATOM     48  N   UNL     1       2.892  -5.933  -6.182  1.00  0.00    -0.354 N 
ATOM     49  C   UNL     1      -0.682  -8.399  -6.223  1.00  0.00     0.074 A 
ATOM     50  C   UNL     1      -1.811  -7.683  -5.664  1.00  0.00     0.031 C 
ATOM     51  C   UNL     1       4.064  -4.062  -5.819  1.00  0.00     0.029 A 
ATOM     52  C   UNL     1       4.173  -5.446  -6.269  1.00  0.00     0.049 A 
ATOM     53  H   UNL     1       2.642  -6.846  -6.452  1.00  0.00     0.167 HD
ATOM     54  C   UNL     1      -0.727  -9.668  -6.696  1.00  0.00     0.037 A 
ATOM     55  C   UNL     1       5.308  -6.057  -6.656  1.00  0.00     0.037 A 
ATOM     56  C   UNL     1       0.413 -10.371  -7.229  1.00  0.00     0.049 A 
ATOM     57  C   UNL     1       5.240  -7.486  -7.119  1.00  0.00     0.074 A 
ATOM     58  C   UNL     1       0.471 -11.644  -7.769  1.00  0.00     0.029 A 
ATOM     59  N   UNL     1       1.704  -9.861  -7.272  1.00  0.00    -0.354 N 
ATOM     60  N   UNL     1       4.195  -8.273  -7.217  1.00  0.00    -0.248 NA
ATOM     61  C   UNL     1       6.504  -8.111  -7.528  1.00  0.00     0.031 C 
ATOM     62  C   UNL     1       1.805 -11.925  -8.086  1.00  0.00     0.029 A 
ATOM     63  C   UNL     1       2.572 -10.809  -7.793  1.00  0.00     0.049 A 
ATOM     64  H   UNL     1       1.964  -8.959  -6.977  1.00  0.00     0.167 HD
ATOM     65  C   UNL     1       4.670  -9.479  -7.710  1.00  0.00     0.074 A 
ATOM     66  C   UNL     1       6.096  -9.311  -7.914  1.00  0.00     0.031 C 
ATOM     67  C   UNL     1       3.991 -10.623  -7.970  1.00  0.00     0.037 A 
BRANCH  54  68
ATOM     68  C   UNL     1      -2.045 -10.387  -6.641  1.00  0.00     0.064 A 
ATOM     69  C   UNL     1      -3.111 -10.036  -7.485  1.00  0.00     0.173 A 
ATOM     70  C   UNL     1      -2.232 -11.469  -5.768  1.00  0.00     0.173 A 
ATOM     71  F   UNL     1      -2.987  -9.005  -8.334  1.00  0.00    -0.203 F 
ATOM     72  C   UNL     1      -4.321 -10.725  -7.438  1.00  0.00     0.198 A 
ATOM     73  C   UNL     1      -3.434 -12.172  -5.742  1.00  0.00     0.198 A 
ATOM     74  F   UNL     1      -1.245 -11.852  -4.944  1.00  0.00    -0.203 F 
ATOM     75  F   UNL     1      -5.337 -10.346  -8.225  1.00  0.00    -0.200 F 
ATOM     76  C   UNL     1      -4.479 -11.796  -6.571  1.00  0.00     0.200 A 
ATOM     77  F   UNL     1      -3.582 -13.215  -4.912  1.00  0.00    -0.200 F 
ATOM     78  F   UNL     1      -5.642 -12.462  -6.532  1.00  0.00    -0.200 F 
ENDBRANCH  54  68
BRANCH  55  79
ATOM     79  C   UNL     1       6.594  -5.315  -6.619  1.00  0.00     0.064 A 
ATOM     80  C   UNL     1       7.257  -4.952  -7.799  1.00  0.00     0.173 A 
ATOM     81  C   UNL     1       7.178  -4.936  -5.400  1.00  0.00     0.173 A 
ATOM     82  F   UNL     1       6.748  -5.307  -8.988  1.00  0.00    -0.203 F 
ATOM     83  C   UNL     1       8.460  -4.250  -7.762  1.00  0.00     0.198 A 
ATOM     84  C   UNL     1       8.366  -4.210  -5.365  1.00  0.00     0.198 A 
ATOM     85  F   UNL     1       6.581  -5.255  -4.242  1.00  0.00    -0.203 F 
ATOM     86  F   UNL     1       9.091  -3.946  -8.904  1.00  0.00    -0.200 F 
ATOM     87  C   UNL     1       9.009  -3.872  -6.545  1.00  0.00     0.200 A 
ATOM     88  F   UNL     1       8.883  -3.833  -4.187  1.00  0.00    -0.200 F 
ATOM     89  F   UNL     1      10.160  -3.187  -6.511  1.00  0.00    -0.200 F 
ENDBRANCH  55  79
BRANCH  67  90
ATOM     90  C   UNL     1       4.787 -11.779  -8.501  1.00  0.00     0.064 A 
ATOM     91  C   UNL     1       5.670 -12.496  -7.680  1.00  0.00     0.173 A 
ATOM     92  C   UNL     1       4.646 -12.191  -9.834  1.00  0.00     0.173 A 
ATOM     93  F   UNL     1       5.852 -12.129  -6.402  1.00  0.00    -0.203 F 
ATOM     94  C   UNL     1       6.401 -13.569  -8.182  1.00  0.00     0.198 A 
ATOM     95  C   UNL     1       5.357 -13.282 -10.325  1.00  0.00     0.198 A 
ATOM     96  F   UNL     1       3.812 -11.540 -10.659  1.00  0.00    -0.203 F 
ATOM     97  F   UNL     1       7.276 -14.208  -7.393  1.00  0.00    -0.200 F 
ATOM     98  C   UNL     1       6.239 -13.965  -9.501  1.00  0.00     0.200 A 
ATOM     99  F   UNL     1       5.192 -13.671 -11.597  1.00  0.00    -0.200 F 
ATOM    100  F   UNL     1       6.941 -15.000  -9.982  1.00  0.00    -0.200 F 
ENDBRANCH  67  90
ENDBRANCH  41  42
ENDBRANCH  34  36
ENDBRANCH  33  34
ENDBRANCH  32  33
ENDBRANCH  31  32
ENDBRANCH  30  31
ENDBRANCH  29  30
ENDBRANCH   1  29
TORSDOF 20
