REMARK SMILES Cc1cccc(N2CCN(c3ncc(NC(=O)c4ccccc4F)cc3C(=O)OCCOCCOC(=O)c3ccc(-c4c5nc(c(-c6c(F)c(F)c(F)c(F)c6F)c6ccc([nH]6)c(-c6c(F)c(F)c(F)c(F)c6F)c6nc(c(-c7c(F)c(F)c(F)c(F)c7F)c7ccc4[nH]7)C=C6)C=C5)cc3)C[C@@H]2C)c1
REMARK SMILES IDX 32 1 31 2 30 3 29 4 27 5 28 6 26 7 11 8 12 9 13 10 25 11
REMARK SMILES IDX 14 12 10 13 7 14 8 15 102 16 9 17 101 18 103 19 6 20 1 21
REMARK SMILES IDX 2 22 3 23 104 24 4 25 5 26 15 27 16 28 17 30 18 31 19 32
REMARK SMILES IDX 23 33 20 34 22 35 24 36 21 37 33 38 34 39 35 40 36 41 37 42
REMARK SMILES IDX 38 43 39 44 100 45 40 46 99 47 41 48 42 49 43 50 93 51 44 52
REMARK SMILES IDX 98 53 92 54 94 55 45 56 97 57 91 58 90 59 46 61 78 62 58 63
REMARK SMILES IDX 77 64 59 65 62 66 76 67 95 68 60 69 61 70 75 72 96 73 63 74
REMARK SMILES IDX 47 75 48 76 56 77 49 78 50 79 54 80 57 81 51 82 52 83 55 84
REMARK SMILES IDX 53 85 79 86 80 87 88 88 81 89 82 90 86 91 89 92 83 93 84 94
REMARK SMILES IDX 87 95 85 96 64 97 65 98 73 99 66 100 67 101 71 102 74 103
REMARK SMILES IDX 68 104 69 105 72 106 70 107
REMARK H PARENT 15 29 94 60 62 71
REMARK Flexibility Score: inf
ROOT
ATOM      1  O   UNL     1      -3.319   6.454  -2.735  1.00  0.00    -0.374 OA
ENDROOT
BRANCH   1   2
ATOM      2  C   UNL     1      -4.460   7.159  -3.203  1.00  0.00     0.202 C 
BRANCH   2   3
ATOM      3  C   UNL     1      -5.621   6.284  -2.859  1.00  0.00     0.261 C 
BRANCH   3   4
ATOM      4  O   UNL     1      -5.849   6.310  -1.443  1.00  0.00    -0.460 OA
BRANCH   4   5
ATOM      5  C   UNL     1      -5.120   5.471  -0.643  1.00  0.00     0.342 C 
ATOM      6  O   UNL     1      -4.564   4.464  -1.003  1.00  0.00    -0.246 OA
BRANCH   5   7
ATOM      7  C   UNL     1      -5.097   6.067   0.711  1.00  0.00     0.104 A 
ATOM      8  C   UNL     1      -4.129   5.755   1.677  1.00  0.00     0.143 A 
ATOM      9  N   UNL     1      -4.119   6.435   2.855  1.00  0.00    -0.236 NA
ATOM     10  C   UNL     1      -5.036   7.433   3.054  1.00  0.00     0.139 A 
ATOM     11  C   UNL     1      -6.082   7.026   0.996  1.00  0.00     0.047 A 
ATOM     12  C   UNL     1      -6.032   7.771   2.152  1.00  0.00     0.061 A 
BRANCH   8  13
ATOM     13  N   UNL     1      -3.209   4.734   1.503  1.00  0.00    -0.352 N 
ATOM     14  N   UNL     1      -1.311   2.555   1.208  1.00  0.00    -0.365 N 
ATOM     15  C   UNL     1      -2.600   2.394   1.930  1.00  0.00     0.138 C 
ATOM     16  C   UNL     1      -1.259   3.715   0.264  1.00  0.00     0.098 C 
ATOM     17  C   UNL     1      -3.087   3.723   2.557  1.00  0.00     0.139 C 
ATOM     18  C   UNL     1      -1.933   5.014   0.830  1.00  0.00     0.142 C 
ATOM     19  C   UNL     1      -1.905   3.316  -1.052  1.00  0.00     0.033 C 
BRANCH  14  20
ATOM     20  C   UNL     1      -0.630   1.401   0.784  1.00  0.00     0.037 A 
ATOM     21  C   UNL     1       2.958   0.328  -0.050  1.00  0.00     0.044 C 
ATOM     22  C   UNL     1       1.468   0.301   0.113  1.00  0.00    -0.049 A 
ATOM     23  C   UNL     1       0.777  -0.880  -0.150  1.00  0.00     0.003 A 
ATOM     24  C   UNL     1       0.759   1.428   0.572  1.00  0.00     0.029 A 
ATOM     25  C   UNL     1      -0.599  -0.922   0.020  1.00  0.00     0.002 A 
ATOM     26  C   UNL     1      -1.291   0.198   0.495  1.00  0.00     0.026 A 
ENDBRANCH  14  20
ENDBRANCH   8  13
BRANCH  12  27
ATOM     27  N   UNL     1      -6.997   8.788   2.246  1.00  0.00    -0.320 N 
ATOM     28  C   UNL     1      -7.004   9.987   2.907  1.00  0.00     0.258 C 
ATOM     29  H   UNL     1      -7.823   8.604   1.743  1.00  0.00     0.170 HD
ATOM     30  O   UNL     1      -8.042  10.642   2.979  1.00  0.00    -0.269 OA
BRANCH  28  31
ATOM     31  C   UNL     1      -5.775  10.539   3.482  1.00  0.00     0.075 A 
ATOM     32  C   UNL     1      -5.818  11.016   4.793  1.00  0.00     0.017 A 
ATOM     33  C   UNL     1      -4.594  10.615   2.743  1.00  0.00     0.135 A 
ATOM     34  C   UNL     1      -4.649  11.486   5.388  1.00  0.00     0.001 A 
ATOM     35  C   UNL     1      -3.424  11.066   3.340  1.00  0.00     0.040 A 
ATOM     36  F   UNL     1      -4.555  10.243   1.454  1.00  0.00    -0.206 F 
ATOM     37  C   UNL     1      -3.450  11.489   4.670  1.00  0.00     0.003 A 
ENDBRANCH  28  31
ENDBRANCH  12  27
ENDBRANCH   5   7
ENDBRANCH   4   5
ENDBRANCH   3   4
ENDBRANCH   2   3
ENDBRANCH   1   2
BRANCH   1  38
ATOM     38  C   UNL     1      -2.093   7.139  -2.885  1.00  0.00     0.202 C 
BRANCH  38  39
ATOM     39  C   UNL     1      -1.784   7.465  -4.350  1.00  0.00     0.261 C 
BRANCH  39  40
ATOM     40  O   UNL     1      -1.749   6.232  -5.106  1.00  0.00    -0.460 OA
BRANCH  40  41
ATOM     41  C   UNL     1      -2.807   5.991  -5.934  1.00  0.00     0.338 C 
ATOM     42  O   UNL     1      -3.308   6.805  -6.691  1.00  0.00    -0.246 OA
BRANCH  41  43
ATOM     43  C   UNL     1      -3.451   4.690  -5.567  1.00  0.00     0.060 A 
ATOM     44  C   UNL     1      -4.751   4.367  -6.007  1.00  0.00     0.016 A 
ATOM     45  C   UNL     1      -2.890   3.942  -4.546  1.00  0.00     0.016 A 
ATOM     46  C   UNL     1      -5.542   3.429  -5.299  1.00  0.00     0.010 A 
ATOM     47  C   UNL     1      -3.703   3.086  -3.828  1.00  0.00     0.010 A 
ATOM     48  C   UNL     1      -5.050   2.856  -4.129  1.00  0.00    -0.014 A 
BRANCH  48  49
ATOM     49  C   UNL     1      -5.804   2.183  -3.041  1.00  0.00     0.031 A 
ATOM     50  C   UNL     1      -5.295   0.891  -2.472  1.00  0.00     0.074 A 
ATOM     51  C   UNL     1      -6.714   2.877  -2.297  1.00  0.00     0.049 A 
ATOM     52  N   UNL     1      -5.911   0.222  -1.558  1.00  0.00    -0.248 NA
ATOM     53  C   UNL     1      -4.050   0.229  -2.866  1.00  0.00     0.031 C 
ATOM     54  C   UNL     1      -7.097   2.648  -0.893  1.00  0.00     0.029 A 
ATOM     55  N   UNL     1      -7.477   4.016  -2.612  1.00  0.00    -0.354 N 
ATOM     56  C   UNL     1      -5.056  -0.723  -1.038  1.00  0.00     0.074 A 
ATOM     57  C   UNL     1      -3.918  -0.710  -1.920  1.00  0.00     0.031 C 
ATOM     58  C   UNL     1      -8.200   3.355  -0.594  1.00  0.00     0.029 A 
ATOM     59  C   UNL     1      -8.641   3.982  -1.821  1.00  0.00     0.049 A 
ATOM     60  H   UNL     1      -7.239   4.712  -3.267  1.00  0.00     0.167 HD
ATOM     61  C   UNL     1      -5.397  -1.329   0.138  1.00  0.00     0.037 A 
ATOM     62  C   UNL     1      -9.876   3.935  -2.384  1.00  0.00     0.037 A 
ATOM     63  C   UNL     1      -6.703  -0.860   0.593  1.00  0.00     0.049 A 
ATOM     64  C   UNL     1     -10.524   2.641  -1.998  1.00  0.00     0.074 A 
ATOM     65  C   UNL     1      -7.117   0.042   1.559  1.00  0.00     0.029 A 
ATOM     66  N   UNL     1      -7.800  -1.083  -0.230  1.00  0.00    -0.354 N 
ATOM     67  N   UNL     1      -9.820   1.610  -1.612  1.00  0.00    -0.248 NA
ATOM     68  C   UNL     1     -11.958   2.413  -1.882  1.00  0.00     0.031 C 
ATOM     69  C   UNL     1      -8.473   0.376   1.290  1.00  0.00     0.029 A 
ATOM     70  C   UNL     1      -8.882  -0.330   0.168  1.00  0.00     0.049 A 
ATOM     71  H   UNL     1      -7.803  -1.699  -0.998  1.00  0.00     0.167 HD
ATOM     72  C   UNL     1     -10.647   0.658  -1.108  1.00  0.00     0.074 A 
ATOM     73  C   UNL     1     -11.981   1.178  -1.346  1.00  0.00     0.031 C 
ATOM     74  C   UNL     1     -10.164  -0.465  -0.508  1.00  0.00     0.037 A 
BRANCH  61  75
ATOM     75  C   UNL     1      -4.506  -2.216   0.978  1.00  0.00     0.064 A 
ATOM     76  C   UNL     1      -4.650  -2.281   2.384  1.00  0.00     0.173 A 
ATOM     77  C   UNL     1      -3.487  -3.031   0.458  1.00  0.00     0.173 A 
ATOM     78  F   UNL     1      -5.631  -1.629   3.020  1.00  0.00    -0.203 F 
ATOM     79  C   UNL     1      -3.785  -3.016   3.201  1.00  0.00     0.198 A 
ATOM     80  C   UNL     1      -2.595  -3.736   1.279  1.00  0.00     0.198 A 
ATOM     81  F   UNL     1      -3.327  -3.182  -0.863  1.00  0.00    -0.203 F 
ATOM     82  F   UNL     1      -3.974  -3.028   4.529  1.00  0.00    -0.200 F 
ATOM     83  C   UNL     1      -2.734  -3.716   2.652  1.00  0.00     0.200 A 
ATOM     84  F   UNL     1      -1.581  -4.417   0.725  1.00  0.00    -0.200 F 
ATOM     85  F   UNL     1      -1.874  -4.380   3.436  1.00  0.00    -0.200 F 
ENDBRANCH  61  75
BRANCH  62  86
ATOM     86  C   UNL     1      -9.916   4.722  -3.652  1.00  0.00     0.064 A 
ATOM     87  C   UNL     1      -9.805   6.124  -3.496  1.00  0.00     0.173 A 
ATOM     88  C   UNL     1      -9.468   4.179  -4.866  1.00  0.00     0.173 A 
ATOM     89  F   UNL     1     -10.201   6.701  -2.349  1.00  0.00    -0.203 F 
ATOM     90  C   UNL     1      -9.112   6.909  -4.419  1.00  0.00     0.198 A 
ATOM     91  C   UNL     1      -8.790   4.978  -5.797  1.00  0.00     0.198 A 
ATOM     92  F   UNL     1      -9.522   2.857  -5.074  1.00  0.00    -0.203 F 
ATOM     93  F   UNL     1      -8.854   8.196  -4.143  1.00  0.00    -0.200 F 
ATOM     94  C   UNL     1      -8.564   6.324  -5.546  1.00  0.00     0.200 A 
ATOM     95  F   UNL     1      -8.242   4.418  -6.886  1.00  0.00    -0.200 F 
ATOM     96  F   UNL     1      -7.754   7.036  -6.344  1.00  0.00    -0.200 F 
ENDBRANCH  62  86
BRANCH  74  97
ATOM     97  C   UNL     1     -10.889  -1.780  -0.458  1.00  0.00     0.064 A 
ATOM     98  C   UNL     1     -11.946  -2.101  -1.324  1.00  0.00     0.173 A 
ATOM     99  C   UNL     1     -10.400  -2.849   0.332  1.00  0.00     0.173 A 
ATOM    100  F   UNL     1     -12.413  -1.224  -2.222  1.00  0.00    -0.203 F 
ATOM    101  C   UNL     1     -12.521  -3.370  -1.346  1.00  0.00     0.198 A 
ATOM    102  C   UNL     1     -10.923  -4.135   0.247  1.00  0.00     0.198 A 
ATOM    103  F   UNL     1      -9.370  -2.697   1.178  1.00  0.00    -0.203 F 
ATOM    104  F   UNL     1     -13.564  -3.605  -2.153  1.00  0.00    -0.200 F 
ATOM    105  C   UNL     1     -12.000  -4.390  -0.574  1.00  0.00     0.200 A 
ATOM    106  F   UNL     1     -10.356  -5.129   0.944  1.00  0.00    -0.200 F 
ATOM    107  F   UNL     1     -12.521  -5.621  -0.640  1.00  0.00    -0.200 F 
ENDBRANCH  74  97
ENDBRANCH  48  49
ENDBRANCH  41  43
ENDBRANCH  40  41
ENDBRANCH  39  40
ENDBRANCH  38  39
ENDBRANCH   1  38
TORSDOF 18
