REMARK SMILES C[C@H](CNS(=O)(=O)c1ccc(C(=O)OCCOCCOC(=O)c2ccc(-c3c4nc(c(-c5c(F)c(F)c(F)c(F)c5F)c5ccc([nH]5)c(-c5c(F)c(F)c(F)c(F)c5F)c5nc(c(-c6c(F)c(F)c(F)c(F)c6F)c6ccc3[nH]6)C=C5)C=C4)cc2)cc1F)[NH+](C)C
REMARK SMILES IDX 15 1 14 2 12 3 13 4 11 5 8 6 9 7 87 8 10 9 86 10 88 11 5 12
REMARK SMILES IDX 6 13 7 14 4 15 3 17 2 18 1 19 89 20 90 21 91 22 16 24 17 25
REMARK SMILES IDX 18 26 19 27 20 28 21 29 22 30 23 31 24 32 85 33 25 34 84 35
REMARK SMILES IDX 26 36 27 37 28 38 78 39 29 40 83 41 77 42 79 43 30 44 82 45
REMARK SMILES IDX 76 46 75 47 31 49 63 50 43 51 62 52 44 53 47 54 61 55 80 56
REMARK SMILES IDX 45 57 46 58 60 60 81 61 48 62 32 63 33 64 41 65 34 66 35 67
REMARK SMILES IDX 39 68 42 69 36 70 37 71 40 72 38 73 64 74 65 75 73 76 66 77
REMARK SMILES IDX 67 78 71 79 74 80 68 81 69 82 72 83 70 84 49 85 50 86 58 87
REMARK SMILES IDX 51 88 52 89 56 90 59 91 53 92 54 93 57 94 55 95
REMARK H PARENT 4 16 89 23 79 48 47 59
REMARK Flexibility Score: inf
ROOT
ATOM      1  C   UNL     1       8.550  -0.276  -4.680  1.00  0.00     0.261 C 
ENDROOT
BRANCH   1   2
ATOM      2  O   UNL     1       7.393   0.449  -4.225  1.00  0.00    -0.460 OA
BRANCH   2   3
ATOM      3  C   UNL     1       6.214  -0.176  -4.450  1.00  0.00     0.338 C 
ATOM      4  O   UNL     1       6.039  -1.178  -5.125  1.00  0.00    -0.246 OA
BRANCH   3   5
ATOM      5  C   UNL     1       5.123   0.433  -3.652  1.00  0.00     0.063 A 
ATOM      6  C   UNL     1       2.917   1.448  -2.256  1.00  0.00     0.118 A 
ATOM      7  C   UNL     1       2.952   0.100  -2.628  1.00  0.00     0.026 A 
ATOM      8  C   UNL     1       3.989   2.278  -2.571  1.00  0.00     0.144 A 
ATOM      9  C   UNL     1       4.056  -0.407  -3.309  1.00  0.00     0.017 A 
ATOM     10  C   UNL     1       5.099   1.777  -3.264  1.00  0.00     0.056 A 
ATOM     11  F   UNL     1       3.992   3.579  -2.254  1.00  0.00    -0.205 F 
BRANCH   6  12
ATOM     12  S   UNL     1       1.415   2.076  -1.569  1.00  0.00     0.243 S 
ATOM     13  O   UNL     1       0.323   1.534  -2.345  1.00  0.00    -0.207 OA
ATOM     14  O   UNL     1       1.536   3.500  -1.349  1.00  0.00    -0.207 OA
BRANCH  12  15
ATOM     15  N   UNL     1       1.345   1.403  -0.025  1.00  0.00    -0.205 NA
ATOM     16  H   UNL     1       2.258   1.555   0.404  1.00  0.00     0.141 HD
BRANCH  15  17
ATOM     17  C   UNL     1       1.029  -0.028   0.137  1.00  0.00     0.163 C 
BRANCH  17  18
ATOM     18  C   UNL     1       0.345  -0.394   1.488  1.00  0.00     0.195 C 
ATOM     19  C   UNL     1       0.996   0.298   2.694  1.00  0.00     0.076 C 
BRANCH  18  20
ATOM     20  N   UNL     1      -1.131  -0.311   1.422  1.00  0.00    -0.337 N 
ATOM     21  C   UNL     1      -1.787  -1.027   2.517  1.00  0.00     0.332 C 
ATOM     22  C   UNL     1      -1.677   1.034   1.286  1.00  0.00     0.332 C 
ATOM     23  H   UNL     1      -1.351  -0.783   0.545  1.00  0.00     0.347 HD
ENDBRANCH  18  20
ENDBRANCH  17  18
ENDBRANCH  15  17
ENDBRANCH  12  15
ENDBRANCH   6  12
ENDBRANCH   3   5
ENDBRANCH   2   3
ENDBRANCH   1   2
BRANCH   1  24
ATOM     24  C   UNL     1       9.463  -0.637  -3.506  1.00  0.00     0.202 C 
BRANCH  24  25
ATOM     25  O   UNL     1       8.884  -1.510  -2.534  1.00  0.00    -0.374 OA
BRANCH  25  26
ATOM     26  C   UNL     1       8.060  -0.903  -1.536  1.00  0.00     0.202 C 
BRANCH  26  27
ATOM     27  C   UNL     1       8.814  -0.260  -0.367  1.00  0.00     0.261 C 
BRANCH  27  28
ATOM     28  O   UNL     1       9.555   0.898  -0.796  1.00  0.00    -0.460 OA
BRANCH  28  29
ATOM     29  C   UNL     1      10.900   0.774  -0.707  1.00  0.00     0.338 C 
ATOM     30  O   UNL     1      11.526  -0.138  -0.193  1.00  0.00    -0.246 OA
BRANCH  29  31
ATOM     31  C   UNL     1      11.564   1.835  -1.491  1.00  0.00     0.060 A 
ATOM     32  C   UNL     1      12.577   1.435  -2.369  1.00  0.00     0.016 A 
ATOM     33  C   UNL     1      11.259   3.191  -1.332  1.00  0.00     0.016 A 
ATOM     34  C   UNL     1      13.330   2.389  -3.047  1.00  0.00     0.010 A 
ATOM     35  C   UNL     1      12.022   4.151  -2.011  1.00  0.00     0.010 A 
ATOM     36  C   UNL     1      13.085   3.754  -2.841  1.00  0.00    -0.014 A 
BRANCH  36  37
ATOM     37  C   UNL     1      14.040   4.738  -3.408  1.00  0.00     0.031 A 
ATOM     38  C   UNL     1      15.151   5.267  -2.545  1.00  0.00     0.074 A 
ATOM     39  C   UNL     1      13.976   5.080  -4.707  1.00  0.00     0.049 A 
ATOM     40  N   UNL     1      16.159   6.037  -2.870  1.00  0.00    -0.248 NA
ATOM     41  C   UNL     1      15.128   4.873  -1.128  1.00  0.00     0.031 C 
ATOM     42  C   UNL     1      12.961   4.615  -5.650  1.00  0.00     0.029 A 
ATOM     43  N   UNL     1      14.796   5.883  -5.460  1.00  0.00    -0.354 N 
ATOM     44  C   UNL     1      16.897   6.205  -1.706  1.00  0.00     0.074 A 
ATOM     45  C   UNL     1      16.201   5.493  -0.656  1.00  0.00     0.031 C 
ATOM     46  C   UNL     1      13.227   5.129  -6.863  1.00  0.00     0.029 A 
ATOM     47  C   UNL     1      14.423   5.966  -6.778  1.00  0.00     0.049 A 
ATOM     48  H   UNL     1      15.576   6.355  -5.089  1.00  0.00     0.167 HD
ATOM     49  C   UNL     1      18.060   6.876  -1.533  1.00  0.00     0.037 A 
ATOM     50  C   UNL     1      14.989   6.635  -7.802  1.00  0.00     0.037 A 
ATOM     51  C   UNL     1      18.754   7.587  -2.574  1.00  0.00     0.049 A 
ATOM     52  C   UNL     1      16.256   7.414  -7.572  1.00  0.00     0.074 A 
ATOM     53  C   UNL     1      19.947   8.285  -2.495  1.00  0.00     0.029 A 
ATOM     54  N   UNL     1      18.314   7.695  -3.885  1.00  0.00    -0.354 N 
ATOM     55  N   UNL     1      16.961   7.541  -6.475  1.00  0.00    -0.248 NA
ATOM     56  C   UNL     1      16.809   8.136  -8.727  1.00  0.00     0.031 C 
ATOM     57  C   UNL     1      20.207   8.851  -3.747  1.00  0.00     0.029 A 
ATOM     58  C   UNL     1      19.201   8.468  -4.618  1.00  0.00     0.049 A 
ATOM     59  H   UNL     1      17.494   7.284  -4.241  1.00  0.00     0.167 HD
ATOM     60  C   UNL     1      18.045   8.343  -6.807  1.00  0.00     0.074 A 
ATOM     61  C   UNL     1      17.916   8.656  -8.215  1.00  0.00     0.031 C 
ATOM     62  C   UNL     1      19.054   8.782  -6.016  1.00  0.00     0.037 A 
BRANCH  49  63
ATOM     63  C   UNL     1      18.662   6.879  -0.160  1.00  0.00     0.064 A 
ATOM     64  C   UNL     1      18.654   8.046   0.618  1.00  0.00     0.173 A 
ATOM     65  C   UNL     1      19.301   5.744   0.359  1.00  0.00     0.173 A 
ATOM     66  F   UNL     1      18.058   9.158   0.164  1.00  0.00    -0.203 F 
ATOM     67  C   UNL     1      19.276   8.078   1.864  1.00  0.00     0.198 A 
ATOM     68  C   UNL     1      19.902   5.774   1.615  1.00  0.00     0.198 A 
ATOM     69  F   UNL     1      19.323   4.601  -0.343  1.00  0.00    -0.203 F 
ATOM     70  F   UNL     1      19.278   9.211   2.580  1.00  0.00    -0.200 F 
ATOM     71  C   UNL     1      19.896   6.943   2.362  1.00  0.00     0.200 A 
ATOM     72  F   UNL     1      20.483   4.670   2.105  1.00  0.00    -0.200 F 
ATOM     73  F   UNL     1      20.487   6.973   3.565  1.00  0.00    -0.200 F 
ENDBRANCH  49  63
BRANCH  50  74
ATOM     74  C   UNL     1      14.367   6.574  -9.149  1.00  0.00     0.064 A 
ATOM     75  C   UNL     1      13.153   7.221  -9.416  1.00  0.00     0.173 A 
ATOM     76  C   UNL     1      14.971   5.859 -10.191  1.00  0.00     0.173 A 
ATOM     77  F   UNL     1      12.538   7.921  -8.451  1.00  0.00    -0.203 F 
ATOM     78  C   UNL     1      12.556   7.141 -10.672  1.00  0.00     0.198 A 
ATOM     79  C   UNL     1      14.386   5.798 -11.454  1.00  0.00     0.198 A 
ATOM     80  F   UNL     1      16.146   5.244  -9.989  1.00  0.00    -0.203 F 
ATOM     81  F   UNL     1      11.382   7.747 -10.895  1.00  0.00    -0.200 F 
ATOM     82  C   UNL     1      13.175   6.432 -11.691  1.00  0.00     0.200 A 
ATOM     83  F   UNL     1      14.998   5.132 -12.443  1.00  0.00    -0.200 F 
ATOM     84  F   UNL     1      12.607   6.364 -12.903  1.00  0.00    -0.200 F 
ENDBRANCH  50  74
BRANCH  62  85
ATOM     85  C   UNL     1      20.101   9.651  -6.650  1.00  0.00     0.064 A 
ATOM     86  C   UNL     1      21.400   9.164  -6.864  1.00  0.00     0.173 A 
ATOM     87  C   UNL     1      19.831  10.982  -7.000  1.00  0.00     0.173 A 
ATOM     88  F   UNL     1      21.711   7.901  -6.538  1.00  0.00    -0.203 F 
ATOM     89  C   UNL     1      22.391   9.981  -7.402  1.00  0.00     0.198 A 
ATOM     90  C   UNL     1      20.818  11.788  -7.562  1.00  0.00     0.198 A 
ATOM     91  F   UNL     1      18.602  11.489  -6.826  1.00  0.00    -0.203 F 
ATOM     92  F   UNL     1      23.630   9.502  -7.577  1.00  0.00    -0.200 F 
ATOM     93  C   UNL     1      22.098  11.290  -7.756  1.00  0.00     0.200 A 
ATOM     94  F   UNL     1      20.527  13.044  -7.926  1.00  0.00    -0.200 F 
ATOM     95  F   UNL     1      23.048  12.069  -8.291  1.00  0.00    -0.200 F 
ENDBRANCH  62  85
ENDBRANCH  36  37
ENDBRANCH  29  31
ENDBRANCH  28  29
ENDBRANCH  27  28
ENDBRANCH  26  27
ENDBRANCH  25  26
ENDBRANCH  24  25
ENDBRANCH   1  24
TORSDOF 19
