REMARK SMILES C[C@@H]1[C@@H](C(=O)OCCOCCOC(=O)c2ccc(-c3c4nc(c(-c5c(F)c(F)c(F)c(F)c5F)c5ccc([nH]5)c(-c5c(F)c(F)c(F)c(F)c5F)c5nc(c(-c6c(F)c(F)c(F)c(F)c6F)c6ccc3[nH]6)C=C5)C=C4)cc2)CC[N@H+]1Cc1c(F)cccc1Cl
REMARK SMILES IDX 9 1 8 2 7 3 6 4 4 5 5 6 3 7 1 8 2 9 80 10 78 11 79 12 81 14
REMARK SMILES IDX 82 15 83 16 88 17 84 18 85 19 87 20 89 21 86 22 10 23 11 24
REMARK SMILES IDX 12 25 13 26 14 27 15 28 16 29 77 30 17 31 76 32 18 33 19 34
REMARK SMILES IDX 20 35 70 36 21 37 75 38 69 39 71 40 22 41 74 42 68 43 67 44
REMARK SMILES IDX 23 46 55 47 35 48 54 49 36 50 39 51 53 52 72 53 37 54 38 55
REMARK SMILES IDX 52 57 73 58 40 59 24 60 25 61 33 62 26 63 27 64 31 65 34 66
REMARK SMILES IDX 28 67 29 68 32 69 30 70 56 71 57 72 65 73 58 74 59 75 63 76
REMARK SMILES IDX 66 77 60 78 61 79 64 80 62 81 41 82 42 83 50 84 43 85 44 86
REMARK SMILES IDX 48 87 51 88 45 89 46 90 49 91 47 92
REMARK H PARENT 80 13 71 45 39 56
REMARK Flexibility Score: inf
ROOT
ATOM      1  O   UNL     1       0.018   2.589  -4.694  1.00  0.00    -0.374 OA
ENDROOT
BRANCH   1   2
ATOM      2  C   UNL     1      -1.406   2.535  -4.656  1.00  0.00     0.202 C 
BRANCH   2   3
ATOM      3  C   UNL     1      -2.029   1.319  -3.970  1.00  0.00     0.261 C 
BRANCH   3   4
ATOM      4  O   UNL     1      -1.716   1.290  -2.572  1.00  0.00    -0.463 OA
BRANCH   4   5
ATOM      5  C   UNL     1      -0.763   0.383  -2.205  1.00  0.00     0.315 C 
ATOM      6  O   UNL     1      -0.205  -0.389  -2.971  1.00  0.00    -0.252 OA
BRANCH   5   7
ATOM      7  C   UNL     1      -0.444   0.550  -0.732  1.00  0.00     0.162 C 
ATOM      8  C   UNL     1       1.728   0.154   0.480  1.00  0.00     0.076 C 
ATOM      9  C   UNL     1       0.563  -0.517  -0.244  1.00  0.00     0.195 C 
ATOM     10  N   UNL     1      -0.277  -1.368   0.586  1.00  0.00    -0.328 N 
ATOM     11  C   UNL     1      -1.697   0.298   0.107  1.00  0.00     0.083 C 
ATOM     12  C   UNL     1      -1.671  -1.209   0.258  1.00  0.00     0.263 C 
ATOM     13  H   UNL     1       0.149  -1.298   1.510  1.00  0.00     0.348 HD
BRANCH  10  14
ATOM     14  C   UNL     1       0.176  -2.387   1.498  1.00  0.00     0.303 C 
BRANCH  14  15
ATOM     15  C   UNL     1       0.526  -1.819   2.857  1.00  0.00     0.061 A 
ATOM     16  C   UNL     1       1.876  -1.713   3.216  1.00  0.00     0.133 A 
ATOM     17  C   UNL     1      -0.417  -1.322   3.772  1.00  0.00     0.052 A 
ATOM     18  F   UNL     1       2.824  -2.228   2.419  1.00  0.00    -0.206 F 
ATOM     19  C   UNL     1       2.288  -1.062   4.378  1.00  0.00     0.040 A 
ATOM     20  C   UNL     1      -0.009  -0.650   4.933  1.00  0.00     0.021 A 
ATOM     21  Cl  UNL     1      -2.119  -1.546   3.599  1.00  0.00    -0.084 Cl
ATOM     22  C   UNL     1       1.343  -0.506   5.229  1.00  0.00     0.005 A 
ENDBRANCH  14  15
ENDBRANCH  10  14
ENDBRANCH   5   7
ENDBRANCH   4   5
ENDBRANCH   3   4
ENDBRANCH   2   3
ENDBRANCH   1   2
BRANCH   1  23
ATOM     23  C   UNL     1       0.700   3.034  -3.522  1.00  0.00     0.202 C 
BRANCH  23  24
ATOM     24  C   UNL     1       0.689   4.543  -3.253  1.00  0.00     0.261 C 
BRANCH  24  25
ATOM     25  O   UNL     1      -0.625   5.013  -2.896  1.00  0.00    -0.460 OA
BRANCH  25  26
ATOM     26  C   UNL     1      -1.202   5.827  -3.805  1.00  0.00     0.338 C 
ATOM     27  O   UNL     1      -0.700   6.267  -4.837  1.00  0.00    -0.246 OA
BRANCH  26  28
ATOM     28  C   UNL     1      -2.630   6.001  -3.501  1.00  0.00     0.060 A 
ATOM     29  C   UNL     1      -3.548   5.694  -4.514  1.00  0.00     0.016 A 
ATOM     30  C   UNL     1      -3.062   6.544  -2.289  1.00  0.00     0.016 A 
ATOM     31  C   UNL     1      -4.898   5.983  -4.343  1.00  0.00     0.010 A 
ATOM     32  C   UNL     1      -4.418   6.846  -2.123  1.00  0.00     0.010 A 
ATOM     33  C   UNL     1      -5.332   6.605  -3.166  1.00  0.00    -0.014 A 
BRANCH  33  34
ATOM     34  C   UNL     1      -6.706   7.158  -3.106  1.00  0.00     0.031 A 
ATOM     35  C   UNL     1      -6.912   8.616  -3.414  1.00  0.00     0.074 A 
ATOM     36  C   UNL     1      -7.756   6.368  -2.828  1.00  0.00     0.049 A 
ATOM     37  N   UNL     1      -8.016   9.319  -3.412  1.00  0.00    -0.248 NA
ATOM     38  C   UNL     1      -5.710   9.385  -3.775  1.00  0.00     0.031 C 
ATOM     39  C   UNL     1      -7.684   4.934  -2.557  1.00  0.00     0.029 A 
ATOM     40  N   UNL     1      -9.091   6.666  -2.725  1.00  0.00    -0.354 N 
ATOM     41  C   UNL     1      -7.642  10.608  -3.767  1.00  0.00     0.074 A 
ATOM     42  C   UNL     1      -6.207  10.600  -3.948  1.00  0.00     0.031 C 
ATOM     43  C   UNL     1      -8.923   4.477  -2.308  1.00  0.00     0.029 A 
ATOM     44  C   UNL     1      -9.868   5.590  -2.376  1.00  0.00     0.049 A 
ATOM     45  H   UNL     1      -9.457   7.566  -2.887  1.00  0.00     0.167 HD
ATOM     46  C   UNL     1      -8.427  11.698  -3.935  1.00  0.00     0.037 A 
ATOM     47  C   UNL     1     -11.189   5.522  -2.121  1.00  0.00     0.037 A 
ATOM     48  C   UNL     1      -9.854  11.703  -3.755  1.00  0.00     0.049 A 
ATOM     49  C   UNL     1     -12.031   6.765  -2.248  1.00  0.00     0.074 A 
ATOM     50  C   UNL     1     -10.742  12.753  -3.915  1.00  0.00     0.029 A 
ATOM     51  N   UNL     1     -10.602  10.601  -3.367  1.00  0.00    -0.354 N 
ATOM     52  N   UNL     1     -11.674   7.975  -2.605  1.00  0.00    -0.248 NA
ATOM     53  C   UNL     1     -13.462   6.631  -1.939  1.00  0.00     0.031 C 
ATOM     54  C   UNL     1     -12.022  12.297  -3.580  1.00  0.00     0.029 A 
ATOM     55  C   UNL     1     -11.938  10.952  -3.258  1.00  0.00     0.049 A 
ATOM     56  H   UNL     1     -10.238   9.703  -3.194  1.00  0.00     0.167 HD
ATOM     57  C   UNL     1     -12.835   8.737  -2.591  1.00  0.00     0.074 A 
ATOM     58  C   UNL     1     -13.911   7.850  -2.201  1.00  0.00     0.031 C 
ATOM     59  C   UNL     1     -12.997  10.053  -2.876  1.00  0.00     0.037 A 
BRANCH  46  60
ATOM     60  C   UNL     1      -7.753  12.985  -4.311  1.00  0.00     0.064 A 
ATOM     61  C   UNL     1      -7.228  13.193  -5.595  1.00  0.00     0.173 A 
ATOM     62  C   UNL     1      -7.660  14.033  -3.384  1.00  0.00     0.173 A 
ATOM     63  F   UNL     1      -7.279  12.215  -6.512  1.00  0.00    -0.203 F 
ATOM     64  C   UNL     1      -6.614  14.397  -5.930  1.00  0.00     0.198 A 
ATOM     65  C   UNL     1      -7.068  15.245  -3.730  1.00  0.00     0.198 A 
ATOM     66  F   UNL     1      -8.148  13.885  -2.143  1.00  0.00    -0.203 F 
ATOM     67  F   UNL     1      -6.081  14.559  -7.149  1.00  0.00    -0.200 F 
ATOM     68  C   UNL     1      -6.540  15.424  -5.000  1.00  0.00     0.200 A 
ATOM     69  F   UNL     1      -7.007  16.239  -2.834  1.00  0.00    -0.200 F 
ATOM     70  F   UNL     1      -5.954  16.584  -5.326  1.00  0.00    -0.200 F 
ENDBRANCH  46  60
BRANCH  47  71
ATOM     71  C   UNL     1     -11.799   4.231  -1.710  1.00  0.00     0.064 A 
ATOM     72  C   UNL     1     -12.684   3.547  -2.554  1.00  0.00     0.173 A 
ATOM     73  C   UNL     1     -11.521   3.665  -0.457  1.00  0.00     0.173 A 
ATOM     74  F   UNL     1     -13.001   4.062  -3.751  1.00  0.00    -0.203 F 
ATOM     75  C   UNL     1     -13.283   2.354  -2.153  1.00  0.00     0.198 A 
ATOM     76  C   UNL     1     -12.099   2.458  -0.068  1.00  0.00     0.198 A 
ATOM     77  F   UNL     1     -10.682   4.282   0.388  1.00  0.00    -0.203 F 
ATOM     78  F   UNL     1     -14.160   1.743  -2.960  1.00  0.00    -0.200 F 
ATOM     79  C   UNL     1     -12.985   1.808  -0.913  1.00  0.00     0.200 A 
ATOM     80  F   UNL     1     -11.800   1.929   1.126  1.00  0.00    -0.200 F 
ATOM     81  F   UNL     1     -13.559   0.659  -0.529  1.00  0.00    -0.200 F 
ENDBRANCH  47  71
BRANCH  59  82
ATOM     82  C   UNL     1     -14.390  10.606  -2.811  1.00  0.00     0.064 A 
ATOM     83  C   UNL     1     -15.040  10.822  -1.587  1.00  0.00     0.173 A 
ATOM     84  C   UNL     1     -15.067  10.964  -3.987  1.00  0.00     0.173 A 
ATOM     85  F   UNL     1     -14.440  10.482  -0.436  1.00  0.00    -0.203 F 
ATOM     86  C   UNL     1     -16.325  11.355  -1.544  1.00  0.00     0.198 A 
ATOM     87  C   UNL     1     -16.340  11.523  -3.939  1.00  0.00     0.198 A 
ATOM     88  F   UNL     1     -14.486  10.784  -5.183  1.00  0.00    -0.203 F 
ATOM     89  F   UNL     1     -16.944  11.513  -0.366  1.00  0.00    -0.200 F 
ATOM     90  C   UNL     1     -16.971  11.712  -2.719  1.00  0.00     0.200 A 
ATOM     91  F   UNL     1     -16.958  11.880  -5.074  1.00  0.00    -0.200 F 
ATOM     92  F   UNL     1     -18.206  12.232  -2.675  1.00  0.00    -0.200 F 
ENDBRANCH  59  82
ENDBRANCH  33  34
ENDBRANCH  26  28
ENDBRANCH  25  26
ENDBRANCH  24  25
ENDBRANCH  23  24
ENDBRANCH   1  23
TORSDOF 16
