REMARK SMILES O=CN1CCC[C@@H](C(=O)OCCOCCOC(=O)c2ccc(-c3c4nc(c(-c5c(F)c(F)c(F)c(F)c5F)c5ccc([nH]5)c(-c5c(F)c(F)c(F)c(F)c5F)c5nc(c(-c6c(F)c(F)c(F)c(F)c6F)c6ccc3[nH]6)C=C5)C=C4)cc2)C1
REMARK SMILES IDX 14 1 13 2 12 3 11 4 10 5 8 6 9 7 7 8 3 9 4 10 82 11 5 12
REMARK SMILES IDX 6 13 2 14 1 15 15 16 16 17 17 18 18 19 19 20 20 21 81 22
REMARK SMILES IDX 21 23 80 24 22 25 23 26 24 27 74 28 25 29 79 30 73 31 75 32
REMARK SMILES IDX 26 33 78 34 72 35 71 36 27 38 59 39 39 40 58 41 40 42 43 43
REMARK SMILES IDX 57 44 76 45 41 46 42 47 56 49 77 50 44 51 28 52 29 53 37 54
REMARK SMILES IDX 30 55 31 56 35 57 38 58 32 59 33 60 36 61 34 62 60 63 61 64
REMARK SMILES IDX 69 65 62 66 63 67 67 68 70 69 64 70 65 71 68 72 66 73 45 74
REMARK SMILES IDX 46 75 54 76 47 77 48 78 52 79 55 80 49 81 50 82 53 83 51 84
REMARK H PARENT 75 37 43 48
REMARK Flexibility Score: inf
ROOT
ATOM      1  C   UNL     1       4.502  -2.230   5.974  1.00  0.00     0.202 C 
ENDROOT
BRANCH   1   2
ATOM      2  O   UNL     1       4.160  -1.653   7.235  1.00  0.00    -0.374 OA
BRANCH   2   3
ATOM      3  C   UNL     1       2.807  -1.241   7.430  1.00  0.00     0.202 C 
BRANCH   3   4
ATOM      4  C   UNL     1       2.403   0.071   6.754  1.00  0.00     0.261 C 
BRANCH   4   5
ATOM      5  O   UNL     1       2.492  -0.057   5.327  1.00  0.00    -0.463 OA
BRANCH   5   6
ATOM      6  C   UNL     1       3.253   0.881   4.702  1.00  0.00     0.310 C 
ATOM      7  O   UNL     1       3.655   1.917   5.214  1.00  0.00    -0.252 OA
BRANCH   6   8
ATOM      8  C   UNL     1       3.569   0.453   3.285  1.00  0.00     0.119 C 
ATOM      9  N   UNL     1       2.896   0.869   0.961  1.00  0.00    -0.344 N 
ATOM     10  C   UNL     1       4.183   1.433   0.592  1.00  0.00     0.119 C 
ATOM     11  C   UNL     1       2.499   1.015   2.357  1.00  0.00     0.134 C 
ATOM     12  C   UNL     1       5.280   0.771   1.418  1.00  0.00     0.022 C 
ATOM     13  C   UNL     1       4.991   0.918   2.911  1.00  0.00     0.019 C 
BRANCH   9  14
ATOM     14  C   UNL     1       2.135   0.145   0.070  1.00  0.00     0.339 C 
ATOM     15  O   UNL     1       1.090  -0.437   0.330  1.00  0.00    -0.279 OA
ENDBRANCH   9  14
ENDBRANCH   6   8
ENDBRANCH   5   6
ENDBRANCH   4   5
ENDBRANCH   3   4
ENDBRANCH   2   3
ENDBRANCH   1   2
BRANCH   1  16
ATOM     16  C   UNL     1       4.052  -3.677   5.735  1.00  0.00     0.261 C 
BRANCH  16  17
ATOM     17  O   UNL     1       2.620  -3.803   5.669  1.00  0.00    -0.460 OA
BRANCH  17  18
ATOM     18  C   UNL     1       2.062  -4.500   6.684  1.00  0.00     0.338 C 
ATOM     19  O   UNL     1       2.641  -5.083   7.594  1.00  0.00    -0.246 OA
BRANCH  18  20
ATOM     20  C   UNL     1       0.599  -4.332   6.674  1.00  0.00     0.060 A 
ATOM     21  C   UNL     1      -0.007  -3.852   7.843  1.00  0.00     0.016 A 
ATOM     22  C   UNL     1      -0.176  -4.714   5.577  1.00  0.00     0.016 A 
ATOM     23  C   UNL     1      -1.396  -3.794   7.937  1.00  0.00     0.010 A 
ATOM     24  C   UNL     1      -1.571  -4.668   5.678  1.00  0.00     0.010 A 
ATOM     25  C   UNL     1      -2.186  -4.240   6.869  1.00  0.00    -0.014 A 
BRANCH  25  26
ATOM     26  C   UNL     1      -3.648  -4.395   7.057  1.00  0.00     0.031 A 
ATOM     27  C   UNL     1      -4.197  -5.751   7.402  1.00  0.00     0.074 A 
ATOM     28  C   UNL     1      -4.472  -3.339   6.947  1.00  0.00     0.049 A 
ATOM     29  N   UNL     1      -5.439  -6.127   7.574  1.00  0.00    -0.248 NA
ATOM     30  C   UNL     1      -3.212  -6.830   7.578  1.00  0.00     0.031 C 
ATOM     31  C   UNL     1      -4.054  -1.970   6.658  1.00  0.00     0.029 A 
ATOM     32  N   UNL     1      -5.838  -3.260   7.059  1.00  0.00    -0.354 N 
ATOM     33  C   UNL     1      -5.386  -7.482   7.872  1.00  0.00     0.074 A 
ATOM     34  C   UNL     1      -3.992  -7.870   7.833  1.00  0.00     0.031 C 
ATOM     35  C   UNL     1      -5.144  -1.185   6.601  1.00  0.00     0.029 A 
ATOM     36  C   UNL     1      -6.336  -2.004   6.819  1.00  0.00     0.049 A 
ATOM     37  H   UNL     1      -6.406  -4.031   7.290  1.00  0.00     0.167 HD
ATOM     38  C   UNL     1      -6.407  -8.323   8.159  1.00  0.00     0.037 A 
ATOM     39  C   UNL     1      -7.611  -1.573   6.759  1.00  0.00     0.037 A 
ATOM     40  C   UNL     1      -7.792  -7.936   8.197  1.00  0.00     0.049 A 
ATOM     41  C   UNL     1      -8.733  -2.546   7.010  1.00  0.00     0.074 A 
ATOM     42  C   UNL     1      -8.898  -8.711   8.497  1.00  0.00     0.029 A 
ATOM     43  N   UNL     1      -8.260  -6.661   7.916  1.00  0.00    -0.354 N 
ATOM     44  N   UNL     1      -8.674  -3.819   7.317  1.00  0.00    -0.248 NA
ATOM     45  C   UNL     1     -10.102  -2.019   6.906  1.00  0.00     0.031 C 
ATOM     46  C   UNL     1     -10.040  -7.916   8.352  1.00  0.00     0.029 A 
ATOM     47  C   UNL     1      -9.642  -6.634   8.010  1.00  0.00     0.049 A 
ATOM     48  H   UNL     1      -7.695  -5.889   7.684  1.00  0.00     0.167 HD
ATOM     49  C   UNL     1      -9.989  -4.239   7.469  1.00  0.00     0.074 A 
ATOM     50  C   UNL     1     -10.826  -3.082   7.231  1.00  0.00     0.031 C 
ATOM     51  C   UNL     1     -10.461  -5.471   7.779  1.00  0.00     0.037 A 
BRANCH  38  52
ATOM     52  C   UNL     1      -6.064  -9.758   8.431  1.00  0.00     0.064 A 
ATOM     53  C   UNL     1      -5.437 -10.152   9.622  1.00  0.00     0.173 A 
ATOM     54  C   UNL     1      -6.399 -10.756   7.503  1.00  0.00     0.173 A 
ATOM     55  F   UNL     1      -5.085  -9.234  10.535  1.00  0.00    -0.203 F 
ATOM     56  C   UNL     1      -5.137 -11.490   9.864  1.00  0.00     0.198 A 
ATOM     57  C   UNL     1      -6.120 -12.095   7.759  1.00  0.00     0.198 A 
ATOM     58  F   UNL     1      -7.003 -10.431   6.350  1.00  0.00    -0.203 F 
ATOM     59  F   UNL     1      -4.500 -11.840  10.990  1.00  0.00    -0.200 F 
ATOM     60  C   UNL     1      -5.484 -12.461   8.936  1.00  0.00     0.200 A 
ATOM     61  F   UNL     1      -6.466 -13.033   6.866  1.00  0.00    -0.200 F 
ATOM     62  F   UNL     1      -5.200 -13.749   9.173  1.00  0.00    -0.200 F 
ENDBRANCH  38  52
BRANCH  39  63
ATOM     63  C   UNL     1      -7.897  -0.152   6.434  1.00  0.00     0.064 A 
ATOM     64  C   UNL     1      -8.430   0.717   7.396  1.00  0.00     0.173 A 
ATOM     65  C   UNL     1      -7.660   0.360   5.150  1.00  0.00     0.173 A 
ATOM     66  F   UNL     1      -8.699   0.266   8.629  1.00  0.00    -0.203 F 
ATOM     67  C   UNL     1      -8.727   2.042   7.081  1.00  0.00     0.198 A 
ATOM     68  C   UNL     1      -7.934   1.692   4.844  1.00  0.00     0.198 A 
ATOM     69  F   UNL     1      -7.156  -0.432   4.193  1.00  0.00    -0.203 F 
ATOM     70  F   UNL     1      -9.277   2.840   8.007  1.00  0.00    -0.200 F 
ATOM     71  C   UNL     1      -8.474   2.529   5.808  1.00  0.00     0.200 A 
ATOM     72  F   UNL     1      -7.679   2.161   3.615  1.00  0.00    -0.200 F 
ATOM     73  F   UNL     1      -8.758   3.804   5.507  1.00  0.00    -0.200 F 
ENDBRANCH  39  63
BRANCH  51  74
ATOM     74  C   UNL     1     -11.947  -5.628   7.916  1.00  0.00     0.064 A 
ATOM     75  C   UNL     1     -12.792  -5.631   6.798  1.00  0.00     0.173 A 
ATOM     76  C   UNL     1     -12.525  -5.830   9.179  1.00  0.00     0.173 A 
ATOM     77  F   UNL     1     -12.289  -5.427   5.571  1.00  0.00    -0.203 F 
ATOM     78  C   UNL     1     -14.166  -5.810   6.941  1.00  0.00     0.198 A 
ATOM     79  C   UNL     1     -13.895  -6.037   9.315  1.00  0.00     0.198 A 
ATOM     80  F   UNL     1     -11.758  -5.844  10.280  1.00  0.00    -0.203 F 
ATOM     81  F   UNL     1     -14.961  -5.769   5.862  1.00  0.00    -0.200 F 
ATOM     82  C   UNL     1     -14.715  -6.021   8.197  1.00  0.00     0.200 A 
ATOM     83  F   UNL     1     -14.421  -6.253  10.529  1.00  0.00    -0.200 F 
ATOM     84  F   UNL     1     -16.036  -6.202   8.331  1.00  0.00    -0.200 F 
ENDBRANCH  51  74
ENDBRANCH  25  26
ENDBRANCH  18  20
ENDBRANCH  17  18
ENDBRANCH  16  17
ENDBRANCH   1  16
TORSDOF 15
