REMARK SMILES O=C(OCCOCCOC(=O)[C@H](Cc1ccc(O)cc1)NC(=O)c1ccc(Cl)s1)c1ccc(-c2c3nc(c(-c4c(F)c(F)c(F)c(F)c4F)c4ccc([nH]4)c(-c4c(F)c(F)c(F)c(F)c4F)c4nc(c(-c5c(F)c(F)c(F)c(F)c5F)c5ccc2[nH]5)C=C4)C=C3)cc1
REMARK SMILES IDX 7 1 6 2 5 3 4 4 3 5 2 6 1 7 30 8 31 9 92 10 32 11 91 12
REMARK SMILES IDX 33 13 34 14 35 15 85 16 36 17 90 18 84 19 86 20 37 21 89 22
REMARK SMILES IDX 83 23 82 24 38 26 70 27 50 28 69 29 51 30 54 31 68 32 87 33
REMARK SMILES IDX 52 34 53 35 67 37 88 38 55 39 39 40 40 41 48 42 41 43 42 44
REMARK SMILES IDX 46 45 49 46 43 47 44 48 47 49 45 50 71 51 72 52 80 53 73 54
REMARK SMILES IDX 74 55 78 56 81 57 75 58 76 59 79 60 77 61 56 62 57 63 65 64
REMARK SMILES IDX 58 65 59 66 63 67 66 68 60 69 61 70 64 71 62 72 8 73 9 74
REMARK SMILES IDX 10 75 11 76 12 77 21 78 22 79 23 81 24 82 25 83 29 84 26 85
REMARK SMILES IDX 27 86 28 87 13 88 14 89 15 90 20 91 16 92 19 93 17 94 18 95
REMARK H PARENT 86 25 54 36 21 80 18 96
REMARK Flexibility Score: inf
ROOT
ATOM      1  C   UNL     1       4.908  -3.938  -2.418  1.00  0.00     0.202 C 
ENDROOT
BRANCH   1   2
ATOM      2  O   UNL     1       4.168  -2.857  -1.844  1.00  0.00    -0.374 OA
BRANCH   2   3
ATOM      3  C   UNL     1       4.940  -1.783  -1.307  1.00  0.00     0.202 C 
BRANCH   3   4
ATOM      4  C   UNL     1       5.240  -1.909   0.187  1.00  0.00     0.261 C 
BRANCH   4   5
ATOM      5  O   UNL     1       5.841  -3.176   0.475  1.00  0.00    -0.460 OA
BRANCH   5   6
ATOM      6  C   UNL     1       5.224  -4.315   0.870  1.00  0.00     0.338 C 
ATOM      7  O   UNL     1       5.913  -5.321   1.034  1.00  0.00    -0.246 OA
BRANCH   6   8
ATOM      8  C   UNL     1       3.756  -4.429   1.143  1.00  0.00     0.060 A 
ATOM      9  C   UNL     1       2.758  -3.640   0.569  1.00  0.00     0.016 A 
ATOM     10  C   UNL     1       3.350  -5.475   1.993  1.00  0.00     0.016 A 
ATOM     11  C   UNL     1       1.416  -3.847   0.837  1.00  0.00     0.010 A 
ATOM     12  C   UNL     1       1.997  -5.702   2.264  1.00  0.00     0.010 A 
ATOM     13  C   UNL     1       1.031  -4.872   1.692  1.00  0.00    -0.014 A 
BRANCH  13  14
ATOM     14  C   UNL     1      -0.388  -4.907   2.074  1.00  0.00     0.031 A 
ATOM     15  C   UNL     1      -0.776  -4.255   3.362  1.00  0.00     0.074 A 
ATOM     16  C   UNL     1      -1.300  -5.324   1.179  1.00  0.00     0.049 A 
ATOM     17  N   UNL     1      -1.958  -4.106   3.894  1.00  0.00    -0.248 NA
ATOM     18  C   UNL     1       0.320  -3.661   4.149  1.00  0.00     0.031 C 
ATOM     19  C   UNL     1      -0.993  -5.821  -0.164  1.00  0.00     0.029 A 
ATOM     20  N   UNL     1      -2.666  -5.344   1.241  1.00  0.00    -0.354 N 
ATOM     21  C   UNL     1      -1.746  -3.431   5.087  1.00  0.00     0.074 A 
ATOM     22  C   UNL     1      -0.326  -3.188   5.202  1.00  0.00     0.031 C 
ATOM     23  C   UNL     1      -2.143  -6.068  -0.811  1.00  0.00     0.029 A 
ATOM     24  C   UNL     1      -3.259  -5.807   0.092  1.00  0.00     0.049 A 
ATOM     25  H   UNL     1      -3.175  -5.056   2.033  1.00  0.00     0.167 HD
ATOM     26  C   UNL     1      -2.665  -3.063   6.007  1.00  0.00     0.037 A 
ATOM     27  C   UNL     1      -4.561  -6.012  -0.175  1.00  0.00     0.037 A 
ATOM     28  C   UNL     1      -4.070  -3.324   5.857  1.00  0.00     0.049 A 
ATOM     29  C   UNL     1      -5.556  -5.679   0.906  1.00  0.00     0.074 A 
ATOM     30  C   UNL     1      -5.099  -3.090   6.749  1.00  0.00     0.029 A 
ATOM     31  N   UNL     1      -4.639  -3.885   4.719  1.00  0.00    -0.354 N 
ATOM     32  N   UNL     1      -5.348  -5.126   2.079  1.00  0.00    -0.248 NA
ATOM     33  C   UNL     1      -6.959  -6.012   0.638  1.00  0.00     0.031 C 
ATOM     34  C   UNL     1      -6.286  -3.548   6.165  1.00  0.00     0.029 A 
ATOM     35  C   UNL     1      -6.005  -4.018   4.889  1.00  0.00     0.049 A 
ATOM     36  H   UNL     1      -4.143  -4.149   3.911  1.00  0.00     0.167 HD
ATOM     37  C   UNL     1      -6.593  -5.023   2.680  1.00  0.00     0.074 A 
ATOM     38  C   UNL     1      -7.553  -5.556   1.732  1.00  0.00     0.031 C 
ATOM     39  C   UNL     1      -6.920  -4.541   3.905  1.00  0.00     0.037 A 
BRANCH  26  40
ATOM     40  C   UNL     1      -2.150  -2.443   7.271  1.00  0.00     0.064 A 
ATOM     41  C   UNL     1      -1.624  -1.143   7.306  1.00  0.00     0.173 A 
ATOM     42  C   UNL     1      -2.124  -3.193   8.457  1.00  0.00     0.173 A 
ATOM     43  F   UNL     1      -1.590  -0.398   6.191  1.00  0.00    -0.203 F 
ATOM     44  C   UNL     1      -1.062  -0.630   8.474  1.00  0.00     0.198 A 
ATOM     45  C   UNL     1      -1.586  -2.668   9.628  1.00  0.00     0.198 A 
ATOM     46  F   UNL     1      -2.601  -4.447   8.473  1.00  0.00    -0.203 F 
ATOM     47  F   UNL     1      -0.504   0.589   8.468  1.00  0.00    -0.200 F 
ATOM     48  C   UNL     1      -1.046  -1.391   9.633  1.00  0.00     0.200 A 
ATOM     49  F   UNL     1      -1.570  -3.407  10.746  1.00  0.00    -0.200 F 
ATOM     50  F   UNL     1      -0.491  -0.902  10.751  1.00  0.00    -0.200 F 
ENDBRANCH  26  40
BRANCH  27  51
ATOM     51  C   UNL     1      -4.986  -6.587  -1.480  1.00  0.00     0.064 A 
ATOM     52  C   UNL     1      -5.784  -5.860  -2.374  1.00  0.00     0.173 A 
ATOM     53  C   UNL     1      -4.614  -7.888  -1.856  1.00  0.00     0.173 A 
ATOM     54  F   UNL     1      -6.188  -4.621  -2.057  1.00  0.00    -0.203 F 
ATOM     55  C   UNL     1      -6.207  -6.417  -3.581  1.00  0.00     0.198 A 
ATOM     56  C   UNL     1      -5.010  -8.431  -3.076  1.00  0.00     0.198 A 
ATOM     57  F   UNL     1      -3.854  -8.632  -1.038  1.00  0.00    -0.203 F 
ATOM     58  F   UNL     1      -7.010  -5.717  -4.394  1.00  0.00    -0.200 F 
ATOM     59  C   UNL     1      -5.815  -7.699  -3.934  1.00  0.00     0.200 A 
ATOM     60  F   UNL     1      -4.616  -9.666  -3.416  1.00  0.00    -0.200 F 
ATOM     61  F   UNL     1      -6.220  -8.233  -5.094  1.00  0.00    -0.200 F 
ENDBRANCH  27  51
BRANCH  39  62
ATOM     62  C   UNL     1      -8.376  -4.529   4.257  1.00  0.00     0.064 A 
ATOM     63  C   UNL     1      -9.068  -5.708   4.568  1.00  0.00     0.173 A 
ATOM     64  C   UNL     1      -9.073  -3.313   4.322  1.00  0.00     0.173 A 
ATOM     65  F   UNL     1      -8.444  -6.894   4.503  1.00  0.00    -0.203 F 
ATOM     66  C   UNL     1     -10.416  -5.673   4.906  1.00  0.00     0.198 A 
ATOM     67  C   UNL     1     -10.413  -3.280   4.691  1.00  0.00     0.198 A 
ATOM     68  F   UNL     1      -8.449  -2.160   4.041  1.00  0.00    -0.203 F 
ATOM     69  F   UNL     1     -11.072  -6.815   5.153  1.00  0.00    -0.200 F 
ATOM     70  C   UNL     1     -11.085  -4.459   4.975  1.00  0.00     0.200 A 
ATOM     71  F   UNL     1     -11.055  -2.106   4.771  1.00  0.00    -0.200 F 
ATOM     72  F   UNL     1     -12.383  -4.427   5.308  1.00  0.00    -0.200 F 
ENDBRANCH  39  62
ENDBRANCH  13  14
ENDBRANCH   6   8
ENDBRANCH   5   6
ENDBRANCH   4   5
ENDBRANCH   3   4
ENDBRANCH   2   3
ENDBRANCH   1   2
BRANCH   1  73
ATOM     73  C   UNL     1       4.625  -3.972  -3.917  1.00  0.00     0.261 C 
BRANCH  73  74
ATOM     74  O   UNL     1       5.113  -2.743  -4.473  1.00  0.00    -0.462 OA
BRANCH  74  75
ATOM     75  C   UNL     1       4.220  -1.711  -4.579  1.00  0.00     0.329 C 
ATOM     76  O   UNL     1       3.002  -1.801  -4.548  1.00  0.00    -0.250 OA
BRANCH  75  77
ATOM     77  C   UNL     1       5.009  -0.425  -4.814  1.00  0.00     0.197 C 
BRANCH  77  78
ATOM     78  N   UNL     1       4.936  -0.123  -6.238  1.00  0.00    -0.338 N 
ATOM     79  C   UNL     1       5.941  -0.122  -7.172  1.00  0.00     0.262 C 
ATOM     80  H   UNL     1       4.042   0.113  -6.577  1.00  0.00     0.164 HD
ATOM     81  O   UNL     1       5.634   0.122  -8.339  1.00  0.00    -0.268 OA
BRANCH  79  82
ATOM     82  C   UNL     1       7.301  -0.366  -6.737  1.00  0.00     0.093 A 
ATOM     83  C   UNL     1       7.851  -1.452  -6.074  1.00  0.00     0.027 A 
ATOM     84  S   UNL     1       8.488   0.830  -7.063  1.00  0.00    -0.118 S 
ATOM     85  C   UNL     1       9.223  -1.243  -5.738  1.00  0.00     0.033 A 
ATOM     86  C   UNL     1       9.667  -0.039  -6.219  1.00  0.00     0.094 A 
ATOM     87  Cl  UNL     1      11.241   0.620  -6.033  1.00  0.00    -0.072 Cl
ENDBRANCH  79  82
ENDBRANCH  77  78
BRANCH  77  88
ATOM     88  C   UNL     1       4.504   0.737  -3.938  1.00  0.00     0.072 C 
BRANCH  88  89
ATOM     89  C   UNL     1       5.515   1.831  -3.627  1.00  0.00    -0.045 A 
ATOM     90  C   UNL     1       6.905   1.632  -3.635  1.00  0.00     0.007 A 
ATOM     91  C   UNL     1       5.040   3.102  -3.267  1.00  0.00     0.007 A 
ATOM     92  C   UNL     1       7.792   2.689  -3.418  1.00  0.00     0.046 A 
ATOM     93  C   UNL     1       5.925   4.156  -3.019  1.00  0.00     0.046 A 
ATOM     94  C   UNL     1       7.292   3.950  -3.132  1.00  0.00     0.115 A 
BRANCH  94  95
ATOM     95  O   UNL     1       8.123   5.015  -2.956  1.00  0.00    -0.508 OA
ATOM     96  H   UNL     1       9.050   4.902  -3.026  1.00  0.00     0.293 HD
ENDBRANCH  94  95
ENDBRANCH  88  89
ENDBRANCH  77  88
ENDBRANCH  75  77
ENDBRANCH  74  75
ENDBRANCH  73  74
ENDBRANCH   1  73
TORSDOF 19
