REMARK SMILES Cc1nc2cc(C(=O)OCCOCCOC(=O)c3ccc(-c4c5nc(c(-c6c(F)c(F)c(F)c(F)c6F)c6ccc([nH]6)c(-c6c(F)c(F)c(F)c(F)c6F)c6nc(c(-c7c(F)c(F)c(F)c(F)c7F)c7ccc4[nH]7)C=C6)C=C5)cc3)ccc2n1C
REMARK SMILES IDX 13 1 12 2 11 3 10 4 9 5 7 6 8 7 6 8 1 9 2 10 3 11 84 12 4 13
REMARK SMILES IDX 83 14 85 15 5 16 82 17 81 18 14 19 15 20 16 21 17 22 18 23
REMARK SMILES IDX 19 24 80 25 20 26 79 27 21 28 22 29 23 30 73 31 24 32 78 33
REMARK SMILES IDX 72 34 74 35 25 36 77 37 71 38 70 39 26 41 58 42 38 43 57 44
REMARK SMILES IDX 39 45 42 46 56 47 75 48 40 49 41 50 55 52 76 53 43 54 27 55
REMARK SMILES IDX 28 56 36 57 29 58 30 59 34 60 37 61 31 62 32 63 35 64 33 65
REMARK SMILES IDX 59 66 60 67 68 68 61 69 62 70 66 71 69 72 63 73 64 74 67 75
REMARK SMILES IDX 65 76 44 77 45 78 53 79 46 80 47 81 51 82 54 83 48 84 49 85
REMARK SMILES IDX 52 86 50 87
REMARK H PARENT 74 40 42 51
REMARK Flexibility Score: inf
ROOT
ATOM      1  C   UNL     1      -4.436   6.448   0.757  1.00  0.00     0.202 C 
ENDROOT
BRANCH   1   2
ATOM      2  O   UNL     1      -4.987   7.096   1.906  1.00  0.00    -0.374 OA
BRANCH   2   3
ATOM      3  C   UNL     1      -4.374   8.293   2.368  1.00  0.00     0.202 C 
BRANCH   3   4
ATOM      4  C   UNL     1      -3.024   8.172   3.091  1.00  0.00     0.261 C 
BRANCH   4   5
ATOM      5  O   UNL     1      -2.048   7.419   2.357  1.00  0.00    -0.460 OA
BRANCH   5   6
ATOM      6  C   UNL     1      -1.790   6.194   2.883  1.00  0.00     0.338 C 
ATOM      7  O   UNL     1      -2.245   5.737   3.920  1.00  0.00    -0.246 OA
BRANCH   6   8
ATOM      8  C   UNL     1      -0.965   5.381   1.962  1.00  0.00     0.062 A 
ATOM      9  C   UNL     1       0.992   0.094  -0.008  1.00  0.00     0.087 C 
ATOM     10  C   UNL     1       0.590   1.484   0.324  1.00  0.00     0.106 A 
ATOM     11  N   UNL     1      -0.445   1.808   1.068  1.00  0.00    -0.233 NA
ATOM     12  N   UNL     1       1.274   2.613  -0.078  1.00  0.00    -0.331 N 
ATOM     13  C   UNL     1      -0.404   3.169   1.191  1.00  0.00     0.090 A 
ATOM     14  C   UNL     1       0.637   3.716   0.447  1.00  0.00     0.068 A 
ATOM     15  C   UNL     1       2.510   2.610  -0.823  1.00  0.00     0.151 C 
ATOM     16  C   UNL     1      -1.222   4.002   1.958  1.00  0.00     0.046 A 
ATOM     17  C   UNL     1       0.871   5.099   0.384  1.00  0.00     0.029 A 
ATOM     18  C   UNL     1       0.044   5.927   1.161  1.00  0.00     0.018 A 
ENDBRANCH   6   8
ENDBRANCH   5   6
ENDBRANCH   4   5
ENDBRANCH   3   4
ENDBRANCH   2   3
ENDBRANCH   1   2
BRANCH   1  19
ATOM     19  C   UNL     1      -4.332   7.260  -0.540  1.00  0.00     0.261 C 
BRANCH  19  20
ATOM     20  O   UNL     1      -3.239   8.193  -0.483  1.00  0.00    -0.460 OA
BRANCH  20  21
ATOM     21  C   UNL     1      -3.539   9.486  -0.741  1.00  0.00     0.338 C 
ATOM     22  O   UNL     1      -4.611   9.966  -1.073  1.00  0.00    -0.246 OA
BRANCH  21  23
ATOM     23  C   UNL     1      -2.360  10.282  -0.387  1.00  0.00     0.060 A 
ATOM     24  C   UNL     1      -1.274  10.352  -1.257  1.00  0.00     0.016 A 
ATOM     25  C   UNL     1      -2.347  10.960   0.834  1.00  0.00     0.016 A 
ATOM     26  C   UNL     1      -0.164  11.117  -0.898  1.00  0.00     0.010 A 
ATOM     27  C   UNL     1      -1.221  11.684   1.208  1.00  0.00     0.010 A 
ATOM     28  C   UNL     1      -0.132  11.794   0.334  1.00  0.00    -0.014 A 
BRANCH  28  29
ATOM     29  C   UNL     1       0.962  12.754   0.595  1.00  0.00     0.031 A 
ATOM     30  C   UNL     1       0.523  14.066   1.171  1.00  0.00     0.074 A 
ATOM     31  C   UNL     1       2.250  12.375   0.740  1.00  0.00     0.049 A 
ATOM     32  N   UNL     1       0.297  14.232   2.443  1.00  0.00    -0.248 NA
ATOM     33  C   UNL     1       0.051  15.175   0.343  1.00  0.00     0.031 C 
ATOM     34  C   UNL     1       2.659  11.070   1.271  1.00  0.00     0.029 A 
ATOM     35  N   UNL     1       3.424  13.094   0.668  1.00  0.00    -0.354 N 
ATOM     36  C   UNL     1      -0.373  15.432   2.593  1.00  0.00     0.074 A 
ATOM     37  C   UNL     1      -0.487  15.992   1.264  1.00  0.00     0.031 C 
ATOM     38  C   UNL     1       3.955  11.142   1.641  1.00  0.00     0.029 A 
ATOM     39  C   UNL     1       4.511  12.439   1.250  1.00  0.00     0.049 A 
ATOM     40  H   UNL     1       3.489  13.982   0.248  1.00  0.00     0.167 HD
ATOM     41  C   UNL     1      -0.801  15.893   3.799  1.00  0.00     0.037 A 
ATOM     42  C   UNL     1       5.508  13.053   1.949  1.00  0.00     0.037 A 
ATOM     43  C   UNL     1      -0.543  15.042   4.922  1.00  0.00     0.049 A 
ATOM     44  C   UNL     1       4.750  13.628   3.118  1.00  0.00     0.074 A 
ATOM     45  C   UNL     1      -1.218  14.090   5.655  1.00  0.00     0.029 A 
ATOM     46  N   UNL     1       0.724  15.047   5.455  1.00  0.00    -0.354 N 
ATOM     47  N   UNL     1       4.334  12.966   4.165  1.00  0.00    -0.248 NA
ATOM     48  C   UNL     1       4.133  14.943   2.937  1.00  0.00     0.031 C 
ATOM     49  C   UNL     1      -0.199  13.254   6.216  1.00  0.00     0.029 A 
ATOM     50  C   UNL     1       1.022  13.743   5.757  1.00  0.00     0.049 A 
ATOM     51  H   UNL     1       1.302  15.832   5.594  1.00  0.00     0.167 HD
ATOM     52  C   UNL     1       3.229  13.676   4.636  1.00  0.00     0.074 A 
ATOM     53  C   UNL     1       3.168  14.886   3.843  1.00  0.00     0.031 C 
ATOM     54  C   UNL     1       2.325  13.168   5.521  1.00  0.00     0.037 A 
BRANCH  41  55
ATOM     55  C   UNL     1      -1.301  17.260   4.035  1.00  0.00     0.064 A 
ATOM     56  C   UNL     1      -0.388  18.208   4.519  1.00  0.00     0.173 A 
ATOM     57  C   UNL     1      -2.655  17.602   3.997  1.00  0.00     0.173 A 
ATOM     58  F   UNL     1       0.919  17.902   4.589  1.00  0.00    -0.203 F 
ATOM     59  C   UNL     1      -0.813  19.446   4.982  1.00  0.00     0.198 A 
ATOM     60  C   UNL     1      -3.080  18.850   4.455  1.00  0.00     0.198 A 
ATOM     61  F   UNL     1      -3.565  16.719   3.561  1.00  0.00    -0.203 F 
ATOM     62  F   UNL     1       0.079  20.312   5.480  1.00  0.00    -0.200 F 
ATOM     63  C   UNL     1      -2.161  19.765   4.957  1.00  0.00     0.200 A 
ATOM     64  F   UNL     1      -4.383  19.162   4.439  1.00  0.00    -0.200 F 
ATOM     65  F   UNL     1      -2.576  20.948   5.430  1.00  0.00    -0.200 F 
ENDBRANCH  41  55
BRANCH  42  66
ATOM     66  C   UNL     1       6.517  13.840   1.165  1.00  0.00     0.064 A 
ATOM     67  C   UNL     1       7.088  13.264   0.012  1.00  0.00     0.173 A 
ATOM     68  C   UNL     1       6.989  15.120   1.505  1.00  0.00     0.173 A 
ATOM     69  F   UNL     1       6.798  11.998  -0.325  1.00  0.00    -0.203 F 
ATOM     70  C   UNL     1       7.969  13.969  -0.812  1.00  0.00     0.198 A 
ATOM     71  C   UNL     1       7.846  15.838   0.664  1.00  0.00     0.198 A 
ATOM     72  F   UNL     1       6.629  15.709   2.652  1.00  0.00    -0.203 F 
ATOM     73  F   UNL     1       8.464  13.387  -1.914  1.00  0.00    -0.200 F 
ATOM     74  C   UNL     1       8.322  15.269  -0.502  1.00  0.00     0.200 A 
ATOM     75  F   UNL     1       8.194  17.092   0.986  1.00  0.00    -0.200 F 
ATOM     76  F   UNL     1       9.123  15.968  -1.318  1.00  0.00    -0.200 F 
ENDBRANCH  42  66
BRANCH  54  77
ATOM     77  C   UNL     1       2.639  11.823   6.075  1.00  0.00     0.064 A 
ATOM     78  C   UNL     1       3.639  11.674   7.043  1.00  0.00     0.173 A 
ATOM     79  C   UNL     1       1.903  10.687   5.701  1.00  0.00     0.173 A 
ATOM     80  F   UNL     1       4.365  12.732   7.434  1.00  0.00    -0.203 F 
ATOM     81  C   UNL     1       3.869  10.440   7.643  1.00  0.00     0.198 A 
ATOM     82  C   UNL     1       2.122   9.460   6.320  1.00  0.00     0.198 A 
ATOM     83  F   UNL     1       0.946  10.768   4.763  1.00  0.00    -0.203 F 
ATOM     84  F   UNL     1       4.819  10.321   8.581  1.00  0.00    -0.200 F 
ATOM     85  C   UNL     1       3.100   9.339   7.294  1.00  0.00     0.200 A 
ATOM     86  F   UNL     1       1.369   8.401   5.990  1.00  0.00    -0.200 F 
ATOM     87  F   UNL     1       3.294   8.163   7.908  1.00  0.00    -0.200 F 
ENDBRANCH  54  77
ENDBRANCH  28  29
ENDBRANCH  21  23
ENDBRANCH  20  21
ENDBRANCH  19  20
ENDBRANCH   1  19
TORSDOF 14
