REMARK SMILES CC(C)(C)OC(=O)N[C@@H](Cc1c[nH]c2cccc(Cl)c12)C(=O)OCCOCCOC(=O)c1ccc(-c2c3nc(c(-c4c(F)c(F)c(F)c(F)c4F)c4ccc([nH]4)c(-c4c(F)c(F)c(F)c(F)c4F)c4nc(c(-c5c(F)c(F)c(F)c(F)c5F)c5ccc2[nH]5)C=C4)C=C3)cc1
REMARK SMILES IDX 25 1 24 2 23 3 21 4 22 5 9 6 8 7 6 8 7 9 5 11 2 12 1 13 3 14
REMARK SMILES IDX 4 15 10 16 11 17 12 18 20 19 13 20 14 21 18 22 15 24 17 25
REMARK SMILES IDX 19 26 16 27 26 28 27 29 28 30 29 31 30 32 31 33 32 34 33 35
REMARK SMILES IDX 94 36 34 37 93 38 35 39 36 40 37 41 87 42 38 43 92 44 86 45
REMARK SMILES IDX 88 46 39 47 91 48 85 49 84 50 40 52 72 53 52 54 71 55 53 56
REMARK SMILES IDX 56 57 70 58 89 59 54 60 55 61 69 63 90 64 57 65 41 66 42 67
REMARK SMILES IDX 50 68 43 69 44 70 48 71 51 72 45 73 46 74 49 75 47 76 73 77
REMARK SMILES IDX 74 78 82 79 75 80 76 81 80 82 83 83 77 84 78 85 81 86 79 87
REMARK SMILES IDX 58 88 59 89 67 90 60 91 61 92 65 93 68 94 62 95 63 96 66 97
REMARK SMILES IDX 64 98
REMARK H PARENT 8 10 13 23 88 51 56 62
REMARK Flexibility Score: inf
ROOT
ATOM      1  C   UNL     1      -0.521  -7.491   2.209  1.00  0.00     0.202 C 
ENDROOT
BRANCH   1   2
ATOM      2  C   UNL     1       0.820  -7.276   2.908  1.00  0.00     0.261 C 
BRANCH   2   3
ATOM      3  O   UNL     1       1.085  -5.898   3.192  1.00  0.00    -0.462 OA
BRANCH   3   4
ATOM      4  C   UNL     1       2.146  -5.366   2.518  1.00  0.00     0.329 C 
ATOM      5  O   UNL     1       2.880  -5.994   1.762  1.00  0.00    -0.250 OA
BRANCH   4   6
ATOM      6  C   UNL     1       2.394  -3.898   2.880  1.00  0.00     0.200 C 
BRANCH   6   7
ATOM      7  N   UNL     1       1.271  -3.237   3.554  1.00  0.00    -0.308 N 
ATOM      8  C   UNL     1       0.652  -2.072   3.223  1.00  0.00     0.408 C 
ATOM      9  O   UNL     1      -0.201  -1.590   3.963  1.00  0.00    -0.225 OA
ATOM     10  H   UNL     1       0.919  -3.697   4.350  1.00  0.00     0.168 HD
BRANCH   8  11
ATOM     11  O   UNL     1       1.046  -1.557   2.035  1.00  0.00    -0.444 OA
BRANCH  11  12
ATOM     12  C   UNL     1       0.508  -0.290   1.555  1.00  0.00     0.106 C 
ATOM     13  C   UNL     1       1.062  -0.125   0.130  1.00  0.00     0.056 C 
ATOM     14  C   UNL     1       1.019   0.872   2.414  1.00  0.00     0.056 C 
ATOM     15  C   UNL     1      -1.025  -0.287   1.463  1.00  0.00     0.056 C 
ENDBRANCH  11  12
ENDBRANCH   8  11
ENDBRANCH   6   7
BRANCH   6  16
ATOM     16  C   UNL     1       3.675  -3.876   3.739  1.00  0.00     0.075 C 
BRANCH  16  17
ATOM     17  C   UNL     1       3.493  -4.528   5.088  1.00  0.00    -0.018 A 
ATOM     18  C   UNL     1       3.612  -5.889   5.316  1.00  0.00     0.087 A 
ATOM     19  C   UNL     1       3.132  -3.922   6.347  1.00  0.00     0.021 A 
ATOM     20  N   UNL     1       3.297  -6.143   6.619  1.00  0.00    -0.361 N 
ATOM     21  C   UNL     1       2.998  -4.971   7.269  1.00  0.00     0.047 A 
ATOM     22  C   UNL     1       2.879  -2.619   6.841  1.00  0.00     0.050 A 
ATOM     23  H   UNL     1       3.285  -7.037   7.032  1.00  0.00     0.166 HD
ATOM     24  C   UNL     1       2.625  -4.776   8.608  1.00  0.00     0.027 A 
ATOM     25  C   UNL     1       2.507  -2.398   8.169  1.00  0.00     0.021 A 
ATOM     26  Cl  UNL     1       3.061  -1.290   5.782  1.00  0.00    -0.084 Cl
ATOM     27  C   UNL     1       2.381  -3.471   9.042  1.00  0.00     0.004 A 
ENDBRANCH  16  17
ENDBRANCH   6  16
ENDBRANCH   4   6
ENDBRANCH   3   4
ENDBRANCH   2   3
ENDBRANCH   1   2
BRANCH   1  28
ATOM     28  O   UNL     1      -0.832  -6.741   1.037  1.00  0.00    -0.374 OA
BRANCH  28  29
ATOM     29  C   UNL     1      -0.833  -5.316   1.041  1.00  0.00     0.202 C 
BRANCH  29  30
ATOM     30  C   UNL     1      -1.857  -4.566   1.886  1.00  0.00     0.261 C 
BRANCH  30  31
ATOM     31  O   UNL     1      -1.836  -4.987   3.240  1.00  0.00    -0.460 OA
BRANCH  31  32
ATOM     32  C   UNL     1      -2.802  -5.890   3.513  1.00  0.00     0.338 C 
ATOM     33  O   UNL     1      -3.570  -6.416   2.724  1.00  0.00    -0.246 OA
BRANCH  32  34
ATOM     34  C   UNL     1      -2.869  -6.114   4.966  1.00  0.00     0.060 A 
ATOM     35  C   UNL     1      -3.804  -7.091   5.322  1.00  0.00     0.016 A 
ATOM     36  C   UNL     1      -2.639  -4.975   5.740  1.00  0.00     0.016 A 
ATOM     37  C   UNL     1      -4.808  -6.712   6.177  1.00  0.00     0.010 A 
ATOM     38  C   UNL     1      -3.664  -4.579   6.555  1.00  0.00     0.010 A 
ATOM     39  C   UNL     1      -4.782  -5.407   6.670  1.00  0.00    -0.014 A 
BRANCH  39  40
ATOM     40  C   UNL     1      -5.929  -4.930   7.403  1.00  0.00     0.031 A 
ATOM     41  C   UNL     1      -5.830  -5.261   8.837  1.00  0.00     0.074 A 
ATOM     42  C   UNL     1      -6.889  -4.173   6.840  1.00  0.00     0.049 A 
ATOM     43  N   UNL     1      -6.489  -6.162   9.485  1.00  0.00    -0.248 NA
ATOM     44  C   UNL     1      -4.694  -4.688   9.581  1.00  0.00     0.031 C 
ATOM     45  C   UNL     1      -6.932  -3.572   5.506  1.00  0.00     0.029 A 
ATOM     46  N   UNL     1      -8.024  -3.706   7.423  1.00  0.00    -0.354 N 
ATOM     47  C   UNL     1      -5.970  -6.121  10.771  1.00  0.00     0.074 A 
ATOM     48  C   UNL     1      -4.718  -5.419  10.692  1.00  0.00     0.031 C 
ATOM     49  C   UNL     1      -7.921  -2.646   5.466  1.00  0.00     0.029 A 
ATOM     50  C   UNL     1      -8.650  -2.679   6.722  1.00  0.00     0.049 A 
ATOM     51  H   UNL     1      -8.375  -4.064   8.270  1.00  0.00     0.167 HD
ATOM     52  C   UNL     1      -6.743  -6.378  11.857  1.00  0.00     0.037 A 
ATOM     53  C   UNL     1      -9.618  -1.878   7.239  1.00  0.00     0.037 A 
ATOM     54  C   UNL     1      -7.950  -7.072  11.498  1.00  0.00     0.049 A 
ATOM     55  C   UNL     1     -10.178  -2.589   8.425  1.00  0.00     0.074 A 
ATOM     56  C   UNL     1      -8.214  -8.293  10.907  1.00  0.00     0.029 A 
ATOM     57  N   UNL     1      -9.098  -6.331  11.354  1.00  0.00    -0.354 N 
ATOM     58  N   UNL     1     -10.872  -3.692   8.344  1.00  0.00    -0.248 NA
ATOM     59  C   UNL     1      -9.541  -2.344   9.713  1.00  0.00     0.031 C 
ATOM     60  C   UNL     1      -9.313  -8.052  10.030  1.00  0.00     0.029 A 
ATOM     61  C   UNL     1      -9.701  -6.721  10.183  1.00  0.00     0.049 A 
ATOM     62  H   UNL     1      -9.429  -5.645  11.977  1.00  0.00     0.167 HD
ATOM     63  C   UNL     1     -10.425  -4.471   9.403  1.00  0.00     0.074 A 
ATOM     64  C   UNL     1      -9.640  -3.567  10.241  1.00  0.00     0.031 C 
ATOM     65  C   UNL     1     -10.479  -5.834   9.349  1.00  0.00     0.037 A 
BRANCH  52  66
ATOM     66  C   UNL     1      -6.543  -5.678  13.171  1.00  0.00     0.064 A 
ATOM     67  C   UNL     1      -7.139  -6.194  14.331  1.00  0.00     0.173 A 
ATOM     68  C   UNL     1      -5.972  -4.389  13.298  1.00  0.00     0.173 A 
ATOM     69  F   UNL     1      -7.759  -7.383  14.306  1.00  0.00    -0.203 F 
ATOM     70  C   UNL     1      -7.170  -5.466  15.524  1.00  0.00     0.198 A 
ATOM     71  C   UNL     1      -5.939  -3.699  14.504  1.00  0.00     0.198 A 
ATOM     72  F   UNL     1      -5.522  -3.699  12.242  1.00  0.00    -0.203 F 
ATOM     73  F   UNL     1      -7.838  -5.951  16.579  1.00  0.00    -0.200 F 
ATOM     74  C   UNL     1      -6.560  -4.226  15.613  1.00  0.00     0.200 A 
ATOM     75  F   UNL     1      -5.363  -2.489  14.556  1.00  0.00    -0.200 F 
ATOM     76  F   UNL     1      -6.615  -3.517  16.747  1.00  0.00    -0.200 F 
ENDBRANCH  52  66
BRANCH  53  77
ATOM     77  C   UNL     1      -9.802  -0.416   7.048  1.00  0.00     0.064 A 
ATOM     78  C   UNL     1     -10.975   0.225   7.487  1.00  0.00     0.173 A 
ATOM     79  C   UNL     1      -8.722   0.424   6.715  1.00  0.00     0.173 A 
ATOM     80  F   UNL     1     -12.037  -0.500   7.867  1.00  0.00    -0.203 F 
ATOM     81  C   UNL     1     -11.048   1.617   7.618  1.00  0.00     0.198 A 
ATOM     82  C   UNL     1      -8.799   1.813   6.841  1.00  0.00     0.198 A 
ATOM     83  F   UNL     1      -7.536  -0.086   6.357  1.00  0.00    -0.203 F 
ATOM     84  F   UNL     1     -12.160   2.186   8.106  1.00  0.00    -0.200 F 
ATOM     85  C   UNL     1      -9.955   2.408   7.308  1.00  0.00     0.200 A 
ATOM     86  F   UNL     1      -7.721   2.564   6.574  1.00  0.00    -0.200 F 
ATOM     87  F   UNL     1     -10.000   3.734   7.500  1.00  0.00    -0.200 F 
ENDBRANCH  53  77
BRANCH  65  88
ATOM     88  C   UNL     1     -11.222  -6.458   8.197  1.00  0.00     0.064 A 
ATOM     89  C   UNL     1     -10.840  -6.319   6.849  1.00  0.00     0.173 A 
ATOM     90  C   UNL     1     -12.267  -7.347   8.476  1.00  0.00     0.173 A 
ATOM     91  F   UNL     1      -9.785  -5.568   6.509  1.00  0.00    -0.203 F 
ATOM     92  C   UNL     1     -11.501  -7.005   5.831  1.00  0.00     0.198 A 
ATOM     93  C   UNL     1     -12.901  -8.061   7.462  1.00  0.00     0.198 A 
ATOM     94  F   UNL     1     -12.640  -7.565   9.747  1.00  0.00    -0.203 F 
ATOM     95  F   UNL     1     -11.121  -6.847   4.554  1.00  0.00    -0.200 F 
ATOM     96  C   UNL     1     -12.526  -7.883   6.140  1.00  0.00     0.200 A 
ATOM     97  F   UNL     1     -13.857  -8.947   7.771  1.00  0.00    -0.200 F 
ATOM     98  F   UNL     1     -13.133  -8.579   5.169  1.00  0.00    -0.200 F 
ENDBRANCH  65  88
ENDBRANCH  39  40
ENDBRANCH  32  34
ENDBRANCH  31  32
ENDBRANCH  30  31
ENDBRANCH  29  30
ENDBRANCH  28  29
ENDBRANCH   1  28
TORSDOF 19
