REMARK SMILES O=C(OCCOCCOC(=O)c1nnn(-c2ccc(C(F)(F)F)cc2)c1-c1cccc(Cl)c1)c1ccc(-c2c3nc(c(-c4c(F)c(F)c(F)c(F)c4F)c4ccc([nH]4)c(-c4c(F)c(F)c(F)c(F)c4F)c4nc(c(-c5c(F)c(F)c(F)c(F)c5F)c5ccc2[nH]5)C=C4)C=C3)cc1
REMARK SMILES IDX 6 1 5 2 4 3 3 4 2 5 1 6 34 7 35 8 96 9 36 10 95 11 37 12
REMARK SMILES IDX 38 13 39 14 89 15 40 16 94 17 88 18 90 19 41 20 93 21 87 22
REMARK SMILES IDX 86 23 42 25 74 26 54 27 73 28 55 29 58 30 72 31 91 32 56 33
REMARK SMILES IDX 57 34 71 36 92 37 59 38 43 39 44 40 52 41 45 42 46 43 50 44
REMARK SMILES IDX 53 45 47 46 48 47 51 48 49 49 75 50 76 51 84 52 77 53 78 54
REMARK SMILES IDX 82 55 85 56 79 57 80 58 83 59 81 60 60 61 61 62 69 63 62 64
REMARK SMILES IDX 63 65 67 66 70 67 64 68 65 69 68 70 66 71 7 72 8 73 9 74
REMARK SMILES IDX 10 75 11 76 12 77 13 78 26 79 14 80 15 81 27 82 28 83 33 84
REMARK SMILES IDX 29 85 31 86 30 87 32 88 16 89 17 90 25 91 18 92 24 93 19 94
REMARK SMILES IDX 20 95 21 96 22 97 23 98
REMARK H PARENT 90 24 58 35
REMARK Flexibility Score: inf
ROOT
ATOM      1  O   UNL     1       4.187  -0.868  -0.725  1.00  0.00    -0.374 OA
ENDROOT
BRANCH   1   2
ATOM      2  C   UNL     1       4.603  -0.767   0.638  1.00  0.00     0.202 C 
BRANCH   2   3
ATOM      3  C   UNL     1       4.512   0.636   1.224  1.00  0.00     0.261 C 
BRANCH   3   4
ATOM      4  O   UNL     1       3.172   1.107   1.491  1.00  0.00    -0.460 OA
BRANCH   4   5
ATOM      5  C   UNL     1       2.148   0.795   0.660  1.00  0.00     0.338 C 
ATOM      6  O   UNL     1       1.252   0.021   0.966  1.00  0.00    -0.246 OA
BRANCH   5   7
ATOM      7  C   UNL     1       2.009   1.752  -0.462  1.00  0.00     0.060 A 
ATOM      8  C   UNL     1       3.107   2.406  -1.016  1.00  0.00     0.016 A 
ATOM      9  C   UNL     1       0.715   2.073  -0.901  1.00  0.00     0.016 A 
ATOM     10  C   UNL     1       2.917   3.487  -1.849  1.00  0.00     0.010 A 
ATOM     11  C   UNL     1       0.521   3.135  -1.780  1.00  0.00     0.010 A 
ATOM     12  C   UNL     1       1.622   3.881  -2.194  1.00  0.00    -0.014 A 
BRANCH  12  13
ATOM     13  C   UNL     1       1.536   5.079  -3.016  1.00  0.00     0.031 A 
ATOM     14  C   UNL     1       2.288   5.032  -4.298  1.00  0.00     0.074 A 
ATOM     15  C   UNL     1       0.870   6.191  -2.660  1.00  0.00     0.049 A 
ATOM     16  N   UNL     1       3.305   5.751  -4.650  1.00  0.00    -0.248 NA
ATOM     17  C   UNL     1       1.915   3.994  -5.266  1.00  0.00     0.031 C 
ATOM     18  C   UNL     1      -0.107   6.371  -1.589  1.00  0.00     0.029 A 
ATOM     19  N   UNL     1       0.897   7.408  -3.273  1.00  0.00    -0.354 N 
ATOM     20  C   UNL     1       3.623   5.358  -5.947  1.00  0.00     0.074 A 
ATOM     21  C   UNL     1       2.798   4.213  -6.242  1.00  0.00     0.031 C 
ATOM     22  C   UNL     1      -0.737   7.555  -1.764  1.00  0.00     0.029 A 
ATOM     23  C   UNL     1      -0.110   8.265  -2.868  1.00  0.00     0.049 A 
ATOM     24  H   UNL     1       1.573   7.656  -3.945  1.00  0.00     0.167 HD
ATOM     25  C   UNL     1       4.422   6.112  -6.750  1.00  0.00     0.037 A 
ATOM     26  C   UNL     1      -0.444   9.439  -3.451  1.00  0.00     0.037 A 
ATOM     27  C   UNL     1       5.240   7.022  -5.995  1.00  0.00     0.049 A 
ATOM     28  C   UNL     1       0.721   9.917  -4.237  1.00  0.00     0.074 A 
ATOM     29  C   UNL     1       6.207   6.876  -5.018  1.00  0.00     0.029 A 
ATOM     30  N   UNL     1       4.913   8.355  -5.984  1.00  0.00    -0.354 N 
ATOM     31  N   UNL     1       1.817  10.388  -3.712  1.00  0.00    -0.248 NA
ATOM     32  C   UNL     1       0.821   9.513  -5.632  1.00  0.00     0.031 C 
ATOM     33  C   UNL     1       6.038   7.999  -4.156  1.00  0.00     0.029 A 
ATOM     34  C   UNL     1       5.001   8.769  -4.680  1.00  0.00     0.049 A 
ATOM     35  H   UNL     1       4.663   8.906  -6.761  1.00  0.00     0.167 HD
ATOM     36  C   UNL     1       2.826   9.943  -4.552  1.00  0.00     0.074 A 
ATOM     37  C   UNL     1       2.149   9.515  -5.770  1.00  0.00     0.031 C 
ATOM     38  C   UNL     1       4.084   9.704  -4.078  1.00  0.00     0.037 A 
BRANCH  25  39
ATOM     39  C   UNL     1       4.231   6.243  -8.238  1.00  0.00     0.064 A 
ATOM     40  C   UNL     1       5.208   6.902  -9.010  1.00  0.00     0.173 A 
ATOM     41  C   UNL     1       2.992   6.023  -8.878  1.00  0.00     0.173 A 
ATOM     42  F   UNL     1       6.414   7.183  -8.493  1.00  0.00    -0.203 F 
ATOM     43  C   UNL     1       4.935   7.374 -10.297  1.00  0.00     0.198 A 
ATOM     44  C   UNL     1       2.741   6.448 -10.181  1.00  0.00     0.198 A 
ATOM     45  F   UNL     1       1.944   5.495  -8.232  1.00  0.00    -0.203 F 
ATOM     46  F   UNL     1       5.851   8.107 -10.945  1.00  0.00    -0.200 F 
ATOM     47  C   UNL     1       3.700   7.152 -10.878  1.00  0.00     0.200 A 
ATOM     48  F   UNL     1       1.532   6.240 -10.720  1.00  0.00    -0.200 F 
ATOM     49  F   UNL     1       3.414   7.659 -12.085  1.00  0.00    -0.200 F 
ENDBRANCH  25  39
BRANCH  26  50
ATOM     50  C   UNL     1      -1.790  10.036  -3.585  1.00  0.00     0.064 A 
ATOM     51  C   UNL     1      -1.953  11.389  -3.918  1.00  0.00     0.173 A 
ATOM     52  C   UNL     1      -2.942   9.227  -3.655  1.00  0.00     0.173 A 
ATOM     53  F   UNL     1      -0.897  12.215  -3.922  1.00  0.00    -0.203 F 
ATOM     54  C   UNL     1      -3.190  11.898  -4.321  1.00  0.00     0.198 A 
ATOM     55  C   UNL     1      -4.178   9.739  -4.044  1.00  0.00     0.198 A 
ATOM     56  F   UNL     1      -2.872   7.905  -3.440  1.00  0.00    -0.203 F 
ATOM     57  F   UNL     1      -3.294  13.180  -4.696  1.00  0.00    -0.200 F 
ATOM     58  C   UNL     1      -4.300  11.071  -4.392  1.00  0.00     0.200 A 
ATOM     59  F   UNL     1      -5.235   8.920  -4.142  1.00  0.00    -0.200 F 
ATOM     60  F   UNL     1      -5.472  11.545  -4.835  1.00  0.00    -0.200 F 
ENDBRANCH  26  50
BRANCH  38  61
ATOM     61  C   UNL     1       4.433  10.226  -2.715  1.00  0.00     0.064 A 
ATOM     62  C   UNL     1       3.768   9.848  -1.536  1.00  0.00     0.173 A 
ATOM     63  C   UNL     1       5.562  11.048  -2.586  1.00  0.00     0.173 A 
ATOM     64  F   UNL     1       2.753   8.975  -1.565  1.00  0.00    -0.203 F 
ATOM     65  C   UNL     1       4.179  10.327  -0.293  1.00  0.00     0.198 A 
ATOM     66  C   UNL     1       5.995  11.490  -1.340  1.00  0.00     0.198 A 
ATOM     67  F   UNL     1       6.274  11.390  -3.672  1.00  0.00    -0.203 F 
ATOM     68  F   UNL     1       3.514   9.974   0.816  1.00  0.00    -0.200 F 
ATOM     69  C   UNL     1       5.295  11.143  -0.196  1.00  0.00     0.200 A 
ATOM     70  F   UNL     1       7.104  12.236  -1.245  1.00  0.00    -0.200 F 
ATOM     71  F   UNL     1       5.711  11.574   1.003  1.00  0.00    -0.200 F 
ENDBRANCH  38  61
ENDBRANCH  12  13
ENDBRANCH   5   7
ENDBRANCH   4   5
ENDBRANCH   3   4
ENDBRANCH   2   3
ENDBRANCH   1   2
BRANCH   1  72
ATOM     72  C   UNL     1       3.149  -1.826  -0.980  1.00  0.00     0.202 C 
BRANCH  72  73
ATOM     73  C   UNL     1       3.490  -3.312  -0.802  1.00  0.00     0.261 C 
BRANCH  73  74
ATOM     74  O   UNL     1       3.673  -3.659   0.581  1.00  0.00    -0.458 OA
BRANCH  74  75
ATOM     75  C   UNL     1       4.966  -3.732   1.022  1.00  0.00     0.361 C 
ATOM     76  O   UNL     1       5.948  -3.658   0.308  1.00  0.00    -0.244 OA
BRANCH  75  77
ATOM     77  C   UNL     1       5.033  -3.802   2.473  1.00  0.00     0.198 A 
ATOM     78  N   UNL     1       5.823  -2.960   3.221  1.00  0.00    -0.122 NA
ATOM     79  C   UNL     1       4.296  -4.609   3.322  1.00  0.00     0.109 A 
ATOM     80  N   UNL     1       5.609  -3.224   4.505  1.00  0.00    -0.061 NA
ATOM     81  N   UNL     1       4.855  -4.343   4.566  1.00  0.00    -0.212 N 
BRANCH  79  82
ATOM     82  C   UNL     1       3.204  -5.543   3.063  1.00  0.00     0.004 A 
ATOM     83  C   UNL     1       2.012  -5.463   3.801  1.00  0.00     0.010 A 
ATOM     84  C   UNL     1       3.325  -6.514   2.064  1.00  0.00     0.031 A 
ATOM     85  C   UNL     1       0.963  -6.349   3.550  1.00  0.00     0.002 A 
ATOM     86  C   UNL     1       2.270  -7.389   1.813  1.00  0.00     0.041 A 
ATOM     87  C   UNL     1       1.092  -7.314   2.553  1.00  0.00     0.020 A 
ATOM     88  Cl  UNL     1       2.430  -8.572   0.575  1.00  0.00    -0.084 Cl
ENDBRANCH  79  82
BRANCH  81  89
ATOM     89  C   UNL     1       4.807  -5.150   5.724  1.00  0.00     0.067 A 
ATOM     90  C   UNL     1       4.723  -4.576   6.994  1.00  0.00     0.029 A 
ATOM     91  C   UNL     1       4.841  -6.543   5.574  1.00  0.00     0.029 A 
ATOM     92  C   UNL     1       4.569  -5.413   8.106  1.00  0.00     0.015 A 
ATOM     93  C   UNL     1       4.724  -7.368   6.686  1.00  0.00     0.015 A 
ATOM     94  C   UNL     1       4.555  -6.814   7.961  1.00  0.00     0.056 A 
BRANCH  94  95
ATOM     95  C   UNL     1       4.333  -7.712   9.153  1.00  0.00     0.416 C 
ATOM     96  F   UNL     1       5.231  -7.495  10.152  1.00  0.00    -0.166 F 
ATOM     97  F   UNL     1       3.101  -7.538   9.706  1.00  0.00    -0.166 F 
ATOM     98  F   UNL     1       4.420  -9.039   8.854  1.00  0.00    -0.166 F 
ENDBRANCH  94  95
ENDBRANCH  81  89
ENDBRANCH  75  77
ENDBRANCH  74  75
ENDBRANCH  73  74
ENDBRANCH  72  73
ENDBRANCH   1  72
TORSDOF 17
