REMARK SMILES Cc1ccc(C)c(S(=O)(=O)N[C@H](CC2=c3ccccc3=NC2)C(=O)OCCOCCOC(=O)c2ccc(-c3c4nc(c(-c5c(F)c(F)c(F)c(F)c5F)c5ccc([nH]5)c(-c5c(F)c(F)c(F)c(F)c5F)c5nc(c(-c6c(F)c(F)c(F)c(F)c6F)c6ccc3[nH]6)C=C5)C=C4)cc2)c1
REMARK SMILES IDX 27 1 26 2 25 3 23 4 24 5 12 6 11 7 8 9 9 10 10 11 7 12 1 13
REMARK SMILES IDX 2 14 3 15 97 16 4 17 5 18 6 19 13 20 14 21 15 22 22 23 16 24
REMARK SMILES IDX 20 25 21 26 17 27 19 28 18 29 28 30 29 31 30 32 31 33 32 34
REMARK SMILES IDX 33 35 34 36 35 37 96 38 36 39 95 40 37 41 38 42 39 43 89 44
REMARK SMILES IDX 40 45 94 46 88 47 90 48 41 49 93 50 87 51 86 52 42 54 74 55
REMARK SMILES IDX 54 56 73 57 55 58 58 59 72 60 91 61 56 62 57 63 71 65 92 66
REMARK SMILES IDX 59 67 43 68 44 69 52 70 45 71 46 72 50 73 53 74 47 75 48 76
REMARK SMILES IDX 51 77 49 78 75 79 76 80 84 81 77 82 78 83 82 84 85 85 79 86
REMARK SMILES IDX 80 87 83 88 81 89 60 90 61 91 69 92 62 93 63 94 67 95 70 96
REMARK SMILES IDX 64 97 65 98 68 99 66 100
REMARK H PARENT 11 8 90 53 58 64
REMARK Flexibility Score: inf
ROOT
ATOM      1  C   UNL     1       0.927   7.297   0.149  1.00  0.00     0.202 C 
ENDROOT
BRANCH   1   2
ATOM      2  C   UNL     1       0.058   7.094  -1.106  1.00  0.00     0.261 C 
BRANCH   2   3
ATOM      3  O   UNL     1      -0.852   5.986  -0.910  1.00  0.00    -0.462 OA
BRANCH   3   4
ATOM      4  C   UNL     1      -0.268   4.763  -0.879  1.00  0.00     0.324 C 
ATOM      5  O   UNL     1       0.821   4.510  -1.373  1.00  0.00    -0.250 OA
BRANCH   4   6
ATOM      6  C   UNL     1      -1.132   3.706  -0.206  1.00  0.00     0.183 C 
BRANCH   6   7
ATOM      7  N   UNL     1      -2.052   3.083  -1.201  1.00  0.00    -0.197 NA
ATOM      8  H   UNL     1      -2.819   2.655  -0.683  1.00  0.00     0.142 HD
BRANCH   7   9
ATOM      9  S   UNL     1      -1.411   1.906  -2.216  1.00  0.00     0.241 S 
ATOM     10  O   UNL     1       0.033   2.067  -2.207  1.00  0.00    -0.207 OA
ATOM     11  O   UNL     1      -2.215   1.926  -3.396  1.00  0.00    -0.207 OA
BRANCH   9  12
ATOM     12  C   UNL     1      -1.630   0.345  -1.419  1.00  0.00     0.085 A 
ATOM     13  C   UNL     1      -2.362  -0.788   2.108  1.00  0.00     0.044 C 
ATOM     14  C   UNL     1      -1.971  -0.817   0.663  1.00  0.00    -0.050 A 
ATOM     15  C   UNL     1      -1.388  -1.960   0.105  1.00  0.00     0.004 A 
ATOM     16  C   UNL     1      -2.148   0.318  -0.126  1.00  0.00     0.025 A 
ATOM     17  C   UNL     1      -0.923  -1.951  -1.209  1.00  0.00     0.005 A 
ATOM     18  C   UNL     1      -1.016  -0.791  -1.984  1.00  0.00    -0.031 A 
ATOM     19  C   UNL     1      -0.305  -0.768  -3.307  1.00  0.00     0.046 C 
ENDBRANCH   9  12
ENDBRANCH   7   9
ENDBRANCH   6   7
BRANCH   6  20
ATOM     20  C   UNL     1      -1.979   4.086   1.036  1.00  0.00     0.065 C 
BRANCH  20  21
ATOM     21  C   UNL     1      -1.678   5.297   1.863  1.00  0.00    -0.037 C 
ATOM     22  C   UNL     1      -0.941   5.395   2.969  1.00  0.00     0.001 A 
ATOM     23  C   UNL     1      -2.370   6.607   1.591  1.00  0.00     0.174 C 
ATOM     24  C   UNL     1      -0.158   4.499   3.761  1.00  0.00     0.010 A 
ATOM     25  C   UNL     1      -1.025   6.832   3.292  1.00  0.00     0.065 A 
ATOM     26  N   UNL     1      -1.807   7.568   2.567  1.00  0.00    -0.280 NA
ATOM     27  C   UNL     1       0.568   5.002   4.775  1.00  0.00     0.001 A 
ATOM     28  C   UNL     1      -0.162   7.315   4.389  1.00  0.00     0.028 A 
ATOM     29  C   UNL     1       0.585   6.427   5.066  1.00  0.00     0.002 A 
ENDBRANCH  20  21
ENDBRANCH   6  20
ENDBRANCH   4   6
ENDBRANCH   3   4
ENDBRANCH   2   3
ENDBRANCH   1   2
BRANCH   1  30
ATOM     30  O   UNL     1       1.868   6.240   0.210  1.00  0.00    -0.374 OA
BRANCH  30  31
ATOM     31  C   UNL     1       2.314   5.758   1.461  1.00  0.00     0.202 C 
BRANCH  31  32
ATOM     32  C   UNL     1       3.129   6.754   2.286  1.00  0.00     0.261 C 
BRANCH  32  33
ATOM     33  O   UNL     1       4.392   7.096   1.676  1.00  0.00    -0.460 OA
BRANCH  33  34
ATOM     34  C   UNL     1       4.295   7.933   0.605  1.00  0.00     0.338 C 
ATOM     35  O   UNL     1       4.060   9.126   0.683  1.00  0.00    -0.246 OA
BRANCH  34  36
ATOM     36  C   UNL     1       4.317   7.138  -0.656  1.00  0.00     0.060 A 
ATOM     37  C   UNL     1       3.672   7.645  -1.796  1.00  0.00     0.016 A 
ATOM     38  C   UNL     1       4.660   5.785  -0.583  1.00  0.00     0.016 A 
ATOM     39  C   UNL     1       3.271   6.766  -2.810  1.00  0.00     0.010 A 
ATOM     40  C   UNL     1       4.139   4.906  -1.516  1.00  0.00     0.010 A 
ATOM     41  C   UNL     1       3.458   5.384  -2.647  1.00  0.00    -0.014 A 
BRANCH  41  42
ATOM     42  C   UNL     1       3.546   4.455  -3.779  1.00  0.00     0.031 A 
ATOM     43  C   UNL     1       4.821   4.704  -4.447  1.00  0.00     0.074 A 
ATOM     44  C   UNL     1       2.714   3.568  -4.360  1.00  0.00     0.049 A 
ATOM     45  N   UNL     1       4.893   5.523  -5.444  1.00  0.00    -0.248 NA
ATOM     46  C   UNL     1       6.108   4.317  -3.869  1.00  0.00     0.031 C 
ATOM     47  C   UNL     1       1.272   3.521  -4.234  1.00  0.00     0.029 A 
ATOM     48  N   UNL     1       2.996   2.505  -5.211  1.00  0.00    -0.354 N 
ATOM     49  C   UNL     1       6.202   5.461  -5.831  1.00  0.00     0.074 A 
ATOM     50  C   UNL     1       6.938   4.963  -4.694  1.00  0.00     0.031 C 
ATOM     51  C   UNL     1       0.800   2.446  -4.899  1.00  0.00     0.029 A 
ATOM     52  C   UNL     1       1.913   1.647  -5.402  1.00  0.00     0.049 A 
ATOM     53  H   UNL     1       3.874   2.371  -5.637  1.00  0.00     0.167 HD
ATOM     54  C   UNL     1       6.446   5.369  -7.160  1.00  0.00     0.037 A 
ATOM     55  C   UNL     1       1.682   0.727  -6.371  1.00  0.00     0.037 A 
ATOM     56  C   UNL     1       5.313   5.783  -7.963  1.00  0.00     0.049 A 
ATOM     57  C   UNL     1       1.990   1.364  -7.663  1.00  0.00     0.074 A 
ATOM     58  C   UNL     1       4.706   6.978  -8.300  1.00  0.00     0.029 A 
ATOM     59  N   UNL     1       4.384   4.804  -8.199  1.00  0.00    -0.354 N 
ATOM     60  N   UNL     1       1.263   2.302  -8.200  1.00  0.00    -0.248 NA
ATOM     61  C   UNL     1       3.310   1.159  -8.258  1.00  0.00     0.031 C 
ATOM     62  C   UNL     1       3.393   6.675  -8.777  1.00  0.00     0.029 A 
ATOM     63  C   UNL     1       3.216   5.302  -8.725  1.00  0.00     0.049 A 
ATOM     64  H   UNL     1       4.536   3.849  -8.013  1.00  0.00     0.167 HD
ATOM     65  C   UNL     1       2.195   3.080  -8.852  1.00  0.00     0.074 A 
ATOM     66  C   UNL     1       3.380   2.255  -9.013  1.00  0.00     0.031 C 
ATOM     67  C   UNL     1       2.077   4.434  -8.851  1.00  0.00     0.037 A 
BRANCH  54  68
ATOM     68  C   UNL     1       7.502   4.445  -7.683  1.00  0.00     0.064 A 
ATOM     69  C   UNL     1       7.988   4.629  -8.982  1.00  0.00     0.173 A 
ATOM     70  C   UNL     1       7.890   3.247  -7.038  1.00  0.00     0.173 A 
ATOM     71  F   UNL     1       7.604   5.691  -9.706  1.00  0.00    -0.203 F 
ATOM     72  C   UNL     1       8.827   3.690  -9.582  1.00  0.00     0.198 A 
ATOM     73  C   UNL     1       8.788   2.354  -7.605  1.00  0.00     0.198 A 
ATOM     74  F   UNL     1       7.329   2.837  -5.893  1.00  0.00    -0.203 F 
ATOM     75  F   UNL     1       9.199   3.852 -10.857  1.00  0.00    -0.200 F 
ATOM     76  C   UNL     1       9.244   2.566  -8.886  1.00  0.00     0.200 A 
ATOM     77  F   UNL     1       9.144   1.255  -6.924  1.00  0.00    -0.200 F 
ATOM     78  F   UNL     1      10.038   1.659  -9.467  1.00  0.00    -0.200 F 
ENDBRANCH  54  68
BRANCH  55  79
ATOM     79  C   UNL     1       1.745  -0.742  -6.186  1.00  0.00     0.064 A 
ATOM     80  C   UNL     1       1.076  -1.587  -7.088  1.00  0.00     0.173 A 
ATOM     81  C   UNL     1       2.445  -1.366  -5.141  1.00  0.00     0.173 A 
ATOM     82  F   UNL     1       0.404  -1.065  -8.124  1.00  0.00    -0.203 F 
ATOM     83  C   UNL     1       1.083  -2.977  -6.938  1.00  0.00     0.198 A 
ATOM     84  C   UNL     1       2.438  -2.756  -4.981  1.00  0.00     0.198 A 
ATOM     85  F   UNL     1       3.140  -0.636  -4.256  1.00  0.00    -0.203 F 
ATOM     86  F   UNL     1       0.436  -3.749  -7.822  1.00  0.00    -0.200 F 
ATOM     87  C   UNL     1       1.755  -3.560  -5.878  1.00  0.00     0.200 A 
ATOM     88  F   UNL     1       3.088  -3.313  -3.950  1.00  0.00    -0.200 F 
ATOM     89  F   UNL     1       1.749  -4.891  -5.723  1.00  0.00    -0.200 F 
ENDBRANCH  55  79
BRANCH  67  90
ATOM     90  C   UNL     1       0.685   4.955  -8.828  1.00  0.00     0.064 A 
ATOM     91  C   UNL     1      -0.029   5.235  -7.656  1.00  0.00     0.173 A 
ATOM     92  C   UNL     1       0.037   5.150 -10.053  1.00  0.00     0.173 A 
ATOM     93  F   UNL     1       0.558   5.133  -6.459  1.00  0.00    -0.203 F 
ATOM     94  C   UNL     1      -1.358   5.656  -7.711  1.00  0.00     0.198 A 
ATOM     95  C   UNL     1      -1.278   5.601 -10.108  1.00  0.00     0.198 A 
ATOM     96  F   UNL     1       0.692   4.919 -11.202  1.00  0.00    -0.203 F 
ATOM     97  F   UNL     1      -2.036   5.901  -6.580  1.00  0.00    -0.200 F 
ATOM     98  C   UNL     1      -1.979   5.842  -8.938  1.00  0.00     0.200 A 
ATOM     99  F   UNL     1      -1.861   5.812 -11.296  1.00  0.00    -0.200 F 
ATOM    100  F   UNL     1      -3.248   6.273  -8.993  1.00  0.00    -0.200 F 
ENDBRANCH  67  90
ENDBRANCH  41  42
ENDBRANCH  34  36
ENDBRANCH  33  34
ENDBRANCH  32  33
ENDBRANCH  31  32
ENDBRANCH  30  31
ENDBRANCH   1  30
TORSDOF 19
