REMARK SMILES O=C(OCCOCCOC(=O)c1ccc(-c2c3nc(c(-c4c(F)c(F)c(F)c(F)c4F)c4ccc([nH]4)c(-c4c(F)c(F)c(F)c(F)c4F)c4nc(c(-c5c(F)c(F)c(F)c(F)c5F)c5ccc2[nH]5)C=C4)C=C3)cc1)C1=Cc2cc(Cl)cc(-c3ccc(Cl)cc3)c2O[C@@H]1C(F)(F)F
REMARK SMILES IDX 7 1 6 2 5 3 4 4 3 5 2 6 1 7 75 8 76 9 92 10 77 11 91 12
REMARK SMILES IDX 78 13 90 14 79 15 82 16 80 17 81 18 93 19 94 20 95 21 96 22
REMARK SMILES IDX 83 23 84 24 89 25 85 26 88 27 86 28 87 29 8 30 9 31 10 32
REMARK SMILES IDX 11 33 12 34 13 35 74 36 14 37 73 38 15 39 16 40 17 41 67 42
REMARK SMILES IDX 18 43 72 44 66 45 68 46 19 47 71 48 65 49 64 50 20 52 52 53
REMARK SMILES IDX 32 54 51 55 33 56 36 57 50 58 69 59 34 60 35 61 49 63 70 64
REMARK SMILES IDX 37 65 21 66 22 67 30 68 23 69 24 70 28 71 31 72 25 73 26 74
REMARK SMILES IDX 29 75 27 76 53 77 54 78 62 79 55 80 56 81 60 82 63 83 57 84
REMARK SMILES IDX 58 85 61 86 59 87 38 88 39 89 47 90 40 91 41 92 45 93 48 94
REMARK SMILES IDX 42 95 43 96 46 97 44 98
REMARK H PARENT 68 51 36 62
REMARK Flexibility Score: inf
ROOT
ATOM      1  C   UNL     1       2.616  -0.305   3.177  1.00  0.00     0.202 C 
ENDROOT
BRANCH   1   2
ATOM      2  O   UNL     1       3.702  -0.866   2.406  1.00  0.00    -0.374 OA
BRANCH   2   3
ATOM      3  C   UNL     1       4.260  -0.683   0.902  1.00  0.00     0.202 C 
BRANCH   3   4
ATOM      4  C   UNL     1       3.344   0.170  -0.878  1.00  0.00     0.261 C 
BRANCH   4   5
ATOM      5  O   UNL     1       2.434  -0.606  -1.903  1.00  0.00    -0.460 OA
BRANCH   5   6
ATOM      6  C   UNL     1       2.638  -1.929  -1.909  1.00  0.00     0.338 C 
ATOM      7  O   UNL     1       2.114  -2.813  -2.534  1.00  0.00    -0.246 OA
BRANCH   6   8
ATOM      8  C   UNL     1       3.494  -1.915  -0.756  1.00  0.00     0.087 C 
ATOM      9  C   UNL     1       4.843  -1.485  -1.160  1.00  0.00     0.027 C 
ATOM     10  C   UNL     1       2.333  -0.938   0.449  1.00  0.00     0.316 C 
ATOM     11  C   UNL     1       5.551   0.114  -0.699  1.00  0.00     0.019 A 
ATOM     12  O   UNL     1       3.088   0.791   0.938  1.00  0.00    -0.475 OA
ATOM     13  C   UNL     1       6.709   0.430  -1.361  1.00  0.00     0.032 A 
ATOM     14  C   UNL     1       4.697   1.323   0.249  1.00  0.00     0.135 A 
ATOM     15  C   UNL     1       7.085   1.762  -1.262  1.00  0.00     0.042 A 
ATOM     16  C   UNL     1       5.226   2.630   0.367  1.00  0.00     0.026 A 
ATOM     17  Cl  UNL     1       8.501   2.259  -2.127  1.00  0.00    -0.084 Cl
ATOM     18  C   UNL     1       6.381   2.766  -0.496  1.00  0.00     0.033 A 
BRANCH  10  19
ATOM     19  C   UNL     1       1.818  -2.207   1.272  1.00  0.00     0.430 C 
ATOM     20  F   UNL     1       0.816  -1.945   2.132  1.00  0.00    -0.167 F 
ATOM     21  F   UNL     1       1.265  -3.079   0.371  1.00  0.00    -0.167 F 
ATOM     22  F   UNL     1       2.771  -2.940   1.887  1.00  0.00    -0.167 F 
ENDBRANCH  10  19
BRANCH  16  23
ATOM     23  C   UNL     1       4.917   3.975   1.201  1.00  0.00    -0.015 A 
ATOM     24  C   UNL     1       4.152   5.140   0.037  1.00  0.00     0.010 A 
ATOM     25  C   UNL     1       5.232   4.688   3.076  1.00  0.00     0.010 A 
ATOM     26  C   UNL     1       3.730   6.772   0.591  1.00  0.00     0.021 A 
ATOM     27  C   UNL     1       4.708   6.353   3.506  1.00  0.00     0.021 A 
ATOM     28  C   UNL     1       3.995   7.338   2.252  1.00  0.00     0.041 A 
ATOM     29  Cl  UNL     1       3.498   8.933   2.675  1.00  0.00    -0.084 Cl
ENDBRANCH  16  23
ENDBRANCH   6   8
ENDBRANCH   5   6
ENDBRANCH   4   5
ENDBRANCH   3   4
ENDBRANCH   2   3
ENDBRANCH   1   2
BRANCH   1  30
ATOM     30  C   UNL     1       2.947   0.269   4.554  1.00  0.00     0.261 C 
BRANCH  30  31
ATOM     31  O   UNL     1       3.639   1.488   4.431  1.00  0.00    -0.460 OA
BRANCH  31  32
ATOM     32  C   UNL     1       4.850   1.361   3.865  1.00  0.00     0.338 C 
ATOM     33  O   UNL     1       5.681   0.490   4.010  1.00  0.00    -0.246 OA
BRANCH  32  34
ATOM     34  C   UNL     1       4.955   2.533   3.010  1.00  0.00     0.060 A 
ATOM     35  C   UNL     1       6.592   3.033   2.538  1.00  0.00     0.016 A 
ATOM     36  C   UNL     1       3.506   3.521   2.776  1.00  0.00     0.016 A 
ATOM     37  C   UNL     1       6.937   4.603   1.821  1.00  0.00     0.010 A 
ATOM     38  C   UNL     1       3.725   5.157   2.078  1.00  0.00     0.010 A 
ATOM     39  C   UNL     1       5.588   5.774   1.558  1.00  0.00    -0.014 A 
BRANCH  39  40
ATOM     40  C   UNL     1       6.372   7.154   1.129  1.00  0.00     0.031 A 
ATOM     41  C   UNL     1       6.995   8.062   2.199  1.00  0.00     0.074 A 
ATOM     42  C   UNL     1       6.548   7.587  -0.142  1.00  0.00     0.049 A 
ATOM     43  N   UNL     1       7.208   9.361   2.184  1.00  0.00    -0.248 NA
ATOM     44  C   UNL     1       7.392   7.427   3.459  1.00  0.00     0.031 C 
ATOM     45  C   UNL     1       6.293   6.835  -1.361  1.00  0.00     0.029 A 
ATOM     46  N   UNL     1       6.893   8.845  -0.606  1.00  0.00    -0.354 N 
ATOM     47  C   UNL     1       7.617   9.703   3.474  1.00  0.00     0.074 A 
ATOM     48  C   UNL     1       7.603   8.476   4.241  1.00  0.00     0.031 C 
ATOM     49  C   UNL     1       6.314   7.668  -2.413  1.00  0.00     0.029 A 
ATOM     50  C   UNL     1       6.626   9.017  -1.947  1.00  0.00     0.049 A 
ATOM     51  H   UNL     1       7.289   9.545  -0.037  1.00  0.00     0.167 HD
ATOM     52  C   UNL     1       7.991  10.909   3.979  1.00  0.00     0.037 A 
ATOM     53  C   UNL     1       6.596  10.122  -2.721  1.00  0.00     0.037 A 
ATOM     54  C   UNL     1       8.188  12.101   3.189  1.00  0.00     0.049 A 
ATOM     55  C   UNL     1       6.999  11.463  -2.166  1.00  0.00     0.074 A 
ATOM     56  C   UNL     1       8.693  13.329   3.591  1.00  0.00     0.029 A 
ATOM     57  N   UNL     1       7.933  12.205   1.833  1.00  0.00    -0.354 N 
ATOM     58  N   UNL     1       7.326  11.789  -0.942  1.00  0.00    -0.248 NA
ATOM     59  C   UNL     1       7.076  12.582  -3.120  1.00  0.00     0.031 C 
ATOM     60  C   UNL     1       8.707  14.186   2.486  1.00  0.00     0.029 A 
ATOM     61  C   UNL     1       8.270  13.474   1.383  1.00  0.00     0.049 A 
ATOM     62  H   UNL     1       7.566  11.486   1.270  1.00  0.00     0.167 HD
ATOM     63  C   UNL     1       7.711  13.124  -0.992  1.00  0.00     0.074 A 
ATOM     64  C   UNL     1       7.567  13.553  -2.364  1.00  0.00     0.031 C 
ATOM     65  C   UNL     1       8.164  13.910   0.015  1.00  0.00     0.037 A 
BRANCH  52  66
ATOM     66  C   UNL     1       8.232  11.022   5.467  1.00  0.00     0.064 A 
ATOM     67  C   UNL     1       9.270  10.341   6.120  1.00  0.00     0.173 A 
ATOM     68  C   UNL     1       7.431  11.875   6.249  1.00  0.00     0.173 A 
ATOM     69  F   UNL     1      10.084   9.527   5.431  1.00  0.00    -0.203 F 
ATOM     70  C   UNL     1       9.453  10.451   7.498  1.00  0.00     0.198 A 
ATOM     71  C   UNL     1       7.651  12.026   7.617  1.00  0.00     0.198 A 
ATOM     72  F   UNL     1       6.442  12.585   5.683  1.00  0.00    -0.203 F 
ATOM     73  F   UNL     1      10.399   9.721   8.105  1.00  0.00    -0.200 F 
ATOM     74  C   UNL     1       8.649  11.298   8.244  1.00  0.00     0.200 A 
ATOM     75  F   UNL     1       6.896  12.875   8.328  1.00  0.00    -0.200 F 
ATOM     76  F   UNL     1       8.835  11.410   9.566  1.00  0.00    -0.200 F 
ENDBRANCH  52  66
BRANCH  53  77
ATOM     77  C   UNL     1       6.193  10.007  -4.150  1.00  0.00     0.064 A 
ATOM     78  C   UNL     1       7.145  10.123  -5.172  1.00  0.00     0.173 A 
ATOM     79  C   UNL     1       4.855   9.806  -4.521  1.00  0.00     0.173 A 
ATOM     80  F   UNL     1       8.431  10.343  -4.863  1.00  0.00    -0.203 F 
ATOM     81  C   UNL     1       6.772  10.067  -6.512  1.00  0.00     0.198 A 
ATOM     82  C   UNL     1       4.487   9.725  -5.863  1.00  0.00     0.198 A 
ATOM     83  F   UNL     1       3.906   9.688  -3.581  1.00  0.00    -0.203 F 
ATOM     84  F   UNL     1       7.696  10.232  -7.468  1.00  0.00    -0.200 F 
ATOM     85  C   UNL     1       5.445   9.864  -6.858  1.00  0.00     0.200 A 
ATOM     86  F   UNL     1       3.205   9.518  -6.195  1.00  0.00    -0.200 F 
ATOM     87  F   UNL     1       5.088   9.809  -8.148  1.00  0.00    -0.200 F 
ENDBRANCH  53  77
BRANCH  65  88
ATOM     88  C   UNL     1       8.630  15.300  -0.326  1.00  0.00     0.064 A 
ATOM     89  C   UNL     1       7.743  16.313  -0.717  1.00  0.00     0.173 A 
ATOM     90  C   UNL     1       9.991  15.632  -0.216  1.00  0.00     0.173 A 
ATOM     91  F   UNL     1       6.435  16.050  -0.853  1.00  0.00    -0.203 F 
ATOM     92  C   UNL     1       8.202  17.597  -1.009  1.00  0.00     0.198 A 
ATOM     93  C   UNL     1      10.442  16.924  -0.476  1.00  0.00     0.198 A 
ATOM     94  F   UNL     1      10.886  14.705   0.157  1.00  0.00    -0.203 F 
ATOM     95  F   UNL     1       7.341  18.535  -1.429  1.00  0.00    -0.200 F 
ATOM     96  C   UNL     1       9.548  17.904  -0.879  1.00  0.00     0.200 A 
ATOM     97  F   UNL     1      11.741  17.221  -0.335  1.00  0.00    -0.200 F 
ATOM     98  F   UNL     1       9.985  19.141  -1.150  1.00  0.00    -0.200 F 
ENDBRANCH  65  88
ENDBRANCH  39  40
ENDBRANCH  32  34
ENDBRANCH  31  32
ENDBRANCH  30  31
ENDBRANCH   1  30
TORSDOF 16
