REMARK SMILES O=C(/C=C/N[C@@H](Cc1c[nH]c2ccccc12)C(=O)OCCOCCOC(=O)c1ccc(-c2c3nc(c(-c4c(F)c(F)c(F)c(F)c4F)c4ccc([nH]4)c(-c4c(F)c(F)c(F)c(F)c4F)c4nc(c(-c5c(F)c(F)c(F)c(F)c5F)c5ccc2[nH]5)C=C4)C=C3)cc1)c1ccccc1
REMARK SMILES IDX 21 1 20 2 19 3 17 4 18 5 6 6 5 7 4 9 3 10 2 11 1 12 91 13
REMARK SMILES IDX 92 14 96 15 93 16 95 17 94 18 7 19 8 20 9 21 16 22 10 23
REMARK SMILES IDX 11 24 15 25 12 27 14 28 13 29 22 30 23 31 24 32 25 33 26 34
REMARK SMILES IDX 27 35 28 36 29 37 90 38 30 39 89 40 31 41 32 42 33 43 83 44
REMARK SMILES IDX 34 45 88 46 82 47 84 48 35 49 87 50 81 51 80 52 36 54 68 55
REMARK SMILES IDX 48 56 67 57 49 58 52 59 66 60 85 61 50 62 51 63 65 65 86 66
REMARK SMILES IDX 53 67 37 68 38 69 46 70 39 71 40 72 44 73 47 74 41 75 42 76
REMARK SMILES IDX 45 77 43 78 69 79 70 80 78 81 71 82 72 83 76 84 79 85 73 86
REMARK SMILES IDX 74 87 77 88 75 89 54 90 55 91 63 92 56 93 57 94 61 95 64 96
REMARK SMILES IDX 58 97 59 98 62 99 60 100
REMARK H PARENT 5 8 10 26 84 53 52 64
REMARK Flexibility Score: inf
ROOT
ATOM      1  C   UNL     1       7.459   0.997  -5.638  1.00  0.00     0.202 C 
ENDROOT
BRANCH   1   2
ATOM      2  C   UNL     1       8.449   0.019  -4.998  1.00  0.00     0.261 C 
BRANCH   2   3
ATOM      3  O   UNL     1       7.755  -0.892  -4.125  1.00  0.00    -0.462 OA
BRANCH   3   4
ATOM      4  C   UNL     1       7.951  -0.795  -2.788  1.00  0.00     0.328 C 
ATOM      5  O   UNL     1       8.730  -0.011  -2.257  1.00  0.00    -0.250 OA
BRANCH   4   6
ATOM      6  C   UNL     1       7.065  -1.767  -1.992  1.00  0.00     0.194 C 
BRANCH   6   7
ATOM      7  N   UNL     1       5.625  -1.461  -2.027  1.00  0.00    -0.378 N 
ATOM      8  H   UNL     1       5.127  -1.790  -2.810  1.00  0.00     0.160 HD
BRANCH   7   9
ATOM      9  C   UNL     1       4.900  -0.770  -1.089  1.00  0.00     0.082 C 
ATOM     10  C   UNL     1       3.581  -0.544  -1.147  1.00  0.00     0.070 C 
BRANCH  10  11
ATOM     11  C   UNL     1       2.738   0.107  -0.108  1.00  0.00     0.187 C 
ATOM     12  O   UNL     1       1.518   0.129  -0.243  1.00  0.00    -0.289 OA
BRANCH  11  13
ATOM     13  C   UNL     1       3.349   0.653   1.120  1.00  0.00     0.022 A 
ATOM     14  C   UNL     1       4.389   1.586   1.067  1.00  0.00     0.012 A 
ATOM     15  C   UNL     1       2.850   0.221   2.354  1.00  0.00     0.012 A 
ATOM     16  C   UNL     1       4.974   2.035   2.251  1.00  0.00     0.001 A 
ATOM     17  C   UNL     1       3.435   0.677   3.534  1.00  0.00     0.001 A 
ATOM     18  C   UNL     1       4.503   1.574   3.481  1.00  0.00     0.000 A 
ENDBRANCH  11  13
ENDBRANCH  10  11
ENDBRANCH   7   9
ENDBRANCH   6   7
BRANCH   6  19
ATOM     19  C   UNL     1       7.354  -3.238  -2.290  1.00  0.00     0.074 C 
BRANCH  19  20
ATOM     20  C   UNL     1       6.903  -3.936  -3.554  1.00  0.00    -0.020 A 
ATOM     21  C   UNL     1       7.228  -5.267  -3.775  1.00  0.00     0.087 A 
ATOM     22  C   UNL     1       6.112  -3.536  -4.693  1.00  0.00     0.003 A 
ATOM     23  N   UNL     1       6.703  -5.672  -4.965  1.00  0.00    -0.361 N 
ATOM     24  C   UNL     1       6.010  -4.643  -5.546  1.00  0.00     0.046 A 
ATOM     25  C   UNL     1       5.454  -2.363  -5.114  1.00  0.00     0.010 A 
ATOM     26  H   UNL     1       6.806  -6.572  -5.351  1.00  0.00     0.166 HD
ATOM     27  C   UNL     1       5.297  -4.632  -6.752  1.00  0.00     0.026 A 
ATOM     28  C   UNL     1       4.729  -2.339  -6.302  1.00  0.00     0.001 A 
ATOM     29  C   UNL     1       4.638  -3.460  -7.105  1.00  0.00     0.002 A 
ENDBRANCH  19  20
ENDBRANCH   6  19
ENDBRANCH   4   6
ENDBRANCH   3   4
ENDBRANCH   2   3
ENDBRANCH   1   2
BRANCH   1  30
ATOM     30  O   UNL     1       7.119   2.075  -4.763  1.00  0.00    -0.374 OA
BRANCH  30  31
ATOM     31  C   UNL     1       6.016   1.821  -3.894  1.00  0.00     0.202 C 
BRANCH  31  32
ATOM     32  C   UNL     1       4.715   2.430  -4.418  1.00  0.00     0.261 C 
BRANCH  32  33
ATOM     33  O   UNL     1       4.222   1.676  -5.542  1.00  0.00    -0.460 OA
BRANCH  33  34
ATOM     34  C   UNL     1       4.454   2.212  -6.765  1.00  0.00     0.338 C 
ATOM     35  O   UNL     1       4.978   3.281  -7.024  1.00  0.00    -0.246 OA
BRANCH  34  36
ATOM     36  C   UNL     1       4.085   1.219  -7.796  1.00  0.00     0.060 A 
ATOM     37  C   UNL     1       4.939   1.043  -8.893  1.00  0.00     0.016 A 
ATOM     38  C   UNL     1       2.918   0.458  -7.687  1.00  0.00     0.016 A 
ATOM     39  C   UNL     1       4.629   0.108  -9.887  1.00  0.00     0.010 A 
ATOM     40  C   UNL     1       2.625  -0.495  -8.665  1.00  0.00     0.010 A 
ATOM     41  C   UNL     1       3.464  -0.661  -9.786  1.00  0.00    -0.014 A 
BRANCH  41  42
ATOM     42  C   UNL     1       2.984  -1.509 -10.909  1.00  0.00     0.031 A 
ATOM     43  C   UNL     1       1.776  -1.037 -11.672  1.00  0.00     0.074 A 
ATOM     44  C   UNL     1       3.546  -2.692 -11.219  1.00  0.00     0.049 A 
ATOM     45  N   UNL     1       1.049  -1.666 -12.559  1.00  0.00    -0.248 NA
ATOM     46  C   UNL     1       1.327   0.336 -11.386  1.00  0.00     0.031 C 
ATOM     47  C   UNL     1       4.759  -3.246 -10.626  1.00  0.00     0.029 A 
ATOM     48  N   UNL     1       3.125  -3.671 -12.090  1.00  0.00    -0.354 N 
ATOM     49  C   UNL     1       0.064  -0.765 -12.936  1.00  0.00     0.074 A 
ATOM     50  C   UNL     1       0.241   0.426 -12.136  1.00  0.00     0.031 C 
ATOM     51  C   UNL     1       4.938  -4.500 -11.081  1.00  0.00     0.029 A 
ATOM     52  C   UNL     1       3.852  -4.834 -12.000  1.00  0.00     0.049 A 
ATOM     53  H   UNL     1       2.376  -3.550 -12.717  1.00  0.00     0.167 HD
ATOM     54  C   UNL     1      -0.884  -0.900 -13.892  1.00  0.00     0.037 A 
ATOM     55  C   UNL     1       3.645  -6.037 -12.571  1.00  0.00     0.037 A 
ATOM     56  C   UNL     1      -1.058  -2.073 -14.701  1.00  0.00     0.049 A 
ATOM     57  C   UNL     1       2.502  -6.216 -13.538  1.00  0.00     0.074 A 
ATOM     58  C   UNL     1      -1.966  -2.292 -15.720  1.00  0.00     0.029 A 
ATOM     59  N   UNL     1      -0.304  -3.229 -14.576  1.00  0.00    -0.354 N 
ATOM     60  N   UNL     1       1.605  -5.345 -13.928  1.00  0.00    -0.248 NA
ATOM     61  C   UNL     1       2.358  -7.540 -14.166  1.00  0.00     0.031 C 
ATOM     62  C   UNL     1      -1.789  -3.598 -16.187  1.00  0.00     0.029 A 
ATOM     63  C   UNL     1      -0.742  -4.175 -15.487  1.00  0.00     0.049 A 
ATOM     64  H   UNL     1       0.431  -3.359 -13.935  1.00  0.00     0.167 HD
ATOM     65  C   UNL     1       0.839  -5.988 -14.892  1.00  0.00     0.074 A 
ATOM     66  C   UNL     1       1.357  -7.334 -15.010  1.00  0.00     0.031 C 
ATOM     67  C   UNL     1      -0.188  -5.497 -15.627  1.00  0.00     0.037 A 
BRANCH  54  68
ATOM     68  C   UNL     1      -1.799   0.266 -14.113  1.00  0.00     0.064 A 
ATOM     69  C   UNL     1      -1.340   1.449 -14.712  1.00  0.00     0.173 A 
ATOM     70  C   UNL     1      -3.144   0.201 -13.725  1.00  0.00     0.173 A 
ATOM     71  F   UNL     1      -0.056   1.564 -15.082  1.00  0.00    -0.203 F 
ATOM     72  C   UNL     1      -2.189   2.537 -14.887  1.00  0.00     0.198 A 
ATOM     73  C   UNL     1      -3.998   1.281 -13.928  1.00  0.00     0.198 A 
ATOM     74  F   UNL     1      -3.630  -0.909 -13.149  1.00  0.00    -0.203 F 
ATOM     75  F   UNL     1      -1.717   3.676 -15.411  1.00  0.00    -0.200 F 
ATOM     76  C   UNL     1      -3.518   2.450 -14.500  1.00  0.00     0.200 A 
ATOM     77  F   UNL     1      -5.284   1.194 -13.561  1.00  0.00    -0.200 F 
ATOM     78  F   UNL     1      -4.335   3.499 -14.668  1.00  0.00    -0.200 F 
ENDBRANCH  54  68
BRANCH  55  79
ATOM     79  C   UNL     1       4.542  -7.179 -12.254  1.00  0.00     0.064 A 
ATOM     80  C   UNL     1       5.447  -7.671 -13.204  1.00  0.00     0.173 A 
ATOM     81  C   UNL     1       4.485  -7.825 -11.011  1.00  0.00     0.173 A 
ATOM     82  F   UNL     1       5.520  -7.101 -14.416  1.00  0.00    -0.203 F 
ATOM     83  C   UNL     1       6.245  -8.781 -12.932  1.00  0.00     0.198 A 
ATOM     84  C   UNL     1       5.298  -8.922 -10.732  1.00  0.00     0.198 A 
ATOM     85  F   UNL     1       3.636  -7.393 -10.066  1.00  0.00    -0.203 F 
ATOM     86  F   UNL     1       7.068  -9.260 -13.875  1.00  0.00    -0.200 F 
ATOM     87  C   UNL     1       6.171  -9.405 -11.696  1.00  0.00     0.200 A 
ATOM     88  F   UNL     1       5.230  -9.517  -9.533  1.00  0.00    -0.200 F 
ATOM     89  F   UNL     1       6.933 -10.476 -11.436  1.00  0.00    -0.200 F 
ENDBRANCH  55  79
BRANCH  67  90
ATOM     90  C   UNL     1      -0.772  -6.373 -16.695  1.00  0.00     0.064 A 
ATOM     91  C   UNL     1      -1.625  -7.442 -16.392  1.00  0.00     0.173 A 
ATOM     92  C   UNL     1      -0.540  -6.077 -18.047  1.00  0.00     0.173 A 
ATOM     93  F   UNL     1      -1.865  -7.773 -15.114  1.00  0.00    -0.203 F 
ATOM     94  C   UNL     1      -2.222  -8.187 -17.406  1.00  0.00     0.198 A 
ATOM     95  C   UNL     1      -1.158  -6.807 -19.058  1.00  0.00     0.198 A 
ATOM     96  F   UNL     1       0.266  -5.059 -18.387  1.00  0.00    -0.203 F 
ATOM     97  F   UNL     1      -3.016  -9.221 -17.096  1.00  0.00    -0.200 F 
ATOM     98  C   UNL     1      -1.997  -7.862 -18.736  1.00  0.00     0.200 A 
ATOM     99  F   UNL     1      -0.950  -6.482 -20.341  1.00  0.00    -0.200 F 
ATOM    100  F   UNL     1      -2.590  -8.567 -19.709  1.00  0.00    -0.200 F 
ENDBRANCH  67  90
ENDBRANCH  41  42
ENDBRANCH  34  36
ENDBRANCH  33  34
ENDBRANCH  32  33
ENDBRANCH  31  32
ENDBRANCH  30  31
ENDBRANCH   1  30
TORSDOF 20
