REMARK SMILES CCC(=O)Nc1ccc(NC(=O)[C@@H]2CC=CC[C@@H]2C(=O)OCCOCCOC(=O)c2ccc(-c3c4nc(c(-c5c(F)c(F)c(F)c(F)c5F)c5ccc([nH]5)c(-c5c(F)c(F)c(F)c(F)c5F)c5nc(c(-c6c(F)c(F)c(F)c(F)c6F)c6ccc3[nH]6)C=C5)C=C4)cc2)cc1
REMARK SMILES IDX 23 1 22 2 21 3 19 4 20 5 18 6 13 7 14 8 15 9 17 10 16 11
REMARK SMILES IDX 11 12 10 13 12 15 9 16 6 17 7 18 94 19 8 20 93 21 5 22 3 23
REMARK SMILES IDX 4 24 2 26 1 27 24 28 25 29 26 30 27 31 28 32 29 33 30 34
REMARK SMILES IDX 31 35 92 36 32 37 91 38 33 39 34 40 35 41 85 42 36 43 90 44
REMARK SMILES IDX 84 45 86 46 37 47 89 48 83 49 82 50 38 52 70 53 50 54 69 55
REMARK SMILES IDX 51 56 54 57 68 58 87 59 52 60 53 61 67 63 88 64 55 65 39 66
REMARK SMILES IDX 40 67 48 68 41 69 42 70 46 71 49 72 43 73 44 74 47 75 45 76
REMARK SMILES IDX 71 77 72 78 80 79 73 80 74 81 78 82 81 83 75 84 76 85 79 86
REMARK SMILES IDX 77 87 56 88 57 89 65 90 58 91 59 92 63 93 66 94 60 95 61 96
REMARK SMILES IDX 64 97 62 98
REMARK H PARENT 10 14 5 25 86 51 54 62
REMARK Flexibility Score: inf
ROOT
ATOM      1  C   UNL     1      10.293  -2.143   5.976  1.00  0.00     0.202 C 
ENDROOT
BRANCH   1   2
ATOM      2  C   UNL     1      10.425  -3.471   5.228  1.00  0.00     0.261 C 
BRANCH   2   3
ATOM      3  O   UNL     1      10.170  -3.345   3.820  1.00  0.00    -0.463 OA
BRANCH   3   4
ATOM      4  C   UNL     1       8.986  -3.894   3.415  1.00  0.00     0.310 C 
ATOM      5  O   UNL     1       8.223  -4.491   4.158  1.00  0.00    -0.252 OA
BRANCH   4   6
ATOM      6  C   UNL     1       8.786  -3.669   1.918  1.00  0.00     0.116 C 
ATOM      7  C   UNL     1       7.316  -3.550   1.479  1.00  0.00     0.097 C 
ATOM      8  C   UNL     1       6.472  -4.743   1.932  1.00  0.00     0.041 C 
ATOM      9  C   UNL     1       7.201  -6.031   1.623  1.00  0.00    -0.030 C 
ATOM     10  C   UNL     1       9.395  -4.874   1.187  1.00  0.00     0.043 C 
ATOM     11  C   UNL     1       8.495  -6.085   1.253  1.00  0.00    -0.030 C 
BRANCH   7  12
ATOM     12  C   UNL     1       6.687  -2.210   1.814  1.00  0.00     0.228 C 
ATOM     13  N   UNL     1       6.341  -1.332   0.820  1.00  0.00    -0.326 N 
ATOM     14  H   UNL     1       5.863  -0.529   1.131  1.00  0.00     0.169 HD
ATOM     15  O   UNL     1       6.394  -1.904   2.970  1.00  0.00    -0.274 OA
BRANCH  13  16
ATOM     16  C   UNL     1       6.553  -1.385  -0.566  1.00  0.00     0.041 A 
ATOM     17  C   UNL     1       6.763  -1.582  -3.349  1.00  0.00     0.041 A 
ATOM     18  C   UNL     1       7.788  -2.061  -2.543  1.00  0.00     0.028 A 
ATOM     19  C   UNL     1       5.629  -1.016  -2.768  1.00  0.00     0.028 A 
ATOM     20  C   UNL     1       7.702  -1.914  -1.158  1.00  0.00     0.028 A 
ATOM     21  C   UNL     1       5.534  -0.893  -1.381  1.00  0.00     0.028 A 
BRANCH  17  22
ATOM     22  N   UNL     1       6.873  -1.726  -4.731  1.00  0.00    -0.326 N 
ATOM     23  C   UNL     1       6.744  -0.754  -5.686  1.00  0.00     0.224 C 
ATOM     24  O   UNL     1       6.691  -1.077  -6.874  1.00  0.00    -0.275 OA
ATOM     25  H   UNL     1       7.068  -2.633  -5.059  1.00  0.00     0.169 HD
BRANCH  23  26
ATOM     26  C   UNL     1       6.820   0.708  -5.273  1.00  0.00     0.097 C 
ATOM     27  C   UNL     1       5.484   1.349  -4.962  1.00  0.00     0.014 C 
ENDBRANCH  23  26
ENDBRANCH  17  22
ENDBRANCH  13  16
ENDBRANCH   7  12
ENDBRANCH   4   6
ENDBRANCH   3   4
ENDBRANCH   2   3
ENDBRANCH   1   2
BRANCH   1  28
ATOM     28  O   UNL     1       9.046  -1.457   5.981  1.00  0.00    -0.374 OA
BRANCH  28  29
ATOM     29  C   UNL     1       8.578  -0.891   4.761  1.00  0.00     0.202 C 
BRANCH  29  30
ATOM     30  C   UNL     1       9.225   0.399   4.240  1.00  0.00     0.261 C 
BRANCH  30  31
ATOM     31  O   UNL     1      10.657   0.354   4.228  1.00  0.00    -0.460 OA
BRANCH  31  32
ATOM     32  C   UNL     1      11.232   1.005   5.264  1.00  0.00     0.338 C 
ATOM     33  O   UNL     1      10.685   1.696   6.114  1.00  0.00    -0.246 OA
BRANCH  32  34
ATOM     34  C   UNL     1      12.647   0.618   5.358  1.00  0.00     0.060 A 
ATOM     35  C   UNL     1      13.078   0.032   6.556  1.00  0.00     0.016 A 
ATOM     36  C   UNL     1      13.541   0.861   4.315  1.00  0.00     0.016 A 
ATOM     37  C   UNL     1      14.419  -0.281   6.732  1.00  0.00     0.010 A 
ATOM     38  C   UNL     1      14.893   0.566   4.501  1.00  0.00     0.010 A 
ATOM     39  C   UNL     1      15.338   0.027   5.722  1.00  0.00    -0.014 A 
BRANCH  39  40
ATOM     40  C   UNL     1      16.785  -0.049   6.020  1.00  0.00     0.031 A 
ATOM     41  C   UNL     1      17.501   1.211   6.410  1.00  0.00     0.074 A 
ATOM     42  C   UNL     1      17.433  -1.225   5.979  1.00  0.00     0.049 A 
ATOM     43  N   UNL     1      18.767   1.400   6.678  1.00  0.00    -0.248 NA
ATOM     44  C   UNL     1      16.675   2.426   6.512  1.00  0.00     0.031 C 
ATOM     45  C   UNL     1      16.823  -2.514   5.662  1.00  0.00     0.029 A 
ATOM     46  N   UNL     1      18.754  -1.519   6.201  1.00  0.00    -0.354 N 
ATOM     47  C   UNL     1      18.890   2.752   6.971  1.00  0.00     0.074 A 
ATOM     48  C   UNL     1      17.579   3.344   6.820  1.00  0.00     0.031 C 
ATOM     49  C   UNL     1      17.773  -3.464   5.697  1.00  0.00     0.029 A 
ATOM     50  C   UNL     1      19.060  -2.842   6.003  1.00  0.00     0.049 A 
ATOM     51  H   UNL     1      19.418  -0.847   6.476  1.00  0.00     0.167 HD
ATOM     52  C   UNL     1      20.000   3.433   7.340  1.00  0.00     0.037 A 
ATOM     53  C   UNL     1      20.252  -3.468   6.042  1.00  0.00     0.037 A 
ATOM     54  C   UNL     1      21.299   2.833   7.487  1.00  0.00     0.049 A 
ATOM     55  C   UNL     1      21.486  -2.671   6.381  1.00  0.00     0.074 A 
ATOM     56  C   UNL     1      22.487   3.428   7.872  1.00  0.00     0.029 A 
ATOM     57  N   UNL     1      21.580   1.495   7.245  1.00  0.00    -0.354 N 
ATOM     58  N   UNL     1      21.596  -1.398   6.678  1.00  0.00    -0.248 NA
ATOM     59  C   UNL     1      22.762  -3.400   6.393  1.00  0.00     0.031 C 
ATOM     60  C   UNL     1      23.498   2.463   7.806  1.00  0.00     0.029 A 
ATOM     61  C   UNL     1      22.929   1.253   7.443  1.00  0.00     0.049 A 
ATOM     62  H   UNL     1      20.918   0.819   6.973  1.00  0.00     0.167 HD
ATOM     63  C   UNL     1      22.942  -1.180   6.941  1.00  0.00     0.074 A 
ATOM     64  C   UNL     1      23.608  -2.455   6.781  1.00  0.00     0.031 C 
ATOM     65  C   UNL     1      23.571  -0.029   7.286  1.00  0.00     0.037 A 
BRANCH  52  66
ATOM     66  C   UNL     1      19.862   4.909   7.576  1.00  0.00     0.064 A 
ATOM     67  C   UNL     1      19.169   5.421   8.683  1.00  0.00     0.173 A 
ATOM     68  C   UNL     1      20.456   5.824   6.694  1.00  0.00     0.173 A 
ATOM     69  F   UNL     1      18.568   4.590   9.548  1.00  0.00    -0.203 F 
ATOM     70  C   UNL     1      19.055   6.795   8.884  1.00  0.00     0.198 A 
ATOM     71  C   UNL     1      20.367   7.196   6.915  1.00  0.00     0.198 A 
ATOM     72  F   UNL     1      21.131   5.388   5.619  1.00  0.00    -0.203 F 
ATOM     73  F   UNL     1      18.347   7.262   9.922  1.00  0.00    -0.200 F 
ATOM     74  C   UNL     1      19.661   7.680   8.005  1.00  0.00     0.200 A 
ATOM     75  F   UNL     1      20.963   8.049   6.070  1.00  0.00    -0.200 F 
ATOM     76  F   UNL     1      19.557   9.001   8.204  1.00  0.00    -0.200 F 
ENDBRANCH  52  66
BRANCH  53  77
ATOM     77  C   UNL     1      20.339  -4.920   5.736  1.00  0.00     0.064 A 
ATOM     78  C   UNL     1      20.692  -5.850   6.723  1.00  0.00     0.173 A 
ATOM     79  C   UNL     1      20.086  -5.406   4.444  1.00  0.00     0.173 A 
ATOM     80  F   UNL     1      20.967  -5.433   7.968  1.00  0.00    -0.203 F 
ATOM     81  C   UNL     1      20.808  -7.207   6.426  1.00  0.00     0.198 A 
ATOM     82  C   UNL     1      20.172  -6.766   4.155  1.00  0.00     0.198 A 
ATOM     83  F   UNL     1      19.745  -4.558   3.462  1.00  0.00    -0.203 F 
ATOM     84  F   UNL     1      21.194  -8.068   7.377  1.00  0.00    -0.200 F 
ATOM     85  C   UNL     1      20.541  -7.664   5.144  1.00  0.00     0.200 A 
ATOM     86  F   UNL     1      19.900  -7.204   2.919  1.00  0.00    -0.200 F 
ATOM     87  F   UNL     1      20.649  -8.969   4.860  1.00  0.00    -0.200 F 
ENDBRANCH  53  77
BRANCH  65  88
ATOM     88  C   UNL     1      25.047  -0.102   7.553  1.00  0.00     0.064 A 
ATOM     89  C   UNL     1      25.976  -0.293   6.521  1.00  0.00     0.173 A 
ATOM     90  C   UNL     1      25.539   0.072   8.856  1.00  0.00     0.173 A 
ATOM     91  F   UNL     1      25.556  -0.477   5.260  1.00  0.00    -0.203 F 
ATOM     92  C   UNL     1      27.342  -0.334   6.787  1.00  0.00     0.198 A 
ATOM     93  C   UNL     1      26.907   0.064   9.113  1.00  0.00     0.198 A 
ATOM     94  F   UNL     1      24.693   0.267   9.879  1.00  0.00    -0.203 F 
ATOM     95  F   UNL     1      28.210  -0.566   5.792  1.00  0.00    -0.200 F 
ATOM     96  C   UNL     1      27.807  -0.146   8.080  1.00  0.00     0.200 A 
ATOM     97  F   UNL     1      27.354   0.262  10.361  1.00  0.00    -0.200 F 
ATOM     98  F   UNL     1      29.122  -0.175   8.332  1.00  0.00    -0.200 F 
ENDBRANCH  65  88
ENDBRANCH  39  40
ENDBRANCH  32  34
ENDBRANCH  31  32
ENDBRANCH  30  31
ENDBRANCH  29  30
ENDBRANCH  28  29
ENDBRANCH   1  28
TORSDOF 18
