REMARK SMILES C[C@@H](C(=O)OCCOCCOC(=O)c1ccc(-c2c3nc(c(-c4c(F)c(F)c(F)c(F)c4F)c4ccc([nH]4)c(-c4c(F)c(F)c(F)c(F)c4F)c4nc(c(-c5c(F)c(F)c(F)c(F)c5F)c5ccc2[nH]5)C=C4)C=C3)cc1)c1ccc(-c2ccccc2)cc1
REMARK SMILES IDX 8 1 7 2 6 3 5 4 3 5 4 6 2 7 1 8 77 9 78 10 88 11 79 12 87 13
REMARK SMILES IDX 80 14 81 15 82 16 86 17 83 18 85 19 84 20 9 21 10 22 11 23
REMARK SMILES IDX 12 24 13 25 14 26 15 27 76 28 16 29 75 30 17 31 18 32 19 33
REMARK SMILES IDX 69 34 20 35 74 36 68 37 70 38 21 39 73 40 67 41 66 42 22 44
REMARK SMILES IDX 54 45 34 46 53 47 35 48 38 49 52 50 71 51 36 52 37 53 51 55
REMARK SMILES IDX 72 56 39 57 23 58 24 59 32 60 25 61 26 62 30 63 33 64 27 65
REMARK SMILES IDX 28 66 31 67 29 68 55 69 56 70 64 71 57 72 58 73 62 74 65 75
REMARK SMILES IDX 59 76 60 77 63 78 61 79 40 80 41 81 49 82 42 83 43 84 47 85
REMARK SMILES IDX 50 86 44 87 45 88 48 89 46 90
REMARK H PARENT 70 43 38 54
REMARK Flexibility Score: inf
ROOT
ATOM      1  O   UNL     1       0.969  -4.547  -1.384  1.00  0.00    -0.374 OA
ENDROOT
BRANCH   1   2
ATOM      2  C   UNL     1       2.200  -4.177  -2.011  1.00  0.00     0.202 C 
BRANCH   2   3
ATOM      3  C   UNL     1       2.104  -3.019  -3.009  1.00  0.00     0.261 C 
BRANCH   3   4
ATOM      4  O   UNL     1       1.814  -1.800  -2.303  1.00  0.00    -0.463 OA
BRANCH   4   5
ATOM      5  C   UNL     1       0.898  -0.981  -2.884  1.00  0.00     0.313 C 
ATOM      6  O   UNL     1       0.500  -1.107  -4.037  1.00  0.00    -0.252 OA
BRANCH   5   7
ATOM      7  C   UNL     1       0.366   0.080  -1.916  1.00  0.00     0.126 C 
ATOM      8  C   UNL     1       1.103   0.166  -0.574  1.00  0.00     0.025 C 
BRANCH   7   9
ATOM      9  C   UNL     1      -1.139  -0.028  -1.683  1.00  0.00    -0.034 A 
ATOM     10  C   UNL     1      -1.870   1.128  -1.374  1.00  0.00     0.005 A 
ATOM     11  C   UNL     1      -1.831  -1.247  -1.752  1.00  0.00     0.005 A 
ATOM     12  C   UNL     1      -3.254   1.071  -1.179  1.00  0.00     0.009 A 
ATOM     13  C   UNL     1      -3.214  -1.303  -1.547  1.00  0.00     0.009 A 
ATOM     14  C   UNL     1      -3.949  -0.143  -1.275  1.00  0.00    -0.018 A 
BRANCH  14  15
ATOM     15  C   UNL     1      -5.410  -0.190  -1.148  1.00  0.00    -0.018 A 
ATOM     16  C   UNL     1      -6.224   0.467  -2.087  1.00  0.00     0.009 A 
ATOM     17  C   UNL     1      -6.033  -0.898  -0.110  1.00  0.00     0.009 A 
ATOM     18  C   UNL     1      -7.616   0.417  -1.992  1.00  0.00     0.001 A 
ATOM     19  C   UNL     1      -7.427  -0.945  -0.011  1.00  0.00     0.001 A 
ATOM     20  C   UNL     1      -8.217  -0.288  -0.953  1.00  0.00     0.000 A 
ENDBRANCH  14  15
ENDBRANCH   7   9
ENDBRANCH   5   7
ENDBRANCH   4   5
ENDBRANCH   3   4
ENDBRANCH   2   3
ENDBRANCH   1   2
BRANCH   1  21
ATOM     21  C   UNL     1       0.503  -3.707  -0.328  1.00  0.00     0.202 C 
BRANCH  21  22
ATOM     22  C   UNL     1       1.117  -3.953   1.053  1.00  0.00     0.261 C 
BRANCH  22  23
ATOM     23  O   UNL     1       2.527  -3.675   1.067  1.00  0.00    -0.460 OA
BRANCH  23  24
ATOM     24  C   UNL     1       3.315  -4.771   1.145  1.00  0.00     0.338 C 
ATOM     25  O   UNL     1       2.961  -5.931   1.315  1.00  0.00    -0.246 OA
BRANCH  24  26
ATOM     26  C   UNL     1       4.707  -4.416   0.819  1.00  0.00     0.060 A 
ATOM     27  C   UNL     1       5.366  -5.216  -0.124  1.00  0.00     0.016 A 
ATOM     28  C   UNL     1       5.378  -3.371   1.458  1.00  0.00     0.016 A 
ATOM     29  C   UNL     1       6.716  -5.013  -0.389  1.00  0.00     0.010 A 
ATOM     30  C   UNL     1       6.738  -3.173   1.198  1.00  0.00     0.010 A 
ATOM     31  C   UNL     1       7.420  -4.019   0.305  1.00  0.00    -0.014 A 
BRANCH  31  32
ATOM     32  C   UNL     1       8.899  -3.989   0.216  1.00  0.00     0.031 A 
ATOM     33  C   UNL     1       9.701  -4.657   1.297  1.00  0.00     0.074 A 
ATOM     34  C   UNL     1       9.514  -3.419  -0.834  1.00  0.00     0.049 A 
ATOM     35  N   UNL     1      10.999  -4.757   1.430  1.00  0.00    -0.248 NA
ATOM     36  C   UNL     1       8.935  -5.302   2.376  1.00  0.00     0.031 C 
ATOM     37  C   UNL     1       8.841  -2.780  -1.962  1.00  0.00     0.029 A 
ATOM     38  N   UNL     1      10.850  -3.288  -1.119  1.00  0.00    -0.354 N 
ATOM     39  C   UNL     1      11.204  -5.468   2.605  1.00  0.00     0.074 A 
ATOM     40  C   UNL     1       9.900  -5.752   3.164  1.00  0.00     0.031 C 
ATOM     41  C   UNL     1       9.769  -2.318  -2.818  1.00  0.00     0.029 A 
ATOM     42  C   UNL     1      11.099  -2.605  -2.283  1.00  0.00     0.049 A 
ATOM     43  H   UNL     1      11.562  -3.649  -0.543  1.00  0.00     0.167 HD
ATOM     44  C   UNL     1      12.375  -5.858   3.162  1.00  0.00     0.037 A 
ATOM     45  C   UNL     1      12.270  -2.243  -2.841  1.00  0.00     0.037 A 
ATOM     46  C   UNL     1      13.669  -5.579   2.599  1.00  0.00     0.049 A 
ATOM     47  C   UNL     1      13.560  -2.630  -2.166  1.00  0.00     0.074 A 
ATOM     48  C   UNL     1      14.915  -5.952   3.073  1.00  0.00     0.029 A 
ATOM     49  N   UNL     1      13.883  -4.851   1.439  1.00  0.00    -0.354 N 
ATOM     50  N   UNL     1      13.745  -3.328  -1.071  1.00  0.00    -0.248 NA
ATOM     51  C   UNL     1      14.804  -2.181  -2.807  1.00  0.00     0.031 C 
ATOM     52  C   UNL     1      15.885  -5.407   2.225  1.00  0.00     0.029 A 
ATOM     53  C   UNL     1      15.242  -4.737   1.195  1.00  0.00     0.049 A 
ATOM     54  H   UNL     1      13.174  -4.470   0.872  1.00  0.00     0.167 HD
ATOM     55  C   UNL     1      15.121  -3.426  -0.908  1.00  0.00     0.074 A 
ATOM     56  C   UNL     1      15.724  -2.725  -2.022  1.00  0.00     0.031 C 
ATOM     57  C   UNL     1      15.822  -4.042   0.075  1.00  0.00     0.037 A 
BRANCH  44  58
ATOM     58  C   UNL     1      12.309  -6.604   4.462  1.00  0.00     0.064 A 
ATOM     59  C   UNL     1      11.857  -7.930   4.530  1.00  0.00     0.173 A 
ATOM     60  C   UNL     1      12.730  -5.991   5.651  1.00  0.00     0.173 A 
ATOM     61  F   UNL     1      11.429  -8.555   3.423  1.00  0.00    -0.203 F 
ATOM     62  C   UNL     1      11.808  -8.608   5.745  1.00  0.00     0.198 A 
ATOM     63  C   UNL     1      12.704  -6.680   6.861  1.00  0.00     0.198 A 
ATOM     64  F   UNL     1      13.171  -4.724   5.640  1.00  0.00    -0.203 F 
ATOM     65  F   UNL     1      11.332  -9.860   5.794  1.00  0.00    -0.200 F 
ATOM     66  C   UNL     1      12.238  -7.985   6.908  1.00  0.00     0.200 A 
ATOM     67  F   UNL     1      13.129  -6.080   7.981  1.00  0.00    -0.200 F 
ATOM     68  F   UNL     1      12.194  -8.640   8.076  1.00  0.00    -0.200 F 
ENDBRANCH  44  58
BRANCH  45  69
ATOM     69  C   UNL     1      12.279  -1.464  -4.107  1.00  0.00     0.064 A 
ATOM     70  C   UNL     1      12.742  -2.031  -5.302  1.00  0.00     0.173 A 
ATOM     71  C   UNL     1      11.840  -0.132  -4.143  1.00  0.00     0.173 A 
ATOM     72  F   UNL     1      13.196  -3.293  -5.312  1.00  0.00    -0.203 F 
ATOM     73  C   UNL     1      12.780  -1.291  -6.482  1.00  0.00     0.198 A 
ATOM     74  C   UNL     1      11.854   0.598  -5.329  1.00  0.00     0.198 A 
ATOM     75  F   UNL     1      11.391   0.458  -3.026  1.00  0.00    -0.203 F 
ATOM     76  F   UNL     1      13.268  -1.844  -7.601  1.00  0.00    -0.200 F 
ATOM     77  C   UNL     1      12.330   0.021  -6.496  1.00  0.00     0.200 A 
ATOM     78  F   UNL     1      11.409   1.862  -5.340  1.00  0.00    -0.200 F 
ATOM     79  F   UNL     1      12.364   0.731  -7.632  1.00  0.00    -0.200 F 
ENDBRANCH  45  69
BRANCH  57  80
ATOM     80  C   UNL     1      17.320  -4.017  -0.027  1.00  0.00     0.064 A 
ATOM     81  C   UNL     1      18.055  -2.849   0.220  1.00  0.00     0.173 A 
ATOM     82  C   UNL     1      18.029  -5.189  -0.332  1.00  0.00     0.173 A 
ATOM     83  F   UNL     1      17.422  -1.700   0.502  1.00  0.00    -0.203 F 
ATOM     84  C   UNL     1      19.445  -2.849   0.142  1.00  0.00     0.198 A 
ATOM     85  C   UNL     1      19.420  -5.192  -0.381  1.00  0.00     0.198 A 
ATOM     86  F   UNL     1      17.373  -6.334  -0.569  1.00  0.00    -0.203 F 
ATOM     87  F   UNL     1      20.125  -1.711   0.339  1.00  0.00    -0.200 F 
ATOM     88  C   UNL     1      20.126  -4.021  -0.150  1.00  0.00     0.200 A 
ATOM     89  F   UNL     1      20.077  -6.328  -0.650  1.00  0.00    -0.200 F 
ATOM     90  F   UNL     1      21.465  -4.021  -0.217  1.00  0.00    -0.200 F 
ENDBRANCH  57  80
ENDBRANCH  31  32
ENDBRANCH  24  26
ENDBRANCH  23  24
ENDBRANCH  22  23
ENDBRANCH  21  22
ENDBRANCH   1  21
TORSDOF 16
