REMARK SMILES Cc1cc(NC(=O)[C@H]2[C@@H](C(=O)OCCOCCOC(=O)c3ccc(-c4c5nc(c(-c6c(F)c(F)c(F)c(F)c6F)c6ccc([nH]6)c(-c6c(F)c(F)c(F)c(F)c6F)c6nc(c(-c7c(F)c(F)c(F)c(F)c7F)c7ccc4[nH]7)C=C6)C=C5)cc3)C2(C)C)n(-c2ccc(F)cc2)n1
REMARK SMILES IDX 14 1 13 2 12 3 10 4 11 5 9 6 8 7 84 8 85 9 86 10 6 11 5 12
REMARK SMILES IDX 7 14 4 15 1 16 2 17 3 18 95 19 87 20 88 21 89 22 94 23 90 24
REMARK SMILES IDX 93 25 91 26 92 27 15 28 16 29 17 30 18 31 19 32 20 33 21 34
REMARK SMILES IDX 22 35 83 36 23 37 82 38 24 39 25 40 26 41 76 42 27 43 81 44
REMARK SMILES IDX 75 45 77 46 28 47 80 48 74 49 73 50 29 52 61 53 41 54 60 55
REMARK SMILES IDX 42 56 45 57 59 58 78 59 43 60 44 61 58 63 79 64 46 65 30 66
REMARK SMILES IDX 31 67 39 68 32 69 33 70 37 71 40 72 34 73 35 74 38 75 36 76
REMARK SMILES IDX 62 77 63 78 71 79 64 80 65 81 69 82 72 83 66 84 67 85 70 86
REMARK SMILES IDX 68 87 47 88 48 89 56 90 49 91 50 92 54 93 57 94 51 95 52 96
REMARK SMILES IDX 55 97 53 98
REMARK H PARENT 5 13 77 51 45 62
REMARK Flexibility Score: inf
ROOT
ATOM      1  C   UNL     1      -6.082  -5.542  -6.925  1.00  0.00     0.202 C 
ENDROOT
BRANCH   1   2
ATOM      2  C   UNL     1      -4.672  -5.992  -6.541  1.00  0.00     0.261 C 
BRANCH   2   3
ATOM      3  O   UNL     1      -4.119  -5.066  -5.596  1.00  0.00    -0.463 OA
BRANCH   3   4
ATOM      4  C   UNL     1      -2.928  -4.548  -5.953  1.00  0.00     0.310 C 
ATOM      5  O   UNL     1      -2.173  -4.944  -6.826  1.00  0.00    -0.252 OA
BRANCH   4   6
ATOM      6  C   UNL     1      -2.762  -3.197  -5.405  1.00  0.00     0.118 C 
ATOM      7  C   UNL     1      -1.391  -2.840  -4.960  1.00  0.00     0.100 C 
ATOM      8  C   UNL     1      -2.587  -2.670  -4.003  1.00  0.00    -0.009 C 
ATOM      9  C   UNL     1      -2.704  -3.611  -2.827  1.00  0.00     0.013 C 
ATOM     10  C   UNL     1      -3.047  -1.260  -3.682  1.00  0.00     0.013 C 
BRANCH   7  11
ATOM     11  C   UNL     1      -0.277  -3.681  -4.532  1.00  0.00     0.230 C 
ATOM     12  N   UNL     1       0.831  -2.999  -3.941  1.00  0.00    -0.310 N 
ATOM     13  H   UNL     1       1.680  -3.489  -3.857  1.00  0.00     0.171 HD
ATOM     14  O   UNL     1      -0.277  -4.887  -4.506  1.00  0.00    -0.274 OA
BRANCH  12  15
ATOM     15  C   UNL     1       0.787  -1.683  -3.475  1.00  0.00     0.136 A 
ATOM     16  C   UNL     1       0.955   0.646  -0.651  1.00  0.00     0.069 C 
ATOM     17  C   UNL     1       0.870  -0.083  -1.941  1.00  0.00     0.062 A 
ATOM     18  C   UNL     1       1.022  -1.463  -2.135  1.00  0.00     0.072 A 
ATOM     19  N   UNL     1       0.631   0.558  -3.087  1.00  0.00    -0.171 NA
ATOM     20  N   UNL     1       0.555  -0.408  -4.041  1.00  0.00    -0.217 N 
BRANCH  20  21
ATOM     21  C   UNL     1       0.404   0.021  -5.393  1.00  0.00     0.067 A 
ATOM     22  C   UNL     1      -0.848   0.007  -6.022  1.00  0.00     0.031 A 
ATOM     23  C   UNL     1       1.443   0.691  -6.040  1.00  0.00     0.031 A 
ATOM     24  C   UNL     1      -1.020   0.403  -7.348  1.00  0.00     0.041 A 
ATOM     25  C   UNL     1       1.257   1.171  -7.349  1.00  0.00     0.041 A 
ATOM     26  C   UNL     1       0.044   0.982  -8.006  1.00  0.00     0.123 A 
ATOM     27  F   UNL     1      -0.117   1.404  -9.266  1.00  0.00    -0.207 F 
ENDBRANCH  20  21
ENDBRANCH  12  15
ENDBRANCH   7  11
ENDBRANCH   4   6
ENDBRANCH   3   4
ENDBRANCH   2   3
ENDBRANCH   1   2
BRANCH   1  28
ATOM     28  O   UNL     1      -6.222  -4.438  -7.822  1.00  0.00    -0.374 OA
BRANCH  28  29
ATOM     29  C   UNL     1      -5.626  -3.180  -7.541  1.00  0.00     0.202 C 
BRANCH  29  30
ATOM     30  C   UNL     1      -6.182  -2.351  -6.386  1.00  0.00     0.261 C 
BRANCH  30  31
ATOM     31  O   UNL     1      -6.088  -3.010  -5.131  1.00  0.00    -0.460 OA
BRANCH  31  32
ATOM     32  C   UNL     1      -7.260  -3.530  -4.699  1.00  0.00     0.338 C 
ATOM     33  O   UNL     1      -8.278  -3.703  -5.345  1.00  0.00    -0.246 OA
BRANCH  32  34
ATOM     34  C   UNL     1      -7.188  -3.743  -3.253  1.00  0.00     0.060 A 
ATOM     35  C   UNL     1      -8.207  -4.475  -2.646  1.00  0.00     0.016 A 
ATOM     36  C   UNL     1      -6.289  -2.974  -2.509  1.00  0.00     0.016 A 
ATOM     37  C   UNL     1      -8.444  -4.265  -1.305  1.00  0.00     0.010 A 
ATOM     38  C   UNL     1      -6.501  -2.785  -1.170  1.00  0.00     0.010 A 
ATOM     39  C   UNL     1      -7.643  -3.346  -0.618  1.00  0.00    -0.014 A 
BRANCH  39  40
ATOM     40  C   UNL     1      -8.017  -2.965   0.723  1.00  0.00     0.031 A 
ATOM     41  C   UNL     1      -7.759  -4.023   1.715  1.00  0.00     0.074 A 
ATOM     42  C   UNL     1      -8.441  -1.720   1.010  1.00  0.00     0.049 A 
ATOM     43  N   UNL     1      -8.629  -4.726   2.356  1.00  0.00    -0.248 NA
ATOM     44  C   UNL     1      -6.370  -4.481   1.874  1.00  0.00     0.031 C 
ATOM     45  C   UNL     1      -8.453  -0.540   0.139  1.00  0.00     0.029 A 
ATOM     46  N   UNL     1      -8.873  -1.225   2.198  1.00  0.00    -0.354 N 
ATOM     47  C   UNL     1      -7.886  -5.578   3.163  1.00  0.00     0.074 A 
ATOM     48  C   UNL     1      -6.537  -5.540   2.666  1.00  0.00     0.031 C 
ATOM     49  C   UNL     1      -8.661   0.567   0.888  1.00  0.00     0.029 A 
ATOM     50  C   UNL     1      -8.931   0.161   2.256  1.00  0.00     0.049 A 
ATOM     51  H   UNL     1      -9.125  -1.802   2.955  1.00  0.00     0.167 HD
ATOM     52  C   UNL     1      -8.383  -6.004   4.354  1.00  0.00     0.037 A 
ATOM     53  C   UNL     1      -9.120   0.899   3.378  1.00  0.00     0.037 A 
ATOM     54  C   UNL     1      -9.816  -5.840   4.404  1.00  0.00     0.049 A 
ATOM     55  C   UNL     1      -9.705  -0.002   4.405  1.00  0.00     0.074 A 
ATOM     56  C   UNL     1     -10.876  -6.337   3.672  1.00  0.00     0.029 A 
ATOM     57  N   UNL     1     -10.307  -4.755   5.087  1.00  0.00    -0.354 N 
ATOM     58  N   UNL     1     -10.908  -0.500   4.329  1.00  0.00    -0.248 NA
ATOM     59  C   UNL     1      -8.792  -0.718   5.285  1.00  0.00     0.031 C 
ATOM     60  C   UNL     1     -11.818  -5.267   3.601  1.00  0.00     0.029 A 
ATOM     61  C   UNL     1     -11.310  -4.197   4.339  1.00  0.00     0.049 A 
ATOM     62  H   UNL     1      -9.993  -4.433   5.963  1.00  0.00     0.167 HD
ATOM     63  C   UNL     1     -10.784  -1.802   4.792  1.00  0.00     0.074 A 
ATOM     64  C   UNL     1      -9.486  -1.846   5.458  1.00  0.00     0.031 C 
ATOM     65  C   UNL     1     -11.613  -2.784   4.332  1.00  0.00     0.037 A 
BRANCH  52  66
ATOM     66  C   UNL     1      -7.542  -6.161   5.598  1.00  0.00     0.064 A 
ATOM     67  C   UNL     1      -8.136  -6.711   6.750  1.00  0.00     0.173 A 
ATOM     68  C   UNL     1      -6.295  -5.527   5.802  1.00  0.00     0.173 A 
ATOM     69  F   UNL     1      -9.328  -7.322   6.676  1.00  0.00    -0.203 F 
ATOM     70  C   UNL     1      -7.568  -6.557   8.017  1.00  0.00     0.198 A 
ATOM     71  C   UNL     1      -5.704  -5.427   7.059  1.00  0.00     0.198 A 
ATOM     72  F   UNL     1      -5.646  -4.876   4.830  1.00  0.00    -0.203 F 
ATOM     73  F   UNL     1      -8.237  -6.977   9.098  1.00  0.00    -0.200 F 
ATOM     74  C   UNL     1      -6.356  -5.909   8.171  1.00  0.00     0.200 A 
ATOM     75  F   UNL     1      -4.537  -4.779   7.185  1.00  0.00    -0.200 F 
ATOM     76  F   UNL     1      -5.842  -5.703   9.389  1.00  0.00    -0.200 F 
ENDBRANCH  52  66
BRANCH  53  77
ATOM     77  C   UNL     1      -8.538   2.218   3.720  1.00  0.00     0.064 A 
ATOM     78  C   UNL     1      -9.060   2.989   4.771  1.00  0.00     0.173 A 
ATOM     79  C   UNL     1      -7.287   2.619   3.211  1.00  0.00     0.173 A 
ATOM     80  F   UNL     1     -10.224   2.648   5.344  1.00  0.00    -0.203 F 
ATOM     81  C   UNL     1      -8.360   4.079   5.300  1.00  0.00     0.198 A 
ATOM     82  C   UNL     1      -6.593   3.710   3.735  1.00  0.00     0.198 A 
ATOM     83  F   UNL     1      -6.667   1.901   2.264  1.00  0.00    -0.203 F 
ATOM     84  F   UNL     1      -8.858   4.751   6.347  1.00  0.00    -0.200 F 
ATOM     85  C   UNL     1      -7.121   4.431   4.788  1.00  0.00     0.200 A 
ATOM     86  F   UNL     1      -5.378   4.013   3.256  1.00  0.00    -0.200 F 
ATOM     87  F   UNL     1      -6.419   5.433   5.336  1.00  0.00    -0.200 F 
ENDBRANCH  53  77
BRANCH  65  88
ATOM     88  C   UNL     1     -12.828  -2.352   3.559  1.00  0.00     0.064 A 
ATOM     89  C   UNL     1     -12.779  -1.695   2.317  1.00  0.00     0.173 A 
ATOM     90  C   UNL     1     -14.088  -2.725   4.041  1.00  0.00     0.173 A 
ATOM     91  F   UNL     1     -11.608  -1.395   1.741  1.00  0.00    -0.203 F 
ATOM     92  C   UNL     1     -13.944  -1.383   1.618  1.00  0.00     0.198 A 
ATOM     93  C   UNL     1     -15.248  -2.447   3.324  1.00  0.00     0.198 A 
ATOM     94  F   UNL     1     -14.191  -3.405   5.194  1.00  0.00    -0.203 F 
ATOM     95  F   UNL     1     -13.872  -0.740   0.443  1.00  0.00    -0.200 F 
ATOM     96  C   UNL     1     -15.177  -1.765   2.119  1.00  0.00     0.200 A 
ATOM     97  F   UNL     1     -16.434  -2.863   3.789  1.00  0.00    -0.200 F 
ATOM     98  F   UNL     1     -16.296  -1.500   1.430  1.00  0.00    -0.200 F 
ENDBRANCH  65  88
ENDBRANCH  39  40
ENDBRANCH  32  34
ENDBRANCH  31  32
ENDBRANCH  30  31
ENDBRANCH  29  30
ENDBRANCH  28  29
ENDBRANCH   1  28
TORSDOF 17
