REMARK SMILES C[C@@H]1SC[C@H](C(=O)OCCOCCOC(=O)c2ccc(-c3c4nc(c(-c5c(F)c(F)c(F)c(F)c5F)c5ccc([nH]5)c(-c5c(F)c(F)c(F)c(F)c5F)c5nc(c(-c6c(F)c(F)c(F)c(F)c6F)c6ccc3[nH]6)C=C5)C=C4)cc2)N1C(=O)N(C)[C@@H](C)Cc1cccs1
REMARK SMILES IDX 9 1 8 2 6 3 7 4 5 5 1 6 2 7 3 8 80 9 4 10 81 11 82 12 83 13
REMARK SMILES IDX 84 14 85 15 86 16 87 17 88 18 89 19 92 20 90 21 91 22 10 23
REMARK SMILES IDX 11 24 12 25 13 26 14 27 15 28 16 29 17 30 18 31 79 32 19 33
REMARK SMILES IDX 78 34 20 35 21 36 22 37 72 38 23 39 77 40 71 41 73 42 24 43
REMARK SMILES IDX 76 44 70 45 69 46 25 48 57 49 37 50 56 51 38 52 41 53 55 54
REMARK SMILES IDX 74 55 39 56 40 57 54 59 75 60 42 61 26 62 27 63 35 64 28 65
REMARK SMILES IDX 29 66 33 67 36 68 30 69 31 70 34 71 32 72 58 73 59 74 67 75
REMARK SMILES IDX 60 76 61 77 65 78 68 79 62 80 63 81 66 82 64 83 43 84 44 85
REMARK SMILES IDX 52 86 45 87 46 88 50 89 53 90 47 91 48 92 51 93 49 94
REMARK H PARENT 73 47 41 58
REMARK Flexibility Score: inf
ROOT
ATOM      1  C   UNL     1      -4.810   1.081  -2.338  1.00  0.00     0.261 C 
ENDROOT
BRANCH   1   2
ATOM      2  O   UNL     1      -3.408   1.230  -2.047  1.00  0.00    -0.462 OA
BRANCH   2   3
ATOM      3  C   UNL     1      -2.587   0.435  -2.790  1.00  0.00     0.329 C 
ATOM      4  O   UNL     1      -2.942  -0.216  -3.770  1.00  0.00    -0.250 OA
BRANCH   3   5
ATOM      5  C   UNL     1      -1.113   0.498  -2.357  1.00  0.00     0.208 C 
ATOM      6  C   UNL     1       0.983   0.971   0.625  1.00  0.00     0.043 C 
ATOM      7  C   UNL     1       0.738   0.442  -0.779  1.00  0.00     0.143 C 
ATOM      8  S   UNL     1       1.066   1.847  -1.920  1.00  0.00    -0.134 SA
ATOM      9  N   UNL     1      -0.623  -0.026  -1.056  1.00  0.00    -0.298 N 
ATOM     10  C   UNL     1      -0.641   1.940  -2.472  1.00  0.00     0.109 C 
BRANCH   9  11
ATOM     11  C   UNL     1      -1.374  -1.022  -0.490  1.00  0.00     0.321 C 
ATOM     12  O   UNL     1      -2.574  -1.068  -0.784  1.00  0.00    -0.248 OA
BRANCH  11  13
ATOM     13  N   UNL     1      -0.884  -1.978   0.366  1.00  0.00    -0.325 N 
ATOM     14  C   UNL     1       0.497  -2.279   0.716  1.00  0.00     0.149 C 
BRANCH  13  15
ATOM     15  C   UNL     1      -1.857  -2.996   0.875  1.00  0.00     0.088 C 
ATOM     16  C   UNL     1      -2.992  -2.380   1.709  1.00  0.00     0.031 C 
BRANCH  15  17
ATOM     17  C   UNL     1      -2.423  -3.922  -0.240  1.00  0.00     0.071 C 
BRANCH  17  18
ATOM     18  C   UNL     1      -1.342  -4.672  -0.975  1.00  0.00     0.007 A 
ATOM     19  C   UNL     1      -0.524  -4.215  -1.992  1.00  0.00     0.015 A 
ATOM     20  S   UNL     1      -0.999  -6.304  -0.584  1.00  0.00    -0.149 S 
ATOM     21  C   UNL     1       0.418  -5.194  -2.415  1.00  0.00     0.012 A 
ATOM     22  C   UNL     1       0.256  -6.384  -1.742  1.00  0.00     0.065 A 
ENDBRANCH  17  18
ENDBRANCH  15  17
ENDBRANCH  13  15
ENDBRANCH  11  13
ENDBRANCH   9  11
ENDBRANCH   3   5
ENDBRANCH   2   3
ENDBRANCH   1   2
BRANCH   1  23
ATOM     23  C   UNL     1      -5.411   2.321  -3.006  1.00  0.00     0.202 C 
BRANCH  23  24
ATOM     24  O   UNL     1      -4.998   2.601  -4.342  1.00  0.00    -0.374 OA
BRANCH  24  25
ATOM     25  C   UNL     1      -3.687   3.125  -4.531  1.00  0.00     0.202 C 
BRANCH  25  26
ATOM     26  C   UNL     1      -3.501   4.618  -4.240  1.00  0.00     0.261 C 
BRANCH  26  27
ATOM     27  O   UNL     1      -3.785   4.944  -2.868  1.00  0.00    -0.460 OA
BRANCH  27  28
ATOM     28  C   UNL     1      -4.885   5.718  -2.699  1.00  0.00     0.338 C 
ATOM     29  O   UNL     1      -5.566   6.235  -3.568  1.00  0.00    -0.246 OA
BRANCH  28  30
ATOM     30  C   UNL     1      -5.285   5.755  -1.280  1.00  0.00     0.060 A 
ATOM     31  C   UNL     1      -6.620   5.446  -0.991  1.00  0.00     0.016 A 
ATOM     32  C   UNL     1      -4.422   6.188  -0.270  1.00  0.00     0.016 A 
ATOM     33  C   UNL     1      -7.117   5.640   0.294  1.00  0.00     0.010 A 
ATOM     34  C   UNL     1      -4.926   6.387   1.022  1.00  0.00     0.010 A 
ATOM     35  C   UNL     1      -6.286   6.158   1.297  1.00  0.00    -0.014 A 
BRANCH  35  36
ATOM     36  C   UNL     1      -6.905   6.601   2.571  1.00  0.00     0.031 A 
ATOM     37  C   UNL     1      -7.253   8.054   2.749  1.00  0.00     0.074 A 
ATOM     38  C   UNL     1      -7.235   5.709   3.520  1.00  0.00     0.049 A 
ATOM     39  N   UNL     1      -7.877   8.645   3.737  1.00  0.00    -0.248 NA
ATOM     40  C   UNL     1      -6.845   8.964   1.667  1.00  0.00     0.031 C 
ATOM     41  C   UNL     1      -6.978   4.272   3.452  1.00  0.00     0.029 A 
ATOM     42  N   UNL     1      -7.871   5.883   4.724  1.00  0.00    -0.354 N 
ATOM     43  C   UNL     1      -7.943   9.989   3.392  1.00  0.00     0.074 A 
ATOM     44  C   UNL     1      -7.263  10.135   2.124  1.00  0.00     0.031 C 
ATOM     45  C   UNL     1      -7.459   3.691   4.565  1.00  0.00     0.029 A 
ATOM     46  C   UNL     1      -8.043   4.717   5.428  1.00  0.00     0.049 A 
ATOM     47  H   UNL     1      -8.175   6.760   5.051  1.00  0.00     0.167 HD
ATOM     48  C   UNL     1      -8.533  11.007   4.064  1.00  0.00     0.037 A 
ATOM     49  C   UNL     1      -8.609   4.505   6.631  1.00  0.00     0.037 A 
ATOM     50  C   UNL     1      -9.213  10.865   5.324  1.00  0.00     0.049 A 
ATOM     51  C   UNL     1      -9.213   5.663   7.381  1.00  0.00     0.074 A 
ATOM     52  C   UNL     1      -9.859  11.834   6.072  1.00  0.00     0.029 A 
ATOM     53  N   UNL     1      -9.329   9.674   6.026  1.00  0.00    -0.354 N 
ATOM     54  N   UNL     1      -9.305   6.922   7.029  1.00  0.00    -0.248 NA
ATOM     55  C   UNL     1      -9.802   5.365   8.695  1.00  0.00     0.031 C 
ATOM     56  C   UNL     1     -10.328  11.238   7.249  1.00  0.00     0.029 A 
ATOM     57  C   UNL     1     -10.015   9.889   7.211  1.00  0.00     0.049 A 
ATOM     58  H   UNL     1      -8.977   8.805   5.727  1.00  0.00     0.167 HD
ATOM     59  C   UNL     1      -9.982   7.560   8.061  1.00  0.00     0.074 A 
ATOM     60  C   UNL     1     -10.291   6.546   9.046  1.00  0.00     0.031 C 
ATOM     61  C   UNL     1     -10.316   8.869   8.182  1.00  0.00     0.037 A 
BRANCH  48  62
ATOM     62  C   UNL     1      -8.453  12.375   3.453  1.00  0.00     0.064 A 
ATOM     63  C   UNL     1      -9.207  12.720   2.322  1.00  0.00     0.173 A 
ATOM     64  C   UNL     1      -7.637  13.362   4.026  1.00  0.00     0.173 A 
ATOM     65  F   UNL     1      -9.992  11.807   1.729  1.00  0.00    -0.203 F 
ATOM     66  C   UNL     1      -9.131  13.998   1.773  1.00  0.00     0.198 A 
ATOM     67  C   UNL     1      -7.583  14.646   3.490  1.00  0.00     0.198 A 
ATOM     68  F   UNL     1      -6.899  13.084   5.110  1.00  0.00    -0.203 F 
ATOM     69  F   UNL     1      -9.829  14.294   0.668  1.00  0.00    -0.200 F 
ATOM     70  C   UNL     1      -8.325  14.961   2.361  1.00  0.00     0.200 A 
ATOM     71  F   UNL     1      -6.811  15.579   4.065  1.00  0.00    -0.200 F 
ATOM     72  F   UNL     1      -8.257  16.192   1.836  1.00  0.00    -0.200 F 
ENDBRANCH  48  62
BRANCH  49  73
ATOM     73  C   UNL     1      -8.642   3.134   7.202  1.00  0.00     0.064 A 
ATOM     74  C   UNL     1      -9.847   2.431   7.330  1.00  0.00     0.173 A 
ATOM     75  C   UNL     1      -7.469   2.508   7.649  1.00  0.00     0.173 A 
ATOM     76  F   UNL     1     -10.998   2.999   6.942  1.00  0.00    -0.203 F 
ATOM     77  C   UNL     1      -9.880   1.159   7.899  1.00  0.00     0.198 A 
ATOM     78  C   UNL     1      -7.500   1.226   8.193  1.00  0.00     0.198 A 
ATOM     79  F   UNL     1      -6.291   3.142   7.551  1.00  0.00    -0.203 F 
ATOM     80  F   UNL     1     -11.052   0.526   8.051  1.00  0.00    -0.200 F 
ATOM     81  C   UNL     1      -8.706   0.556   8.324  1.00  0.00     0.200 A 
ATOM     82  F   UNL     1      -6.362   0.644   8.595  1.00  0.00    -0.200 F 
ATOM     83  F   UNL     1      -8.739  -0.667   8.870  1.00  0.00    -0.200 F 
ENDBRANCH  49  73
BRANCH  61  84
ATOM     84  C   UNL     1     -11.077   9.272   9.412  1.00  0.00     0.064 A 
ATOM     85  C   UNL     1     -10.461   9.326  10.671  1.00  0.00     0.173 A 
ATOM     86  C   UNL     1     -12.430   9.632   9.325  1.00  0.00     0.173 A 
ATOM     87  F   UNL     1      -9.173   8.978  10.808  1.00  0.00    -0.203 F 
ATOM     88  C   UNL     1     -11.181   9.697  11.804  1.00  0.00     0.198 A 
ATOM     89  C   UNL     1     -13.139  10.030  10.455  1.00  0.00     0.198 A 
ATOM     90  F   UNL     1     -13.064   9.604   8.143  1.00  0.00    -0.203 F 
ATOM     91  F   UNL     1     -10.586   9.693  13.005  1.00  0.00    -0.200 F 
ATOM     92  C   UNL     1     -12.517  10.054  11.694  1.00  0.00     0.200 A 
ATOM     93  F   UNL     1     -14.427  10.386  10.346  1.00  0.00    -0.200 F 
ATOM     94  F   UNL     1     -13.208  10.412  12.786  1.00  0.00    -0.200 F 
ENDBRANCH  61  84
ENDBRANCH  35  36
ENDBRANCH  28  30
ENDBRANCH  27  28
ENDBRANCH  26  27
ENDBRANCH  25  26
ENDBRANCH  24  25
ENDBRANCH  23  24
ENDBRANCH   1  23
TORSDOF 19
