REMARK SMILES O=C(Cn1nc(C(=O)OCCOCCOC(=O)c2ccc(-c3c4nc(c(-c5c(F)c(F)c(F)c(F)c5F)c5ccc([nH]5)c(-c5c(F)c(F)c(F)c(F)c5F)c5nc(c(-c6c(F)c(F)c(F)c(F)c6F)c6ccc3[nH]6)C=C5)C=C4)cc2)c2ccccc2c1=O)Nc1ccc2c(c1)C(=O)c1ccccc1C2=O
REMARK SMILES IDX 11 1 10 2 9 3 7 4 8 5 6 6 4 7 5 8 87 9 86 10 88 11 81 12
REMARK SMILES IDX 85 13 82 14 84 15 83 16 3 17 2 18 1 19 89 20 90 22 91 23
REMARK SMILES IDX 95 24 92 25 94 26 93 27 96 28 104 29 97 30 98 31 103 32
REMARK SMILES IDX 105 33 99 34 102 35 100 36 101 37 12 38 13 39 14 40 15 41
REMARK SMILES IDX 16 42 17 43 18 44 19 45 80 46 20 47 79 48 21 49 22 50 23 51
REMARK SMILES IDX 73 52 24 53 78 54 72 55 74 56 25 57 77 58 71 59 70 60 26 62
REMARK SMILES IDX 58 63 38 64 57 65 39 66 42 67 56 68 75 69 40 70 41 71 55 73
REMARK SMILES IDX 76 74 43 75 27 76 28 77 36 78 29 79 30 80 34 81 37 82 31 83
REMARK SMILES IDX 32 84 35 85 33 86 59 87 60 88 68 89 61 90 62 91 66 92 69 93
REMARK SMILES IDX 63 94 64 95 67 96 65 97 44 98 45 99 53 100 46 101 47 102
REMARK SMILES IDX 51 103 54 104 48 105 49 106 52 107 50 108
REMARK H PARENT 89 21 74 61 42 72
REMARK Flexibility Score: inf
ROOT
ATOM      1  C   UNL     1       8.418   0.211  -5.562  1.00  0.00     0.202 C 
ENDROOT
BRANCH   1   2
ATOM      2  C   UNL     1       8.688   0.203  -4.057  1.00  0.00     0.261 C 
BRANCH   2   3
ATOM      3  O   UNL     1       7.421   0.193  -3.386  1.00  0.00    -0.458 OA
BRANCH   3   4
ATOM      4  C   UNL     1       7.350   0.905  -2.245  1.00  0.00     0.359 C 
ATOM      5  O   UNL     1       8.247   1.383  -1.588  1.00  0.00    -0.244 OA
BRANCH   4   6
ATOM      6  C   UNL     1       5.883   1.218  -2.008  1.00  0.00     0.176 A 
ATOM      7  N   UNL     1       3.756   0.474  -1.502  1.00  0.00    -0.219 N 
ATOM      8  N   UNL     1       5.110   0.241  -1.629  1.00  0.00    -0.161 NA
ATOM      9  C   UNL     1       3.160   1.710  -1.772  1.00  0.00     0.275 A 
ATOM     10  C   UNL     1       4.061   2.831  -2.101  1.00  0.00     0.051 A 
ATOM     11  O   UNL     1       1.954   1.909  -1.677  1.00  0.00    -0.267 OA
ATOM     12  C   UNL     1       5.418   2.590  -2.267  1.00  0.00     0.022 A 
ATOM     13  C   UNL     1       3.554   4.130  -2.254  1.00  0.00     0.014 A 
ATOM     14  C   UNL     1       6.271   3.632  -2.657  1.00  0.00     0.011 A 
ATOM     15  C   UNL     1       4.407   5.173  -2.619  1.00  0.00     0.001 A 
ATOM     16  C   UNL     1       5.760   4.920  -2.837  1.00  0.00     0.001 A 
BRANCH   7  17
ATOM     17  C   UNL     1       2.908  -0.708  -1.202  1.00  0.00     0.248 C 
BRANCH  17  18
ATOM     18  C   UNL     1       2.259  -0.729   0.202  1.00  0.00     0.246 C 
ATOM     19  O   UNL     1       1.505  -1.623   0.571  1.00  0.00    -0.273 OA
ATOM     20  N   UNL     1       2.575   0.388   0.929  1.00  0.00    -0.324 N 
ATOM     21  H   UNL     1       3.360   0.894   0.617  1.00  0.00     0.169 HD
BRANCH  20  22
ATOM     22  C   UNL     1       1.932   0.901   2.052  1.00  0.00     0.042 A 
ATOM     23  C   UNL     1       2.061   0.298   3.304  1.00  0.00     0.027 A 
ATOM     24  C   UNL     1       1.605   2.249   1.931  1.00  0.00     0.039 A 
ATOM     25  C   UNL     1       2.094   1.117   4.442  1.00  0.00     0.015 A 
ATOM     26  C   UNL     1       1.672   3.056   3.050  1.00  0.00     0.036 A 
ATOM     27  C   UNL     1       2.013   2.507   4.284  1.00  0.00     0.034 A 
ATOM     28  C   UNL     1       1.799   4.500   2.814  1.00  0.00     0.194 C 
ATOM     29  C   UNL     1       2.645   3.406   5.279  1.00  0.00     0.194 C 
ATOM     30  O   UNL     1       1.137   5.084   1.970  1.00  0.00    -0.289 OA
ATOM     31  C   UNL     1       2.928   5.131   3.506  1.00  0.00     0.034 A 
ATOM     32  C   UNL     1       3.364   4.580   4.714  1.00  0.00     0.034 A 
ATOM     33  O   UNL     1       2.706   3.120   6.465  1.00  0.00    -0.289 OA
ATOM     34  C   UNL     1       3.664   6.119   2.849  1.00  0.00     0.013 A 
ATOM     35  C   UNL     1       4.562   5.019   5.276  1.00  0.00     0.013 A 
ATOM     36  C   UNL     1       4.878   6.528   3.394  1.00  0.00     0.001 A 
ATOM     37  C   UNL     1       5.325   5.979   4.601  1.00  0.00     0.001 A 
ENDBRANCH  20  22
ENDBRANCH  17  18
ENDBRANCH   7  17
ENDBRANCH   4   6
ENDBRANCH   3   4
ENDBRANCH   2   3
ENDBRANCH   1   2
BRANCH   1  38
ATOM     38  O   UNL     1       7.879   1.461  -6.006  1.00  0.00    -0.374 OA
BRANCH  38  39
ATOM     39  C   UNL     1       6.452   1.577  -5.981  1.00  0.00     0.202 C 
BRANCH  39  40
ATOM     40  C   UNL     1       5.767   1.015  -7.230  1.00  0.00     0.261 C 
BRANCH  40  41
ATOM     41  O   UNL     1       5.699  -0.421  -7.145  1.00  0.00    -0.460 OA
BRANCH  41  42
ATOM     42  C   UNL     1       6.436  -1.101  -8.054  1.00  0.00     0.338 C 
ATOM     43  O   UNL     1       7.051  -0.635  -8.998  1.00  0.00    -0.246 OA
BRANCH  42  44
ATOM     44  C   UNL     1       6.543  -2.520  -7.641  1.00  0.00     0.060 A 
ATOM     45  C   UNL     1       5.504  -3.194  -6.990  1.00  0.00     0.016 A 
ATOM     46  C   UNL     1       7.741  -3.187  -7.926  1.00  0.00     0.016 A 
ATOM     47  C   UNL     1       5.656  -4.545  -6.656  1.00  0.00     0.010 A 
ATOM     48  C   UNL     1       7.893  -4.532  -7.591  1.00  0.00     0.010 A 
ATOM     49  C   UNL     1       6.844  -5.224  -6.971  1.00  0.00    -0.014 A 
BRANCH  49  50
ATOM     50  C   UNL     1       6.945  -6.690  -6.785  1.00  0.00     0.031 A 
ATOM     51  C   UNL     1       7.629  -7.285  -5.593  1.00  0.00     0.074 A 
ATOM     52  C   UNL     1       6.441  -7.487  -7.744  1.00  0.00     0.049 A 
ATOM     53  N   UNL     1       7.757  -8.546  -5.266  1.00  0.00    -0.248 NA
ATOM     54  C   UNL     1       8.256  -6.349  -4.651  1.00  0.00     0.031 C 
ATOM     55  C   UNL     1       5.790  -7.018  -8.968  1.00  0.00     0.029 A 
ATOM     56  N   UNL     1       6.400  -8.854  -7.844  1.00  0.00    -0.354 N 
ATOM     57  C   UNL     1       8.457  -8.558  -4.069  1.00  0.00     0.074 A 
ATOM     58  C   UNL     1       8.765  -7.179  -3.748  1.00  0.00     0.031 C 
ATOM     59  C   UNL     1       5.404  -8.079  -9.692  1.00  0.00     0.029 A 
ATOM     60  C   UNL     1       5.787  -9.300  -8.988  1.00  0.00     0.049 A 
ATOM     61  H   UNL     1       6.774  -9.457  -7.162  1.00  0.00     0.167 HD
ATOM     62  C   UNL     1       8.790  -9.624  -3.303  1.00  0.00     0.037 A 
ATOM     63  C   UNL     1       5.552 -10.553  -9.417  1.00  0.00     0.037 A 
ATOM     64  C   UNL     1       8.494 -10.995  -3.633  1.00  0.00     0.049 A 
ATOM     65  C   UNL     1       5.969 -11.717  -8.566  1.00  0.00     0.074 A 
ATOM     66  C   UNL     1       8.740 -12.135  -2.887  1.00  0.00     0.029 A 
ATOM     67  N   UNL     1       7.898 -11.412  -4.813  1.00  0.00    -0.354 N 
ATOM     68  N   UNL     1       6.553 -11.713  -7.394  1.00  0.00    -0.248 NA
ATOM     69  C   UNL     1       5.689 -13.059  -9.096  1.00  0.00     0.031 C 
ATOM     70  C   UNL     1       8.329 -13.245  -3.632  1.00  0.00     0.029 A 
ATOM     71  C   UNL     1       7.795 -12.794  -4.829  1.00  0.00     0.049 A 
ATOM     72  H   UNL     1       7.594 -10.815  -5.534  1.00  0.00     0.167 HD
ATOM     73  C   UNL     1       6.693 -13.045  -7.035  1.00  0.00     0.074 A 
ATOM     74  C   UNL     1       6.127 -13.832  -8.112  1.00  0.00     0.031 C 
ATOM     75  C   UNL     1       7.239 -13.566  -5.910  1.00  0.00     0.037 A 
BRANCH  62  76
ATOM     76  C   UNL     1       9.500  -9.358  -2.011  1.00  0.00     0.064 A 
ATOM     77  C   UNL     1       8.808  -8.867  -0.894  1.00  0.00     0.173 A 
ATOM     78  C   UNL     1      10.858  -9.672  -1.859  1.00  0.00     0.173 A 
ATOM     79  F   UNL     1       7.509  -8.546  -0.994  1.00  0.00    -0.203 F 
ATOM     80  C   UNL     1       9.452  -8.692   0.327  1.00  0.00     0.198 A 
ATOM     81  C   UNL     1      11.496  -9.512  -0.631  1.00  0.00     0.198 A 
ATOM     82  F   UNL     1      11.561 -10.151  -2.896  1.00  0.00    -0.203 F 
ATOM     83  F   UNL     1       8.776  -8.203   1.376  1.00  0.00    -0.200 F 
ATOM     84  C   UNL     1      10.793  -9.022   0.459  1.00  0.00     0.200 A 
ATOM     85  F   UNL     1      12.789  -9.838  -0.502  1.00  0.00    -0.200 F 
ATOM     86  F   UNL     1      11.409  -8.864   1.639  1.00  0.00    -0.200 F 
ENDBRANCH  62  76
BRANCH  63  87
ATOM     87  C   UNL     1       4.836 -10.759 -10.697  1.00  0.00     0.064 A 
ATOM     88  C   UNL     1       3.488 -11.141 -10.705  1.00  0.00     0.173 A 
ATOM     89  C   UNL     1       5.467 -10.541 -11.929  1.00  0.00     0.173 A 
ATOM     90  F   UNL     1       2.852 -11.374  -9.548  1.00  0.00    -0.203 F 
ATOM     91  C   UNL     1       2.797 -11.302 -11.903  1.00  0.00     0.198 A 
ATOM     92  C   UNL     1       4.769 -10.686 -13.126  1.00  0.00     0.198 A 
ATOM     93  F   UNL     1       6.755 -10.170 -11.967  1.00  0.00    -0.203 F 
ATOM     94  F   UNL     1       1.513 -11.686 -11.886  1.00  0.00    -0.200 F 
ATOM     95  C   UNL     1       3.436 -11.068 -13.112  1.00  0.00     0.200 A 
ATOM     96  F   UNL     1       5.386 -10.451 -14.292  1.00  0.00    -0.200 F 
ATOM     97  F   UNL     1       2.767 -11.213 -14.263  1.00  0.00    -0.200 F 
ENDBRANCH  63  87
BRANCH  75  98
ATOM     98  C   UNL     1       7.249 -15.058  -5.781  1.00  0.00     0.064 A 
ATOM     99  C   UNL     1       8.174 -15.842  -6.485  1.00  0.00     0.173 A 
ATOM    100  C   UNL     1       6.362 -15.705  -4.909  1.00  0.00     0.173 A 
ATOM    101  F   UNL     1       9.031 -15.268  -7.342  1.00  0.00    -0.203 F 
ATOM    102  C   UNL     1       8.202 -17.225  -6.328  1.00  0.00     0.198 A 
ATOM    103  C   UNL     1       6.405 -17.086  -4.740  1.00  0.00     0.198 A 
ATOM    104  F   UNL     1       5.461 -14.995  -4.213  1.00  0.00    -0.203 F 
ATOM    105  F   UNL     1       9.075 -17.960  -7.031  1.00  0.00    -0.200 F 
ATOM    106  C   UNL     1       7.323 -17.845  -5.451  1.00  0.00     0.200 A 
ATOM    107  F   UNL     1       5.560 -17.683  -3.888  1.00  0.00    -0.200 F 
ATOM    108  F   UNL     1       7.357 -19.175  -5.296  1.00  0.00    -0.200 F 
ENDBRANCH  75  98
ENDBRANCH  49  50
ENDBRANCH  42  44
ENDBRANCH  41  42
ENDBRANCH  40  41
ENDBRANCH  39  40
ENDBRANCH  38  39
ENDBRANCH   1  38
TORSDOF 17
