REMARK SMILES NS(=O)(=O)c1ccc(-n2nc(NC(=O)NCCCC(=O)OCCOCCOC(=O)c3ccc(-c4c5nc(c(-c6c(F)c(F)c(F)c(F)c6F)c6ccc([nH]6)c(-c6c(F)c(F)c(F)c(F)c6F)c6nc(c(-c7c(F)c(F)c(F)c(F)c7F)c7ccc4[nH]7)C=C6)C=C5)cc3)cc2-c2ccccc2)cc1
REMARK SMILES IDX 22 1 21 2 19 3 20 4 18 5 17 6 16 7 15 8 12 9 13 10 14 12
REMARK SMILES IDX 11 14 9 15 10 16 94 17 93 18 8 19 5 20 6 21 102 22 7 23
REMARK SMILES IDX 101 24 2 25 3 26 4 27 1 28 95 31 96 32 100 33 97 34 99 35
REMARK SMILES IDX 98 36 23 37 24 38 25 39 26 40 27 41 28 42 29 43 30 44 31 45
REMARK SMILES IDX 92 46 32 47 91 48 33 49 34 50 35 51 85 52 36 53 90 54 84 55
REMARK SMILES IDX 86 56 37 57 89 58 83 59 82 60 38 62 70 63 50 64 69 65 51 66
REMARK SMILES IDX 54 67 68 68 87 69 52 70 53 71 67 73 88 74 55 75 39 76 40 77
REMARK SMILES IDX 48 78 41 79 42 80 46 81 49 82 43 83 44 84 47 85 45 86 71 87
REMARK SMILES IDX 72 88 80 89 73 90 74 91 78 92 81 93 75 94 76 95 79 96 77 97
REMARK SMILES IDX 56 98 57 99 65 100 58 101 59 102 63 103 66 104 60 105 61 106
REMARK SMILES IDX 64 107 62 108
REMARK H PARENT 12 11 15 13 1 29 1 30 86 61 54 72
REMARK Flexibility Score: inf
ROOT
ATOM      1  C   UNL     1      -1.516   5.936   6.705  1.00  0.00     0.261 C 
ENDROOT
BRANCH   1   2
ATOM      2  O   UNL     1      -1.588   4.609   7.252  1.00  0.00    -0.463 OA
BRANCH   2   3
ATOM      3  C   UNL     1      -2.843   4.192   7.562  1.00  0.00     0.305 C 
ATOM      4  O   UNL     1      -3.860   4.857   7.401  1.00  0.00    -0.252 OA
BRANCH   3   5
ATOM      5  C   UNL     1      -2.896   2.827   8.206  1.00  0.00     0.124 C 
BRANCH   5   6
ATOM      6  C   UNL     1      -1.854   1.782   7.865  1.00  0.00     0.033 C 
BRANCH   6   7
ATOM      7  C   UNL     1      -0.401   2.013   8.243  1.00  0.00     0.118 C 
BRANCH   7   8
ATOM      8  N   UNL     1      -0.086   2.339   9.611  1.00  0.00    -0.338 N 
ATOM      9  N   UNL     1       2.029   1.254   9.956  1.00  0.00    -0.291 N 
ATOM     10  C   UNL     1       1.005   2.043  10.349  1.00  0.00     0.320 C 
ATOM     11  H   UNL     1       2.635   1.021  10.697  1.00  0.00     0.173 HD
ATOM     12  O   UNL     1       1.026   2.462  11.513  1.00  0.00    -0.248 OA
ATOM     13  H   UNL     1      -0.776   2.860  10.082  1.00  0.00     0.165 HD
BRANCH   9  14
ATOM     14  C   UNL     1       2.419   0.700   8.755  1.00  0.00     0.157 A 
ATOM     15  N   UNL     1       2.314   0.089   6.724  1.00  0.00    -0.231 N 
ATOM     16  N   UNL     1       2.096   1.145   7.540  1.00  0.00    -0.149 NA
ATOM     17  C   UNL     1       3.282  -0.747   7.293  1.00  0.00     0.076 A 
ATOM     18  C   UNL     1       3.311  -0.398   8.631  1.00  0.00     0.078 A 
BRANCH  15  19
ATOM     19  C   UNL     1       1.867   0.123   5.360  1.00  0.00     0.065 A 
ATOM     20  C   UNL     1       1.262   0.360   2.619  1.00  0.00     0.082 A 
ATOM     21  C   UNL     1       0.829  -0.757   3.354  1.00  0.00     0.024 A 
ATOM     22  C   UNL     1       2.071   1.302   3.221  1.00  0.00     0.024 A 
ATOM     23  C   UNL     1       1.172  -0.902   4.723  1.00  0.00     0.030 A 
ATOM     24  C   UNL     1       2.312   1.181   4.579  1.00  0.00     0.030 A 
BRANCH  20  25
ATOM     25  S   UNL     1       0.636   0.766   1.013  1.00  0.00     0.238 S 
ATOM     26  O   UNL     1       1.149   2.043   0.610  1.00  0.00    -0.207 OA
ATOM     27  O   UNL     1      -0.785   0.463   1.002  1.00  0.00    -0.207 OA
BRANCH  25  28
ATOM     28  N   UNL     1       1.373  -0.341  -0.003  1.00  0.00    -0.225 NA
ATOM     29  H   UNL     1       1.066  -0.179  -0.962  1.00  0.00     0.137 HD
ATOM     30  H   UNL     1       1.117  -1.286   0.281  1.00  0.00     0.137 HD
ENDBRANCH  25  28
ENDBRANCH  20  25
ENDBRANCH  15  19
BRANCH  17  31
ATOM     31  C   UNL     1       4.006  -1.705   6.475  1.00  0.00     0.000 A 
ATOM     32  C   UNL     1       4.410  -1.250   5.226  1.00  0.00     0.010 A 
ATOM     33  C   UNL     1       4.054  -3.067   6.738  1.00  0.00     0.010 A 
ATOM     34  C   UNL     1       4.487  -2.124   4.159  1.00  0.00     0.001 A 
ATOM     35  C   UNL     1       4.348  -3.951   5.692  1.00  0.00     0.001 A 
ATOM     36  C   UNL     1       4.505  -3.482   4.389  1.00  0.00     0.000 A 
ENDBRANCH  17  31
ENDBRANCH   9  14
ENDBRANCH   7   8
ENDBRANCH   6   7
ENDBRANCH   5   6
ENDBRANCH   3   5
ENDBRANCH   2   3
ENDBRANCH   1   2
BRANCH   1  37
ATOM     37  C   UNL     1      -1.311   6.021   5.187  1.00  0.00     0.202 C 
BRANCH  37  38
ATOM     38  O   UNL     1      -2.000   5.106   4.352  1.00  0.00    -0.374 OA
BRANCH  38  39
ATOM     39  C   UNL     1      -1.663   3.735   4.452  1.00  0.00     0.202 C 
BRANCH  39  40
ATOM     40  C   UNL     1      -0.213   3.309   4.246  1.00  0.00     0.261 C 
BRANCH  40  41
ATOM     41  O   UNL     1       0.805   3.939   5.049  1.00  0.00    -0.460 OA
BRANCH  41  42
ATOM     42  C   UNL     1       1.650   4.757   4.350  1.00  0.00     0.338 C 
ATOM     43  O   UNL     1       1.379   5.319   3.300  1.00  0.00    -0.246 OA
BRANCH  42  44
ATOM     44  C   UNL     1       3.052   4.639   4.835  1.00  0.00     0.060 A 
ATOM     45  C   UNL     1       4.047   4.829   3.861  1.00  0.00     0.016 A 
ATOM     46  C   UNL     1       3.357   3.958   6.004  1.00  0.00     0.016 A 
ATOM     47  C   UNL     1       5.207   4.053   3.880  1.00  0.00     0.010 A 
ATOM     48  C   UNL     1       4.505   3.164   5.999  1.00  0.00     0.010 A 
ATOM     49  C   UNL     1       5.366   3.100   4.879  1.00  0.00    -0.014 A 
BRANCH  49  50
ATOM     50  C   UNL     1       6.538   2.205   4.963  1.00  0.00     0.031 A 
ATOM     51  C   UNL     1       7.481   2.777   5.936  1.00  0.00     0.074 A 
ATOM     52  C   UNL     1       6.877   1.067   4.306  1.00  0.00     0.049 A 
ATOM     53  N   UNL     1       8.393   3.624   5.584  1.00  0.00    -0.248 NA
ATOM     54  C   UNL     1       7.231   2.712   7.377  1.00  0.00     0.031 C 
ATOM     55  C   UNL     1       6.232   0.417   3.166  1.00  0.00     0.029 A 
ATOM     56  N   UNL     1       7.923   0.199   4.579  1.00  0.00    -0.354 N 
ATOM     57  C   UNL     1       8.978   4.018   6.768  1.00  0.00     0.074 A 
ATOM     58  C   UNL     1       8.018   3.710   7.789  1.00  0.00     0.031 C 
ATOM     59  C   UNL     1       6.809  -0.795   2.944  1.00  0.00     0.029 A 
ATOM     60  C   UNL     1       7.836  -1.050   3.951  1.00  0.00     0.049 A 
ATOM     61  H   UNL     1       8.671   0.443   5.170  1.00  0.00     0.167 HD
ATOM     62  C   UNL     1      10.330   4.154   6.825  1.00  0.00     0.037 A 
ATOM     63  C   UNL     1       8.750  -2.063   3.856  1.00  0.00     0.037 A 
ATOM     64  C   UNL     1      10.889   4.141   5.487  1.00  0.00     0.049 A 
ATOM     65  C   UNL     1      10.065  -1.412   3.929  1.00  0.00     0.074 A 
ATOM     66  C   UNL     1      10.915   4.981   4.392  1.00  0.00     0.029 A 
ATOM     67  N   UNL     1      11.184   2.882   5.030  1.00  0.00    -0.354 N 
ATOM     68  N   UNL     1      10.546  -0.723   2.938  1.00  0.00    -0.248 NA
ATOM     69  C   UNL     1      10.681  -1.182   5.230  1.00  0.00     0.031 C 
ATOM     70  C   UNL     1      11.078   4.146   3.244  1.00  0.00     0.029 A 
ATOM     71  C   UNL     1      11.194   2.826   3.666  1.00  0.00     0.049 A 
ATOM     72  H   UNL     1      11.367   2.112   5.615  1.00  0.00     0.167 HD
ATOM     73  C   UNL     1      11.154   0.345   3.560  1.00  0.00     0.074 A 
ATOM     74  C   UNL     1      11.369  -0.074   4.942  1.00  0.00     0.031 C 
ATOM     75  C   UNL     1      11.119   1.571   2.969  1.00  0.00     0.037 A 
BRANCH  62  76
ATOM     76  C   UNL     1      11.169   3.737   8.021  1.00  0.00     0.064 A 
ATOM     77  C   UNL     1      12.566   3.908   7.937  1.00  0.00     0.173 A 
ATOM     78  C   UNL     1      10.733   2.927   9.096  1.00  0.00     0.173 A 
ATOM     79  F   UNL     1      13.106   4.654   6.961  1.00  0.00    -0.203 F 
ATOM     80  C   UNL     1      13.448   3.246   8.795  1.00  0.00     0.198 A 
ATOM     81  C   UNL     1      11.614   2.304   9.975  1.00  0.00     0.198 A 
ATOM     82  F   UNL     1       9.456   2.602   9.305  1.00  0.00    -0.203 F 
ATOM     83  F   UNL     1      14.768   3.344   8.594  1.00  0.00    -0.200 F 
ATOM     84  C   UNL     1      12.971   2.435   9.806  1.00  0.00     0.200 A 
ATOM     85  F   UNL     1      11.123   1.506  10.934  1.00  0.00    -0.200 F 
ATOM     86  F   UNL     1      13.811   1.747  10.589  1.00  0.00    -0.200 F 
ENDBRANCH  62  76
BRANCH  63  87
ATOM     87  C   UNL     1       8.630  -3.472   4.353  1.00  0.00     0.064 A 
ATOM     88  C   UNL     1       9.484  -4.488   3.874  1.00  0.00     0.173 A 
ATOM     89  C   UNL     1       7.846  -3.814   5.465  1.00  0.00     0.173 A 
ATOM     90  F   UNL     1      10.345  -4.224   2.881  1.00  0.00    -0.203 F 
ATOM     91  C   UNL     1       9.517  -5.770   4.447  1.00  0.00     0.198 A 
ATOM     92  C   UNL     1       7.848  -5.104   6.015  1.00  0.00     0.198 A 
ATOM     93  F   UNL     1       7.152  -2.865   6.105  1.00  0.00    -0.203 F 
ATOM     94  F   UNL     1      10.387  -6.687   3.998  1.00  0.00    -0.200 F 
ATOM     95  C   UNL     1       8.685  -6.082   5.507  1.00  0.00     0.200 A 
ATOM     96  F   UNL     1       7.074  -5.384   7.074  1.00  0.00    -0.200 F 
ATOM     97  F   UNL     1       8.723  -7.301   6.067  1.00  0.00    -0.200 F 
ENDBRANCH  63  87
BRANCH  75  98
ATOM     98  C   UNL     1      10.836   1.582   1.500  1.00  0.00     0.064 A 
ATOM     99  C   UNL     1       9.562   1.395   0.945  1.00  0.00     0.173 A 
ATOM    100  C   UNL     1      11.893   1.837   0.626  1.00  0.00     0.173 A 
ATOM    101  F   UNL     1       8.493   1.242   1.730  1.00  0.00    -0.203 F 
ATOM    102  C   UNL     1       9.363   1.411  -0.434  1.00  0.00     0.198 A 
ATOM    103  C   UNL     1      11.689   1.897  -0.749  1.00  0.00     0.198 A 
ATOM    104  F   UNL     1      13.122   2.065   1.113  1.00  0.00    -0.203 F 
ATOM    105  F   UNL     1       8.138   1.204  -0.941  1.00  0.00    -0.200 F 
ATOM    106  C   UNL     1      10.428   1.669  -1.280  1.00  0.00     0.200 A 
ATOM    107  F   UNL     1      12.712   2.198  -1.559  1.00  0.00    -0.200 F 
ATOM    108  F   UNL     1      10.236   1.725  -2.605  1.00  0.00    -0.200 F 
ENDBRANCH  75  98
ENDBRANCH  49  50
ENDBRANCH  42  44
ENDBRANCH  41  42
ENDBRANCH  40  41
ENDBRANCH  39  40
ENDBRANCH  38  39
ENDBRANCH  37  38
ENDBRANCH   1  37
TORSDOF 22
