REMARK SMILES CC(C)Cc1cc2c(cc1Cl)C=C(C(=O)OCCOCCOC(=O)c1ccc(-c3c4nc(c(-c5c(F)c(F)c(F)c(F)c5F)c5ccc([nH]5)c(-c5c(F)c(F)c(F)c(F)c5F)c5nc(c(-c6c(F)c(F)c(F)c(F)c6F)c6ccc3[nH]6)C=C5)C=C4)cc1)[C@@H](C(F)(F)F)O2
REMARK SMILES IDX 19 1 18 2 17 3 16 4 14 5 15 6 13 7 5 8 6 9 10 10 7 11 9 12
REMARK SMILES IDX 11 13 8 14 93 15 12 16 88 17 4 18 2 19 1 20 3 21 89 22 90 23
REMARK SMILES IDX 91 24 92 25 20 26 21 27 22 28 23 29 24 30 25 31 26 32 87 33
REMARK SMILES IDX 27 34 86 35 28 36 29 37 30 38 80 39 31 40 85 41 79 42 81 43
REMARK SMILES IDX 32 44 84 45 78 46 77 47 33 49 65 50 45 51 64 52 46 53 49 54
REMARK SMILES IDX 63 55 82 56 47 57 48 58 62 60 83 61 50 62 34 63 35 64 43 65
REMARK SMILES IDX 36 66 37 67 41 68 44 69 38 70 39 71 42 72 40 73 66 74 67 75
REMARK SMILES IDX 75 76 68 77 69 78 73 79 76 80 70 81 71 82 74 83 72 84 51 85
REMARK SMILES IDX 52 86 60 87 53 88 54 89 58 90 61 91 55 92 56 93 59 94 57 95
REMARK H PARENT 81 48 49 59
REMARK Flexibility Score: inf
ROOT
ATOM      1  O   UNL     1      -2.174   6.146   7.014  1.00  0.00    -0.374 OA
ENDROOT
BRANCH   1   2
ATOM      2  C   UNL     1      -3.256   5.577   7.745  1.00  0.00     0.202 C 
BRANCH   2   3
ATOM      3  C   UNL     1      -4.458   5.057   6.952  1.00  0.00     0.261 C 
BRANCH   3   4
ATOM      4  O   UNL     1      -4.081   4.063   5.988  1.00  0.00    -0.460 OA
BRANCH   4   5
ATOM      5  C   UNL     1      -4.217   4.460   4.701  1.00  0.00     0.338 C 
ATOM      6  O   UNL     1      -4.718   5.501   4.307  1.00  0.00    -0.246 OA
BRANCH   5   7
ATOM      7  C   UNL     1      -3.548   3.502   3.803  1.00  0.00     0.087 C 
ATOM      8  C   UNL     1      -1.371   1.456  -0.230  1.00  0.00    -0.025 A 
ATOM      9  C   UNL     1      -1.953   0.938   0.944  1.00  0.00     0.052 A 
ATOM     10  C   UNL     1      -1.255   2.849  -0.361  1.00  0.00     0.045 A 
ATOM     11  C   UNL     1      -2.422   1.786   1.949  1.00  0.00     0.128 A 
ATOM     12  C   UNL     1      -1.703   3.696   0.654  1.00  0.00     0.032 A 
ATOM     13  Cl  UNL     1      -0.600   3.595  -1.776  1.00  0.00    -0.084 Cl
ATOM     14  C   UNL     1      -2.302   3.166   1.799  1.00  0.00     0.019 A 
ATOM     15  O   UNL     1      -2.977   1.191   3.046  1.00  0.00    -0.475 OA
ATOM     16  C   UNL     1      -2.858   4.053   2.798  1.00  0.00     0.027 C 
ATOM     17  C   UNL     1      -3.692   2.019   4.009  1.00  0.00     0.316 C 
BRANCH   8  18
ATOM     18  C   UNL     1      -0.889   0.496  -1.295  1.00  0.00     0.040 C 
BRANCH  18  19
ATOM     19  C   UNL     1       0.645   0.351  -1.352  1.00  0.00    -0.013 C 
ATOM     20  C   UNL     1       1.213  -0.261  -0.069  1.00  0.00     0.008 C 
ATOM     21  C   UNL     1       1.041  -0.501  -2.558  1.00  0.00     0.008 C 
ENDBRANCH  18  19
ENDBRANCH   8  18
BRANCH  17  22
ATOM     22  C   UNL     1      -5.162   1.577   4.046  1.00  0.00     0.430 C 
ATOM     23  F   UNL     1      -5.268   0.233   4.181  1.00  0.00    -0.167 F 
ATOM     24  F   UNL     1      -5.822   2.122   5.096  1.00  0.00    -0.167 F 
ATOM     25  F   UNL     1      -5.828   1.928   2.924  1.00  0.00    -0.167 F 
ENDBRANCH  17  22
ENDBRANCH   5   7
ENDBRANCH   4   5
ENDBRANCH   3   4
ENDBRANCH   2   3
ENDBRANCH   1   2
BRANCH   1  26
ATOM     26  C   UNL     1      -1.300   5.278   6.297  1.00  0.00     0.202 C 
BRANCH  26  27
ATOM     27  C   UNL     1      -0.319   4.409   7.095  1.00  0.00     0.261 C 
BRANCH  27  28
ATOM     28  O   UNL     1      -0.973   3.473   7.968  1.00  0.00    -0.460 OA
BRANCH  28  29
ATOM     29  C   UNL     1      -0.900   3.782   9.286  1.00  0.00     0.338 C 
ATOM     30  O   UNL     1      -0.336   4.741   9.793  1.00  0.00    -0.246 OA
BRANCH  29  31
ATOM     31  C   UNL     1      -1.774   2.877  10.053  1.00  0.00     0.060 A 
ATOM     32  C   UNL     1      -1.688   1.492   9.907  1.00  0.00     0.016 A 
ATOM     33  C   UNL     1      -2.671   3.442  10.971  1.00  0.00     0.016 A 
ATOM     34  C   UNL     1      -2.489   0.672  10.703  1.00  0.00     0.010 A 
ATOM     35  C   UNL     1      -3.463   2.619  11.772  1.00  0.00     0.010 A 
ATOM     36  C   UNL     1      -3.367   1.226  11.656  1.00  0.00    -0.014 A 
BRANCH  36  37
ATOM     37  C   UNL     1      -4.094   0.330  12.589  1.00  0.00     0.031 A 
ATOM     38  C   UNL     1      -5.570   0.104  12.465  1.00  0.00     0.074 A 
ATOM     39  C   UNL     1      -3.393  -0.302  13.550  1.00  0.00     0.049 A 
ATOM     40  N   UNL     1      -6.325  -0.756  13.103  1.00  0.00    -0.248 NA
ATOM     41  C   UNL     1      -6.298   0.953  11.512  1.00  0.00     0.031 C 
ATOM     42  C   UNL     1      -1.964  -0.114  13.802  1.00  0.00     0.029 A 
ATOM     43  N   UNL     1      -3.776  -1.241  14.475  1.00  0.00    -0.354 N 
ATOM     44  C   UNL     1      -7.608  -0.572  12.609  1.00  0.00     0.074 A 
ATOM     45  C   UNL     1      -7.545   0.525  11.667  1.00  0.00     0.031 C 
ATOM     46  C   UNL     1      -1.578  -0.951  14.777  1.00  0.00     0.029 A 
ATOM     47  C   UNL     1      -2.735  -1.713  15.238  1.00  0.00     0.049 A 
ATOM     48  H   UNL     1      -4.705  -1.546  14.581  1.00  0.00     0.167 HD
ATOM     49  C   UNL     1      -8.728  -1.279  12.896  1.00  0.00     0.037 A 
ATOM     50  C   UNL     1      -2.712  -2.666  16.190  1.00  0.00     0.037 A 
ATOM     51  C   UNL     1      -8.783  -2.364  13.842  1.00  0.00     0.049 A 
ATOM     52  C   UNL     1      -3.981  -3.402  16.523  1.00  0.00     0.074 A 
ATOM     53  C   UNL     1      -9.858  -3.176  14.159  1.00  0.00     0.029 A 
ATOM     54  N   UNL     1      -7.723  -2.779  14.635  1.00  0.00    -0.354 N 
ATOM     55  N   UNL     1      -5.164  -3.300  15.968  1.00  0.00    -0.248 NA
ATOM     56  C   UNL     1      -3.913  -4.387  17.613  1.00  0.00     0.031 C 
ATOM     57  C   UNL     1      -9.467  -4.040  15.185  1.00  0.00     0.029 A 
ATOM     58  C   UNL     1      -8.132  -3.805  15.473  1.00  0.00     0.049 A 
ATOM     59  H   UNL     1      -6.814  -2.400  14.608  1.00  0.00     0.167 HD
ATOM     60  C   UNL     1      -5.977  -4.208  16.632  1.00  0.00     0.074 A 
ATOM     61  C   UNL     1      -5.146  -4.876  17.612  1.00  0.00     0.031 C 
ATOM     62  C   UNL     1      -7.297  -4.457  16.450  1.00  0.00     0.037 A 
BRANCH  49  63
ATOM     63  C   UNL     1      -9.989  -0.924  12.164  1.00  0.00     0.064 A 
ATOM     64  C   UNL     1     -10.141  -1.207  10.797  1.00  0.00     0.173 A 
ATOM     65  C   UNL     1     -11.087  -0.377  12.845  1.00  0.00     0.173 A 
ATOM     66  F   UNL     1      -9.121  -1.728  10.099  1.00  0.00    -0.203 F 
ATOM     67  C   UNL     1     -11.337  -0.939  10.138  1.00  0.00     0.198 A 
ATOM     68  C   UNL     1     -12.291  -0.137  12.188  1.00  0.00     0.198 A 
ATOM     69  F   UNL     1     -11.000  -0.098  14.154  1.00  0.00    -0.203 F 
ATOM     70  F   UNL     1     -11.446  -1.188   8.825  1.00  0.00    -0.200 F 
ATOM     71  C   UNL     1     -12.414  -0.413  10.835  1.00  0.00     0.200 A 
ATOM     72  F   UNL     1     -13.337   0.355  12.867  1.00  0.00    -0.200 F 
ATOM     73  F   UNL     1     -13.570  -0.173  10.202  1.00  0.00    -0.200 F 
ENDBRANCH  49  63
BRANCH  50  74
ATOM     74  C   UNL     1      -1.431  -3.000  16.865  1.00  0.00     0.064 A 
ATOM     75  C   UNL     1      -0.805  -4.235  16.649  1.00  0.00     0.173 A 
ATOM     76  C   UNL     1      -0.794  -2.086  17.717  1.00  0.00     0.173 A 
ATOM     77  F   UNL     1      -1.384  -5.150  15.858  1.00  0.00    -0.203 F 
ATOM     78  C   UNL     1       0.404  -4.547  17.267  1.00  0.00     0.198 A 
ATOM     79  C   UNL     1       0.430  -2.387  18.311  1.00  0.00     0.198 A 
ATOM     80  F   UNL     1      -1.349  -0.888  17.953  1.00  0.00    -0.203 F 
ATOM     81  F   UNL     1       0.964  -5.749  17.072  1.00  0.00    -0.200 F 
ATOM     82  C   UNL     1       1.025  -3.619  18.090  1.00  0.00     0.200 A 
ATOM     83  F   UNL     1       1.034  -1.481  19.092  1.00  0.00    -0.200 F 
ATOM     84  F   UNL     1       2.195  -3.915  18.674  1.00  0.00    -0.200 F 
ENDBRANCH  50  74
BRANCH  62  85
ATOM     85  C   UNL     1      -7.947  -5.478  17.340  1.00  0.00     0.064 A 
ATOM     86  C   UNL     1      -8.209  -5.200  18.689  1.00  0.00     0.173 A 
ATOM     87  C   UNL     1      -8.406  -6.697  16.818  1.00  0.00     0.173 A 
ATOM     88  F   UNL     1      -7.777  -4.055  19.239  1.00  0.00    -0.203 F 
ATOM     89  C   UNL     1      -8.907  -6.106  19.484  1.00  0.00     0.198 A 
ATOM     90  C   UNL     1      -9.130  -7.587  17.608  1.00  0.00     0.198 A 
ATOM     91  F   UNL     1      -8.187  -7.008  15.531  1.00  0.00    -0.203 F 
ATOM     92  F   UNL     1      -9.127  -5.829  20.776  1.00  0.00    -0.200 F 
ATOM     93  C   UNL     1      -9.379  -7.291  18.939  1.00  0.00     0.200 A 
ATOM     94  F   UNL     1      -9.601  -8.723  17.075  1.00  0.00    -0.200 F 
ATOM     95  F   UNL     1     -10.076  -8.147  19.698  1.00  0.00    -0.200 F 
ENDBRANCH  62  85
ENDBRANCH  36  37
ENDBRANCH  29  31
ENDBRANCH  28  29
ENDBRANCH  27  28
ENDBRANCH  26  27
ENDBRANCH   1  26
TORSDOF 17
