REMARK SMILES O=C(OCCOCCOC(=O)c1ccc(-c2c3nc(c(-c4c(F)c(F)c(F)c(F)c4F)c4ccc([nH]4)c(-c4c(F)c(F)c(F)c(F)c4F)c4nc(c(-c5c(F)c(F)c(F)c(F)c5F)c5ccc2[nH]5)C=C4)C=C3)cc1)c1ccc(/[NH+]=C2\S[C@@H](Cc3ccc(F)cc3)C(=O)N2Cc2ccccc2)cc1
REMARK SMILES IDX 5 1 4 2 3 3 2 4 1 5 75 6 76 7 102 8 77 9 101 10 78 11 79 12
REMARK SMILES IDX 80 13 81 15 93 16 82 17 91 18 92 19 94 20 95 21 96 22 100 23
REMARK SMILES IDX 97 24 99 25 98 26 83 27 84 28 85 29 90 30 86 31 89 32 87 33
REMARK SMILES IDX 88 34 6 35 7 36 8 37 9 38 10 39 11 40 12 41 13 42 74 43
REMARK SMILES IDX 14 44 73 45 15 46 16 47 17 48 67 49 18 50 72 51 66 52 68 53
REMARK SMILES IDX 19 54 71 55 65 56 64 57 20 59 52 60 32 61 51 62 33 63 36 64
REMARK SMILES IDX 50 65 69 66 34 67 35 68 49 70 70 71 37 72 21 73 22 74 30 75
REMARK SMILES IDX 23 76 24 77 28 78 31 79 25 80 26 81 29 82 27 83 53 84 54 85
REMARK SMILES IDX 62 86 55 87 56 88 60 89 63 90 57 91 58 92 61 93 59 94 38 95
REMARK SMILES IDX 39 96 47 97 40 98 41 99 45 100 48 101 42 102 43 103 46 104
REMARK SMILES IDX 44 105
REMARK H PARENT 79 14 68 58 36 69
REMARK Flexibility Score: inf
ROOT
ATOM      1  C   UNL     1       4.449   0.668  -1.401  1.00  0.00     0.202 C 
ENDROOT
BRANCH   1   2
ATOM      2  C   UNL     1       4.161  -0.744  -0.886  1.00  0.00     0.261 C 
BRANCH   2   3
ATOM      3  O   UNL     1       2.752  -0.892  -0.627  1.00  0.00    -0.460 OA
BRANCH   3   4
ATOM      4  C   UNL     1       2.117  -0.955   0.566  1.00  0.00     0.338 C 
ATOM      5  O   UNL     1       0.897  -1.103   0.584  1.00  0.00    -0.246 OA
BRANCH   4   6
ATOM      6  C   UNL     1       2.825  -0.867   1.874  1.00  0.00     0.060 A 
ATOM      7  C   UNL     1       3.924  -0.045   2.112  1.00  0.00     0.020 A 
ATOM      8  C   UNL     1       2.274  -1.566   2.962  1.00  0.00     0.020 A 
ATOM      9  C   UNL     1       4.501   0.033   3.370  1.00  0.00     0.052 A 
ATOM     10  C   UNL     1       2.842  -1.472   4.240  1.00  0.00     0.052 A 
ATOM     11  C   UNL     1       3.979  -0.692   4.435  1.00  0.00     0.125 A 
BRANCH  11  12
ATOM     12  N   UNL     1       4.651  -0.593   5.653  1.00  0.00    -0.235 N 
ATOM     13  C   UNL     1       5.612  -1.422   5.890  1.00  0.00     0.320 C 
ATOM     14  H   UNL     1       4.400   0.091   6.315  1.00  0.00     0.313 HD
ATOM     15  S   UNL     1       5.976  -2.878   4.997  1.00  0.00    -0.022 SA
ATOM     16  N   UNL     1       6.527  -1.225   6.885  1.00  0.00    -0.186 N 
ATOM     17  C   UNL     1       7.013  -3.503   6.344  1.00  0.00     0.178 C 
ATOM     18  C   UNL     1       7.429  -2.248   7.101  1.00  0.00     0.324 C 
ATOM     19  O   UNL     1       8.393  -2.182   7.854  1.00  0.00    -0.245 OA
BRANCH  16  20
ATOM     20  C   UNL     1       6.639   0.045   7.593  1.00  0.00     0.283 C 
BRANCH  20  21
ATOM     21  C   UNL     1       7.389   1.103   6.800  1.00  0.00    -0.006 A 
ATOM     22  C   UNL     1       8.757   1.326   7.006  1.00  0.00     0.008 A 
ATOM     23  C   UNL     1       6.726   1.881   5.838  1.00  0.00     0.008 A 
ATOM     24  C   UNL     1       9.438   2.301   6.268  1.00  0.00     0.000 A 
ATOM     25  C   UNL     1       7.411   2.830   5.078  1.00  0.00     0.000 A 
ATOM     26  C   UNL     1       8.768   3.044   5.297  1.00  0.00     0.000 A 
ENDBRANCH  20  21
ENDBRANCH  16  20
BRANCH  17  27
ATOM     27  C   UNL     1       8.156  -4.343   5.786  1.00  0.00     0.063 C 
BRANCH  27  28
ATOM     28  C   UNL     1       8.868  -5.146   6.851  1.00  0.00    -0.046 A 
ATOM     29  C   UNL     1      10.233  -4.932   7.091  1.00  0.00     0.007 A 
ATOM     30  C   UNL     1       8.178  -6.101   7.615  1.00  0.00     0.007 A 
ATOM     31  C   UNL     1      10.888  -5.636   8.100  1.00  0.00     0.039 A 
ATOM     32  C   UNL     1       8.834  -6.796   8.630  1.00  0.00     0.039 A 
ATOM     33  C   UNL     1      10.181  -6.554   8.866  1.00  0.00     0.123 A 
ATOM     34  F   UNL     1      10.808  -7.217   9.846  1.00  0.00    -0.207 F 
ENDBRANCH  27  28
ENDBRANCH  17  27
ENDBRANCH  11  12
ENDBRANCH   4   6
ENDBRANCH   3   4
ENDBRANCH   2   3
ENDBRANCH   1   2
BRANCH   1  35
ATOM     35  O   UNL     1       4.141   1.701  -0.465  1.00  0.00    -0.374 OA
BRANCH  35  36
ATOM     36  C   UNL     1       2.780   2.154  -0.460  1.00  0.00     0.202 C 
BRANCH  36  37
ATOM     37  C   UNL     1       2.754   3.682  -0.534  1.00  0.00     0.261 C 
BRANCH  37  38
ATOM     38  O   UNL     1       3.270   4.067  -1.816  1.00  0.00    -0.460 OA
BRANCH  38  39
ATOM     39  C   UNL     1       4.622   4.147  -1.871  1.00  0.00     0.338 C 
ATOM     40  O   UNL     1       5.391   4.377  -0.953  1.00  0.00    -0.246 OA
BRANCH  39  41
ATOM     41  C   UNL     1       5.048   3.693  -3.212  1.00  0.00     0.060 A 
ATOM     42  C   UNL     1       6.281   3.036  -3.328  1.00  0.00     0.016 A 
ATOM     43  C   UNL     1       4.230   3.864  -4.334  1.00  0.00     0.016 A 
ATOM     44  C   UNL     1       6.721   2.592  -4.573  1.00  0.00     0.010 A 
ATOM     45  C   UNL     1       4.667   3.421  -5.578  1.00  0.00     0.010 A 
ATOM     46  C   UNL     1       5.931   2.823  -5.706  1.00  0.00    -0.014 A 
BRANCH  46  47
ATOM     47  C   UNL     1       6.503   2.663  -7.058  1.00  0.00     0.031 A 
ATOM     48  C   UNL     1       7.044   3.891  -7.731  1.00  0.00     0.074 A 
ATOM     49  C   UNL     1       6.508   1.471  -7.675  1.00  0.00     0.049 A 
ATOM     50  N   UNL     1       7.503   4.043  -8.945  1.00  0.00    -0.248 NA
ATOM     51  C   UNL     1       7.054   5.125  -6.924  1.00  0.00     0.031 C 
ATOM     52  C   UNL     1       6.027   0.218  -7.099  1.00  0.00     0.029 A 
ATOM     53  N   UNL     1       6.920   1.130  -8.937  1.00  0.00    -0.354 N 
ATOM     54  C   UNL     1       7.847   5.384  -9.048  1.00  0.00     0.074 A 
ATOM     55  C   UNL     1       7.511   6.013  -7.791  1.00  0.00     0.031 C 
ATOM     56  C   UNL     1       6.158  -0.759  -8.014  1.00  0.00     0.029 A 
ATOM     57  C   UNL     1       6.703  -0.190  -9.246  1.00  0.00     0.049 A 
ATOM     58  H   UNL     1       7.332   1.769  -9.561  1.00  0.00     0.167 HD
ATOM     59  C   UNL     1       8.405   6.029 -10.098  1.00  0.00     0.037 A 
ATOM     60  C   UNL     1       6.905  -0.846 -10.404  1.00  0.00     0.037 A 
ATOM     61  C   UNL     1       8.727   5.393 -11.345  1.00  0.00     0.049 A 
ATOM     62  C   UNL     1       7.471  -0.091 -11.580  1.00  0.00     0.074 A 
ATOM     63  C   UNL     1       9.304   5.943 -12.474  1.00  0.00     0.029 A 
ATOM     64  N   UNL     1       8.488   4.054 -11.626  1.00  0.00    -0.354 N 
ATOM     65  N   UNL     1       7.823   1.170 -11.665  1.00  0.00    -0.248 NA
ATOM     66  C   UNL     1       7.671  -0.853 -12.821  1.00  0.00     0.031 C 
ATOM     67  C   UNL     1       9.373   4.948 -13.454  1.00  0.00     0.029 A 
ATOM     68  C   UNL     1       8.889   3.765 -12.918  1.00  0.00     0.049 A 
ATOM     69  H   UNL     1       8.092   3.407 -10.998  1.00  0.00     0.167 HD
ATOM     70  C   UNL     1       8.314   1.346 -12.953  1.00  0.00     0.074 A 
ATOM     71  C   UNL     1       8.223   0.058 -13.610  1.00  0.00     0.031 C 
ATOM     72  C   UNL     1       8.798   2.468 -13.540  1.00  0.00     0.037 A 
BRANCH  59  73
ATOM     73  C   UNL     1       8.678   7.496  -9.940  1.00  0.00     0.064 A 
ATOM     74  C   UNL     1       9.686   7.970  -9.087  1.00  0.00     0.173 A 
ATOM     75  C   UNL     1       7.928   8.440 -10.657  1.00  0.00     0.173 A 
ATOM     76  F   UNL     1      10.416   7.109  -8.361  1.00  0.00    -0.203 F 
ATOM     77  C   UNL     1       9.916   9.335  -8.938  1.00  0.00     0.198 A 
ATOM     78  C   UNL     1       8.181   9.803 -10.529  1.00  0.00     0.198 A 
ATOM     79  F   UNL     1       6.950   8.041 -11.484  1.00  0.00    -0.203 F 
ATOM     80  F   UNL     1      10.850   9.765  -8.078  1.00  0.00    -0.200 F 
ATOM     81  C   UNL     1       9.169  10.250  -9.664  1.00  0.00     0.200 A 
ATOM     82  F   UNL     1       7.463  10.686 -11.237  1.00  0.00    -0.200 F 
ATOM     83  F   UNL     1       9.395  11.563  -9.523  1.00  0.00    -0.200 F 
ENDBRANCH  59  73
BRANCH  60  84
ATOM     84  C   UNL     1       6.577  -2.292 -10.510  1.00  0.00     0.064 A 
ATOM     85  C   UNL     1       7.589  -3.251 -10.654  1.00  0.00     0.173 A 
ATOM     86  C   UNL     1       5.250  -2.745 -10.483  1.00  0.00     0.173 A 
ATOM     87  F   UNL     1       8.873  -2.866 -10.709  1.00  0.00    -0.203 F 
ATOM     88  C   UNL     1       7.286  -4.605 -10.784  1.00  0.00     0.198 A 
ATOM     89  C   UNL     1       4.949  -4.102 -10.586  1.00  0.00     0.198 A 
ATOM     90  F   UNL     1       4.244  -1.869 -10.348  1.00  0.00    -0.203 F 
ATOM     91  F   UNL     1       8.272  -5.495 -10.965  1.00  0.00    -0.200 F 
ATOM     92  C   UNL     1       5.967  -5.030 -10.745  1.00  0.00     0.200 A 
ATOM     93  F   UNL     1       3.674  -4.510 -10.535  1.00  0.00    -0.200 F 
ATOM     94  F   UNL     1       5.677  -6.332 -10.867  1.00  0.00    -0.200 F 
ENDBRANCH  60  84
BRANCH  72  95
ATOM     95  C   UNL     1       9.306   2.344 -14.947  1.00  0.00     0.064 A 
ATOM     96  C   UNL     1       8.436   2.179 -16.034  1.00  0.00     0.173 A 
ATOM     97  C   UNL     1      10.681   2.443 -15.212  1.00  0.00     0.173 A 
ATOM     98  F   UNL     1       7.115   2.067 -15.830  1.00  0.00    -0.203 F 
ATOM     99  C   UNL     1       8.926   2.093 -17.334  1.00  0.00     0.198 A 
ATOM    100  C   UNL     1      11.164   2.388 -16.515  1.00  0.00     0.198 A 
ATOM    101  F   UNL     1      11.553   2.610 -14.207  1.00  0.00    -0.203 F 
ATOM    102  F   UNL     1       8.081   1.890 -18.354  1.00  0.00    -0.200 F 
ATOM    103  C   UNL     1      10.288   2.205 -17.574  1.00  0.00     0.200 A 
ATOM    104  F   UNL     1      12.478   2.512 -16.747  1.00  0.00    -0.200 F 
ATOM    105  F   UNL     1      10.757   2.132 -18.827  1.00  0.00    -0.200 F 
ENDBRANCH  72  95
ENDBRANCH  46  47
ENDBRANCH  39  41
ENDBRANCH  38  39
ENDBRANCH  37  38
ENDBRANCH  36  37
ENDBRANCH  35  36
ENDBRANCH   1  35
TORSDOF 19
