REMARK SMILES O=C(Cc1ccc(NC(=O)C2CCCC2)cc1)OCCOCCOC(=O)c1ccc(-c2c3nc(c(-c4c(F)c(F)c(F)c(F)c4F)c4ccc([nH]4)c(-c4c(F)c(F)c(F)c(F)c4F)c4nc(c(-c5c(F)c(F)c(F)c(F)c5F)c5ccc2[nH]5)C=C4)C=C3)cc1
REMARK SMILES IDX 20 1 19 2 18 3 2 4 1 5 3 6 4 7 5 8 17 9 6 10 16 11 7 12 8 13
REMARK SMILES IDX 9 14 10 16 11 17 12 18 15 19 13 20 14 21 21 22 22 23 23 24
REMARK SMILES IDX 24 25 25 26 26 27 27 28 28 29 89 30 29 31 88 32 30 33 31 34
REMARK SMILES IDX 32 35 82 36 33 37 87 38 81 39 83 40 34 41 86 42 80 43 79 44
REMARK SMILES IDX 35 46 67 47 47 48 66 49 48 50 51 51 65 52 84 53 49 54 50 55
REMARK SMILES IDX 64 57 85 58 52 59 36 60 37 61 45 62 38 63 39 64 43 65 46 66
REMARK SMILES IDX 40 67 41 68 44 69 42 70 68 71 69 72 77 73 70 74 71 75 75 76
REMARK SMILES IDX 78 77 72 78 73 79 76 80 74 81 53 82 54 83 62 84 55 85 56 86
REMARK SMILES IDX 60 87 63 88 57 89 58 90 61 91 59 92
REMARK H PARENT 8 15 83 45 51 56
REMARK Flexibility Score: inf
ROOT
ATOM      1  C   UNL     1       4.318  -1.100  -0.015  1.00  0.00     0.202 C 
ENDROOT
BRANCH   1   2
ATOM      2  C   UNL     1       3.669  -0.124   0.966  1.00  0.00     0.261 C 
BRANCH   2   3
ATOM      3  O   UNL     1       2.270   0.103   0.758  1.00  0.00    -0.463 OA
BRANCH   3   4
ATOM      4  C   UNL     1       1.747   1.163   0.095  1.00  0.00     0.310 C 
ATOM      5  O   UNL     1       0.586   1.498   0.333  1.00  0.00    -0.252 OA
BRANCH   4   6
ATOM      6  C   UNL     1       2.538   1.855  -1.006  1.00  0.00     0.158 C 
BRANCH   6   7
ATOM      7  C   UNL     1       3.559   2.844  -0.518  1.00  0.00    -0.037 A 
ATOM      8  C   UNL     1       4.915   2.505  -0.464  1.00  0.00     0.006 A 
ATOM      9  C   UNL     1       3.151   4.076  -0.007  1.00  0.00     0.006 A 
ATOM     10  C   UNL     1       5.790   3.250   0.328  1.00  0.00     0.026 A 
ATOM     11  C   UNL     1       4.048   4.858   0.715  1.00  0.00     0.026 A 
ATOM     12  C   UNL     1       5.331   4.377   0.998  1.00  0.00     0.041 A 
BRANCH  12  13
ATOM     13  N   UNL     1       6.052   5.070   1.974  1.00  0.00    -0.326 N 
ATOM     14  C   UNL     1       6.903   4.699   2.966  1.00  0.00     0.227 C 
ATOM     15  H   UNL     1       5.912   6.043   1.934  1.00  0.00     0.169 HD
ATOM     16  O   UNL     1       7.382   5.629   3.633  1.00  0.00    -0.274 OA
BRANCH  14  17
ATOM     17  C   UNL     1       7.283   3.272   3.354  1.00  0.00     0.079 C 
ATOM     18  C   UNL     1       6.208   2.194   3.398  1.00  0.00     0.013 C 
ATOM     19  C   UNL     1       8.452   2.716   2.552  1.00  0.00     0.013 C 
ATOM     20  C   UNL     1       6.960   0.882   3.216  1.00  0.00     0.001 C 
ATOM     21  C   UNL     1       8.231   1.211   2.443  1.00  0.00     0.001 C 
ENDBRANCH  14  17
ENDBRANCH  12  13
ENDBRANCH   6   7
ENDBRANCH   4   6
ENDBRANCH   3   4
ENDBRANCH   2   3
ENDBRANCH   1   2
BRANCH   1  22
ATOM     22  O   UNL     1       3.982  -0.962  -1.393  1.00  0.00    -0.374 OA
BRANCH  22  23
ATOM     23  C   UNL     1       2.730  -1.535  -1.792  1.00  0.00     0.202 C 
BRANCH  23  24
ATOM     24  C   UNL     1       2.748  -3.025  -2.141  1.00  0.00     0.261 C 
BRANCH  24  25
ATOM     25  O   UNL     1       3.189  -3.825  -1.037  1.00  0.00    -0.460 OA
BRANCH  25  26
ATOM     26  C   UNL     1       4.492  -4.182  -1.100  1.00  0.00     0.338 C 
ATOM     27  O   UNL     1       5.266  -4.003  -2.031  1.00  0.00    -0.246 OA
BRANCH  26  28
ATOM     28  C   UNL     1       4.937  -4.671   0.217  1.00  0.00     0.060 A 
ATOM     29  C   UNL     1       6.202  -4.258   0.655  1.00  0.00     0.016 A 
ATOM     30  C   UNL     1       4.158  -5.530   0.998  1.00  0.00     0.016 A 
ATOM     31  C   UNL     1       6.729  -4.772   1.832  1.00  0.00     0.010 A 
ATOM     32  C   UNL     1       4.687  -6.044   2.184  1.00  0.00     0.010 A 
ATOM     33  C   UNL     1       5.995  -5.708   2.573  1.00  0.00    -0.014 A 
BRANCH  33  34
ATOM     34  C   UNL     1       6.686  -6.458   3.646  1.00  0.00     0.031 A 
ATOM     35  C   UNL     1       7.177  -7.849   3.352  1.00  0.00     0.074 A 
ATOM     36  C   UNL     1       6.943  -5.873   4.828  1.00  0.00     0.049 A 
ATOM     37  N   UNL     1       7.851  -8.672   4.113  1.00  0.00    -0.248 NA
ATOM     38  C   UNL     1       6.867  -8.385   2.016  1.00  0.00     0.031 C 
ATOM     39  C   UNL     1       6.533  -4.522   5.206  1.00  0.00     0.029 A 
ATOM     40  N   UNL     1       7.617  -6.342   5.925  1.00  0.00    -0.354 N 
ATOM     41  C   UNL     1       8.052  -9.813   3.347  1.00  0.00     0.074 A 
ATOM     42  C   UNL     1       7.386  -9.601   2.082  1.00  0.00     0.031 C 
ATOM     43  C   UNL     1       6.964  -4.270   6.453  1.00  0.00     0.029 A 
ATOM     44  C   UNL     1       7.656  -5.450   6.966  1.00  0.00     0.049 A 
ATOM     45  H   UNL     1       8.033  -7.234   5.962  1.00  0.00     0.167 HD
ATOM     46  C   UNL     1       8.751 -10.929   3.665  1.00  0.00     0.037 A 
ATOM     47  C   UNL     1       8.182  -5.583   8.198  1.00  0.00     0.037 A 
ATOM     48  C   UNL     1       9.401 -11.135   4.932  1.00  0.00     0.049 A 
ATOM     49  C   UNL     1       8.905  -6.859   8.547  1.00  0.00     0.074 A 
ATOM     50  C   UNL     1      10.128 -12.229   5.365  1.00  0.00     0.029 A 
ATOM     51  N   UNL     1       9.396 -10.220   5.977  1.00  0.00    -0.354 N 
ATOM     52  N   UNL     1       9.112  -7.924   7.809  1.00  0.00    -0.248 NA
ATOM     53  C   UNL     1       9.480  -6.943   9.895  1.00  0.00     0.031 C 
ATOM     54  C   UNL     1      10.520 -11.998   6.688  1.00  0.00     0.029 A 
ATOM     55  C   UNL     1      10.092 -10.733   7.059  1.00  0.00     0.049 A 
ATOM     56  H   UNL     1       8.963  -9.336   5.952  1.00  0.00     0.167 HD
ATOM     57  C   UNL     1       9.858  -8.794   8.594  1.00  0.00     0.074 A 
ATOM     58  C   UNL     1      10.094  -8.117   9.853  1.00  0.00     0.031 C 
ATOM     59  C   UNL     1      10.306 -10.042   8.306  1.00  0.00     0.037 A 
BRANCH  46  60
ATOM     60  C   UNL     1       8.832 -12.015   2.631  1.00  0.00     0.064 A 
ATOM     61  C   UNL     1       9.576 -11.854   1.451  1.00  0.00     0.173 A 
ATOM     62  C   UNL     1       8.185 -13.243   2.833  1.00  0.00     0.173 A 
ATOM     63  F   UNL     1      10.200 -10.693   1.199  1.00  0.00    -0.203 F 
ATOM     64  C   UNL     1       9.649 -12.873   0.503  1.00  0.00     0.198 A 
ATOM     65  C   UNL     1       8.286 -14.271   1.898  1.00  0.00     0.198 A 
ATOM     66  F   UNL     1       7.459 -13.451   3.942  1.00  0.00    -0.203 F 
ATOM     67  F   UNL     1      10.326 -12.678  -0.637  1.00  0.00    -0.200 F 
ATOM     68  C   UNL     1       9.012 -14.083   0.732  1.00  0.00     0.200 A 
ATOM     69  F   UNL     1       7.679 -15.444   2.126  1.00  0.00    -0.200 F 
ATOM     70  F   UNL     1       9.091 -15.066  -0.176  1.00  0.00    -0.200 F 
ENDBRANCH  46  60
BRANCH  47  71
ATOM     71  C   UNL     1       8.036  -4.487   9.193  1.00  0.00     0.064 A 
ATOM     72  C   UNL     1       9.146  -3.770   9.661  1.00  0.00     0.173 A 
ATOM     73  C   UNL     1       6.777  -4.149   9.713  1.00  0.00     0.173 A 
ATOM     74  F   UNL     1      10.374  -4.068   9.210  1.00  0.00    -0.203 F 
ATOM     75  C   UNL     1       9.007  -2.778  10.630  1.00  0.00     0.198 A 
ATOM     76  C   UNL     1       6.635  -3.134  10.656  1.00  0.00     0.198 A 
ATOM     77  F   UNL     1       5.681  -4.801   9.297  1.00  0.00    -0.203 F 
ATOM     78  F   UNL     1      10.092  -2.149  11.101  1.00  0.00    -0.200 F 
ATOM     79  C   UNL     1       7.751  -2.457  11.123  1.00  0.00     0.200 A 
ATOM     80  F   UNL     1       5.417  -2.816  11.116  1.00  0.00    -0.200 F 
ATOM     81  F   UNL     1       7.617  -1.502  12.053  1.00  0.00    -0.200 F 
ENDBRANCH  47  71
BRANCH  59  82
ATOM     82  C   UNL     1      11.114 -10.736   9.366  1.00  0.00     0.064 A 
ATOM     83  C   UNL     1      10.537 -11.167  10.571  1.00  0.00     0.173 A 
ATOM     84  C   UNL     1      12.483 -10.977   9.173  1.00  0.00     0.173 A 
ATOM     85  F   UNL     1       9.234 -10.951  10.810  1.00  0.00    -0.203 F 
ATOM     86  C   UNL     1      11.310 -11.766  11.562  1.00  0.00     0.198 A 
ATOM     87  C   UNL     1      13.245 -11.612  10.150  1.00  0.00     0.198 A 
ATOM     88  F   UNL     1      13.084 -10.598   8.035  1.00  0.00    -0.203 F 
ATOM     89  F   UNL     1      10.751 -12.100  12.733  1.00  0.00    -0.200 F 
ATOM     90  C   UNL     1      12.661 -11.992  11.349  1.00  0.00     0.200 A 
ATOM     91  F   UNL     1      14.547 -11.845   9.936  1.00  0.00    -0.200 F 
ATOM     92  F   UNL     1      13.404 -12.565  12.306  1.00  0.00    -0.200 F 
ENDBRANCH  59  82
ENDBRANCH  33  34
ENDBRANCH  26  28
ENDBRANCH  25  26
ENDBRANCH  24  25
ENDBRANCH  23  24
ENDBRANCH  22  23
ENDBRANCH   1  22
TORSDOF 17
