REMARK SMILES C=CCN(CC(=O)OCCOCCOC(=O)c1ccc(-c2c3nc(c(-c4c(F)c(F)c(F)c(F)c4F)c4ccc([nH]4)c(-c4c(F)c(F)c(F)c(F)c4F)c4nc(c(-c5c(F)c(F)c(F)c(F)c5F)c5ccc2[nH]5)C=C4)C=C3)cc1)c1nc2ccccc2s1
REMARK SMILES IDX 10 1 9 2 8 3 6 4 7 5 5 6 4 7 3 8 2 9 1 10 80 11 81 12 88 13
REMARK SMILES IDX 82 14 87 15 83 16 86 17 84 18 85 19 11 20 12 21 13 22 14 23
REMARK SMILES IDX 15 24 16 25 17 26 18 27 79 28 19 29 78 30 20 31 21 32 22 33
REMARK SMILES IDX 72 34 23 35 77 36 71 37 73 38 24 39 76 40 70 41 69 42 25 44
REMARK SMILES IDX 57 45 37 46 56 47 38 48 41 49 55 50 74 51 39 52 40 53 54 55
REMARK SMILES IDX 75 56 42 57 26 58 27 59 35 60 28 61 29 62 33 63 36 64 30 65
REMARK SMILES IDX 31 66 34 67 32 68 58 69 59 70 67 71 60 72 61 73 65 74 68 75
REMARK SMILES IDX 62 76 63 77 66 78 64 79 43 80 44 81 52 82 45 83 46 84 50 85
REMARK SMILES IDX 53 86 47 87 48 88 51 89 49 90
REMARK H PARENT 73 43 41 54
REMARK Flexibility Score: inf
ROOT
ATOM      1  C   UNL     1      -6.354   0.051   3.158  1.00  0.00     0.202 C 
ENDROOT
BRANCH   1   2
ATOM      2  C   UNL     1      -5.743   1.194   2.332  1.00  0.00     0.261 C 
BRANCH   2   3
ATOM      3  O   UNL     1      -4.300   1.186   2.236  1.00  0.00    -0.462 OA
BRANCH   3   4
ATOM      4  C   UNL     1      -3.692   2.315   2.707  1.00  0.00     0.325 C 
ATOM      5  O   UNL     1      -4.313   3.301   3.105  1.00  0.00    -0.250 OA
BRANCH   4   6
ATOM      6  C   UNL     1      -2.164   2.338   2.664  1.00  0.00     0.241 C 
BRANCH   6   7
ATOM      7  N   UNL     1      -1.438   1.095   2.359  1.00  0.00    -0.333 N 
BRANCH   7   8
ATOM      8  C   UNL     1      -1.238   0.760   0.955  1.00  0.00     0.146 C 
BRANCH   8   9
ATOM      9  C   UNL     1       0.189   1.019   0.556  1.00  0.00    -0.014 C 
ATOM     10  C   UNL     1       0.944   0.160  -0.145  1.00  0.00     0.006 C 
ENDBRANCH   8   9
ENDBRANCH   7   8
BRANCH   7  11
ATOM     11  C   UNL     1      -0.977   0.314   3.386  1.00  0.00     0.187 A 
ATOM     12  N   UNL     1      -1.433   0.388   4.622  1.00  0.00    -0.220 NA
ATOM     13  S   UNL     1       0.256  -0.898   3.203  1.00  0.00    -0.097 S 
ATOM     14  C   UNL     1      -1.023  -0.712   5.372  1.00  0.00     0.084 A 
ATOM     15  C   UNL     1      -0.088  -1.535   4.752  1.00  0.00     0.056 A 
ATOM     16  C   UNL     1      -1.548  -1.114   6.619  1.00  0.00     0.030 A 
ATOM     17  C   UNL     1       0.390  -2.712   5.349  1.00  0.00     0.021 A 
ATOM     18  C   UNL     1      -1.155  -2.337   7.177  1.00  0.00     0.002 A 
ATOM     19  C   UNL     1      -0.184  -3.115   6.557  1.00  0.00     0.002 A 
ENDBRANCH   7  11
ENDBRANCH   6   7
ENDBRANCH   4   6
ENDBRANCH   3   4
ENDBRANCH   2   3
ENDBRANCH   1   2
BRANCH   1  20
ATOM     20  O   UNL     1      -5.876  -0.200   4.473  1.00  0.00    -0.374 OA
BRANCH  20  21
ATOM     21  C   UNL     1      -4.488  -0.454   4.638  1.00  0.00     0.202 C 
BRANCH  21  22
ATOM     22  C   UNL     1      -3.888  -1.726   4.022  1.00  0.00     0.261 C 
BRANCH  22  23
ATOM     23  O   UNL     1      -4.432  -2.114   2.771  1.00  0.00    -0.460 OA
BRANCH  23  24
ATOM     24  C   UNL     1      -5.239  -3.190   2.835  1.00  0.00     0.338 C 
ATOM     25  O   UNL     1      -5.574  -3.848   3.804  1.00  0.00    -0.246 OA
BRANCH  24  26
ATOM     26  C   UNL     1      -5.756  -3.387   1.487  1.00  0.00     0.060 A 
ATOM     27  C   UNL     1      -7.130  -3.236   1.281  1.00  0.00     0.016 A 
ATOM     28  C   UNL     1      -4.880  -3.711   0.449  1.00  0.00     0.016 A 
ATOM     29  C   UNL     1      -7.649  -3.461   0.017  1.00  0.00     0.010 A 
ATOM     30  C   UNL     1      -5.401  -3.933  -0.816  1.00  0.00     0.010 A 
ATOM     31  C   UNL     1      -6.789  -3.847  -1.020  1.00  0.00    -0.014 A 
BRANCH  31  32
ATOM     32  C   UNL     1      -7.353  -4.333  -2.288  1.00  0.00     0.031 A 
ATOM     33  C   UNL     1      -7.395  -5.813  -2.517  1.00  0.00     0.074 A 
ATOM     34  C   UNL     1      -7.798  -3.458  -3.201  1.00  0.00     0.049 A 
ATOM     35  N   UNL     1      -7.765  -6.478  -3.578  1.00  0.00    -0.248 NA
ATOM     36  C   UNL     1      -6.942  -6.660  -1.400  1.00  0.00     0.031 C 
ATOM     37  C   UNL     1      -7.823  -2.006  -3.034  1.00  0.00     0.029 A 
ATOM     38  N   UNL     1      -8.307  -3.666  -4.454  1.00  0.00    -0.354 N 
ATOM     39  C   UNL     1      -7.572  -7.816  -3.263  1.00  0.00     0.074 A 
ATOM     40  C   UNL     1      -7.017  -7.870  -1.930  1.00  0.00     0.031 C 
ATOM     41  C   UNL     1      -8.324  -1.450  -4.150  1.00  0.00     0.029 A 
ATOM     42  C   UNL     1      -8.610  -2.505  -5.117  1.00  0.00     0.049 A 
ATOM     43  H   UNL     1      -8.442  -4.561  -4.840  1.00  0.00     0.167 HD
ATOM     44  C   UNL     1      -7.846  -8.899  -4.026  1.00  0.00     0.037 A 
ATOM     45  C   UNL     1      -9.048  -2.330  -6.377  1.00  0.00     0.037 A 
ATOM     46  C   UNL     1      -8.399  -8.809  -5.350  1.00  0.00     0.049 A 
ATOM     47  C   UNL     1      -9.273  -3.549  -7.233  1.00  0.00     0.074 A 
ATOM     48  C   UNL     1      -8.749  -9.831  -6.212  1.00  0.00     0.029 A 
ATOM     49  N   UNL     1      -8.670  -7.615  -6.007  1.00  0.00    -0.354 N 
ATOM     50  N   UNL     1      -9.126  -4.816  -6.925  1.00  0.00    -0.248 NA
ATOM     51  C   UNL     1      -9.720  -3.316  -8.612  1.00  0.00     0.031 C 
ATOM     52  C   UNL     1      -9.165  -9.255  -7.416  1.00  0.00     0.029 A 
ATOM     53  C   UNL     1      -9.148  -7.875  -7.279  1.00  0.00     0.049 A 
ATOM     54  H   UNL     1      -8.541  -6.718  -5.624  1.00  0.00     0.167 HD
ATOM     55  C   UNL     1      -9.502  -5.532  -8.053  1.00  0.00     0.074 A 
ATOM     56  C   UNL     1      -9.883  -4.555  -9.053  1.00  0.00     0.031 C 
ATOM     57  C   UNL     1      -9.537  -6.875  -8.244  1.00  0.00     0.037 A 
BRANCH  44  58
ATOM     58  C   UNL     1      -7.508 -10.250  -3.463  1.00  0.00     0.064 A 
ATOM     59  C   UNL     1      -8.181 -10.785  -2.353  1.00  0.00     0.173 A 
ATOM     60  C   UNL     1      -6.489 -11.021  -4.042  1.00  0.00     0.173 A 
ATOM     61  F   UNL     1      -9.154 -10.085  -1.750  1.00  0.00    -0.203 F 
ATOM     62  C   UNL     1      -7.819 -12.021  -1.821  1.00  0.00     0.198 A 
ATOM     63  C   UNL     1      -6.155 -12.272  -3.530  1.00  0.00     0.198 A 
ATOM     64  F   UNL     1      -5.812 -10.561  -5.104  1.00  0.00    -0.203 F 
ATOM     65  F   UNL     1      -8.431 -12.480  -0.720  1.00  0.00    -0.200 F 
ATOM     66  C   UNL     1      -6.811 -12.766  -2.413  1.00  0.00     0.200 A 
ATOM     67  F   UNL     1      -5.189 -12.996  -4.113  1.00  0.00    -0.200 F 
ATOM     68  F   UNL     1      -6.464 -13.954  -1.901  1.00  0.00    -0.200 F 
ENDBRANCH  44  58
BRANCH  45  69
ATOM     69  C   UNL     1      -9.313  -0.962  -6.888  1.00  0.00     0.064 A 
ATOM     70  C   UNL     1     -10.619  -0.546  -7.181  1.00  0.00     0.173 A 
ATOM     71  C   UNL     1      -8.276  -0.037  -7.084  1.00  0.00     0.173 A 
ATOM     72  F   UNL     1     -11.643  -1.398  -7.024  1.00  0.00    -0.203 F 
ATOM     73  C   UNL     1     -10.876   0.734  -7.667  1.00  0.00     0.198 A 
ATOM     74  C   UNL     1      -8.538   1.253  -7.541  1.00  0.00     0.198 A 
ATOM     75  F   UNL     1      -7.008  -0.380  -6.812  1.00  0.00    -0.203 F 
ATOM     76  F   UNL     1     -12.130   1.090  -7.977  1.00  0.00    -0.200 F 
ATOM     77  C   UNL     1      -9.837   1.635  -7.840  1.00  0.00     0.200 A 
ATOM     78  F   UNL     1      -7.532   2.126  -7.689  1.00  0.00    -0.200 F 
ATOM     79  F   UNL     1     -10.086   2.868  -8.300  1.00  0.00    -0.200 F 
ENDBRANCH  45  69
BRANCH  57  80
ATOM     80  C   UNL     1     -10.058  -7.371  -9.561  1.00  0.00     0.064 A 
ATOM     81  C   UNL     1      -9.315  -7.251 -10.743  1.00  0.00     0.173 A 
ATOM     82  C   UNL     1     -11.285  -8.051  -9.619  1.00  0.00     0.173 A 
ATOM     83  F   UNL     1      -8.144  -6.597 -10.742  1.00  0.00    -0.203 F 
ATOM     84  C   UNL     1      -9.789  -7.782 -11.940  1.00  0.00     0.198 A 
ATOM     85  C   UNL     1     -11.738  -8.611 -10.808  1.00  0.00     0.198 A 
ATOM     86  F   UNL     1     -12.029  -8.198  -8.512  1.00  0.00    -0.203 F 
ATOM     87  F   UNL     1      -9.082  -7.624 -13.067  1.00  0.00    -0.200 F 
ATOM     88  C   UNL     1     -10.992  -8.472 -11.968  1.00  0.00     0.200 A 
ATOM     89  F   UNL     1     -12.890  -9.294 -10.828  1.00  0.00    -0.200 F 
ATOM     90  F   UNL     1     -11.435  -9.003 -13.116  1.00  0.00    -0.200 F 
ENDBRANCH  57  80
ENDBRANCH  31  32
ENDBRANCH  24  26
ENDBRANCH  23  24
ENDBRANCH  22  23
ENDBRANCH  21  22
ENDBRANCH  20  21
ENDBRANCH   1  20
TORSDOF 18
