REMARK SMILES [NH3+][C@H]1C=C[C@@H](C(=O)NC2(CC(=O)OCCOCCOC(=O)c3ccc(-c4c5nc(c(-c6c(F)c(F)c(F)c(F)c6F)c6ccc([nH]6)c(-c6c(F)c(F)c(F)c(F)c6F)c6nc(c(-c7c(F)c(F)c(F)c(F)c7F)c7ccc4[nH]7)C=C6)C=C5)cc3)CCCCC2)C1
REMARK SMILES IDX 15 1 14 2 13 3 11 4 12 5 10 6 9 7 85 8 89 9 86 10 88 11
REMARK SMILES IDX 87 12 8 13 6 14 7 15 5 17 2 18 3 19 90 20 4 21 1 22 16 26
REMARK SMILES IDX 17 27 18 28 19 29 20 30 21 31 22 32 23 33 84 34 24 35 83 36
REMARK SMILES IDX 25 37 26 38 27 39 77 40 28 41 82 42 76 43 78 44 29 45 81 46
REMARK SMILES IDX 75 47 74 48 30 50 62 51 42 52 61 53 43 54 46 55 60 56 79 57
REMARK SMILES IDX 44 58 45 59 59 61 80 62 47 63 31 64 32 65 40 66 33 67 34 68
REMARK SMILES IDX 38 69 41 70 35 71 36 72 39 73 37 74 63 75 64 76 72 77 65 78
REMARK SMILES IDX 66 79 70 80 73 81 67 82 68 83 71 84 69 85 48 86 49 87 57 88
REMARK SMILES IDX 50 89 51 90 55 91 58 92 52 93 53 94 56 95 54 96
REMARK H PARENT 8 16 1 23 1 24 1 25 78 49 46 60
REMARK Flexibility Score: inf
ROOT
ATOM      1  C   UNL     1       3.781  -5.923   1.058  1.00  0.00     0.202 C 
ENDROOT
BRANCH   1   2
ATOM      2  C   UNL     1       4.519  -4.703   1.610  1.00  0.00     0.261 C 
BRANCH   2   3
ATOM      3  O   UNL     1       4.394  -3.587   0.706  1.00  0.00    -0.463 OA
BRANCH   3   4
ATOM      4  C   UNL     1       5.537  -3.145   0.145  1.00  0.00     0.308 C 
ATOM      5  O   UNL     1       6.655  -3.569   0.425  1.00  0.00    -0.252 OA
BRANCH   4   6
ATOM      6  C   UNL     1       5.369  -2.037  -0.872  1.00  0.00     0.151 C 
BRANCH   6   7
ATOM      7  C   UNL     1       3.990  -1.512  -1.406  1.00  0.00     0.051 C 
ATOM      8  C   UNL     1       4.318  -0.172  -2.131  1.00  0.00     0.029 C 
ATOM      9  C   UNL     1       2.977  -1.240  -0.290  1.00  0.00     0.029 C 
ATOM     10  C   UNL     1       4.654   0.993  -1.192  1.00  0.00     0.002 C 
ATOM     11  C   UNL     1       3.413  -0.160   0.687  1.00  0.00     0.002 C 
ATOM     12  C   UNL     1       3.644   1.150  -0.060  1.00  0.00     0.000 C 
BRANCH   7  13
ATOM     13  N   UNL     1       3.455  -2.476  -2.416  1.00  0.00    -0.350 N 
ATOM     14  C   UNL     1       2.371  -2.623  -3.216  1.00  0.00     0.227 C 
ATOM     15  O   UNL     1       2.483  -3.549  -4.037  1.00  0.00    -0.274 OA
ATOM     16  H   UNL     1       4.076  -3.230  -2.535  1.00  0.00     0.164 HD
BRANCH  14  17
ATOM     17  C   UNL     1       1.054  -1.825  -3.222  1.00  0.00     0.107 C 
ATOM     18  C   UNL     1      -0.496  -0.604  -1.748  1.00  0.00     0.205 C 
ATOM     19  C   UNL     1       0.300   0.313  -2.615  1.00  0.00     0.033 C 
ATOM     20  C   UNL     1       0.134  -1.990  -2.008  1.00  0.00     0.087 C 
ATOM     21  C   UNL     1       1.138  -0.349  -3.421  1.00  0.00    -0.012 C 
BRANCH  18  22
ATOM     22  N   UNL     1      -0.469  -0.189  -0.357  1.00  0.00    -0.352 N 
ATOM     23  H   UNL     1      -0.901   0.731  -0.268  1.00  0.00     0.345 HD
ATOM     24  H   UNL     1       0.498  -0.143  -0.035  1.00  0.00     0.345 HD
ATOM     25  H   UNL     1      -0.985  -0.863   0.209  1.00  0.00     0.345 HD
ENDBRANCH  18  22
ENDBRANCH  14  17
ENDBRANCH   7  13
ENDBRANCH   6   7
ENDBRANCH   4   6
ENDBRANCH   3   4
ENDBRANCH   2   3
ENDBRANCH   1   2
BRANCH   1  26
ATOM     26  O   UNL     1       4.377  -6.503  -0.103  1.00  0.00    -0.374 OA
BRANCH  26  27
ATOM     27  C   UNL     1       4.072  -5.881  -1.353  1.00  0.00     0.202 C 
BRANCH  27  28
ATOM     28  C   UNL     1       2.739  -6.303  -1.974  1.00  0.00     0.261 C 
BRANCH  28  29
ATOM     29  O   UNL     1       1.631  -5.788  -1.208  1.00  0.00    -0.460 OA
BRANCH  29  30
ATOM     30  C   UNL     1       0.868  -6.735  -0.621  1.00  0.00     0.338 C 
ATOM     31  O   UNL     1       0.939  -7.949  -0.771  1.00  0.00    -0.246 OA
BRANCH  30  32
ATOM     32  C   UNL     1       0.003  -6.132   0.409  1.00  0.00     0.060 A 
ATOM     33  C   UNL     1       0.004  -6.736   1.672  1.00  0.00     0.016 A 
ATOM     34  C   UNL     1      -0.856  -5.065   0.136  1.00  0.00     0.016 A 
ATOM     35  C   UNL     1      -0.906  -6.327   2.641  1.00  0.00     0.010 A 
ATOM     36  C   UNL     1      -1.766  -4.647   1.115  1.00  0.00     0.010 A 
ATOM     37  C   UNL     1      -1.829  -5.311   2.354  1.00  0.00    -0.014 A 
BRANCH  37  38
ATOM     38  C   UNL     1      -2.955  -5.082   3.293  1.00  0.00     0.031 A 
ATOM     39  C   UNL     1      -4.306  -5.662   2.969  1.00  0.00     0.074 A 
ATOM     40  C   UNL     1      -2.763  -4.429   4.454  1.00  0.00     0.049 A 
ATOM     41  N   UNL     1      -5.419  -5.612   3.657  1.00  0.00    -0.248 NA
ATOM     42  C   UNL     1      -4.420  -6.397   1.698  1.00  0.00     0.031 C 
ATOM     43  C   UNL     1      -1.497  -3.849   4.896  1.00  0.00     0.029 A 
ATOM     44  N   UNL     1      -3.637  -4.149   5.474  1.00  0.00    -0.354 N 
ATOM     45  C   UNL     1      -6.362  -6.298   2.901  1.00  0.00     0.074 A 
ATOM     46  C   UNL     1      -5.702  -6.731   1.689  1.00  0.00     0.031 C 
ATOM     47  C   UNL     1      -1.677  -3.274   6.097  1.00  0.00     0.029 A 
ATOM     48  C   UNL     1      -3.075  -3.426   6.497  1.00  0.00     0.049 A 
ATOM     49  H   UNL     1      -4.578  -4.439   5.473  1.00  0.00     0.167 HD
ATOM     50  C   UNL     1      -7.658  -6.554   3.197  1.00  0.00     0.037 A 
ATOM     51  C   UNL     1      -3.631  -2.930   7.620  1.00  0.00     0.037 A 
ATOM     52  C   UNL     1      -8.309  -6.148   4.413  1.00  0.00     0.049 A 
ATOM     53  C   UNL     1      -5.086  -3.201   7.908  1.00  0.00     0.074 A 
ATOM     54  C   UNL     1      -9.607  -6.401   4.822  1.00  0.00     0.029 A 
ATOM     55  N   UNL     1      -7.712  -5.400   5.416  1.00  0.00    -0.354 N 
ATOM     56  N   UNL     1      -5.955  -3.889   7.207  1.00  0.00    -0.248 NA
ATOM     57  C   UNL     1      -5.635  -2.633   9.148  1.00  0.00     0.031 C 
ATOM     58  C   UNL     1      -9.810  -5.765   6.051  1.00  0.00     0.029 A 
ATOM     59  C   UNL     1      -8.623  -5.158   6.430  1.00  0.00     0.049 A 
ATOM     60  H   UNL     1      -6.778  -5.087   5.408  1.00  0.00     0.167 HD
ATOM     61  C   UNL     1      -7.141  -3.858   7.931  1.00  0.00     0.074 A 
ATOM     62  C   UNL     1      -6.876  -3.098   9.134  1.00  0.00     0.031 C 
ATOM     63  C   UNL     1      -8.341  -4.408   7.626  1.00  0.00     0.037 A 
BRANCH  50  64
ATOM     64  C   UNL     1      -8.473  -7.299   2.182  1.00  0.00     0.064 A 
ATOM     65  C   UNL     1      -8.303  -8.673   1.962  1.00  0.00     0.173 A 
ATOM     66  C   UNL     1      -9.482  -6.638   1.464  1.00  0.00     0.173 A 
ATOM     67  F   UNL     1      -7.344  -9.347   2.614  1.00  0.00    -0.203 F 
ATOM     68  C   UNL     1      -9.104  -9.357   1.051  1.00  0.00     0.198 A 
ATOM     69  C   UNL     1     -10.297  -7.329   0.573  1.00  0.00     0.198 A 
ATOM     70  F   UNL     1      -9.687  -5.324   1.641  1.00  0.00    -0.203 F 
ATOM     71  F   UNL     1      -8.904 -10.664   0.833  1.00  0.00    -0.200 F 
ATOM     72  C   UNL     1     -10.106  -8.686   0.364  1.00  0.00     0.200 A 
ATOM     73  F   UNL     1     -11.272  -6.682  -0.081  1.00  0.00    -0.200 F 
ATOM     74  F   UNL     1     -10.885  -9.348  -0.502  1.00  0.00    -0.200 F 
ENDBRANCH  50  64
BRANCH  51  75
ATOM     75  C   UNL     1      -2.817  -2.110   8.555  1.00  0.00     0.064 A 
ATOM     76  C   UNL     1      -2.496  -2.570   9.839  1.00  0.00     0.173 A 
ATOM     77  C   UNL     1      -2.371  -0.831   8.190  1.00  0.00     0.173 A 
ATOM     78  F   UNL     1      -2.921  -3.775  10.245  1.00  0.00    -0.203 F 
ATOM     79  C   UNL     1      -1.782  -1.772  10.732  1.00  0.00     0.198 A 
ATOM     80  C   UNL     1      -1.632  -0.046   9.072  1.00  0.00     0.198 A 
ATOM     81  F   UNL     1      -2.651  -0.344   6.972  1.00  0.00    -0.203 F 
ATOM     82  F   UNL     1      -1.535  -2.214  11.972  1.00  0.00    -0.200 F 
ATOM     83  C   UNL     1      -1.347  -0.513  10.346  1.00  0.00     0.200 A 
ATOM     84  F   UNL     1      -1.203   1.164   8.690  1.00  0.00    -0.200 F 
ATOM     85  F   UNL     1      -0.661   0.254  11.204  1.00  0.00    -0.200 F 
ENDBRANCH  51  75
BRANCH  63  86
ATOM     86  C   UNL     1      -9.453  -4.239   8.621  1.00  0.00     0.064 A 
ATOM     87  C   UNL     1     -10.092  -3.004   8.804  1.00  0.00     0.173 A 
ATOM     88  C   UNL     1      -9.913  -5.335   9.366  1.00  0.00     0.173 A 
ATOM     89  F   UNL     1      -9.680  -1.923   8.126  1.00  0.00    -0.203 F 
ATOM     90  C   UNL     1     -11.137  -2.869   9.715  1.00  0.00     0.198 A 
ATOM     91  C   UNL     1     -10.976  -5.203  10.254  1.00  0.00     0.198 A 
ATOM     92  F   UNL     1      -9.340  -6.540   9.221  1.00  0.00    -0.203 F 
ATOM     93  F   UNL     1     -11.705  -1.670   9.906  1.00  0.00    -0.200 F 
ATOM     94  C   UNL     1     -11.583  -3.969  10.433  1.00  0.00     0.200 A 
ATOM     95  F   UNL     1     -11.415  -6.270  10.936  1.00  0.00    -0.200 F 
ATOM     96  F   UNL     1     -12.594  -3.838  11.303  1.00  0.00    -0.200 F 
ENDBRANCH  63  86
ENDBRANCH  37  38
ENDBRANCH  30  32
ENDBRANCH  29  30
ENDBRANCH  28  29
ENDBRANCH  27  28
ENDBRANCH  26  27
ENDBRANCH   1  26
TORSDOF 18
