REMARK SMILES CCOc1ccc(C(=O)NC(=S)Nc2cccc(C(=O)OCCOCCOC(=O)c3ccc(-c4c5nc(c(-c6c(F)c(F)c(F)c(F)c6F)c6ccc([nH]6)c(-c6c(F)c(F)c(F)c(F)c6F)c6nc(c(-c7c(F)c(F)c(F)c(F)c7F)c7ccc4[nH]7)C=C6)C=C5)cc3)c2C)cc1Br
REMARK SMILES IDX 22 1 21 2 19 3 20 4 18 5 14 6 15 7 93 8 16 9 94 10 17 11
REMARK SMILES IDX 13 12 11 14 12 15 10 16 8 17 9 18 7 20 4 21 5 22 96 23 6 24
REMARK SMILES IDX 95 25 97 26 3 27 2 28 1 29 23 30 24 31 25 32 26 33 27 34
REMARK SMILES IDX 28 35 29 36 30 37 31 38 92 39 32 40 91 41 33 42 34 43 35 44
REMARK SMILES IDX 85 45 36 46 90 47 84 48 86 49 37 50 89 51 83 52 82 53 38 55
REMARK SMILES IDX 70 56 50 57 69 58 51 59 54 60 68 61 87 62 52 63 53 64 67 66
REMARK SMILES IDX 88 67 55 68 39 69 40 70 48 71 41 72 42 73 46 74 49 75 43 76
REMARK SMILES IDX 44 77 47 78 45 79 71 80 72 81 80 82 73 83 74 84 78 85 81 86
REMARK SMILES IDX 75 87 76 88 79 89 77 90 56 91 57 92 65 93 58 94 59 95 63 96
REMARK SMILES IDX 66 97 60 98 61 99 64 100 62 101
REMARK H PARENT 13 13 10 19 86 54 54 65
REMARK Flexibility Score: inf
ROOT
ATOM      1  C   UNL     1       0.367   4.219   0.347  1.00  0.00     0.261 C 
ENDROOT
BRANCH   1   2
ATOM      2  O   UNL     1       1.690   3.587   0.346  1.00  0.00    -0.460 OA
BRANCH   2   3
ATOM      3  C   UNL     1       2.353   2.649   1.086  1.00  0.00     0.338 C 
ATOM      4  O   UNL     1       2.131   2.182   2.181  1.00  0.00    -0.246 OA
BRANCH   3   5
ATOM      5  C   UNL     1       3.410   2.176   0.154  1.00  0.00     0.065 A 
ATOM      6  C   UNL     1       5.278   0.130  -1.353  1.00  0.00     0.044 A 
ATOM      7  C   UNL     1       5.390   1.074  -2.860  1.00  0.00     0.026 A 
ATOM      8  C   UNL     1       4.212   0.593   0.053  1.00  0.00    -0.013 A 
ATOM      9  C   UNL     1       4.547   2.616  -2.899  1.00  0.00     0.003 A 
ATOM     10  C   UNL     1       4.102  -0.308   1.246  1.00  0.00     0.047 C 
ATOM     11  C   UNL     1       3.600   3.261  -1.236  1.00  0.00     0.016 A 
BRANCH   6  12
ATOM     12  N   UNL     1       6.622  -0.148  -0.984  1.00  0.00    -0.332 N 
ATOM     13  H   UNL     1       6.773  -0.948  -0.430  1.00  0.00     0.169 HD
BRANCH  12  14
ATOM     14  C   UNL     1       7.743   0.593  -1.324  1.00  0.00     0.177 C 
ATOM     15  S   UNL     1       9.202  -0.234  -1.354  1.00  0.00    -0.040 S 
BRANCH  14  16
ATOM     16  N   UNL     1       7.779   2.032  -1.602  1.00  0.00    -0.299 N 
ATOM     17  C   UNL     1       7.199   3.453  -1.754  1.00  0.00     0.257 C 
ATOM     18  O   UNL     1       7.945   4.356  -2.124  1.00  0.00    -0.269 OA
ATOM     19  H   UNL     1       8.729   2.175  -1.818  1.00  0.00     0.172 HD
BRANCH  17  20
ATOM     20  C   UNL     1       5.724   3.752  -1.533  1.00  0.00     0.041 A 
ATOM     21  C   UNL     1       2.372   2.540  -2.785  1.00  0.00     0.133 A 
ATOM     22  C   UNL     1       2.981   4.200  -3.092  1.00  0.00     0.048 A 
ATOM     23  C   UNL     1       3.433   1.431  -1.871  1.00  0.00     0.060 A 
ATOM     24  C   UNL     1       4.622   4.770  -2.512  1.00  0.00     0.018 A 
ATOM     25  C   UNL     1       5.144   2.196  -1.116  1.00  0.00     0.033 A 
ATOM     26  Br  UNL     1       3.147  -0.402  -3.134  1.00  0.00    -0.047 Br
BRANCH  21  27
ATOM     27  O   UNL     1       1.073   2.101  -2.969  1.00  0.00    -0.493 OA
BRANCH  27  28
ATOM     28  C   UNL     1       0.537   1.363  -1.826  1.00  0.00     0.226 C 
ATOM     29  C   UNL     1       0.584  -0.163  -1.690  1.00  0.00     0.049 C 
ENDBRANCH  27  28
ENDBRANCH  21  27
ENDBRANCH  17  20
ENDBRANCH  14  16
ENDBRANCH  12  14
ENDBRANCH   6  12
ENDBRANCH   3   5
ENDBRANCH   2   3
ENDBRANCH   1   2
BRANCH   1  30
ATOM     30  C   UNL     1      -0.788   3.298   0.231  1.00  0.00     0.202 C 
BRANCH  30  31
ATOM     31  O   UNL     1      -0.451   2.260   1.109  1.00  0.00    -0.374 OA
BRANCH  31  32
ATOM     32  C   UNL     1      -1.080   1.012   1.081  1.00  0.00     0.202 C 
BRANCH  32  33
ATOM     33  C   UNL     1      -2.522   1.046   0.615  1.00  0.00     0.261 C 
BRANCH  33  34
ATOM     34  O   UNL     1      -3.380   1.517   1.699  1.00  0.00    -0.460 OA
BRANCH  34  35
ATOM     35  C   UNL     1      -3.571   2.864   1.875  1.00  0.00     0.338 C 
ATOM     36  O   UNL     1      -4.273   3.547   1.148  1.00  0.00    -0.246 OA
BRANCH  35  37
ATOM     37  C   UNL     1      -2.695   3.443   2.962  1.00  0.00     0.060 A 
ATOM     38  C   UNL     1      -2.449   4.828   3.064  1.00  0.00     0.016 A 
ATOM     39  C   UNL     1      -1.798   2.595   3.557  1.00  0.00     0.016 A 
ATOM     40  C   UNL     1      -1.185   5.317   3.493  1.00  0.00     0.010 A 
ATOM     41  C   UNL     1      -0.502   3.068   3.648  1.00  0.00     0.010 A 
ATOM     42  C   UNL     1      -0.136   4.422   3.630  1.00  0.00    -0.014 A 
BRANCH  42  43
ATOM     43  C   UNL     1       1.328   4.681   3.779  1.00  0.00     0.031 A 
ATOM     44  C   UNL     1       1.897   4.059   5.029  1.00  0.00     0.074 A 
ATOM     45  C   UNL     1       2.166   5.304   2.878  1.00  0.00     0.049 A 
ATOM     46  N   UNL     1       2.772   4.641   5.776  1.00  0.00    -0.248 NA
ATOM     47  C   UNL     1       1.415   2.821   5.679  1.00  0.00     0.031 C 
ATOM     48  C   UNL     1       3.638   5.223   2.783  1.00  0.00     0.029 A 
ATOM     49  N   UNL     1       1.897   6.086   1.724  1.00  0.00    -0.354 N 
ATOM     50  C   UNL     1       3.214   3.681   6.672  1.00  0.00     0.074 A 
ATOM     51  C   UNL     1       2.161   2.736   6.774  1.00  0.00     0.031 C 
ATOM     52  C   UNL     1       4.114   6.142   1.911  1.00  0.00     0.029 A 
ATOM     53  C   UNL     1       2.989   6.924   1.441  1.00  0.00     0.049 A 
ATOM     54  H   UNL     1       1.066   6.047   1.197  1.00  0.00     0.167 HD
ATOM     55  C   UNL     1       4.535   3.618   6.984  1.00  0.00     0.037 A 
ATOM     56  C   UNL     1       2.856   8.276   1.349  1.00  0.00     0.037 A 
ATOM     57  C   UNL     1       5.237   4.636   6.212  1.00  0.00     0.049 A 
ATOM     58  C   UNL     1       3.601   8.849   2.511  1.00  0.00     0.074 A 
ATOM     59  C   UNL     1       6.056   4.579   5.099  1.00  0.00     0.029 A 
ATOM     60  N   UNL     1       4.840   5.955   6.343  1.00  0.00    -0.354 N 
ATOM     61  N   UNL     1       3.795   8.149   3.596  1.00  0.00    -0.248 NA
ATOM     62  C   UNL     1       4.301  10.127   2.522  1.00  0.00     0.031 C 
ATOM     63  C   UNL     1       6.193   5.906   4.603  1.00  0.00     0.029 A 
ATOM     64  C   UNL     1       5.434   6.752   5.399  1.00  0.00     0.049 A 
ATOM     65  H   UNL     1       4.211   6.280   7.028  1.00  0.00     0.167 HD
ATOM     66  C   UNL     1       4.719   8.778   4.364  1.00  0.00     0.074 A 
ATOM     67  C   UNL     1       4.969  10.035   3.687  1.00  0.00     0.031 C 
ATOM     68  C   UNL     1       5.254   8.190   5.468  1.00  0.00     0.037 A 
BRANCH  55  69
ATOM     69  C   UNL     1       5.273   2.529   7.741  1.00  0.00     0.064 A 
ATOM     70  C   UNL     1       6.681   2.611   7.839  1.00  0.00     0.173 A 
ATOM     71  C   UNL     1       4.717   1.410   8.397  1.00  0.00     0.173 A 
ATOM     72  F   UNL     1       7.360   3.643   7.321  1.00  0.00    -0.203 F 
ATOM     73  C   UNL     1       7.458   1.651   8.489  1.00  0.00     0.198 A 
ATOM     74  C   UNL     1       5.496   0.448   9.053  1.00  0.00     0.198 A 
ATOM     75  F   UNL     1       3.405   1.188   8.470  1.00  0.00    -0.203 F 
ATOM     76  F   UNL     1       8.789   1.794   8.526  1.00  0.00    -0.200 F 
ATOM     77  C   UNL     1       6.866   0.567   9.097  1.00  0.00     0.200 A 
ATOM     78  F   UNL     1       4.898  -0.593   9.650  1.00  0.00    -0.200 F 
ATOM     79  F   UNL     1       7.608  -0.345   9.736  1.00  0.00    -0.200 F 
ENDBRANCH  55  69
BRANCH  56  80
ATOM     80  C   UNL     1       1.517   8.652   0.796  1.00  0.00     0.064 A 
ATOM     81  C   UNL     1       1.340   8.413  -0.586  1.00  0.00     0.173 A 
ATOM     82  C   UNL     1       0.377   8.573   1.611  1.00  0.00     0.173 A 
ATOM     83  F   UNL     1       2.386   8.507  -1.423  1.00  0.00    -0.203 F 
ATOM     84  C   UNL     1       0.148   7.880  -1.079  1.00  0.00     0.198 A 
ATOM     85  C   UNL     1      -0.816   8.043   1.107  1.00  0.00     0.198 A 
ATOM     86  F   UNL     1       0.476   8.794   2.929  1.00  0.00    -0.203 F 
ATOM     87  F   UNL     1       0.075   7.466  -2.354  1.00  0.00    -0.200 F 
ATOM     88  C   UNL     1      -0.905   7.637  -0.217  1.00  0.00     0.200 A 
ATOM     89  F   UNL     1      -1.843   7.802   1.933  1.00  0.00    -0.200 F 
ATOM     90  F   UNL     1      -1.966   6.931  -0.636  1.00  0.00    -0.200 F 
ENDBRANCH  56  80
BRANCH  68  91
ATOM     91  C   UNL     1       5.731   8.940   6.678  1.00  0.00     0.064 A 
ATOM     92  C   UNL     1       5.478  10.304   6.880  1.00  0.00     0.173 A 
ATOM     93  C   UNL     1       6.335   8.269   7.773  1.00  0.00     0.173 A 
ATOM     94  F   UNL     1       4.733  11.020   6.029  1.00  0.00    -0.203 F 
ATOM     95  C   UNL     1       5.936  10.976   8.008  1.00  0.00     0.198 A 
ATOM     96  C   UNL     1       6.697   8.925   8.941  1.00  0.00     0.198 A 
ATOM     97  F   UNL     1       6.567   6.950   7.777  1.00  0.00    -0.203 F 
ATOM     98  F   UNL     1       5.762  12.301   8.096  1.00  0.00    -0.200 F 
ATOM     99  C   UNL     1       6.543  10.288   9.039  1.00  0.00     0.200 A 
ATOM    100  F   UNL     1       7.185   8.219   9.970  1.00  0.00    -0.200 F 
ATOM    101  F   UNL     1       6.956  10.934  10.135  1.00  0.00    -0.200 F 
ENDBRANCH  68  91
ENDBRANCH  42  43
ENDBRANCH  35  37
ENDBRANCH  34  35
ENDBRANCH  33  34
ENDBRANCH  32  33
ENDBRANCH  31  32
ENDBRANCH  30  31
ENDBRANCH   1  30
TORSDOF 20
