REMARK SMILES O=C(CNC(=O)c1ccco1)Nc1cccc(C(=O)OCCOCCOC(=O)c2ccc(-c3c4nc(c(-c5c(F)c(F)c(F)c(F)c5F)c5ccc([nH]5)c(-c5c(F)c(F)c(F)c(F)c5F)c5nc(c(-c6c(F)c(F)c(F)c(F)c6F)c6ccc3[nH]6)C=C5)C=C4)cc2)c1
REMARK SMILES IDX 22 1 21 2 20 3 18 4 19 5 17 6 13 7 14 8 92 9 15 10 16 11
REMARK SMILES IDX 12 12 1 13 2 14 3 16 4 17 5 18 6 20 7 21 8 22 11 23 9 24
REMARK SMILES IDX 10 25 23 26 24 27 25 28 26 29 27 30 28 31 29 32 30 33 91 34
REMARK SMILES IDX 31 35 90 36 32 37 33 38 34 39 84 40 35 41 89 42 83 43 85 44
REMARK SMILES IDX 36 45 88 46 82 47 81 48 37 50 69 51 49 52 68 53 50 54 53 55
REMARK SMILES IDX 67 56 86 57 51 58 52 59 66 61 87 62 54 63 38 64 39 65 47 66
REMARK SMILES IDX 40 67 41 68 45 69 48 70 42 71 43 72 46 73 44 74 70 75 71 76
REMARK SMILES IDX 79 77 72 78 73 79 77 80 80 81 74 82 75 83 78 84 76 85 55 86
REMARK SMILES IDX 56 87 64 88 57 89 58 90 62 91 65 92 59 93 60 94 63 95 61 96
REMARK H PARENT 12 15 4 19 85 49 53 60
REMARK Flexibility Score: inf
ROOT
ATOM      1  C   UNL     1      -2.072   5.545  -2.024  1.00  0.00     0.202 C 
ENDROOT
BRANCH   1   2
ATOM      2  C   UNL     1      -2.554   4.090  -1.989  1.00  0.00     0.261 C 
BRANCH   2   3
ATOM      3  O   UNL     1      -1.443   3.179  -2.010  1.00  0.00    -0.460 OA
BRANCH   3   4
ATOM      4  C   UNL     1      -1.298   2.452  -3.144  1.00  0.00     0.338 C 
ATOM      5  O   UNL     1      -2.070   2.404  -4.092  1.00  0.00    -0.246 OA
BRANCH   4   6
ATOM      6  C   UNL     1       0.051   1.844  -3.171  1.00  0.00     0.062 A 
ATOM      7  C   UNL     1       1.920   0.753  -2.075  1.00  0.00     0.042 A 
ATOM      8  C   UNL     1       2.622   0.786  -3.288  1.00  0.00     0.026 A 
ATOM      9  C   UNL     1       0.642   1.316  -2.017  1.00  0.00     0.041 A 
ATOM     10  C   UNL     1       2.035   1.319  -4.440  1.00  0.00     0.003 A 
ATOM     11  C   UNL     1       0.742   1.833  -4.386  1.00  0.00     0.016 A 
BRANCH   7  12
ATOM     12  N   UNL     1       2.548   0.131  -0.975  1.00  0.00    -0.325 N 
ATOM     13  O   UNL     1       0.829   0.116   0.600  1.00  0.00    -0.273 OA
ATOM     14  C   UNL     1       1.972  -0.165   0.250  1.00  0.00     0.243 C 
ATOM     15  H   UNL     1       3.493  -0.120  -1.091  1.00  0.00     0.169 HD
BRANCH  14  16
ATOM     16  C   UNL     1       2.958  -0.736   1.271  1.00  0.00     0.216 C 
BRANCH  16  17
ATOM     17  N   UNL     1       3.991  -1.573   0.679  1.00  0.00    -0.340 N 
ATOM     18  C   UNL     1       5.358  -1.490   0.803  1.00  0.00     0.287 C 
ATOM     19  H   UNL     1       3.664  -2.304   0.107  1.00  0.00     0.164 HD
ATOM     20  O   UNL     1       6.022  -2.226   0.073  1.00  0.00    -0.266 OA
BRANCH  18  21
ATOM     21  C   UNL     1       5.936  -0.542   1.730  1.00  0.00     0.191 A 
ATOM     22  C   UNL     1       5.604  -0.138   3.013  1.00  0.00     0.056 A 
ATOM     23  O   UNL     1       7.062   0.129   1.331  1.00  0.00    -0.459 OA
ATOM     24  C   UNL     1       6.536   0.861   3.385  1.00  0.00     0.043 A 
ATOM     25  C   UNL     1       7.408   0.979   2.330  1.00  0.00     0.196 A 
ENDBRANCH  18  21
ENDBRANCH  16  17
ENDBRANCH  14  16
ENDBRANCH   7  12
ENDBRANCH   4   6
ENDBRANCH   3   4
ENDBRANCH   2   3
ENDBRANCH   1   2
BRANCH   1  26
ATOM     26  O   UNL     1      -1.444   5.961  -3.237  1.00  0.00    -0.374 OA
BRANCH  26  27
ATOM     27  C   UNL     1      -0.065   5.625  -3.394  1.00  0.00     0.202 C 
BRANCH  27  28
ATOM     28  C   UNL     1       0.933   6.579  -2.729  1.00  0.00     0.261 C 
BRANCH  28  29
ATOM     29  O   UNL     1       0.831   6.543  -1.294  1.00  0.00    -0.460 OA
BRANCH  29  30
ATOM     30  C   UNL     1       0.270   7.641  -0.739  1.00  0.00     0.338 C 
ATOM     31  O   UNL     1      -0.061   8.673  -1.303  1.00  0.00    -0.246 OA
BRANCH  30  32
ATOM     32  C   UNL     1      -0.055   7.382   0.676  1.00  0.00     0.060 A 
ATOM     33  C   UNL     1      -1.354   7.683   1.103  1.00  0.00     0.016 A 
ATOM     34  C   UNL     1       0.904   6.929   1.585  1.00  0.00     0.016 A 
ATOM     35  C   UNL     1      -1.684   7.588   2.453  1.00  0.00     0.010 A 
ATOM     36  C   UNL     1       0.572   6.838   2.942  1.00  0.00     0.010 A 
ATOM     37  C   UNL     1      -0.712   7.203   3.386  1.00  0.00    -0.014 A 
BRANCH  37  38
ATOM     38  C   UNL     1      -1.007   7.322   4.835  1.00  0.00     0.031 A 
ATOM     39  C   UNL     1      -0.490   8.515   5.591  1.00  0.00     0.074 A 
ATOM     40  C   UNL     1      -1.760   6.401   5.460  1.00  0.00     0.049 A 
ATOM     41  N   UNL     1      -0.620   8.817   6.858  1.00  0.00    -0.248 NA
ATOM     42  C   UNL     1       0.277   9.500   4.813  1.00  0.00     0.031 C 
ATOM     43  C   UNL     1      -2.347   5.221   4.828  1.00  0.00     0.029 A 
ATOM     44  N   UNL     1      -2.158   6.316   6.771  1.00  0.00    -0.354 N 
ATOM     45  C   UNL     1       0.050  10.022   7.029  1.00  0.00     0.074 A 
ATOM     46  C   UNL     1       0.615  10.379   5.746  1.00  0.00     0.031 C 
ATOM     47  C   UNL     1      -3.029   4.526   5.754  1.00  0.00     0.029 A 
ATOM     48  C   UNL     1      -2.902   5.196   7.047  1.00  0.00     0.049 A 
ATOM     49  H   UNL     1      -1.932   6.994   7.448  1.00  0.00     0.167 HD
ATOM     50  C   UNL     1       0.171  10.770   8.153  1.00  0.00     0.037 A 
ATOM     51  C   UNL     1      -3.408   4.756   8.216  1.00  0.00     0.037 A 
ATOM     52  C   UNL     1      -0.394  10.415   9.428  1.00  0.00     0.049 A 
ATOM     53  C   UNL     1      -3.203   5.574   9.465  1.00  0.00     0.074 A 
ATOM     54  C   UNL     1      -0.339  11.113  10.622  1.00  0.00     0.029 A 
ATOM     55  N   UNL     1      -1.115   9.256   9.677  1.00  0.00    -0.354 N 
ATOM     56  N   UNL     1      -2.590   6.723   9.613  1.00  0.00    -0.248 NA
ATOM     57  C   UNL     1      -3.768   5.033  10.710  1.00  0.00     0.031 C 
ATOM     58  C   UNL     1      -0.983  10.353  11.604  1.00  0.00     0.029 A 
ATOM     59  C   UNL     1      -1.488   9.208  11.011  1.00  0.00     0.049 A 
ATOM     60  H   UNL     1      -1.329   8.569   9.005  1.00  0.00     0.167 HD
ATOM     61  C   UNL     1      -2.721   7.057  10.955  1.00  0.00     0.074 A 
ATOM     62  C   UNL     1      -3.484   5.994  11.576  1.00  0.00     0.031 C 
ATOM     63  C   UNL     1      -2.254   8.146  11.614  1.00  0.00     0.037 A 
BRANCH  50  64
ATOM     64  C   UNL     1       0.966  12.039   8.057  1.00  0.00     0.064 A 
ATOM     65  C   UNL     1       0.484  13.161   7.364  1.00  0.00     0.173 A 
ATOM     66  C   UNL     1       2.211  12.147   8.695  1.00  0.00     0.173 A 
ATOM     67  F   UNL     1      -0.694  13.105   6.725  1.00  0.00    -0.203 F 
ATOM     68  C   UNL     1       1.232  14.334   7.292  1.00  0.00     0.198 A 
ATOM     69  C   UNL     1       2.942  13.331   8.646  1.00  0.00     0.198 A 
ATOM     70  F   UNL     1       2.715  11.106   9.374  1.00  0.00    -0.203 F 
ATOM     71  F   UNL     1       0.773  15.376   6.586  1.00  0.00    -0.200 F 
ATOM     72  C   UNL     1       2.456  14.421   7.939  1.00  0.00     0.200 A 
ATOM     73  F   UNL     1       4.119  13.417   9.281  1.00  0.00    -0.200 F 
ATOM     74  F   UNL     1       3.171  15.552   7.875  1.00  0.00    -0.200 F 
ENDBRANCH  50  64
BRANCH  51  75
ATOM     75  C   UNL     1      -4.158   3.474   8.264  1.00  0.00     0.064 A 
ATOM     76  C   UNL     1      -5.534   3.450   8.527  1.00  0.00     0.173 A 
ATOM     77  C   UNL     1      -3.509   2.246   8.069  1.00  0.00     0.173 A 
ATOM     78  F   UNL     1      -6.194   4.596   8.748  1.00  0.00    -0.203 F 
ATOM     79  C   UNL     1      -6.229   2.245   8.614  1.00  0.00     0.198 A 
ATOM     80  C   UNL     1      -4.210   1.044   8.127  1.00  0.00     0.198 A 
ATOM     81  F   UNL     1      -2.192   2.215   7.818  1.00  0.00    -0.203 F 
ATOM     82  F   UNL     1      -7.534   2.247   8.916  1.00  0.00    -0.200 F 
ATOM     83  C   UNL     1      -5.568   1.043   8.407  1.00  0.00     0.200 A 
ATOM     84  F   UNL     1      -3.569  -0.114   7.917  1.00  0.00    -0.200 F 
ATOM     85  F   UNL     1      -6.237  -0.115   8.490  1.00  0.00    -0.200 F 
ENDBRANCH  51  75
BRANCH  63  86
ATOM     86  C   UNL     1      -2.587   8.265  13.074  1.00  0.00     0.064 A 
ATOM     87  C   UNL     1      -1.996   7.434  14.037  1.00  0.00     0.173 A 
ATOM     88  C   UNL     1      -3.486   9.247  13.519  1.00  0.00     0.173 A 
ATOM     89  F   UNL     1      -1.141   6.470  13.663  1.00  0.00    -0.203 F 
ATOM     90  C   UNL     1      -2.315   7.561  15.386  1.00  0.00     0.198 A 
ATOM     91  C   UNL     1      -3.779   9.393  14.872  1.00  0.00     0.198 A 
ATOM     92  F   UNL     1      -4.073  10.075  12.641  1.00  0.00    -0.203 F 
ATOM     93  F   UNL     1      -1.778   6.721  16.282  1.00  0.00    -0.200 F 
ATOM     94  C   UNL     1      -3.200   8.544  15.803  1.00  0.00     0.200 A 
ATOM     95  F   UNL     1      -4.623  10.353  15.274  1.00  0.00    -0.200 F 
ATOM     96  F   UNL     1      -3.502   8.668  17.103  1.00  0.00    -0.200 F 
ENDBRANCH  63  86
ENDBRANCH  37  38
ENDBRANCH  30  32
ENDBRANCH  29  30
ENDBRANCH  28  29
ENDBRANCH  27  28
ENDBRANCH  26  27
ENDBRANCH   1  26
TORSDOF 18
