REMARK SMILES O=C(OCCOCCOC(=O)[C@]1(NC(=O)C2CCN(C(=O)C3CC3)CC2)CCCc2ccccc21)c1ccc(-c2c3nc(c(-c4c(F)c(F)c(F)c(F)c4F)c4ccc([nH]4)c(-c4c(F)c(F)c(F)c(F)c4F)c4nc(c(-c5c(F)c(F)c(F)c(F)c5F)c5ccc2[nH]5)C=C4)C=C3)cc1
REMARK SMILES IDX 7 1 6 2 5 3 4 4 3 5 2 6 1 7 36 8 37 9 98 10 38 11 97 12
REMARK SMILES IDX 39 13 40 14 41 15 91 16 42 17 96 18 90 19 92 20 43 21 95 22
REMARK SMILES IDX 89 23 88 24 44 26 76 27 56 28 75 29 57 30 60 31 74 32 93 33
REMARK SMILES IDX 58 34 59 35 73 37 94 38 61 39 45 40 46 41 54 42 47 43 48 44
REMARK SMILES IDX 52 45 55 46 49 47 50 48 53 49 51 50 77 51 78 52 86 53 79 54
REMARK SMILES IDX 80 55 84 56 87 57 81 58 82 59 85 60 83 61 62 62 63 63 71 64
REMARK SMILES IDX 64 65 65 66 69 67 72 68 66 69 67 70 70 71 68 72 8 73 9 74
REMARK SMILES IDX 10 75 11 76 12 77 27 78 35 79 28 80 30 81 34 82 29 83 31 84
REMARK SMILES IDX 33 85 32 86 13 87 14 88 15 90 16 91 17 92 26 93 18 94 25 95
REMARK SMILES IDX 19 96 20 97 21 98 22 99 23 100 24 101
REMARK H PARENT 92 25 60 36 13 89
REMARK Flexibility Score: inf
ROOT
ATOM      1  C   UNL     1       1.724  -0.942  -1.227  1.00  0.00     0.202 C 
ENDROOT
BRANCH   1   2
ATOM      2  O   UNL     1       2.915  -0.392  -0.697  1.00  0.00    -0.374 OA
BRANCH   2   3
ATOM      3  C   UNL     1       3.607  -1.099   0.314  1.00  0.00     0.202 C 
BRANCH   3   4
ATOM      4  C   UNL     1       3.283  -0.522   1.686  1.00  0.00     0.261 C 
BRANCH   4   5
ATOM      5  O   UNL     1       1.896  -0.134   1.766  1.00  0.00    -0.460 OA
BRANCH   5   6
ATOM      6  C   UNL     1       1.421   1.070   1.348  1.00  0.00     0.338 C 
ATOM      7  O   UNL     1       0.211   1.268   1.233  1.00  0.00    -0.246 OA
BRANCH   6   8
ATOM      8  C   UNL     1       2.346   2.212   1.174  1.00  0.00     0.060 A 
ATOM      9  C   UNL     1       3.300   2.278   0.158  1.00  0.00     0.016 A 
ATOM     10  C   UNL     1       2.192   3.304   2.030  1.00  0.00     0.016 A 
ATOM     11  C   UNL     1       4.209   3.315   0.097  1.00  0.00     0.010 A 
ATOM     12  C   UNL     1       3.019   4.419   1.883  1.00  0.00     0.010 A 
ATOM     13  C   UNL     1       4.053   4.413   0.932  1.00  0.00    -0.014 A 
BRANCH  13  14
ATOM     14  C   UNL     1       5.022   5.521   0.836  1.00  0.00     0.031 A 
ATOM     15  C   UNL     1       5.853   5.835   2.037  1.00  0.00     0.074 A 
ATOM     16  C   UNL     1       5.187   6.177  -0.328  1.00  0.00     0.049 A 
ATOM     17  N   UNL     1       6.580   6.887   2.292  1.00  0.00    -0.248 NA
ATOM     18  C   UNL     1       5.846   4.829   3.113  1.00  0.00     0.031 C 
ATOM     19  C   UNL     1       4.511   5.854  -1.589  1.00  0.00     0.029 A 
ATOM     20  N   UNL     1       5.988   7.239  -0.650  1.00  0.00    -0.354 N 
ATOM     21  C   UNL     1       7.046   6.710   3.587  1.00  0.00     0.074 A 
ATOM     22  C   UNL     1       6.532   5.446   4.062  1.00  0.00     0.031 C 
ATOM     23  C   UNL     1       4.959   6.669  -2.555  1.00  0.00     0.029 A 
ATOM     24  C   UNL     1       5.853   7.649  -1.955  1.00  0.00     0.049 A 
ATOM     25  H   UNL     1       6.601   7.668  -0.010  1.00  0.00     0.167 HD
ATOM     26  C   UNL     1       7.820   7.554   4.306  1.00  0.00     0.037 A 
ATOM     27  C   UNL     1       6.346   8.738  -2.570  1.00  0.00     0.037 A 
ATOM     28  C   UNL     1       8.334   8.784   3.766  1.00  0.00     0.049 A 
ATOM     29  C   UNL     1       7.154   9.692  -1.736  1.00  0.00     0.074 A 
ATOM     30  C   UNL     1       9.090   9.760   4.385  1.00  0.00     0.029 A 
ATOM     31  N   UNL     1       8.144   9.194   2.449  1.00  0.00    -0.354 N 
ATOM     32  N   UNL     1       7.507   9.592  -0.475  1.00  0.00    -0.248 NA
ATOM     33  C   UNL     1       7.604  10.924  -2.393  1.00  0.00     0.031 C 
ATOM     34  C   UNL     1       9.323  10.779   3.453  1.00  0.00     0.029 A 
ATOM     35  C   UNL     1       8.760  10.414   2.237  1.00  0.00     0.049 A 
ATOM     36  H   UNL     1       7.645   8.689   1.768  1.00  0.00     0.167 HD
ATOM     37  C   UNL     1       8.229  10.738  -0.186  1.00  0.00     0.074 A 
ATOM     38  C   UNL     1       8.282  11.509  -1.415  1.00  0.00     0.031 C 
ATOM     39  C   UNL     1       8.790  11.131   0.985  1.00  0.00     0.037 A 
BRANCH  26  40
ATOM     40  C   UNL     1       8.057   7.203   5.746  1.00  0.00     0.064 A 
ATOM     41  C   UNL     1       8.835   6.100   6.133  1.00  0.00     0.173 A 
ATOM     42  C   UNL     1       7.430   7.945   6.760  1.00  0.00     0.173 A 
ATOM     43  F   UNL     1       9.432   5.336   5.205  1.00  0.00    -0.203 F 
ATOM     44  C   UNL     1       8.934   5.725   7.472  1.00  0.00     0.198 A 
ATOM     45  C   UNL     1       7.559   7.587   8.100  1.00  0.00     0.198 A 
ATOM     46  F   UNL     1       6.670   9.005   6.450  1.00  0.00    -0.203 F 
ATOM     47  F   UNL     1       9.611   4.618   7.807  1.00  0.00    -0.200 F 
ATOM     48  C   UNL     1       8.297   6.469   8.454  1.00  0.00     0.200 A 
ATOM     49  F   UNL     1       6.945   8.311   9.047  1.00  0.00    -0.200 F 
ATOM     50  F   UNL     1       8.378   6.096   9.738  1.00  0.00    -0.200 F 
ENDBRANCH  26  40
BRANCH  27  51
ATOM     51  C   UNL     1       6.032   9.005  -4.001  1.00  0.00     0.064 A 
ATOM     52  C   UNL     1       7.041   9.007  -4.973  1.00  0.00     0.173 A 
ATOM     53  C   UNL     1       4.718   9.246  -4.434  1.00  0.00     0.173 A 
ATOM     54  F   UNL     1       8.317   8.801  -4.615  1.00  0.00    -0.203 F 
ATOM     55  C   UNL     1       6.750   9.247  -6.316  1.00  0.00     0.198 A 
ATOM     56  C   UNL     1       4.423   9.451  -5.780  1.00  0.00     0.198 A 
ATOM     57  F   UNL     1       3.709   9.257  -3.549  1.00  0.00    -0.203 F 
ATOM     58  F   UNL     1       7.741   9.280  -7.218  1.00  0.00    -0.200 F 
ATOM     59  C   UNL     1       5.441   9.460  -6.720  1.00  0.00     0.200 A 
ATOM     60  F   UNL     1       3.153   9.636  -6.166  1.00  0.00    -0.200 F 
ATOM     61  F   UNL     1       5.161   9.677  -8.012  1.00  0.00    -0.200 F 
ENDBRANCH  27  51
BRANCH  39  62
ATOM     62  C   UNL     1       9.541  12.426   0.964  1.00  0.00     0.064 A 
ATOM     63  C   UNL     1       8.878  13.659   0.902  1.00  0.00     0.173 A 
ATOM     64  C   UNL     1      10.940  12.427   1.056  1.00  0.00     0.173 A 
ATOM     65  F   UNL     1       7.542  13.704   0.794  1.00  0.00    -0.203 F 
ATOM     66  C   UNL     1       9.594  14.851   0.911  1.00  0.00     0.198 A 
ATOM     67  C   UNL     1      11.650  13.621   1.098  1.00  0.00     0.198 A 
ATOM     68  F   UNL     1      11.615  11.270   1.123  1.00  0.00    -0.203 F 
ATOM     69  F   UNL     1       8.947  16.020   0.803  1.00  0.00    -0.200 F 
ATOM     70  C   UNL     1      10.977  14.832   1.018  1.00  0.00     0.200 A 
ATOM     71  F   UNL     1      12.985  13.601   1.216  1.00  0.00    -0.200 F 
ATOM     72  F   UNL     1      11.665  15.982   1.039  1.00  0.00    -0.200 F 
ENDBRANCH  39  62
ENDBRANCH  13  14
ENDBRANCH   6   8
ENDBRANCH   5   6
ENDBRANCH   4   5
ENDBRANCH   3   4
ENDBRANCH   2   3
ENDBRANCH   1   2
BRANCH   1  73
ATOM     73  C   UNL     1       1.924  -1.068  -2.730  1.00  0.00     0.261 C 
BRANCH  73  74
ATOM     74  O   UNL     1       2.885  -2.096  -3.011  1.00  0.00    -0.461 OA
BRANCH  74  75
ATOM     75  C   UNL     1       4.196  -1.754  -2.858  1.00  0.00     0.336 C 
ATOM     76  O   UNL     1       4.609  -0.641  -2.534  1.00  0.00    -0.249 OA
BRANCH  75  77
ATOM     77  C   UNL     1       5.143  -2.894  -3.299  1.00  0.00     0.164 C 
ATOM     78  C   UNL     1       4.420  -4.188  -3.750  1.00  0.00     0.046 C 
ATOM     79  C   UNL     1       6.009  -3.168  -2.035  1.00  0.00    -0.008 A 
ATOM     80  C   UNL     1       3.769  -4.959  -2.600  1.00  0.00     0.008 C 
ATOM     81  C   UNL     1       5.677  -4.215  -1.143  1.00  0.00    -0.042 A 
ATOM     82  C   UNL     1       6.936  -2.199  -1.596  1.00  0.00     0.007 A 
ATOM     83  C   UNL     1       4.802  -5.366  -1.563  1.00  0.00     0.036 C 
ATOM     84  C   UNL     1       6.192  -4.218   0.167  1.00  0.00     0.004 A 
ATOM     85  C   UNL     1       7.431  -2.209  -0.288  1.00  0.00     0.000 A 
ATOM     86  C   UNL     1       7.036  -3.201   0.602  1.00  0.00     0.000 A 
BRANCH  77  87
ATOM     87  N   UNL     1       5.953  -2.395  -4.459  1.00  0.00    -0.336 N 
ATOM     88  C   UNL     1       5.537  -1.781  -5.624  1.00  0.00     0.224 C 
ATOM     89  H   UNL     1       6.925  -2.523  -4.377  1.00  0.00     0.164 HD
ATOM     90  O   UNL     1       6.124  -2.069  -6.670  1.00  0.00    -0.275 OA
BRANCH  88  91
ATOM     91  C   UNL     1       4.473  -0.670  -5.621  1.00  0.00     0.082 C 
ATOM     92  C   UNL     1       3.121  -1.079  -6.223  1.00  0.00     0.035 C 
ATOM     93  C   UNL     1       5.045   0.665  -6.136  1.00  0.00     0.035 C 
ATOM     94  C   UNL     1       2.938  -0.656  -7.675  1.00  0.00     0.120 C 
ATOM     95  C   UNL     1       4.752   0.937  -7.603  1.00  0.00     0.120 C 
ATOM     96  N   UNL     1       3.330   0.739  -7.848  1.00  0.00    -0.342 N 
ATOM     97  C   UNL     1       2.324   1.699  -7.955  1.00  0.00     0.225 C 
ATOM     98  O   UNL     1       1.137   1.378  -7.811  1.00  0.00    -0.275 OA
BRANCH  97  99
ATOM     99  C   UNL     1       2.548   3.142  -8.278  1.00  0.00     0.079 C 
ATOM    100  C   UNL     1       3.570   4.043  -7.643  1.00  0.00     0.014 C 
ATOM    101  C   UNL     1       3.681   3.685  -9.105  1.00  0.00     0.014 C 
ENDBRANCH  97  99
ENDBRANCH  88  91
ENDBRANCH  77  87
ENDBRANCH  75  77
ENDBRANCH  74  75
ENDBRANCH  73  74
ENDBRANCH   1  73
TORSDOF 17
