REMARK SMILES CC(C)[C@H]([NH2+]Cc1ccncc1)C(=O)OCCOCCOC(=O)c1ccc(-c2c3nc(c(-c4c(F)c(F)c(F)c(F)c4F)c4ccc([nH]4)c(-c4c(F)c(F)c(F)c(F)c4F)c4nc(c(-c5c(F)c(F)c(F)c(F)c5F)c5ccc2[nH]5)C=C4)C=C3)cc1
REMARK SMILES IDX 17 1 16 2 15 3 13 4 14 5 4 6 2 7 1 8 3 9 5 10 6 13 7 14 8 15
REMARK SMILES IDX 12 16 9 17 11 18 10 19 18 20 19 21 20 22 21 23 22 24 23 25
REMARK SMILES IDX 24 26 25 27 86 28 26 29 85 30 27 31 28 32 29 33 79 34 30 35
REMARK SMILES IDX 84 36 78 37 80 38 31 39 83 40 77 41 76 42 32 44 64 45 44 46
REMARK SMILES IDX 63 47 45 48 48 49 62 50 81 51 46 52 47 53 61 55 82 56 49 57
REMARK SMILES IDX 33 58 34 59 42 60 35 61 36 62 40 63 43 64 37 65 38 66 41 67
REMARK SMILES IDX 39 68 65 69 66 70 74 71 67 72 68 73 72 74 75 75 69 76 70 77
REMARK SMILES IDX 73 78 71 79 50 80 51 81 59 82 52 83 53 84 57 85 60 86 54 87
REMARK SMILES IDX 55 88 58 89 56 90
REMARK H PARENT 5 11 5 12 80 43 48 54
REMARK Flexibility Score: inf
ROOT
ATOM      1  C   UNL     1      -1.885   5.293  -1.739  1.00  0.00     0.202 C 
ENDROOT
BRANCH   1   2
ATOM      2  C   UNL     1      -2.568   4.577  -0.571  1.00  0.00     0.261 C 
BRANCH   2   3
ATOM      3  O   UNL     1      -1.804   3.460  -0.086  1.00  0.00    -0.459 OA
BRANCH   3   4
ATOM      4  C   UNL     1      -2.358   2.233  -0.311  1.00  0.00     0.365 C 
ATOM      5  O   UNL     1      -3.457   2.048  -0.825  1.00  0.00    -0.245 OA
BRANCH   4   6
ATOM      6  C   UNL     1      -1.481   1.073   0.202  1.00  0.00     0.296 C 
BRANCH   6   7
ATOM      7  C   UNL     1      -1.884   0.695   1.652  1.00  0.00     0.053 C 
ATOM      8  C   UNL     1      -1.749   1.845   2.654  1.00  0.00     0.014 C 
ATOM      9  C   UNL     1      -3.306   0.123   1.696  1.00  0.00     0.014 C 
ENDBRANCH   6   7
BRANCH   6  10
ATOM     10  N   UNL     1      -0.027   1.356   0.020  1.00  0.00    -0.331 N 
ATOM     11  H   UNL     1       0.285   1.981   0.763  1.00  0.00     0.347 HD
ATOM     12  H   UNL     1       0.104   1.789  -0.894  1.00  0.00     0.347 HD
BRANCH  10  13
ATOM     13  C   UNL     1       0.765   0.125   0.066  1.00  0.00     0.298 C 
BRANCH  13  14
ATOM     14  C   UNL     1       2.252   0.355  -0.050  1.00  0.00     0.009 A 
ATOM     15  C   UNL     1       2.986  -0.246  -1.079  1.00  0.00     0.029 A 
ATOM     16  C   UNL     1       2.954   1.074   0.923  1.00  0.00     0.029 A 
ATOM     17  C   UNL     1       4.366  -0.108  -1.089  1.00  0.00     0.111 A 
ATOM     18  C   UNL     1       4.336   1.158   0.826  1.00  0.00     0.111 A 
ATOM     19  N   UNL     1       5.058   0.582  -0.158  1.00  0.00    -0.265 NA
ENDBRANCH  13  14
ENDBRANCH  10  13
ENDBRANCH   6  10
ENDBRANCH   4   6
ENDBRANCH   3   4
ENDBRANCH   2   3
ENDBRANCH   1   2
BRANCH   1  20
ATOM     20  O   UNL     1      -1.718   4.553  -2.945  1.00  0.00    -0.374 OA
BRANCH  20  21
ATOM     21  C   UNL     1      -0.718   3.534  -2.969  1.00  0.00     0.202 C 
BRANCH  21  22
ATOM     22  C   UNL     1       0.742   3.992  -3.055  1.00  0.00     0.261 C 
BRANCH  22  23
ATOM     23  O   UNL     1       1.152   4.777  -1.921  1.00  0.00    -0.460 OA
BRANCH  23  24
ATOM     24  C   UNL     1       1.408   6.073  -2.204  1.00  0.00     0.338 C 
ATOM     25  O   UNL     1       1.384   6.614  -3.303  1.00  0.00    -0.246 OA
BRANCH  24  26
ATOM     26  C   UNL     1       1.599   6.856  -0.970  1.00  0.00     0.060 A 
ATOM     27  C   UNL     1       0.872   8.047  -0.855  1.00  0.00     0.016 A 
ATOM     28  C   UNL     1       2.568   6.520  -0.022  1.00  0.00     0.016 A 
ATOM     29  C   UNL     1       1.178   8.955   0.154  1.00  0.00     0.010 A 
ATOM     30  C   UNL     1       2.879   7.436   0.990  1.00  0.00     0.010 A 
ATOM     31  C   UNL     1       2.227   8.682   1.042  1.00  0.00    -0.014 A 
BRANCH  31  32
ATOM     32  C   UNL     1       2.771   9.800   1.853  1.00  0.00     0.031 A 
ATOM     33  C   UNL     1       3.967  10.552   1.331  1.00  0.00     0.074 A 
ATOM     34  C   UNL     1       2.163  10.200   2.983  1.00  0.00     0.049 A 
ATOM     35  N   UNL     1       4.572  11.602   1.826  1.00  0.00    -0.248 NA
ATOM     36  C   UNL     1       4.558  10.055   0.078  1.00  0.00     0.031 C 
ATOM     37  C   UNL     1       0.979   9.579   3.570  1.00  0.00     0.029 A 
ATOM     38  N   UNL     1       2.459  11.237   3.832  1.00  0.00    -0.354 N 
ATOM     39  C   UNL     1       5.609  11.890   0.947  1.00  0.00     0.074 A 
ATOM     40  C   UNL     1       5.575  10.885  -0.093  1.00  0.00     0.031 C 
ATOM     41  C   UNL     1       0.645  10.250   4.686  1.00  0.00     0.029 A 
ATOM     42  C   UNL     1       1.600  11.337   4.897  1.00  0.00     0.049 A 
ATOM     43  H   UNL     1       3.215  11.851   3.690  1.00  0.00     0.167 HD
ATOM     44  C   UNL     1       6.499  12.909   0.991  1.00  0.00     0.037 A 
ATOM     45  C   UNL     1       1.590  12.209   5.924  1.00  0.00     0.037 A 
ATOM     46  C   UNL     1       6.533  13.913   2.019  1.00  0.00     0.049 A 
ATOM     47  C   UNL     1       2.616  13.311   5.972  1.00  0.00     0.074 A 
ATOM     48  C   UNL     1       7.399  14.985   2.154  1.00  0.00     0.029 A 
ATOM     49  N   UNL     1       5.657  13.968   3.092  1.00  0.00    -0.354 N 
ATOM     50  N   UNL     1       3.576  13.588   5.124  1.00  0.00    -0.248 NA
ATOM     51  C   UNL     1       2.545  14.233   7.115  1.00  0.00     0.031 C 
ATOM     52  C   UNL     1       7.068  15.668   3.330  1.00  0.00     0.029 A 
ATOM     53  C   UNL     1       5.968  15.049   3.901  1.00  0.00     0.049 A 
ATOM     54  H   UNL     1       4.922  13.333   3.255  1.00  0.00     0.167 HD
ATOM     55  C   UNL     1       4.199  14.731   5.609  1.00  0.00     0.074 A 
ATOM     56  C   UNL     1       3.503  15.101   6.824  1.00  0.00     0.031 C 
ATOM     57  C   UNL     1       5.251  15.414   5.095  1.00  0.00     0.037 A 
BRANCH  44  58
ATOM     58  C   UNL     1       7.525  12.974  -0.102  1.00  0.00     0.064 A 
ATOM     59  C   UNL     1       7.186  13.364  -1.406  1.00  0.00     0.173 A 
ATOM     60  C   UNL     1       8.867  12.663   0.164  1.00  0.00     0.173 A 
ATOM     61  F   UNL     1       5.913  13.655  -1.713  1.00  0.00    -0.203 F 
ATOM     62  C   UNL     1       8.149  13.418  -2.410  1.00  0.00     0.198 A 
ATOM     63  C   UNL     1       9.832  12.743  -0.836  1.00  0.00     0.198 A 
ATOM     64  F   UNL     1       9.243  12.287   1.396  1.00  0.00    -0.203 F 
ATOM     65  F   UNL     1       7.795  13.752  -3.659  1.00  0.00    -0.200 F 
ATOM     66  C   UNL     1       9.472  13.114  -2.123  1.00  0.00     0.200 A 
ATOM     67  F   UNL     1      11.111  12.458  -0.555  1.00  0.00    -0.200 F 
ATOM     68  F   UNL     1      10.399  13.171  -3.089  1.00  0.00    -0.200 F 
ENDBRANCH  44  58
BRANCH  45  69
ATOM     69  C   UNL     1       0.562  12.087   6.989  1.00  0.00     0.064 A 
ATOM     70  C   UNL     1      -0.459  13.038   7.125  1.00  0.00     0.173 A 
ATOM     71  C   UNL     1       0.593  11.027   7.907  1.00  0.00     0.173 A 
ATOM     72  F   UNL     1      -0.515  14.083   6.286  1.00  0.00    -0.203 F 
ATOM     73  C   UNL     1      -1.398  12.944   8.150  1.00  0.00     0.198 A 
ATOM     74  C   UNL     1      -0.361  10.920   8.916  1.00  0.00     0.198 A 
ATOM     75  F   UNL     1       1.550  10.092   7.820  1.00  0.00    -0.203 F 
ATOM     76  F   UNL     1      -2.336  13.892   8.285  1.00  0.00    -0.200 F 
ATOM     77  C   UNL     1      -1.351  11.883   9.041  1.00  0.00     0.200 A 
ATOM     78  F   UNL     1      -0.319   9.888   9.769  1.00  0.00    -0.200 F 
ATOM     79  F   UNL     1      -2.255  11.793  10.027  1.00  0.00    -0.200 F 
ENDBRANCH  45  69
BRANCH  57  80
ATOM     80  C   UNL     1       5.682  16.659   5.814  1.00  0.00     0.064 A 
ATOM     81  C   UNL     1       6.357  16.607   7.041  1.00  0.00     0.173 A 
ATOM     82  C   UNL     1       5.446  17.920   5.245  1.00  0.00     0.173 A 
ATOM     83  F   UNL     1       6.595  15.425   7.631  1.00  0.00    -0.203 F 
ATOM     84  C   UNL     1       6.755  17.774   7.689  1.00  0.00     0.198 A 
ATOM     85  C   UNL     1       5.869  19.084   5.882  1.00  0.00     0.198 A 
ATOM     86  F   UNL     1       4.811  18.024   4.068  1.00  0.00    -0.203 F 
ATOM     87  F   UNL     1       7.357  17.703   8.884  1.00  0.00    -0.200 F 
ATOM     88  C   UNL     1       6.516  19.010   7.106  1.00  0.00     0.200 A 
ATOM     89  F   UNL     1       5.647  20.276   5.313  1.00  0.00    -0.200 F 
ATOM     90  F   UNL     1       6.901  20.131   7.730  1.00  0.00    -0.200 F 
ENDBRANCH  57  80
ENDBRANCH  31  32
ENDBRANCH  24  26
ENDBRANCH  23  24
ENDBRANCH  22  23
ENDBRANCH  21  22
ENDBRANCH  20  21
ENDBRANCH   1  20
TORSDOF 18
