REMARK SMILES CC(=O)NC(C)(C)C(=O)N1C[C@@H](C(=O)OCCOCCOC(=O)c2ccc(-c3c4nc(c(-c5c(F)c(F)c(F)c(F)c5F)c5ccc([nH]5)c(-c5c(F)c(F)c(F)c(F)c5F)c5nc(c(-c6c(F)c(F)c(F)c(F)c6F)c6ccc3[nH]6)C=C5)C=C4)cc2)[C@H](c2ccccc2C)C1
REMARK SMILES IDX 17 1 16 2 15 3 13 4 14 5 12 6 10 7 11 8 95 9 87 10 8 11 9 12
REMARK SMILES IDX 5 13 6 14 7 15 4 16 1 17 2 18 3 19 88 21 89 22 93 23 90 24
REMARK SMILES IDX 92 25 94 26 91 27 18 28 19 29 20 30 21 31 22 32 23 33 24 34
REMARK SMILES IDX 25 35 86 36 26 37 85 38 27 39 28 40 29 41 79 42 30 43 84 44
REMARK SMILES IDX 78 45 80 46 31 47 83 48 77 49 76 50 32 52 64 53 44 54 63 55
REMARK SMILES IDX 45 56 48 57 62 58 81 59 46 60 47 61 61 63 82 64 49 65 33 66
REMARK SMILES IDX 34 67 42 68 35 69 36 70 40 71 43 72 37 73 38 74 41 75 39 76
REMARK SMILES IDX 65 77 66 78 74 79 67 80 68 81 72 82 75 83 69 84 70 85 73 86
REMARK SMILES IDX 71 87 50 88 51 89 59 90 52 91 53 92 57 93 60 94 54 95 55 96
REMARK SMILES IDX 58 97 56 98
REMARK H PARENT 4 20 80 51 48 62
REMARK Flexibility Score: inf
ROOT
ATOM      1  C   UNL     1       5.046   7.050  -6.034  1.00  0.00     0.202 C 
ENDROOT
BRANCH   1   2
ATOM      2  C   UNL     1       3.980   7.104  -4.934  1.00  0.00     0.261 C 
BRANCH   2   3
ATOM      3  O   UNL     1       4.241   6.094  -3.938  1.00  0.00    -0.463 OA
BRANCH   3   4
ATOM      4  C   UNL     1       3.486   4.981  -4.036  1.00  0.00     0.311 C 
ATOM      5  O   UNL     1       2.499   4.896  -4.760  1.00  0.00    -0.252 OA
BRANCH   4   6
ATOM      6  C   UNL     1       4.082   3.778  -3.323  1.00  0.00     0.128 C 
ATOM      7  N   UNL     1       3.124   2.074  -2.005  1.00  0.00    -0.339 N 
ATOM      8  C   UNL     1       2.904   2.823  -3.200  1.00  0.00     0.135 C 
ATOM      9  C   UNL     1       3.805   2.939  -1.052  1.00  0.00     0.128 C 
ATOM     10  C   UNL     1       4.691   3.895  -1.895  1.00  0.00     0.055 C 
BRANCH   7  11
ATOM     11  C   UNL     1       2.235   1.106  -1.567  1.00  0.00     0.247 C 
ATOM     12  O   UNL     1       1.843   1.191  -0.404  1.00  0.00    -0.272 OA
BRANCH  11  13
ATOM     13  C   UNL     1       1.693   0.015  -2.585  1.00  0.00     0.113 C 
ATOM     14  C   UNL     1       2.898  -0.492  -3.421  1.00  0.00     0.045 C 
ATOM     15  C   UNL     1       0.617   0.593  -3.524  1.00  0.00     0.045 C 
BRANCH  13  16
ATOM     16  N   UNL     1       1.139  -1.252  -2.001  1.00  0.00    -0.342 N 
ATOM     17  C   UNL     1       0.272  -0.819   0.292  1.00  0.00     0.114 C 
ATOM     18  C   UNL     1       0.250  -1.538  -1.018  1.00  0.00     0.217 C 
ATOM     19  O   UNL     1      -0.507  -2.495  -1.198  1.00  0.00    -0.275 OA
ATOM     20  H   UNL     1       1.506  -2.059  -2.428  1.00  0.00     0.164 HD
ENDBRANCH  13  16
ENDBRANCH  11  13
ENDBRANCH   7  11
BRANCH  10  21
ATOM     21  C   UNL     1       6.211   3.592  -1.859  1.00  0.00    -0.039 A 
ATOM     22  C   UNL     1       6.717   2.361  -1.384  1.00  0.00     0.004 A 
ATOM     23  C   UNL     1       7.174   4.543  -2.281  1.00  0.00    -0.048 A 
ATOM     24  C   UNL     1       8.091   2.077  -1.351  1.00  0.00     0.000 A 
ATOM     25  C   UNL     1       8.546   4.209  -2.318  1.00  0.00     0.004 A 
ATOM     26  C   UNL     1       6.833   5.932  -2.727  1.00  0.00     0.044 C 
ATOM     27  C   UNL     1       9.006   2.990  -1.846  1.00  0.00     0.000 A 
ENDBRANCH  10  21
ENDBRANCH   4   6
ENDBRANCH   3   4
ENDBRANCH   2   3
ENDBRANCH   1   2
BRANCH   1  28
ATOM     28  O   UNL     1       4.959   5.922  -6.907  1.00  0.00    -0.374 OA
BRANCH  28  29
ATOM     29  C   UNL     1       5.665   4.747  -6.505  1.00  0.00     0.202 C 
BRANCH  29  30
ATOM     30  C   UNL     1       7.135   4.677  -6.930  1.00  0.00     0.261 C 
BRANCH  30  31
ATOM     31  O   UNL     1       7.942   5.539  -6.105  1.00  0.00    -0.460 OA
BRANCH  31  32
ATOM     32  C   UNL     1       8.282   6.726  -6.670  1.00  0.00     0.338 C 
ATOM     33  O   UNL     1       8.093   7.080  -7.809  1.00  0.00    -0.246 OA
BRANCH  32  34
ATOM     34  C   UNL     1       8.734   7.645  -5.598  1.00  0.00     0.060 A 
ATOM     35  C   UNL     1       8.225   8.949  -5.611  1.00  0.00     0.016 A 
ATOM     36  C   UNL     1       9.625   7.249  -4.599  1.00  0.00     0.016 A 
ATOM     37  C   UNL     1       8.640   9.874  -4.654  1.00  0.00     0.010 A 
ATOM     38  C   UNL     1      10.024   8.172  -3.624  1.00  0.00     0.010 A 
ATOM     39  C   UNL     1       9.570   9.504  -3.674  1.00  0.00    -0.014 A 
BRANCH  39  40
ATOM     40  C   UNL     1      10.211  10.556  -2.840  1.00  0.00     0.031 A 
ATOM     41  C   UNL     1      11.637  10.943  -3.141  1.00  0.00     0.074 A 
ATOM     42  C   UNL     1       9.536  11.203  -1.871  1.00  0.00     0.049 A 
ATOM     43  N   UNL     1      12.403  11.828  -2.555  1.00  0.00    -0.248 NA
ATOM     44  C   UNL     1      12.291  10.226  -4.248  1.00  0.00     0.031 C 
ATOM     45  C   UNL     1       8.149  10.949  -1.489  1.00  0.00     0.029 A 
ATOM     46  N   UNL     1       9.934  12.216  -1.031  1.00  0.00    -0.354 N 
ATOM     47  C   UNL     1      13.625  11.761  -3.211  1.00  0.00     0.074 A 
ATOM     48  C   UNL     1      13.518  10.719  -4.206  1.00  0.00     0.031 C 
ATOM     49  C   UNL     1       7.809  11.786  -0.493  1.00  0.00     0.029 A 
ATOM     50  C   UNL     1       8.963  12.617  -0.147  1.00  0.00     0.049 A 
ATOM     51  H   UNL     1      10.833  12.616  -1.061  1.00  0.00     0.167 HD
ATOM     52  C   UNL     1      14.733  12.515  -3.020  1.00  0.00     0.037 A 
ATOM     53  C   UNL     1       9.004  13.539   0.836  1.00  0.00     0.037 A 
ATOM     54  C   UNL     1      14.838  13.576  -2.056  1.00  0.00     0.049 A 
ATOM     55  C   UNL     1      10.267  14.336   1.058  1.00  0.00     0.074 A 
ATOM     56  C   UNL     1      15.908  14.422  -1.820  1.00  0.00     0.029 A 
ATOM     57  N   UNL     1      13.838  13.935  -1.166  1.00  0.00    -0.354 N 
ATOM     58  N   UNL     1      11.402  14.294   0.402  1.00  0.00    -0.248 NA
ATOM     59  C   UNL     1      10.250  15.316   2.155  1.00  0.00     0.031 C 
ATOM     60  C   UNL     1      15.575  15.259  -0.751  1.00  0.00     0.029 A 
ATOM     61  C   UNL     1      14.277  14.974  -0.361  1.00  0.00     0.049 A 
ATOM     62  H   UNL     1      12.950  13.515  -1.114  1.00  0.00     0.167 HD
ATOM     63  C   UNL     1      12.217  15.259   0.983  1.00  0.00     0.074 A 
ATOM     64  C   UNL     1      11.443  15.881   2.035  1.00  0.00     0.031 C 
ATOM     65  C   UNL     1      13.492  15.599   0.672  1.00  0.00     0.037 A 
BRANCH  52  66
ATOM     66  C   UNL     1      15.933  12.211  -3.869  1.00  0.00     0.064 A 
ATOM     67  C   UNL     1      15.963  12.507  -5.240  1.00  0.00     0.173 A 
ATOM     68  C   UNL     1      17.083  11.651  -3.291  1.00  0.00     0.173 A 
ATOM     69  F   UNL     1      14.883  13.026  -5.843  1.00  0.00    -0.203 F 
ATOM     70  C   UNL     1      17.092  12.229  -6.007  1.00  0.00     0.198 A 
ATOM     71  C   UNL     1      18.220  11.405  -4.055  1.00  0.00     0.198 A 
ATOM     72  F   UNL     1      17.106  11.351  -1.984  1.00  0.00    -0.203 F 
ATOM     73  F   UNL     1      17.081  12.474  -7.324  1.00  0.00    -0.200 F 
ATOM     74  C   UNL     1      18.222  11.688  -5.412  1.00  0.00     0.200 A 
ATOM     75  F   UNL     1      19.315  10.894  -3.476  1.00  0.00    -0.200 F 
ATOM     76  F   UNL     1      19.311  11.432  -6.150  1.00  0.00    -0.200 F 
ENDBRANCH  52  66
BRANCH  53  77
ATOM     77  C   UNL     1       7.815  13.766   1.701  1.00  0.00     0.064 A 
ATOM     78  C   UNL     1       7.111  14.979   1.667  1.00  0.00     0.173 A 
ATOM     79  C   UNL     1       7.386  12.792   2.615  1.00  0.00     0.173 A 
ATOM     80  F   UNL     1       7.498  15.954   0.831  1.00  0.00    -0.203 F 
ATOM     81  C   UNL     1       6.043  15.218   2.531  1.00  0.00     0.198 A 
ATOM     82  C   UNL     1       6.299  13.020   3.456  1.00  0.00     0.198 A 
ATOM     83  F   UNL     1       8.026  11.616   2.692  1.00  0.00    -0.203 F 
ATOM     84  F   UNL     1       5.427  16.408   2.517  1.00  0.00    -0.200 F 
ATOM     85  C   UNL     1       5.636  14.237   3.421  1.00  0.00     0.200 A 
ATOM     86  F   UNL     1       5.902  12.065   4.308  1.00  0.00    -0.200 F 
ATOM     87  F   UNL     1       4.611  14.468   4.254  1.00  0.00    -0.200 F 
ENDBRANCH  53  77
BRANCH  65  88
ATOM     88  C   UNL     1      14.123  16.724   1.442  1.00  0.00     0.064 A 
ATOM     89  C   UNL     1      14.499  16.581   2.786  1.00  0.00     0.173 A 
ATOM     90  C   UNL     1      14.406  17.945   0.809  1.00  0.00     0.173 A 
ATOM     91  F   UNL     1      14.242  15.439   3.441  1.00  0.00    -0.203 F 
ATOM     92  C   UNL     1      15.112  17.626   3.474  1.00  0.00     0.198 A 
ATOM     93  C   UNL     1      15.048  18.976   1.490  1.00  0.00     0.198 A 
ATOM     94  F   UNL     1      14.078  18.131  -0.478  1.00  0.00    -0.203 F 
ATOM     95  F   UNL     1      15.420  17.483   4.770  1.00  0.00    -0.200 F 
ATOM     96  C   UNL     1      15.393  18.819   2.823  1.00  0.00     0.200 A 
ATOM     97  F   UNL     1      15.334  20.120   0.854  1.00  0.00    -0.200 F 
ATOM     98  F   UNL     1      15.992  19.819   3.483  1.00  0.00    -0.200 F 
ENDBRANCH  65  88
ENDBRANCH  39  40
ENDBRANCH  32  34
ENDBRANCH  31  32
ENDBRANCH  30  31
ENDBRANCH  29  30
ENDBRANCH  28  29
ENDBRANCH   1  28
TORSDOF 18
