REMARK SMILES C[C@@H](C(=O)OCCOCCOC(=O)c1ccc(-c2c3nc(c(-c4c(F)c(F)c(F)c(F)c4F)c4ccc([nH]4)c(-c4c(F)c(F)c(F)c(F)c4F)c4nc(c(-c5c(F)c(F)c(F)c(F)c5F)c5ccc2[nH]5)C=C4)C=C3)cc1)n1ccc(C(=O)N2CC[NH+](Cc3cccc(F)c3)CC2)n1
REMARK SMILES IDX 7 1 6 2 5 3 3 4 4 5 2 6 1 7 77 8 78 9 97 10 79 11 80 12
REMARK SMILES IDX 81 13 82 14 83 15 84 16 96 17 85 18 95 19 86 20 87 22 88 23
REMARK SMILES IDX 89 24 94 25 90 26 92 27 91 28 93 29 8 30 9 31 10 32 11 33
REMARK SMILES IDX 12 34 13 35 14 36 15 37 76 38 16 39 75 40 17 41 18 42 19 43
REMARK SMILES IDX 69 44 20 45 74 46 68 47 70 48 21 49 73 50 67 51 66 52 22 54
REMARK SMILES IDX 54 55 34 56 53 57 35 58 38 59 52 60 71 61 36 62 37 63 51 65
REMARK SMILES IDX 72 66 39 67 23 68 24 69 32 70 25 71 26 72 30 73 33 74 27 75
REMARK SMILES IDX 28 76 31 77 29 78 55 79 56 80 64 81 57 82 58 83 62 84 65 85
REMARK SMILES IDX 59 86 60 87 63 88 61 89 40 90 41 91 49 92 42 93 43 94 47 95
REMARK SMILES IDX 50 96 44 97 45 98 48 99 46 100
REMARK H PARENT 86 21 70 53 38 64
REMARK Flexibility Score: inf
ROOT
ATOM      1  C   UNL     1       2.352  -1.206  -4.516  1.00  0.00     0.202 C 
ENDROOT
BRANCH   1   2
ATOM      2  C   UNL     1       2.259   0.287  -4.192  1.00  0.00     0.261 C 
BRANCH   2   3
ATOM      3  O   UNL     1       2.068   0.475  -2.776  1.00  0.00    -0.462 OA
BRANCH   3   4
ATOM      4  C   UNL     1       1.031   1.284  -2.419  1.00  0.00     0.330 C 
ATOM      5  O   UNL     1       0.400   1.969  -3.216  1.00  0.00    -0.250 OA
BRANCH   4   6
ATOM      6  C   UNL     1       0.742   1.226  -0.926  1.00  0.00     0.213 C 
ATOM      7  C   UNL     1       1.568   0.242  -0.102  1.00  0.00     0.046 C 
BRANCH   6   8
ATOM      8  N   UNL     1      -0.691   1.030  -0.736  1.00  0.00    -0.258 N 
ATOM      9  C   UNL     1      -1.422  -0.120  -0.814  1.00  0.00     0.110 A 
ATOM     10  N   UNL     1      -1.440   2.106  -0.471  1.00  0.00    -0.167 NA
ATOM     11  C   UNL     1      -2.740   0.262  -0.722  1.00  0.00     0.056 A 
ATOM     12  C   UNL     1      -2.709   1.667  -0.543  1.00  0.00     0.150 A 
BRANCH  12  13
ATOM     13  C   UNL     1      -3.852   2.568  -0.345  1.00  0.00     0.274 C 
ATOM     14  O   UNL     1      -4.909   2.154   0.133  1.00  0.00    -0.267 OA
ATOM     15  N   UNL     1      -3.655   3.914  -0.667  1.00  0.00    -0.326 N 
ATOM     16  C   UNL     1      -4.568   4.872  -0.072  1.00  0.00     0.181 C 
ATOM     17  C   UNL     1      -3.001   4.305  -1.922  1.00  0.00     0.181 C 
ATOM     18  C   UNL     1      -4.093   6.331  -0.176  1.00  0.00     0.284 C 
ATOM     19  C   UNL     1      -2.567   5.780  -1.968  1.00  0.00     0.284 C 
ATOM     20  N   UNL     1      -3.547   6.754  -1.472  1.00  0.00    -0.328 N 
ATOM     21  H   UNL     1      -3.031   7.616  -1.298  1.00  0.00     0.348 HD
BRANCH  20  22
ATOM     22  C   UNL     1      -4.514   7.259  -2.452  1.00  0.00     0.299 C 
BRANCH  22  23
ATOM     23  C   UNL     1      -5.486   6.272  -3.054  1.00  0.00     0.009 A 
ATOM     24  C   UNL     1      -5.192   5.618  -4.263  1.00  0.00     0.010 A 
ATOM     25  C   UNL     1      -6.688   5.964  -2.402  1.00  0.00     0.048 A 
ATOM     26  C   UNL     1      -6.034   4.617  -4.756  1.00  0.00     0.004 A 
ATOM     27  C   UNL     1      -7.509   4.954  -2.891  1.00  0.00     0.123 A 
ATOM     28  C   UNL     1      -7.186   4.269  -4.055  1.00  0.00     0.039 A 
ATOM     29  F   UNL     1      -8.614   4.619  -2.212  1.00  0.00    -0.207 F 
ENDBRANCH  22  23
ENDBRANCH  20  22
ENDBRANCH  12  13
ENDBRANCH   6   8
ENDBRANCH   4   6
ENDBRANCH   3   4
ENDBRANCH   2   3
ENDBRANCH   1   2
BRANCH   1  30
ATOM     30  O   UNL     1       1.125  -1.937  -4.441  1.00  0.00    -0.374 OA
BRANCH  30  31
ATOM     31  C   UNL     1       0.589  -2.186  -3.145  1.00  0.00     0.202 C 
BRANCH  31  32
ATOM     32  C   UNL     1       1.199  -3.361  -2.372  1.00  0.00     0.261 C 
BRANCH  32  33
ATOM     33  O   UNL     1       2.597  -3.155  -2.104  1.00  0.00    -0.460 OA
BRANCH  33  34
ATOM     34  C   UNL     1       3.422  -3.988  -2.779  1.00  0.00     0.338 C 
ATOM     35  O   UNL     1       3.106  -4.942  -3.478  1.00  0.00    -0.246 OA
BRANCH  34  36
ATOM     36  C   UNL     1       4.809  -3.495  -2.716  1.00  0.00     0.060 A 
ATOM     37  C   UNL     1       5.484  -3.338  -3.933  1.00  0.00     0.016 A 
ATOM     38  C   UNL     1       5.463  -3.265  -1.504  1.00  0.00     0.016 A 
ATOM     39  C   UNL     1       6.836  -3.007  -3.943  1.00  0.00     0.010 A 
ATOM     40  C   UNL     1       6.825  -2.942  -1.515  1.00  0.00     0.010 A 
ATOM     41  C   UNL     1       7.524  -2.852  -2.733  1.00  0.00    -0.014 A 
BRANCH  41  42
ATOM     42  C   UNL     1       9.003  -2.764  -2.755  1.00  0.00     0.031 A 
ATOM     43  C   UNL     1       9.807  -4.015  -2.536  1.00  0.00     0.074 A 
ATOM     44  C   UNL     1       9.621  -1.600  -3.023  1.00  0.00     0.049 A 
ATOM     45  N   UNL     1      11.105  -4.179  -2.526  1.00  0.00    -0.248 NA
ATOM     46  C   UNL     1       9.043  -5.251  -2.298  1.00  0.00     0.031 C 
ATOM     47  C   UNL     1       8.949  -0.332  -3.296  1.00  0.00     0.029 A 
ATOM     48  N   UNL     1      10.957  -1.302  -3.112  1.00  0.00    -0.354 N 
ATOM     49  C   UNL     1      11.313  -5.530  -2.281  1.00  0.00     0.074 A 
ATOM     50  C   UNL     1      10.010  -6.138  -2.119  1.00  0.00     0.031 C 
ATOM     51  C   UNL     1       9.879   0.614  -3.516  1.00  0.00     0.029 A 
ATOM     52  C   UNL     1      11.208   0.021  -3.376  1.00  0.00     0.049 A 
ATOM     53  H   UNL     1      11.668  -1.974  -2.997  1.00  0.00     0.167 HD
ATOM     54  C   UNL     1      12.485  -6.205  -2.209  1.00  0.00     0.037 A 
ATOM     55  C   UNL     1      12.380   0.678  -3.478  1.00  0.00     0.037 A 
ATOM     56  C   UNL     1      13.780  -5.601  -2.374  1.00  0.00     0.049 A 
ATOM     57  C   UNL     1      13.671  -0.084  -3.325  1.00  0.00     0.074 A 
ATOM     58  C   UNL     1      15.025  -6.204  -2.339  1.00  0.00     0.029 A 
ATOM     59  N   UNL     1      13.995  -4.249  -2.599  1.00  0.00    -0.354 N 
ATOM     60  N   UNL     1      13.858  -1.365  -3.122  1.00  0.00    -0.248 NA
ATOM     61  C   UNL     1      14.915   0.694  -3.419  1.00  0.00     0.031 C 
ATOM     62  C   UNL     1      15.996  -5.210  -2.498  1.00  0.00     0.029 A 
ATOM     63  C   UNL     1      15.355  -3.995  -2.678  1.00  0.00     0.049 A 
ATOM     64  H   UNL     1      13.287  -3.571  -2.689  1.00  0.00     0.167 HD
ATOM     65  C   UNL     1      15.233  -1.552  -3.090  1.00  0.00     0.074 A 
ATOM     66  C   UNL     1      15.836  -0.253  -3.306  1.00  0.00     0.031 C 
ATOM     67  C   UNL     1      15.936  -2.696  -2.901  1.00  0.00     0.037 A 
BRANCH  54  68
ATOM     68  C   UNL     1      12.419  -7.673  -1.916  1.00  0.00     0.064 A 
ATOM     69  C   UNL     1      11.984  -8.598  -2.877  1.00  0.00     0.173 A 
ATOM     70  C   UNL     1      12.825  -8.166  -0.667  1.00  0.00     0.173 A 
ATOM     71  F   UNL     1      11.570  -8.174  -4.081  1.00  0.00    -0.203 F 
ATOM     72  C   UNL     1      11.938  -9.960  -2.591  1.00  0.00     0.198 A 
ATOM     73  C   UNL     1      12.801  -9.530  -0.392  1.00  0.00     0.198 A 
ATOM     74  F   UNL     1      13.250  -7.323   0.286  1.00  0.00    -0.203 F 
ATOM     75  F   UNL     1      11.480 -10.821  -3.510  1.00  0.00    -0.200 F 
ATOM     76  C   UNL     1      12.352 -10.425  -1.352  1.00  0.00     0.200 A 
ATOM     77  F   UNL     1      13.210  -9.979   0.802  1.00  0.00    -0.200 F 
ATOM     78  F   UNL     1      12.312 -11.737  -1.080  1.00  0.00    -0.200 F 
ENDBRANCH  54  68
BRANCH  55  79
ATOM     79  C   UNL     1      12.389   2.141  -3.731  1.00  0.00     0.064 A 
ATOM     80  C   UNL     1      12.839   2.662  -4.952  1.00  0.00     0.173 A 
ATOM     81  C   UNL     1      11.965   3.049  -2.749  1.00  0.00     0.173 A 
ATOM     82  F   UNL     1      13.279   1.835  -5.911  1.00  0.00    -0.203 F 
ATOM     83  C   UNL     1      12.877   4.037  -5.176  1.00  0.00     0.198 A 
ATOM     84  C   UNL     1      11.980   4.422  -2.984  1.00  0.00     0.198 A 
ATOM     85  F   UNL     1      11.529   2.600  -1.563  1.00  0.00    -0.203 F 
ATOM     86  F   UNL     1      13.350   4.511  -6.337  1.00  0.00    -0.200 F 
ATOM     87  C   UNL     1      12.442   4.915  -4.194  1.00  0.00     0.200 A 
ATOM     88  F   UNL     1      11.549   5.266  -2.037  1.00  0.00    -0.200 F 
ATOM     89  F   UNL     1      12.477   6.237  -4.412  1.00  0.00    -0.200 F 
ENDBRANCH  55  79
BRANCH  67  90
ATOM     90  C   UNL     1      17.433  -2.602  -2.950  1.00  0.00     0.064 A 
ATOM     91  C   UNL     1      18.167  -2.025  -1.904  1.00  0.00     0.173 A 
ATOM     92  C   UNL     1      18.142  -3.138  -4.035  1.00  0.00     0.173 A 
ATOM     93  F   UNL     1      17.533  -1.486  -0.851  1.00  0.00    -0.203 F 
ATOM     94  C   UNL     1      19.557  -1.967  -1.954  1.00  0.00     0.198 A 
ATOM     95  C   UNL     1      19.533  -3.102  -4.069  1.00  0.00     0.198 A 
ATOM     96  F   UNL     1      17.486  -3.707  -5.058  1.00  0.00    -0.203 F 
ATOM     97  F   UNL     1      20.237  -1.374  -0.963  1.00  0.00    -0.200 F 
ATOM     98  C   UNL     1      20.239  -2.512  -3.032  1.00  0.00     0.200 A 
ATOM     99  F   UNL     1      20.191  -3.640  -5.106  1.00  0.00    -0.200 F 
ATOM    100  F   UNL     1      21.578  -2.462  -3.074  1.00  0.00    -0.200 F 
ENDBRANCH  67  90
ENDBRANCH  41  42
ENDBRANCH  34  36
ENDBRANCH  33  34
ENDBRANCH  32  33
ENDBRANCH  31  32
ENDBRANCH  30  31
ENDBRANCH   1  30
TORSDOF 18
