REMARK SMILES Cc1c(Br)c(C)c2c(c1Br)O[C@H](C(F)(F)F)C(C(=O)OCCOCCOC(=O)c1ccc(-c3c4nc(c(-c5c(F)c(F)c(F)c(F)c5F)c5ccc([nH]5)c(-c5c(F)c(F)c(F)c(F)c5F)c5nc(c(-c6c(F)c(F)c(F)c(F)c6F)c6ccc3[nH]6)C=C5)C=C4)cc1)=C2
REMARK SMILES IDX 24 1 23 2 22 3 21 4 20 5 18 6 19 7 17 8 1 9 2 10 3 11 9 12
REMARK SMILES IDX 4 13 5 14 8 15 10 16 6 17 7 18 11 19 92 20 12 21 13 22 14 23
REMARK SMILES IDX 15 24 16 25 25 26 26 27 27 28 28 29 29 30 30 31 91 32 31 33
REMARK SMILES IDX 90 34 32 35 33 36 34 37 84 38 35 39 89 40 83 41 85 42 36 43
REMARK SMILES IDX 88 44 82 45 81 46 37 48 69 49 49 50 68 51 50 52 53 53 67 54
REMARK SMILES IDX 86 55 51 56 52 57 66 59 87 60 54 61 38 62 39 63 47 64 40 65
REMARK SMILES IDX 41 66 45 67 48 68 42 69 43 70 46 71 44 72 70 73 71 74 79 75
REMARK SMILES IDX 72 76 73 77 77 78 80 79 74 80 75 81 78 82 76 83 55 84 56 85
REMARK SMILES IDX 64 86 57 87 58 88 62 89 65 90 59 91 60 92 63 93 61 94
REMARK H PARENT 85 47 53 58
REMARK Flexibility Score: inf
ROOT
ATOM      1  C   UNL     1       0.743   5.890   6.765  1.00  0.00     0.202 C 
ENDROOT
BRANCH   1   2
ATOM      2  O   UNL     1      -0.100   6.975   7.158  1.00  0.00    -0.374 OA
BRANCH   2   3
ATOM      3  C   UNL     1      -1.244   6.679   7.953  1.00  0.00     0.202 C 
BRANCH   3   4
ATOM      4  C   UNL     1      -2.464   6.109   7.224  1.00  0.00     0.261 C 
BRANCH   4   5
ATOM      5  O   UNL     1      -2.136   4.928   6.475  1.00  0.00    -0.460 OA
BRANCH   5   6
ATOM      6  C   UNL     1      -2.209   5.080   5.133  1.00  0.00     0.338 C 
ATOM      7  O   UNL     1      -2.645   6.047   4.526  1.00  0.00    -0.246 OA
BRANCH   6   8
ATOM      8  C   UNL     1      -1.558   3.940   4.462  1.00  0.00     0.087 C 
ATOM      9  C   UNL     1       1.050  -0.072   0.023  1.00  0.00     0.047 C 
ATOM     10  C   UNL     1       0.662   1.041   0.970  1.00  0.00    -0.019 A 
ATOM     11  C   UNL     1       0.997   2.383   0.653  1.00  0.00     0.025 A 
ATOM     12  C   UNL     1      -0.031   0.795   2.172  1.00  0.00     0.064 A 
ATOM     13  Br  UNL     1       2.002   2.728  -0.949  1.00  0.00    -0.050 Br
ATOM     14  C   UNL     1       0.600   3.461   1.480  1.00  0.00    -0.026 A 
ATOM     15  C   UNL     1      -0.457   1.857   2.993  1.00  0.00     0.142 A 
ATOM     16  Br  UNL     1      -0.448  -0.989   2.736  1.00  0.00    -0.046 Br
ATOM     17  C   UNL     1       0.971   4.898   1.177  1.00  0.00     0.046 C 
ATOM     18  C   UNL     1      -0.179   3.182   2.630  1.00  0.00     0.022 A 
ATOM     19  O   UNL     1      -1.120   1.528   4.149  1.00  0.00    -0.474 OA
ATOM     20  C   UNL     1      -0.763   4.253   3.433  1.00  0.00     0.027 C 
ATOM     21  C   UNL     1      -1.818   2.540   4.914  1.00  0.00     0.316 C 
BRANCH  21  22
ATOM     22  C   UNL     1      -3.314   2.191   4.944  1.00  0.00     0.430 C 
ATOM     23  F   UNL     1      -3.511   0.905   5.323  1.00  0.00    -0.167 F 
ATOM     24  F   UNL     1      -3.989   2.961   5.831  1.00  0.00    -0.167 F 
ATOM     25  F   UNL     1      -3.898   2.355   3.737  1.00  0.00    -0.167 F 
ENDBRANCH  21  22
ENDBRANCH   6   8
ENDBRANCH   5   6
ENDBRANCH   4   5
ENDBRANCH   3   4
ENDBRANCH   2   3
ENDBRANCH   1   2
BRANCH   1  26
ATOM     26  C   UNL     1       1.576   5.215   7.862  1.00  0.00     0.261 C 
BRANCH  26  27
ATOM     27  O   UNL     1       0.754   4.451   8.766  1.00  0.00    -0.460 OA
BRANCH  27  28
ATOM     28  C   UNL     1       0.804   4.850  10.058  1.00  0.00     0.338 C 
ATOM     29  O   UNL     1       1.514   5.721  10.543  1.00  0.00    -0.246 OA
BRANCH  28  30
ATOM     30  C   UNL     1      -0.280   4.211  10.819  1.00  0.00     0.060 A 
ATOM     31  C   UNL     1      -1.249   5.041  11.397  1.00  0.00     0.016 A 
ATOM     32  C   UNL     1      -0.297   2.833  11.042  1.00  0.00     0.016 A 
ATOM     33  C   UNL     1      -2.221   4.499  12.232  1.00  0.00     0.010 A 
ATOM     34  C   UNL     1      -1.267   2.292  11.893  1.00  0.00     0.010 A 
ATOM     35  C   UNL     1      -2.211   3.127  12.517  1.00  0.00    -0.014 A 
BRANCH  35  36
ATOM     36  C   UNL     1      -3.095   2.609  13.588  1.00  0.00     0.031 A 
ATOM     37  C   UNL     1      -2.538   2.441  14.973  1.00  0.00     0.074 A 
ATOM     38  C   UNL     1      -4.393   2.356  13.344  1.00  0.00     0.049 A 
ATOM     39  N   UNL     1      -3.137   2.042  16.066  1.00  0.00    -0.248 NA
ATOM     40  C   UNL     1      -1.115   2.772  15.154  1.00  0.00     0.031 C 
ATOM     41  C   UNL     1      -5.055   2.526  12.053  1.00  0.00     0.029 A 
ATOM     42  N   UNL     1      -5.387   1.912  14.178  1.00  0.00    -0.354 N 
ATOM     43  C   UNL     1      -2.171   2.087  17.062  1.00  0.00     0.074 A 
ATOM     44  C   UNL     1      -0.936   2.510  16.440  1.00  0.00     0.031 C 
ATOM     45  C   UNL     1      -6.351   2.197  12.182  1.00  0.00     0.029 A 
ATOM     46  C   UNL     1      -6.603   1.768  13.558  1.00  0.00     0.049 A 
ATOM     47  H   UNL     1      -5.242   1.714  15.132  1.00  0.00     0.167 HD
ATOM     48  C   UNL     1      -2.309   1.818  18.382  1.00  0.00     0.037 A 
ATOM     49  C   UNL     1      -7.782   1.334  14.046  1.00  0.00     0.037 A 
ATOM     50  C   UNL     1      -3.538   1.395  18.999  1.00  0.00     0.049 A 
ATOM     51  C   UNL     1      -7.883   0.946  15.498  1.00  0.00     0.074 A 
ATOM     52  C   UNL     1      -3.779   1.110  20.331  1.00  0.00     0.029 A 
ATOM     53  N   UNL     1      -4.730   1.190  18.322  1.00  0.00    -0.354 N 
ATOM     54  N   UNL     1      -6.973   1.016  16.439  1.00  0.00    -0.248 NA
ATOM     55  C   UNL     1      -9.176   0.414  15.956  1.00  0.00     0.031 C 
ATOM     56  C   UNL     1      -5.104   0.685  20.452  1.00  0.00     0.029 A 
ATOM     57  C   UNL     1      -5.703   0.752  19.204  1.00  0.00     0.049 A 
ATOM     58  H   UNL     1      -4.865   1.335  17.357  1.00  0.00     0.167 HD
ATOM     59  C   UNL     1      -7.584   0.560  17.599  1.00  0.00     0.074 A 
ATOM     60  C   UNL     1      -8.949   0.227  17.250  1.00  0.00     0.031 C 
ATOM     61  C   UNL     1      -7.059   0.427  18.842  1.00  0.00     0.037 A 
BRANCH  48  62
ATOM     62  C   UNL     1      -1.098   1.968  19.253  1.00  0.00     0.064 A 
ATOM     63  C   UNL     1      -0.595   3.232  19.594  1.00  0.00     0.173 A 
ATOM     64  C   UNL     1      -0.471   0.840  19.802  1.00  0.00     0.173 A 
ATOM     65  F   UNL     1      -1.153   4.340  19.084  1.00  0.00    -0.203 F 
ATOM     66  C   UNL     1       0.501   3.361  20.442  1.00  0.00     0.198 A 
ATOM     67  C   UNL     1       0.610   0.973  20.670  1.00  0.00     0.198 A 
ATOM     68  F   UNL     1      -0.917  -0.391  19.510  1.00  0.00    -0.203 F 
ATOM     69  F   UNL     1       0.986   4.577  20.728  1.00  0.00    -0.200 F 
ATOM     70  C   UNL     1       1.097   2.233  20.986  1.00  0.00     0.200 A 
ATOM     71  F   UNL     1       1.177  -0.117  21.204  1.00  0.00    -0.200 F 
ATOM     72  F   UNL     1       2.144   2.359  21.813  1.00  0.00    -0.200 F 
ENDBRANCH  48  62
BRANCH  49  73
ATOM     73  C   UNL     1      -8.965   1.250  13.151  1.00  0.00     0.064 A 
ATOM     74  C   UNL     1     -10.053   2.119  13.312  1.00  0.00     0.173 A 
ATOM     75  C   UNL     1      -9.031   0.306  12.116  1.00  0.00     0.173 A 
ATOM     76  F   UNL     1     -10.047   3.022  14.304  1.00  0.00    -0.203 F 
ATOM     77  C   UNL     1     -11.165   2.041  12.476  1.00  0.00     0.198 A 
ATOM     78  C   UNL     1     -10.133   0.246  11.265  1.00  0.00     0.198 A 
ATOM     79  F   UNL     1      -8.018  -0.551  11.923  1.00  0.00    -0.203 F 
ATOM     80  F   UNL     1     -12.207   2.861  12.674  1.00  0.00    -0.200 F 
ATOM     81  C   UNL     1     -11.201   1.110  11.449  1.00  0.00     0.200 A 
ATOM     82  F   UNL     1     -10.159  -0.649  10.268  1.00  0.00    -0.200 F 
ATOM     83  F   UNL     1     -12.267   1.042  10.640  1.00  0.00    -0.200 F 
ENDBRANCH  49  73
BRANCH  61  84
ATOM     84  C   UNL     1      -7.953  -0.094  19.928  1.00  0.00     0.064 A 
ATOM     85  C   UNL     1      -8.307  -1.449  19.993  1.00  0.00     0.173 A 
ATOM     86  C   UNL     1      -8.377   0.748  20.968  1.00  0.00     0.173 A 
ATOM     87  F   UNL     1      -7.936  -2.291  19.017  1.00  0.00    -0.203 F 
ATOM     88  C   UNL     1      -9.058  -1.942  21.058  1.00  0.00     0.198 A 
ATOM     89  C   UNL     1      -9.104   0.247  22.044  1.00  0.00     0.198 A 
ATOM     90  F   UNL     1      -8.057   2.050  20.957  1.00  0.00    -0.203 F 
ATOM     91  F   UNL     1      -9.405  -3.236  21.088  1.00  0.00    -0.200 F 
ATOM     92  C   UNL     1      -9.445  -1.097  22.087  1.00  0.00     0.200 A 
ATOM     93  F   UNL     1      -9.463   1.061  23.046  1.00  0.00    -0.200 F 
ATOM     94  F   UNL     1     -10.147  -1.578  23.123  1.00  0.00    -0.200 F 
ENDBRANCH  61  84
ENDBRANCH  35  36
ENDBRANCH  28  30
ENDBRANCH  27  28
ENDBRANCH  26  27
ENDBRANCH   1  26
TORSDOF 15
