REMARK SMILES CC(C)[NH2+][C@]1(C(=O)OCCOCCOC(=O)c2ccc(-c3c4nc(c(-c5c(F)c(F)c(F)c(F)c5F)c5ccc([nH]5)c(-c5c(F)c(F)c(F)c(F)c5F)c5nc(c(-c6c(F)c(F)c(F)c(F)c6F)c6ccc3[nH]6)C=C5)C=C4)cc2)CCC[C@@H](Sc2nnnn2C)C1
REMARK SMILES IDX 11 1 10 2 9 3 8 4 6 5 7 6 5 7 80 8 91 9 81 10 83 11 82 12
REMARK SMILES IDX 4 13 2 16 1 17 3 18 84 19 85 20 86 21 89 22 87 23 88 24
REMARK SMILES IDX 90 25 12 26 13 27 14 28 15 29 16 30 17 31 18 32 79 33 19 34
REMARK SMILES IDX 78 35 20 36 21 37 22 38 72 39 23 40 77 41 71 42 73 43 24 44
REMARK SMILES IDX 76 45 70 46 69 47 25 49 57 50 37 51 56 52 38 53 41 54 55 55
REMARK SMILES IDX 74 56 39 57 40 58 54 60 75 61 42 62 26 63 27 64 35 65 28 66
REMARK SMILES IDX 29 67 33 68 36 69 30 70 31 71 34 72 32 73 58 74 59 75 67 76
REMARK SMILES IDX 60 77 61 78 65 79 68 80 62 81 63 82 66 83 64 84 43 85 44 86
REMARK SMILES IDX 52 87 45 88 46 89 50 90 53 91 47 92 48 93 51 94 49 95
REMARK H PARENT 4 14 4 15 73 48 41 59
REMARK Flexibility Score: inf
ROOT
ATOM      1  O   UNL     1      -0.988  -1.758  -1.187  1.00  0.00    -0.374 OA
ENDROOT
BRANCH   1   2
ATOM      2  C   UNL     1       0.161  -1.596  -0.372  1.00  0.00     0.202 C 
BRANCH   2   3
ATOM      3  C   UNL     1       0.561  -0.189   0.079  1.00  0.00     0.261 C 
BRANCH   3   4
ATOM      4  O   UNL     1      -0.244   0.393   1.129  1.00  0.00    -0.459 OA
BRANCH   4   5
ATOM      5  C   UNL     1      -1.070   1.413   0.755  1.00  0.00     0.368 C 
ATOM      6  O   UNL     1      -1.345   1.656  -0.418  1.00  0.00    -0.245 OA
BRANCH   5   7
ATOM      7  C   UNL     1      -1.507   2.342   1.933  1.00  0.00     0.195 C 
ATOM      8  C   UNL     1      -0.756   2.096   3.260  1.00  0.00     0.081 C 
ATOM      9  C   UNL     1      -1.037   3.707   1.383  1.00  0.00     0.096 C 
ATOM     10  C   UNL     1      -0.856   3.273   4.246  1.00  0.00     0.008 C 
ATOM     11  C   UNL     1      -1.209   4.878   2.330  1.00  0.00     0.061 C 
ATOM     12  C   UNL     1      -0.444   4.621   3.627  1.00  0.00     0.015 C 
BRANCH   7  13
ATOM     13  N   UNL     1      -2.982   2.489   2.142  1.00  0.00    -0.330 N 
ATOM     14  H   UNL     1      -3.111   3.008   3.010  1.00  0.00     0.347 HD
ATOM     15  H   UNL     1      -3.308   2.942   1.288  1.00  0.00     0.347 HD
BRANCH  13  16
ATOM     16  C   UNL     1      -3.804   1.285   2.236  1.00  0.00     0.176 C 
ATOM     17  C   UNL     1      -4.909   1.441   3.284  1.00  0.00     0.075 C 
ATOM     18  C   UNL     1      -4.486   1.043   0.882  1.00  0.00     0.075 C 
ENDBRANCH  13  16
ENDBRANCH   7  13
BRANCH  11  19
ATOM     19  S   UNL     1      -0.793   6.416   1.425  1.00  0.00    -0.081 SA
BRANCH  19  20
ATOM     20  C   UNL     1       0.874   6.244   1.012  1.00  0.00     0.209 A 
ATOM     21  N   UNL     1       1.857   6.825   1.659  1.00  0.00    -0.102 NA
ATOM     22  N   UNL     1       1.399   5.589  -0.072  1.00  0.00    -0.224 N 
ATOM     23  N   UNL     1       3.004   6.505   0.979  1.00  0.00    -0.023 NA
ATOM     24  N   UNL     1       2.738   5.735  -0.067  1.00  0.00    -0.045 NA
ATOM     25  C   UNL     1       0.810   4.768  -1.094  1.00  0.00     0.179 C 
ENDBRANCH  19  20
ENDBRANCH  11  19
ENDBRANCH   5   7
ENDBRANCH   4   5
ENDBRANCH   3   4
ENDBRANCH   2   3
ENDBRANCH   1   2
BRANCH   1  26
ATOM     26  C   UNL     1      -2.283  -1.416  -0.719  1.00  0.00     0.202 C 
BRANCH  26  27
ATOM     27  C   UNL     1      -2.626  -1.547   0.762  1.00  0.00     0.261 C 
BRANCH  27  28
ATOM     28  O   UNL     1      -1.902  -2.502   1.502  1.00  0.00    -0.460 OA
BRANCH  28  29
ATOM     29  C   UNL     1      -2.266  -3.771   1.285  1.00  0.00     0.338 C 
ATOM     30  O   UNL     1      -3.177  -4.203   0.607  1.00  0.00    -0.246 OA
BRANCH  29  31
ATOM     31  C   UNL     1      -1.202  -4.535   1.919  1.00  0.00     0.060 A 
ATOM     32  C   UNL     1      -0.323  -5.214   1.080  1.00  0.00     0.016 A 
ATOM     33  C   UNL     1      -1.027  -4.482   3.308  1.00  0.00     0.016 A 
ATOM     34  C   UNL     1       0.703  -5.939   1.651  1.00  0.00     0.010 A 
ATOM     35  C   UNL     1       0.016  -5.196   3.878  1.00  0.00     0.010 A 
ATOM     36  C   UNL     1       0.843  -5.966   3.048  1.00  0.00    -0.014 A 
BRANCH  36  37
ATOM     37  C   UNL     1       1.770  -6.954   3.617  1.00  0.00     0.031 A 
ATOM     38  C   UNL     1       1.198  -8.238   4.136  1.00  0.00     0.074 A 
ATOM     39  C   UNL     1       3.090  -6.732   3.519  1.00  0.00     0.049 A 
ATOM     40  N   UNL     1       1.817  -9.314   4.540  1.00  0.00    -0.248 NA
ATOM     41  C   UNL     1      -0.272  -8.332   4.200  1.00  0.00     0.031 C 
ATOM     42  C   UNL     1       3.701  -5.508   2.999  1.00  0.00     0.029 A 
ATOM     43  N   UNL     1       4.151  -7.540   3.815  1.00  0.00    -0.354 N 
ATOM     44  C   UNL     1       0.817 -10.213   4.883  1.00  0.00     0.074 A 
ATOM     45  C   UNL     1      -0.450  -9.545   4.699  1.00  0.00     0.031 C 
ATOM     46  C   UNL     1       5.035  -5.659   2.982  1.00  0.00     0.029 A 
ATOM     47  C   UNL     1       5.365  -6.975   3.517  1.00  0.00     0.049 A 
ATOM     48  H   UNL     1       4.054  -8.440   4.203  1.00  0.00     0.167 HD
ATOM     49  C   UNL     1       0.956 -11.495   5.290  1.00  0.00     0.037 A 
ATOM     50  C   UNL     1       6.601  -7.482   3.670  1.00  0.00     0.037 A 
ATOM     51  C   UNL     1       2.236 -12.126   5.470  1.00  0.00     0.049 A 
ATOM     52  C   UNL     1       6.718  -8.892   4.188  1.00  0.00     0.074 A 
ATOM     53  C   UNL     1       2.517 -13.406   5.906  1.00  0.00     0.029 A 
ATOM     54  N   UNL     1       3.454 -11.508   5.218  1.00  0.00    -0.354 N 
ATOM     55  N   UNL     1       5.769  -9.747   4.495  1.00  0.00    -0.248 NA
ATOM     56  C   UNL     1       8.076  -9.414   4.365  1.00  0.00     0.031 C 
ATOM     57  C   UNL     1       3.908 -13.546   5.966  1.00  0.00     0.029 A 
ATOM     58  C   UNL     1       4.493 -12.376   5.505  1.00  0.00     0.049 A 
ATOM     59  H   UNL     1       3.563 -10.588   4.884  1.00  0.00     0.167 HD
ATOM     60  C   UNL     1       6.413 -10.913   4.880  1.00  0.00     0.074 A 
ATOM     61  C   UNL     1       7.834 -10.666   4.723  1.00  0.00     0.031 C 
ATOM     62  C   UNL     1       5.893 -12.082   5.334  1.00  0.00     0.037 A 
BRANCH  49  63
ATOM     63  C   UNL     1      -0.291 -12.281   5.573  1.00  0.00     0.064 A 
ATOM     64  C   UNL     1      -1.155 -12.689   4.545  1.00  0.00     0.173 A 
ATOM     65  C   UNL     1      -0.608 -12.666   6.884  1.00  0.00     0.173 A 
ATOM     66  F   UNL     1      -0.913 -12.326   3.276  1.00  0.00    -0.203 F 
ATOM     67  C   UNL     1      -2.292 -13.444   4.819  1.00  0.00     0.198 A 
ATOM     68  C   UNL     1      -1.730 -13.446   7.152  1.00  0.00     0.198 A 
ATOM     69  F   UNL     1       0.178 -12.296   7.906  1.00  0.00    -0.203 F 
ATOM     70  F   UNL     1      -3.122 -13.790   3.825  1.00  0.00    -0.200 F 
ATOM     71  C   UNL     1      -2.573 -13.832   6.121  1.00  0.00     0.200 A 
ATOM     72  F   UNL     1      -1.995 -13.827   8.409  1.00  0.00    -0.200 F 
ATOM     73  F   UNL     1      -3.658 -14.573   6.382  1.00  0.00    -0.200 F 
ENDBRANCH  49  63
BRANCH  50  74
ATOM     74  C   UNL     1       7.803  -6.666   3.350  1.00  0.00     0.064 A 
ATOM     75  C   UNL     1       8.710  -7.053   2.354  1.00  0.00     0.173 A 
ATOM     76  C   UNL     1       8.095  -5.499   4.074  1.00  0.00     0.173 A 
ATOM     77  F   UNL     1       8.484  -8.164   1.637  1.00  0.00    -0.203 F 
ATOM     78  C   UNL     1       9.883  -6.335   2.128  1.00  0.00     0.198 A 
ATOM     79  C   UNL     1       9.248  -4.760   3.819  1.00  0.00     0.198 A 
ATOM     80  F   UNL     1       7.259  -5.074   5.032  1.00  0.00    -0.203 F 
ATOM     81  F   UNL     1      10.768  -6.772   1.222  1.00  0.00    -0.200 F 
ATOM     82  C   UNL     1      10.150  -5.188   2.860  1.00  0.00     0.200 A 
ATOM     83  F   UNL     1       9.488  -3.640   4.514  1.00  0.00    -0.200 F 
ATOM     84  F   UNL     1      11.283  -4.503   2.648  1.00  0.00    -0.200 F 
ENDBRANCH  50  74
BRANCH  62  85
ATOM     85  C   UNL     1       6.878 -13.169   5.655  1.00  0.00     0.064 A 
ATOM     86  C   UNL     1       7.769 -13.059   6.733  1.00  0.00     0.173 A 
ATOM     87  C   UNL     1       6.936 -14.327   4.867  1.00  0.00     0.173 A 
ATOM     88  F   UNL     1       7.759 -11.965   7.510  1.00  0.00    -0.203 F 
ATOM     89  C   UNL     1       8.726 -14.040   6.970  1.00  0.00     0.198 A 
ATOM     90  C   UNL     1       7.864 -15.328   5.135  1.00  0.00     0.198 A 
ATOM     91  F   UNL     1       6.095 -14.488   3.834  1.00  0.00    -0.203 F 
ATOM     92  F   UNL     1       9.627 -13.872   7.947  1.00  0.00    -0.200 F 
ATOM     93  C   UNL     1       8.770 -15.175   6.173  1.00  0.00     0.200 A 
ATOM     94  F   UNL     1       7.892 -16.433   4.378  1.00  0.00    -0.200 F 
ATOM     95  F   UNL     1       9.698 -16.116   6.398  1.00  0.00    -0.200 F 
ENDBRANCH  62  85
ENDBRANCH  36  37
ENDBRANCH  29  31
ENDBRANCH  28  29
ENDBRANCH  27  28
ENDBRANCH  26  27
ENDBRANCH   1  26
TORSDOF 18
