REMARK SMILES C#Cc1cccc(NS(=O)(=O)c2ccc(F)c(C(=O)OCCOCCOC(=O)c3ccc(-c4c5nc(c(-c6c(F)c(F)c(F)c(F)c6F)c6ccc([nH]6)c(-c6c(F)c(F)c(F)c(F)c6F)c6nc(c(-c7c(F)c(F)c(F)c(F)c7F)c7ccc4[nH]7)C=C6)C=C5)cc3)c2)c1
REMARK SMILES IDX 22 1 21 2 20 3 18 4 19 5 17 6 12 7 13 8 92 9 14 10 15 11
REMARK SMILES IDX 16 12 9 13 10 14 11 15 8 16 7 18 3 19 4 20 93 21 5 22 6 23
REMARK SMILES IDX 2 24 1 25 23 26 24 27 25 28 26 29 27 30 28 31 29 32 30 33
REMARK SMILES IDX 91 34 31 35 90 36 32 37 33 38 34 39 84 40 35 41 89 42 83 43
REMARK SMILES IDX 85 44 36 45 88 46 82 47 81 48 37 50 69 51 49 52 68 53 50 54
REMARK SMILES IDX 53 55 67 56 86 57 51 58 52 59 66 61 87 62 54 63 38 64 39 65
REMARK SMILES IDX 47 66 40 67 41 68 45 69 48 70 42 71 43 72 46 73 44 74 70 75
REMARK SMILES IDX 71 76 79 77 72 78 73 79 77 80 80 81 74 82 75 83 78 84 76 85
REMARK SMILES IDX 55 86 56 87 64 88 57 89 58 90 62 91 65 92 59 93 60 94 63 95
REMARK SMILES IDX 61 96
REMARK H PARENT 8 17 85 49 53 60
REMARK Flexibility Score: inf
ROOT
ATOM      1  C   UNL     1      10.452   1.857   1.377  1.00  0.00     0.202 C 
ENDROOT
BRANCH   1   2
ATOM      2  C   UNL     1       9.928   2.171  -0.025  1.00  0.00     0.261 C 
BRANCH   2   3
ATOM      3  O   UNL     1       8.501   2.086  -0.107  1.00  0.00    -0.460 OA
BRANCH   3   4
ATOM      4  C   UNL     1       8.053   0.944  -0.675  1.00  0.00     0.341 C 
ATOM      5  O   UNL     1       8.735   0.032  -1.115  1.00  0.00    -0.246 OA
BRANCH   4   6
ATOM      6  C   UNL     1       6.588   0.840  -0.616  1.00  0.00     0.097 A 
ATOM      7  C   UNL     1       4.655  -0.623  -0.603  1.00  0.00     0.088 A 
ATOM      8  C   UNL     1       3.862   0.452  -1.000  1.00  0.00     0.025 A 
ATOM      9  C   UNL     1       6.034  -0.440  -0.465  1.00  0.00     0.041 A 
ATOM     10  C   UNL     1       4.392   1.746  -0.988  1.00  0.00     0.041 A 
ATOM     11  C   UNL     1       5.752   1.940  -0.772  1.00  0.00     0.137 A 
ATOM     12  F   UNL     1       6.222   3.194  -0.753  1.00  0.00    -0.206 F 
BRANCH   7  13
ATOM     13  S   UNL     1       3.998  -2.183  -0.030  1.00  0.00     0.261 S 
ATOM     14  O   UNL     1       4.406  -2.303   1.353  1.00  0.00    -0.201 OA
ATOM     15  O   UNL     1       4.389  -3.166  -1.018  1.00  0.00    -0.201 OA
BRANCH  13  16
ATOM     16  N   UNL     1       2.330  -2.158  -0.081  1.00  0.00    -0.280 N 
ATOM     17  H   UNL     1       1.902  -2.933  -0.510  1.00  0.00     0.180 HD
BRANCH  16  18
ATOM     18  C   UNL     1       1.447  -1.159   0.416  1.00  0.00     0.050 A 
ATOM     19  C   UNL     1      -0.726  -0.131   0.124  1.00  0.00     0.026 A 
ATOM     20  C   UNL     1      -0.216   1.072   0.610  1.00  0.00     0.017 A 
ATOM     21  C   UNL     1       0.114  -1.240  -0.001  1.00  0.00     0.044 A 
ATOM     22  C   UNL     1       1.067   1.109   1.147  1.00  0.00     0.003 A 
ATOM     23  C   UNL     1       1.867  -0.036   1.130  1.00  0.00     0.027 A 
BRANCH  19  24
ATOM     24  C   UNL     1      -2.113  -0.215  -0.197  1.00  0.00    -0.070 C 
ATOM     25  C   UNL     1      -3.309  -0.248  -0.346  1.00  0.00     0.010 C 
ENDBRANCH  19  24
ENDBRANCH  16  18
ENDBRANCH  13  16
ENDBRANCH   7  13
ENDBRANCH   4   6
ENDBRANCH   3   4
ENDBRANCH   2   3
ENDBRANCH   1   2
BRANCH   1  26
ATOM     26  O   UNL     1      10.127   0.603   1.966  1.00  0.00    -0.374 OA
BRANCH  26  27
ATOM     27  C   UNL     1       8.810   0.407   2.476  1.00  0.00     0.202 C 
BRANCH  27  28
ATOM     28  C   UNL     1       8.392   1.144   3.756  1.00  0.00     0.261 C 
BRANCH  28  29
ATOM     29  O   UNL     1       8.437   2.575   3.638  1.00  0.00    -0.460 OA
BRANCH  29  30
ATOM     30  C   UNL     1       9.488   3.155   4.269  1.00  0.00     0.338 C 
ATOM     31  O   UNL     1      10.350   2.608   4.934  1.00  0.00    -0.246 OA
BRANCH  30  32
ATOM     32  C   UNL     1       9.574   4.576   3.889  1.00  0.00     0.060 A 
ATOM     33  C   UNL     1      10.747   5.019   3.263  1.00  0.00     0.016 A 
ATOM     34  C   UNL     1       8.560   5.474   4.220  1.00  0.00     0.016 A 
ATOM     35  C   UNL     1      10.928   6.374   3.000  1.00  0.00     0.010 A 
ATOM     36  C   UNL     1       8.748   6.835   3.965  1.00  0.00     0.010 A 
ATOM     37  C   UNL     1       9.944   7.295   3.384  1.00  0.00    -0.014 A 
BRANCH  37  38
ATOM     38  C   UNL     1      10.216   8.749   3.284  1.00  0.00     0.031 A 
ATOM     39  C   UNL     1      10.515   9.529   4.532  1.00  0.00     0.074 A 
ATOM     40  C   UNL     1      10.213   9.361   2.087  1.00  0.00     0.049 A 
ATOM     41  N   UNL     1      10.717  10.814   4.679  1.00  0.00    -0.248 NA
ATOM     42  C   UNL     1      10.595   8.762   5.786  1.00  0.00     0.031 C 
ATOM     43  C   UNL     1       9.981   8.700   0.805  1.00  0.00     0.029 A 
ATOM     44  N   UNL     1      10.406  10.680   1.757  1.00  0.00    -0.354 N 
ATOM     45  C   UNL     1      10.937  11.009   6.036  1.00  0.00     0.074 A 
ATOM     46  C   UNL     1      10.809   9.719   6.677  1.00  0.00     0.031 C 
ATOM     47  C   UNL     1      10.044   9.616  -0.175  1.00  0.00     0.029 A 
ATOM     48  C   UNL     1      10.273  10.934   0.414  1.00  0.00     0.049 A 
ATOM     49  H   UNL     1      10.620  11.376   2.419  1.00  0.00     0.167 HD
ATOM     50  C   UNL     1      11.232  12.161   6.682  1.00  0.00     0.037 A 
ATOM     51  C   UNL     1      10.307  12.101  -0.260  1.00  0.00     0.037 A 
ATOM     52  C   UNL     1      11.366  13.440   6.032  1.00  0.00     0.049 A 
ATOM     53  C   UNL     1      10.555  13.381   0.494  1.00  0.00     0.074 A 
ATOM     54  C   UNL     1      11.684  14.661   6.600  1.00  0.00     0.029 A 
ATOM     55  N   UNL     1      11.183  13.665   4.676  1.00  0.00    -0.354 N 
ATOM     56  N   UNL     1      10.778  13.557   1.774  1.00  0.00    -0.248 NA
ATOM     57  C   UNL     1      10.558  14.626  -0.289  1.00  0.00     0.031 C 
ATOM     58  C   UNL     1      11.620  15.636   5.602  1.00  0.00     0.029 A 
ATOM     59  C   UNL     1      11.345  15.012   4.395  1.00  0.00     0.049 A 
ATOM     60  H   UNL     1      10.969  12.970   4.011  1.00  0.00     0.167 HD
ATOM     61  C   UNL     1      10.978  14.921   1.945  1.00  0.00     0.074 A 
ATOM     62  C   UNL     1      10.861  15.527   0.635  1.00  0.00     0.031 C 
ATOM     63  C   UNL     1      11.237  15.607   3.086  1.00  0.00     0.037 A 
BRANCH  50  64
ATOM     64  C   UNL     1      11.419  12.111   8.171  1.00  0.00     0.064 A 
ATOM     65  C   UNL     1      10.515  12.770   9.021  1.00  0.00     0.173 A 
ATOM     66  C   UNL     1      12.534  11.494   8.755  1.00  0.00     0.173 A 
ATOM     67  F   UNL     1       9.434  13.382   8.515  1.00  0.00    -0.203 F 
ATOM     68  C   UNL     1      10.736  12.833  10.394  1.00  0.00     0.198 A 
ATOM     69  C   UNL     1      12.733  11.529  10.134  1.00  0.00     0.198 A 
ATOM     70  F   UNL     1      13.423  10.841   7.991  1.00  0.00    -0.203 F 
ATOM     71  F   UNL     1       9.884  13.509  11.177  1.00  0.00    -0.200 F 
ATOM     72  C   UNL     1      11.842  12.210  10.950  1.00  0.00     0.200 A 
ATOM     73  F   UNL     1      13.790  10.905  10.672  1.00  0.00    -0.200 F 
ATOM     74  F   UNL     1      12.050  12.266  12.272  1.00  0.00    -0.200 F 
ENDBRANCH  50  64
BRANCH  51  75
ATOM     75  C   UNL     1      10.103  12.101  -1.732  1.00  0.00     0.064 A 
ATOM     76  C   UNL     1       8.870  11.741  -2.299  1.00  0.00     0.173 A 
ATOM     77  C   UNL     1      11.147  12.434  -2.606  1.00  0.00     0.173 A 
ATOM     78  F   UNL     1       7.837  11.415  -1.508  1.00  0.00    -0.203 F 
ATOM     79  C   UNL     1       8.700  11.686  -3.680  1.00  0.00     0.198 A 
ATOM     80  C   UNL     1      10.966  12.411  -3.987  1.00  0.00     0.198 A 
ATOM     81  F   UNL     1      12.337  12.808  -2.114  1.00  0.00    -0.203 F 
ATOM     82  F   UNL     1       7.525  11.295  -4.193  1.00  0.00    -0.200 F 
ATOM     83  C   UNL     1       9.746  12.025  -4.523  1.00  0.00     0.200 A 
ATOM     84  F   UNL     1      11.971  12.767  -4.798  1.00  0.00    -0.200 F 
ATOM     85  F   UNL     1       9.579  11.984  -5.852  1.00  0.00    -0.200 F 
ENDBRANCH  51  75
BRANCH  63  86
ATOM     86  C   UNL     1      11.448  17.092   2.986  1.00  0.00     0.064 A 
ATOM     87  C   UNL     1      12.705  17.649   3.275  1.00  0.00     0.173 A 
ATOM     88  C   UNL     1      10.393  17.971   2.705  1.00  0.00     0.173 A 
ATOM     89  F   UNL     1      13.748  16.855   3.561  1.00  0.00    -0.203 F 
ATOM     90  C   UNL     1      12.889  19.028   3.310  1.00  0.00     0.198 A 
ATOM     91  C   UNL     1      10.589  19.350   2.704  1.00  0.00     0.198 A 
ATOM     92  F   UNL     1       9.174  17.492   2.412  1.00  0.00    -0.203 F 
ATOM     93  F   UNL     1      14.085  19.535   3.639  1.00  0.00    -0.200 F 
ATOM     94  C   UNL     1      11.833  19.878   3.021  1.00  0.00     0.200 A 
ATOM     95  F   UNL     1       9.574  20.169   2.398  1.00  0.00    -0.200 F 
ATOM     96  F   UNL     1      12.012  21.205   3.046  1.00  0.00    -0.200 F 
ENDBRANCH  63  86
ENDBRANCH  37  38
ENDBRANCH  30  32
ENDBRANCH  29  30
ENDBRANCH  28  29
ENDBRANCH  27  28
ENDBRANCH  26  27
ENDBRANCH   1  26
TORSDOF 18
