REMARK SMILES CC[N@@H+](C[C@@H](C)C(=O)OCCOCCOC(=O)c1ccc(-c2c3nc(c(-c4c(F)c(F)c(F)c(F)c4F)c4ccc([nH]4)c(-c4c(F)c(F)c(F)c(F)c4F)c4nc(c(-c5c(F)c(F)c(F)c(F)c5F)c5ccc2[nH]5)C=C4)C=C3)cc1)[C@@H]1CCC[C@H](S(C)(=O)=O)C1
REMARK SMILES IDX 11 1 10 2 9 3 7 4 8 5 5 6 6 7 4 8 3 9 2 11 1 12 81 13 82 14
REMARK SMILES IDX 90 15 83 16 85 17 84 18 86 19 87 20 88 21 89 22 12 23 13 24
REMARK SMILES IDX 14 25 15 26 16 27 17 28 18 29 19 30 80 31 20 32 79 33 21 34
REMARK SMILES IDX 22 35 23 36 73 37 24 38 78 39 72 40 74 41 25 42 77 43 71 44
REMARK SMILES IDX 70 45 26 47 58 48 38 49 57 50 39 51 42 52 56 53 75 54 40 55
REMARK SMILES IDX 41 56 55 58 76 59 43 60 27 61 28 62 36 63 29 64 30 65 34 66
REMARK SMILES IDX 37 67 31 68 32 69 35 70 33 71 59 72 60 73 68 74 61 75 62 76
REMARK SMILES IDX 66 77 69 78 63 79 64 80 67 81 65 82 44 83 45 84 53 85 46 86
REMARK SMILES IDX 47 87 51 88 54 89 48 90 49 91 52 92 50 93
REMARK H PARENT 3 10 74 46 42 57
REMARK Flexibility Score: inf
ROOT
ATOM      1  C   UNL     1      -0.905  -8.105  -0.754  1.00  0.00     0.202 C 
ENDROOT
BRANCH   1   2
ATOM      2  C   UNL     1       0.525  -7.817  -1.222  1.00  0.00     0.261 C 
BRANCH   2   3
ATOM      3  O   UNL     1       0.980  -6.511  -0.822  1.00  0.00    -0.463 OA
BRANCH   3   4
ATOM      4  C   UNL     1       1.035  -5.585  -1.816  1.00  0.00     0.314 C 
ATOM      5  O   UNL     1       0.762  -5.802  -2.991  1.00  0.00    -0.252 OA
BRANCH   4   6
ATOM      6  C   UNL     1       1.560  -4.242  -1.343  1.00  0.00     0.151 C 
ATOM      7  C   UNL     1       3.074  -4.294  -1.512  1.00  0.00     0.026 C 
BRANCH   6   8
ATOM      8  C   UNL     1       1.001  -3.820   0.049  1.00  0.00     0.277 C 
BRANCH   8   9
ATOM      9  N   UNL     1       1.339  -2.474   0.617  1.00  0.00    -0.332 N 
ATOM     10  H   UNL     1       0.870  -2.331   1.512  1.00  0.00     0.348 HD
BRANCH   9  11
ATOM     11  C   UNL     1       0.827  -1.452  -0.330  1.00  0.00     0.259 C 
ATOM     12  C   UNL     1       0.812   0.017   0.065  1.00  0.00     0.071 C 
ENDBRANCH   9  11
BRANCH   9  13
ATOM     13  C   UNL     1       2.753  -2.336   1.048  1.00  0.00     0.185 C 
ATOM     14  C   UNL     1       3.263  -3.572   1.848  1.00  0.00     0.065 C 
ATOM     15  C   UNL     1       3.070  -1.122   1.957  1.00  0.00     0.084 C 
ATOM     16  C   UNL     1       4.768  -3.506   2.084  1.00  0.00     0.007 C 
ATOM     17  C   UNL     1       4.593  -0.996   2.157  1.00  0.00     0.114 C 
ATOM     18  C   UNL     1       5.173  -2.242   2.823  1.00  0.00     0.020 C 
BRANCH  17  19
ATOM     19  S   UNL     1       4.998   0.501   3.065  1.00  0.00     0.150 S 
ATOM     20  C   UNL     1       6.777   0.535   3.062  1.00  0.00     0.158 C 
ATOM     21  O   UNL     1       4.559   1.631   2.267  1.00  0.00    -0.229 OA
ATOM     22  O   UNL     1       4.559   0.345   4.438  1.00  0.00    -0.229 OA
ENDBRANCH  17  19
ENDBRANCH   9  13
ENDBRANCH   8   9
ENDBRANCH   6   8
ENDBRANCH   4   6
ENDBRANCH   3   4
ENDBRANCH   2   3
ENDBRANCH   1   2
BRANCH   1  23
ATOM     23  O   UNL     1      -1.939  -7.315  -1.339  1.00  0.00    -0.374 OA
BRANCH  23  24
ATOM     24  C   UNL     1      -2.119  -5.999  -0.818  1.00  0.00     0.202 C 
BRANCH  24  25
ATOM     25  C   UNL     1      -2.913  -5.888   0.488  1.00  0.00     0.261 C 
BRANCH  25  26
ATOM     26  O   UNL     1      -2.254  -6.570   1.571  1.00  0.00    -0.460 OA
BRANCH  26  27
ATOM     27  C   UNL     1      -2.905  -7.670   2.011  1.00  0.00     0.338 C 
ATOM     28  O   UNL     1      -4.020  -8.053   1.681  1.00  0.00    -0.246 OA
BRANCH  27  29
ATOM     29  C   UNL     1      -2.023  -8.498   2.853  1.00  0.00     0.060 A 
ATOM     30  C   UNL     1      -1.937  -9.856   2.525  1.00  0.00     0.016 A 
ATOM     31  C   UNL     1      -1.382  -8.001   3.991  1.00  0.00     0.016 A 
ATOM     32  C   UNL     1      -1.281 -10.738   3.376  1.00  0.00     0.010 A 
ATOM     33  C   UNL     1      -0.723  -8.892   4.850  1.00  0.00     0.010 A 
ATOM     34  C   UNL     1      -0.717 -10.271   4.571  1.00  0.00    -0.014 A 
BRANCH  34  35
ATOM     35  C   UNL     1      -0.288 -11.273   5.579  1.00  0.00     0.031 A 
ATOM     36  C   UNL     1      -1.228 -11.631   6.699  1.00  0.00     0.074 A 
ATOM     37  C   UNL     1       0.871 -11.938   5.434  1.00  0.00     0.049 A 
ATOM     38  N   UNL     1      -1.122 -12.570   7.606  1.00  0.00    -0.248 NA
ATOM     39  C   UNL     1      -2.456 -10.828   6.807  1.00  0.00     0.031 C 
ATOM     40  C   UNL     1       1.851 -11.701   4.378  1.00  0.00     0.029 A 
ATOM     41  N   UNL     1       1.407 -12.965   6.170  1.00  0.00    -0.354 N 
ATOM     42  C   UNL     1      -2.270 -12.477   8.382  1.00  0.00     0.074 A 
ATOM     43  C   UNL     1      -3.039 -11.364   7.869  1.00  0.00     0.031 C 
ATOM     44  C   UNL     1       2.867 -12.570   4.524  1.00  0.00     0.029 A 
ATOM     45  C   UNL     1       2.611 -13.414   5.690  1.00  0.00     0.049 A 
ATOM     46  H   UNL     1       0.968 -13.344   6.966  1.00  0.00     0.167 HD
ATOM     47  C   UNL     1      -2.658 -13.259   9.418  1.00  0.00     0.037 A 
ATOM     48  C   UNL     1       3.412 -14.400   6.138  1.00  0.00     0.037 A 
ATOM     49  C   UNL     1      -1.895 -14.366   9.931  1.00  0.00     0.049 A 
ATOM     50  C   UNL     1       2.976 -15.231   7.317  1.00  0.00     0.074 A 
ATOM     51  C   UNL     1      -2.206 -15.223  10.972  1.00  0.00     0.029 A 
ATOM     52  N   UNL     1      -0.660 -14.766   9.441  1.00  0.00    -0.354 N 
ATOM     53  N   UNL     1       1.871 -15.160   8.019  1.00  0.00    -0.248 NA
ATOM     54  C   UNL     1       3.896 -16.292   7.754  1.00  0.00     0.031 C 
ATOM     55  C   UNL     1      -1.141 -16.115  11.140  1.00  0.00     0.029 A 
ATOM     56  C   UNL     1      -0.188 -15.846  10.171  1.00  0.00     0.049 A 
ATOM     57  H   UNL     1      -0.189 -14.345   8.686  1.00  0.00     0.167 HD
ATOM     58  C   UNL     1       1.948 -16.182   8.957  1.00  0.00     0.074 A 
ATOM     59  C   UNL     1       3.201 -16.868   8.725  1.00  0.00     0.031 C 
ATOM     60  C   UNL     1       1.059 -16.522   9.923  1.00  0.00     0.037 A 
BRANCH  47  61
ATOM     61  C   UNL     1      -3.965 -12.932  10.078  1.00  0.00     0.064 A 
ATOM     62  C   UNL     1      -5.192 -13.186   9.446  1.00  0.00     0.173 A 
ATOM     63  C   UNL     1      -3.993 -12.384  11.369  1.00  0.00     0.173 A 
ATOM     64  F   UNL     1      -5.220 -13.695   8.205  1.00  0.00    -0.203 F 
ATOM     65  C   UNL     1      -6.398 -12.883  10.074  1.00  0.00     0.198 A 
ATOM     66  C   UNL     1      -5.200 -12.107  12.004  1.00  0.00     0.198 A 
ATOM     67  F   UNL     1      -2.848 -12.125  12.018  1.00  0.00    -0.203 F 
ATOM     68  F   UNL     1      -7.556 -13.094   9.435  1.00  0.00    -0.200 F 
ATOM     69  C   UNL     1      -6.401 -12.350  11.354  1.00  0.00     0.200 A 
ATOM     70  F   UNL     1      -5.202 -11.602  13.246  1.00  0.00    -0.200 F 
ATOM     71  F   UNL     1      -7.562 -12.063  11.960  1.00  0.00    -0.200 F 
ENDBRANCH  47  61
BRANCH  48  72
ATOM     72  C   UNL     1       4.702 -14.674   5.454  1.00  0.00     0.064 A 
ATOM     73  C   UNL     1       4.899 -15.849   4.717  1.00  0.00     0.173 A 
ATOM     74  C   UNL     1       5.770 -13.768   5.538  1.00  0.00     0.173 A 
ATOM     75  F   UNL     1       3.916 -16.757   4.629  1.00  0.00    -0.203 F 
ATOM     76  C   UNL     1       6.122 -16.118   4.105  1.00  0.00     0.198 A 
ATOM     77  C   UNL     1       6.983 -14.025   4.902  1.00  0.00     0.198 A 
ATOM     78  F   UNL     1       5.632 -12.629   6.231  1.00  0.00    -0.203 F 
ATOM     79  F   UNL     1       6.299 -17.270   3.444  1.00  0.00    -0.200 F 
ATOM     80  C   UNL     1       7.160 -15.203   4.193  1.00  0.00     0.200 A 
ATOM     81  F   UNL     1       7.979 -13.133   4.980  1.00  0.00    -0.200 F 
ATOM     82  F   UNL     1       8.335 -15.460   3.601  1.00  0.00    -0.200 F 
ENDBRANCH  48  72
BRANCH  60  83
ATOM     83  C   UNL     1       1.395 -17.711  10.777  1.00  0.00     0.064 A 
ATOM     84  C   UNL     1       2.418 -17.665  11.736  1.00  0.00     0.173 A 
ATOM     85  C   UNL     1       0.670 -18.905  10.647  1.00  0.00     0.173 A 
ATOM     86  F   UNL     1       3.149 -16.550  11.890  1.00  0.00    -0.203 F 
ATOM     87  C   UNL     1       2.726 -18.782  12.508  1.00  0.00     0.198 A 
ATOM     88  C   UNL     1       0.961 -20.011  11.442  1.00  0.00     0.198 A 
ATOM     89  F   UNL     1      -0.324 -19.000   9.751  1.00  0.00    -0.203 F 
ATOM     90  F   UNL     1       3.744 -18.733  13.378  1.00  0.00    -0.200 F 
ATOM     91  C   UNL     1       1.995 -19.952  12.364  1.00  0.00     0.200 A 
ATOM     92  F   UNL     1       0.246 -21.137  11.310  1.00  0.00    -0.200 F 
ATOM     93  F   UNL     1       2.294 -21.026  13.107  1.00  0.00    -0.200 F 
ENDBRANCH  60  83
ENDBRANCH  34  35
ENDBRANCH  27  29
ENDBRANCH  26  27
ENDBRANCH  25  26
ENDBRANCH  24  25
ENDBRANCH  23  24
ENDBRANCH   1  23
TORSDOF 19
