REMARK SMILES C[C@H]1[C@H](C)CC[C@@]2(C(=O)OCCOCCOC(=O)c3ccc(-c4c5nc(c(-c6c(F)c(F)c(F)c(F)c6F)c6ccc([nH]6)c(-c6c(F)c(F)c(F)c(F)c6F)c6nc(c(-c7c(F)c(F)c(F)c(F)c7F)c7ccc4[nH]7)C=C6)C=C5)cc3)CC[C@@]3(C)C(=CC[C@@H]4[C@@]5(C)CC[C@H](O)C(C)(C)[C@@H]5CC[C@]43C)[C@H]12
REMARK SMILES IDX 14 1 13 2 12 3 11 4 10 5 8 6 9 7 7 8 1 9 2 10 3 11 104 12
REMARK SMILES IDX 4 13 5 14 86 15 6 16 82 17 84 18 87 19 83 20 85 21 102 22
REMARK SMILES IDX 88 23 89 24 101 25 103 26 90 27 100 28 91 29 92 30 99 31
REMARK SMILES IDX 93 32 96 33 94 34 97 35 98 36 95 37 15 39 16 40 17 41 18 42
REMARK SMILES IDX 19 43 20 44 81 45 21 46 80 47 22 48 23 49 24 50 74 51 25 52
REMARK SMILES IDX 79 53 73 54 75 55 26 56 78 57 72 58 71 59 27 61 59 62 39 63
REMARK SMILES IDX 58 64 40 65 43 66 57 67 76 68 41 69 42 70 56 72 77 73 44 74
REMARK SMILES IDX 28 75 29 76 37 77 30 78 31 79 35 80 38 81 32 82 33 83 36 84
REMARK SMILES IDX 34 85 60 86 61 87 69 88 62 89 63 90 67 91 70 92 64 93 65 94
REMARK SMILES IDX 68 95 66 96 45 97 46 98 54 99 47 100 48 101 52 102 55 103
REMARK SMILES IDX 49 104 50 105 53 106 51 107
REMARK H PARENT 95 38 75 60 43 71
REMARK Flexibility Score: inf
ROOT
ATOM      1  C   UNL     1       1.868   1.956  -5.585  1.00  0.00     0.202 C 
ENDROOT
BRANCH   1   2
ATOM      2  O   UNL     1       2.594   2.804  -4.713  1.00  0.00    -0.374 OA
BRANCH   2   3
ATOM      3  C   UNL     1       2.264   2.737  -3.335  1.00  0.00     0.202 C 
BRANCH   3   4
ATOM      4  C   UNL     1       1.680   1.451  -2.729  1.00  0.00     0.261 C 
BRANCH   4   5
ATOM      5  O   UNL     1       0.267   1.256  -2.990  1.00  0.00    -0.463 OA
BRANCH   5   6
ATOM      6  C   UNL     1      -0.227   0.086  -3.475  1.00  0.00     0.312 C 
ATOM      7  O   UNL     1       0.207  -0.436  -4.495  1.00  0.00    -0.252 OA
BRANCH   6   8
ATOM      8  C   UNL     1      -1.385  -0.535  -2.621  1.00  0.00     0.075 C 
ATOM      9  C   UNL     1       0.095  -0.171   1.034  1.00  0.00     0.008 C 
ATOM     10  C   UNL     1      -0.033  -0.530  -0.449  1.00  0.00    -0.003 C 
ATOM     11  C   UNL     1       0.221  -2.076  -0.624  1.00  0.00    -0.011 C 
ATOM     12  C   UNL     1      -1.385  -0.007  -1.144  1.00  0.00     0.036 C 
ATOM     13  C   UNL     1       1.615  -2.537  -0.159  1.00  0.00     0.008 C 
ATOM     14  C   UNL     1       0.089  -2.548  -2.069  1.00  0.00     0.005 C 
ATOM     15  C   UNL     1      -1.766   1.540  -1.246  1.00  0.00    -0.063 C 
ATOM     16  C   UNL     1      -1.200  -2.073  -2.686  1.00  0.00     0.020 C 
ATOM     17  C   UNL     1      -2.779  -0.328  -3.239  1.00  0.00     0.020 C 
ATOM     18  C   UNL     1      -3.090   1.945  -2.023  1.00  0.00    -0.006 C 
ATOM     19  C   UNL     1      -0.875   2.507  -0.937  1.00  0.00    -0.027 C 
ATOM     20  C   UNL     1      -3.227   1.111  -3.327  1.00  0.00     0.013 C 
ATOM     21  C   UNL     1      -4.281   1.605  -1.096  1.00  0.00     0.017 C 
ATOM     22  C   UNL     1      -3.132   3.544  -2.443  1.00  0.00    -0.020 C 
ATOM     23  C   UNL     1      -0.799   3.828  -1.688  1.00  0.00     0.032 C 
ATOM     24  C   UNL     1      -1.687   3.849  -2.975  1.00  0.00     0.006 C 
ATOM     25  C   UNL     1      -4.200   3.907  -3.508  1.00  0.00     0.008 C 
ATOM     26  C   UNL     1      -3.494   4.433  -1.209  1.00  0.00     0.012 C 
ATOM     27  C   UNL     1      -1.447   5.020  -4.056  1.00  0.00    -0.025 C 
ATOM     28  C   UNL     1      -4.004   5.317  -4.100  1.00  0.00     0.005 C 
ATOM     29  C   UNL     1      -0.821   6.222  -3.329  1.00  0.00     0.012 C 
ATOM     30  C   UNL     1      -0.419   4.543  -5.142  1.00  0.00     0.010 C 
ATOM     31  C   UNL     1      -2.722   5.329  -4.931  1.00  0.00     0.003 C 
ATOM     32  C   UNL     1      -0.151   5.536  -6.282  1.00  0.00     0.033 C 
ATOM     33  C   UNL     1      -2.559   6.500  -5.988  1.00  0.00    -0.006 C 
ATOM     34  C   UNL     1      -1.409   6.084  -6.960  1.00  0.00     0.120 C 
ATOM     35  C   UNL     1      -2.329   7.900  -5.380  1.00  0.00     0.014 C 
ATOM     36  C   UNL     1      -3.842   6.652  -6.851  1.00  0.00     0.014 C 
BRANCH  34  37
ATOM     37  O   UNL     1      -1.046   7.155  -7.833  1.00  0.00    -0.393 OA
ATOM     38  H   UNL     1      -0.667   7.881  -7.314  1.00  0.00     0.210 HD
ENDBRANCH  34  37
ENDBRANCH   6   8
ENDBRANCH   5   6
ENDBRANCH   4   5
ENDBRANCH   3   4
ENDBRANCH   2   3
ENDBRANCH   1   2
BRANCH   1  39
ATOM     39  C   UNL     1       2.650   0.678  -5.912  1.00  0.00     0.261 C 
BRANCH  39  40
ATOM     40  O   UNL     1       3.380   0.142  -4.792  1.00  0.00    -0.460 OA
BRANCH  40  41
ATOM     41  C   UNL     1       4.550   0.759  -4.518  1.00  0.00     0.338 C 
ATOM     42  O   UNL     1       5.124   1.620  -5.178  1.00  0.00    -0.246 OA
BRANCH  41  43
ATOM     43  C   UNL     1       5.053   0.317  -3.209  1.00  0.00     0.060 A 
ATOM     44  C   UNL     1       5.373   1.281  -2.241  1.00  0.00     0.016 A 
ATOM     45  C   UNL     1       5.349  -1.031  -3.002  1.00  0.00     0.016 A 
ATOM     46  C   UNL     1       6.066   0.911  -1.096  1.00  0.00     0.010 A 
ATOM     47  C   UNL     1       6.082  -1.397  -1.875  1.00  0.00     0.010 A 
ATOM     48  C   UNL     1       6.495  -0.412  -0.961  1.00  0.00    -0.014 A 
BRANCH  48  49
ATOM     49  C   UNL     1       7.612  -0.695  -0.038  1.00  0.00     0.031 A 
ATOM     50  C   UNL     1       9.005  -0.677  -0.603  1.00  0.00     0.074 A 
ATOM     51  C   UNL     1       7.382  -0.902   1.266  1.00  0.00     0.049 A 
ATOM     52  N   UNL     1      10.143  -0.958  -0.025  1.00  0.00    -0.248 NA
ATOM     53  C   UNL     1       9.132  -0.289  -2.020  1.00  0.00     0.031 C 
ATOM     54  C   UNL     1       6.070  -0.857   1.907  1.00  0.00     0.029 A 
ATOM     55  N   UNL     1       8.249  -1.198   2.283  1.00  0.00    -0.354 N 
ATOM     56  C   UNL     1      11.113  -0.795  -1.008  1.00  0.00     0.074 A 
ATOM     57  C   UNL     1      10.434  -0.413  -2.224  1.00  0.00     0.031 C 
ATOM     58  C   UNL     1       6.216  -1.136   3.213  1.00  0.00     0.029 A 
ATOM     59  C   UNL     1       7.623  -1.422   3.482  1.00  0.00     0.049 A 
ATOM     60  H   UNL     1       9.225  -1.246   2.165  1.00  0.00     0.167 HD
ATOM     61  C   UNL     1      12.452  -0.952  -0.895  1.00  0.00     0.037 A 
ATOM     62  C   UNL     1       8.139  -1.846   4.651  1.00  0.00     0.037 A 
ATOM     63  C   UNL     1      13.099  -1.336   0.331  1.00  0.00     0.049 A 
ATOM     64  C   UNL     1       9.623  -2.094   4.729  1.00  0.00     0.074 A 
ATOM     65  C   UNL     1      14.445  -1.530   0.577  1.00  0.00     0.029 A 
ATOM     66  N   UNL     1      12.431  -1.592   1.522  1.00  0.00    -0.354 N 
ATOM     67  N   UNL     1      10.539  -1.945   3.801  1.00  0.00    -0.248 NA
ATOM     68  C   UNL     1      10.145  -2.564   6.017  1.00  0.00     0.031 C 
ATOM     69  C   UNL     1      14.585  -1.962   1.900  1.00  0.00     0.029 A 
ATOM     70  C   UNL     1      13.334  -1.970   2.499  1.00  0.00     0.049 A 
ATOM     71  H   UNL     1      11.457  -1.516   1.651  1.00  0.00     0.167 HD
ATOM     72  C   UNL     1      11.748  -2.275   4.397  1.00  0.00     0.074 A 
ATOM     73  C   UNL     1      11.447  -2.615   5.774  1.00  0.00     0.031 C 
ATOM     74  C   UNL     1      12.995  -2.297   3.862  1.00  0.00     0.037 A 
BRANCH  61  75
ATOM     75  C   UNL     1      13.287  -0.757  -2.128  1.00  0.00     0.064 A 
ATOM     76  C   UNL     1      13.467   0.505  -2.717  1.00  0.00     0.173 A 
ATOM     77  C   UNL     1      13.934  -1.851  -2.724  1.00  0.00     0.173 A 
ATOM     78  F   UNL     1      12.857   1.583  -2.202  1.00  0.00    -0.203 F 
ATOM     79  C   UNL     1      14.242   0.658  -3.865  1.00  0.00     0.198 A 
ATOM     80  C   UNL     1      14.733  -1.689  -3.852  1.00  0.00     0.198 A 
ATOM     81  F   UNL     1      13.795  -3.082  -2.207  1.00  0.00    -0.203 F 
ATOM     82  F   UNL     1      14.359   1.865  -4.437  1.00  0.00    -0.200 F 
ATOM     83  C   UNL     1      14.881  -0.437  -4.427  1.00  0.00     0.200 A 
ATOM     84  F   UNL     1      15.359  -2.748  -4.386  1.00  0.00    -0.200 F 
ATOM     85  F   UNL     1      15.633  -0.286  -5.526  1.00  0.00    -0.200 F 
ENDBRANCH  61  75
BRANCH  62  86
ATOM     86  C   UNL     1       7.246  -2.082   5.815  1.00  0.00     0.064 A 
ATOM     87  C   UNL     1       7.334  -1.293   6.970  1.00  0.00     0.173 A 
ATOM     88  C   UNL     1       6.284  -3.103   5.797  1.00  0.00     0.173 A 
ATOM     89  F   UNL     1       8.248  -0.315   7.044  1.00  0.00    -0.203 F 
ATOM     90  C   UNL     1       6.508  -1.528   8.068  1.00  0.00     0.198 A 
ATOM     91  C   UNL     1       5.436  -3.317   6.882  1.00  0.00     0.198 A 
ATOM     92  F   UNL     1       6.153  -3.886   4.716  1.00  0.00    -0.203 F 
ATOM     93  F   UNL     1       6.645  -0.788   9.176  1.00  0.00    -0.200 F 
ATOM     94  C   UNL     1       5.556  -2.535   8.021  1.00  0.00     0.200 A 
ATOM     95  F   UNL     1       4.505  -4.279   6.824  1.00  0.00    -0.200 F 
ATOM     96  F   UNL     1       4.757  -2.756   9.074  1.00  0.00    -0.200 F 
ENDBRANCH  62  86
BRANCH  74  97
ATOM     97  C   UNL     1      14.123  -2.661   4.784  1.00  0.00     0.064 A 
ATOM     98  C   UNL     1      14.288  -3.966   5.270  1.00  0.00     0.173 A 
ATOM     99  C   UNL     1      15.070  -1.694   5.156  1.00  0.00     0.173 A 
ATOM    100  F   UNL     1      13.402  -4.922   4.954  1.00  0.00    -0.203 F 
ATOM    101  C   UNL     1      15.339  -4.280   6.127  1.00  0.00     0.198 A 
ATOM    102  C   UNL     1      16.142  -2.022   5.980  1.00  0.00     0.198 A 
ATOM    103  F   UNL     1      14.964  -0.434   4.708  1.00  0.00    -0.203 F 
ATOM    104  F   UNL     1      15.442  -5.518   6.630  1.00  0.00    -0.200 F 
ATOM    105  C   UNL     1      16.269  -3.311   6.474  1.00  0.00     0.200 A 
ATOM    106  F   UNL     1      17.049  -1.089   6.299  1.00  0.00    -0.200 F 
ATOM    107  F   UNL     1      17.284  -3.618   7.293  1.00  0.00    -0.200 F 
ENDBRANCH  74  97
ENDBRANCH  48  49
ENDBRANCH  41  43
ENDBRANCH  40  41
ENDBRANCH  39  40
ENDBRANCH   1  39
TORSDOF 15
