REMARK SMILES CC(C)[C@H](NC(=O)OCc1ccccc1)C(=O)NCC(=O)OCCOCCOC(=O)c1ccc(-c2c3nc(c(-c4c(F)c(F)c(F)c(F)c4F)c4ccc([nH]4)c(-c4c(F)c(F)c(F)c(F)c4F)c4nc(c(-c5c(F)c(F)c(F)c(F)c5F)c5ccc2[nH]5)C=C4)C=C3)cc1
REMARK SMILES IDX 23 1 22 2 20 3 21 4 19 5 18 6 16 7 17 8 4 10 2 11 1 12 3 13
REMARK SMILES IDX 5 14 6 15 7 17 8 18 9 19 10 20 11 21 15 22 12 23 14 24 13 25
REMARK SMILES IDX 24 26 25 27 26 28 27 29 28 30 29 31 30 32 31 33 32 34 93 35
REMARK SMILES IDX 33 36 92 37 34 38 35 39 36 40 86 41 37 42 91 43 85 44 87 45
REMARK SMILES IDX 38 46 90 47 84 48 83 49 39 51 71 52 51 53 70 54 52 55 55 56
REMARK SMILES IDX 69 57 88 58 53 59 54 60 68 62 89 63 56 64 40 65 41 66 49 67
REMARK SMILES IDX 42 68 43 69 47 70 50 71 44 72 45 73 48 74 46 75 72 76 73 77
REMARK SMILES IDX 81 78 74 79 75 80 79 81 82 82 76 83 77 84 80 85 78 86 57 87
REMARK SMILES IDX 58 88 66 89 59 90 60 91 64 92 67 93 61 94 62 95 65 96 63 97
REMARK H PARENT 18 9 5 16 87 50 55 61
REMARK Flexibility Score: inf
ROOT
ATOM      1  C   UNL     1       3.189   5.069  -1.537  1.00  0.00     0.261 C 
ENDROOT
BRANCH   1   2
ATOM      2  O   UNL     1       1.974   4.323  -1.356  1.00  0.00    -0.462 OA
BRANCH   2   3
ATOM      3  C   UNL     1       1.428   4.400  -0.118  1.00  0.00     0.325 C 
ATOM      4  O   UNL     1       1.949   4.932   0.855  1.00  0.00    -0.250 OA
BRANCH   3   5
ATOM      5  C   UNL     1       0.101   3.670  -0.016  1.00  0.00     0.238 C 
BRANCH   5   6
ATOM      6  N   UNL     1      -0.602   3.254  -1.212  1.00  0.00    -0.343 N 
ATOM      7  C   UNL     1      -1.448   2.200  -1.377  1.00  0.00     0.243 C 
ATOM      8  O   UNL     1      -2.248   2.282  -2.315  1.00  0.00    -0.273 OA
ATOM      9  H   UNL     1      -0.448   3.807  -2.012  1.00  0.00     0.164 HD
BRANCH   7  10
ATOM     10  C   UNL     1      -1.444   0.953  -0.452  1.00  0.00     0.177 C 
BRANCH  10  11
ATOM     11  C   UNL     1      -2.140   1.047   0.924  1.00  0.00     0.015 C 
ATOM     12  C   UNL     1      -1.375   1.700   2.074  1.00  0.00     0.010 C 
ATOM     13  C   UNL     1      -3.521   1.690   0.791  1.00  0.00     0.010 C 
ENDBRANCH  10  11
BRANCH  10  14
ATOM     14  N   UNL     1      -0.123   0.332  -0.393  1.00  0.00    -0.309 N 
ATOM     15  C   UNL     1       0.362  -0.544  -1.326  1.00  0.00     0.408 C 
ATOM     16  H   UNL     1       0.458   0.559   0.369  1.00  0.00     0.167 HD
ATOM     17  O   UNL     1       1.504  -0.974  -1.260  1.00  0.00    -0.225 OA
BRANCH  15  18
ATOM     18  O   UNL     1      -0.531  -0.794  -2.317  1.00  0.00    -0.445 OA
BRANCH  18  19
ATOM     19  C   UNL     1      -0.005  -1.350  -3.535  1.00  0.00     0.270 C 
BRANCH  19  20
ATOM     20  C   UNL     1       0.931  -0.377  -4.206  1.00  0.00    -0.011 A 
ATOM     21  C   UNL     1       1.997  -0.855  -4.969  1.00  0.00     0.007 A 
ATOM     22  C   UNL     1       0.815   1.002  -3.969  1.00  0.00     0.007 A 
ATOM     23  C   UNL     1       3.025   0.009  -5.312  1.00  0.00     0.000 A 
ATOM     24  C   UNL     1       1.865   1.851  -4.254  1.00  0.00     0.000 A 
ATOM     25  C   UNL     1       2.988   1.331  -4.873  1.00  0.00     0.000 A 
ENDBRANCH  19  20
ENDBRANCH  18  19
ENDBRANCH  15  18
ENDBRANCH  10  14
ENDBRANCH   7  10
ENDBRANCH   5   6
ENDBRANCH   3   5
ENDBRANCH   2   3
ENDBRANCH   1   2
BRANCH   1  26
ATOM     26  C   UNL     1       3.050   5.996  -2.741  1.00  0.00     0.202 C 
BRANCH  26  27
ATOM     27  O   UNL     1       2.080   7.034  -2.590  1.00  0.00    -0.374 OA
BRANCH  27  28
ATOM     28  C   UNL     1       0.719   6.679  -2.833  1.00  0.00     0.202 C 
BRANCH  28  29
ATOM     29  C   UNL     1       0.289   6.639  -4.306  1.00  0.00     0.261 C 
BRANCH  29  30
ATOM     30  O   UNL     1       1.030   5.673  -5.073  1.00  0.00    -0.460 OA
BRANCH  30  31
ATOM     31  C   UNL     1       1.971   6.194  -5.903  1.00  0.00     0.338 C 
ATOM     32  O   UNL     1       2.201   7.373  -6.112  1.00  0.00    -0.246 OA
BRANCH  31  33
ATOM     33  C   UNL     1       2.836   5.109  -6.415  1.00  0.00     0.060 A 
ATOM     34  C   UNL     1       4.225   5.223  -6.250  1.00  0.00     0.016 A 
ATOM     35  C   UNL     1       2.298   3.995  -7.053  1.00  0.00     0.016 A 
ATOM     36  C   UNL     1       5.085   4.215  -6.709  1.00  0.00     0.010 A 
ATOM     37  C   UNL     1       3.160   2.996  -7.517  1.00  0.00     0.010 A 
ATOM     38  C   UNL     1       4.563   3.086  -7.348  1.00  0.00    -0.014 A 
BRANCH  38  39
ATOM     39  C   UNL     1       5.418   1.994  -7.904  1.00  0.00     0.031 A 
ATOM     40  C   UNL     1       5.383   1.762  -9.390  1.00  0.00     0.074 A 
ATOM     41  C   UNL     1       6.102   1.127  -7.126  1.00  0.00     0.049 A 
ATOM     42  N   UNL     1       5.849   0.758 -10.088  1.00  0.00    -0.248 NA
ATOM     43  C   UNL     1       4.728   2.807 -10.195  1.00  0.00     0.031 C 
ATOM     44  C   UNL     1       6.277   1.207  -5.676  1.00  0.00     0.029 A 
ATOM     45  N   UNL     1       6.683  -0.082  -7.453  1.00  0.00    -0.354 N 
ATOM     46  C   UNL     1       5.589   1.078 -11.412  1.00  0.00     0.074 A 
ATOM     47  C   UNL     1       4.815   2.300 -11.414  1.00  0.00     0.031 C 
ATOM     48  C   UNL     1       6.748   0.031  -5.221  1.00  0.00     0.029 A 
ATOM     49  C   UNL     1       6.963  -0.864  -6.354  1.00  0.00     0.049 A 
ATOM     50  H   UNL     1       6.878  -0.357  -8.378  1.00  0.00     0.167 HD
ATOM     51  C   UNL     1       6.023   0.456 -12.532  1.00  0.00     0.037 A 
ATOM     52  C   UNL     1       7.312  -2.163  -6.267  1.00  0.00     0.037 A 
ATOM     53  C   UNL     1       6.794  -0.755 -12.545  1.00  0.00     0.049 A 
ATOM     54  C   UNL     1       7.622  -2.938  -7.519  1.00  0.00     0.074 A 
ATOM     55  C   UNL     1       7.371  -1.402 -13.623  1.00  0.00     0.029 A 
ATOM     56  N   UNL     1       7.077  -1.515 -11.423  1.00  0.00    -0.354 N 
ATOM     57  N   UNL     1       7.511  -2.566  -8.769  1.00  0.00    -0.248 NA
ATOM     58  C   UNL     1       8.166  -4.295  -7.346  1.00  0.00     0.031 C 
ATOM     59  C   UNL     1       7.968  -2.579 -13.158  1.00  0.00     0.029 A 
ATOM     60  C   UNL     1       7.793  -2.643 -11.786  1.00  0.00     0.049 A 
ATOM     61  H   UNL     1       6.810  -1.286 -10.503  1.00  0.00     0.167 HD
ATOM     62  C   UNL     1       8.048  -3.602  -9.524  1.00  0.00     0.074 A 
ATOM     63  C   UNL     1       8.449  -4.636  -8.596  1.00  0.00     0.031 C 
ATOM     64  C   UNL     1       8.221  -3.664 -10.866  1.00  0.00     0.037 A 
BRANCH  51  65
ATOM     65  C   UNL     1       5.730   1.130 -13.836  1.00  0.00     0.064 A 
ATOM     66  C   UNL     1       6.378   2.327 -14.184  1.00  0.00     0.173 A 
ATOM     67  C   UNL     1       4.829   0.575 -14.753  1.00  0.00     0.173 A 
ATOM     68  F   UNL     1       7.241   2.900 -13.330  1.00  0.00    -0.203 F 
ATOM     69  C   UNL     1       6.110   2.961 -15.391  1.00  0.00     0.198 A 
ATOM     70  C   UNL     1       4.584   1.199 -15.974  1.00  0.00     0.198 A 
ATOM     71  F   UNL     1       4.189  -0.568 -14.468  1.00  0.00    -0.203 F 
ATOM     72  F   UNL     1       6.704   4.127 -15.680  1.00  0.00    -0.200 F 
ATOM     73  C   UNL     1       5.218   2.393 -16.288  1.00  0.00     0.200 A 
ATOM     74  F   UNL     1       3.729   0.647 -16.846  1.00  0.00    -0.200 F 
ATOM     75  F   UNL     1       4.964   3.002 -17.454  1.00  0.00    -0.200 F 
ENDBRANCH  51  65
BRANCH  52  76
ATOM     76  C   UNL     1       7.403  -2.839  -4.947  1.00  0.00     0.064 A 
ATOM     77  C   UNL     1       8.644  -3.126  -4.364  1.00  0.00     0.173 A 
ATOM     78  C   UNL     1       6.249  -3.302  -4.297  1.00  0.00     0.173 A 
ATOM     79  F   UNL     1       9.773  -2.738  -4.973  1.00  0.00    -0.203 F 
ATOM     80  C   UNL     1       8.731  -3.880  -3.195  1.00  0.00     0.198 A 
ATOM     81  C   UNL     1       6.337  -4.042  -3.118  1.00  0.00     0.198 A 
ATOM     82  F   UNL     1       5.040  -3.070  -4.830  1.00  0.00    -0.203 F 
ATOM     83  F   UNL     1       9.932  -4.198  -2.694  1.00  0.00    -0.200 F 
ATOM     84  C   UNL     1       7.578  -4.339  -2.574  1.00  0.00     0.200 A 
ATOM     85  F   UNL     1       5.223  -4.498  -2.529  1.00  0.00    -0.200 F 
ATOM     86  F   UNL     1       7.666  -5.089  -1.467  1.00  0.00    -0.200 F 
ENDBRANCH  52  76
BRANCH  64  87
ATOM     87  C   UNL     1       8.953  -4.848 -11.421  1.00  0.00     0.064 A 
ATOM     88  C   UNL     1       8.365  -6.118 -11.493  1.00  0.00     0.173 A 
ATOM     89  C   UNL     1      10.251  -4.694 -11.936  1.00  0.00     0.173 A 
ATOM     90  F   UNL     1       7.136  -6.321 -10.995  1.00  0.00    -0.203 F 
ATOM     91  C   UNL     1       9.054  -7.194 -12.048  1.00  0.00     0.198 A 
ATOM     92  C   UNL     1      10.925  -5.764 -12.516  1.00  0.00     0.198 A 
ATOM     93  F   UNL     1      10.858  -3.498 -11.892  1.00  0.00    -0.203 F 
ATOM     94  F   UNL     1       8.488  -8.408 -12.073  1.00  0.00    -0.200 F 
ATOM     95  C   UNL     1      10.328  -7.014 -12.568  1.00  0.00     0.200 A 
ATOM     96  F   UNL     1      12.150  -5.584 -13.028  1.00  0.00    -0.200 F 
ATOM     97  F   UNL     1      10.982  -8.048 -13.114  1.00  0.00    -0.200 F 
ENDBRANCH  64  87
ENDBRANCH  38  39
ENDBRANCH  31  33
ENDBRANCH  30  31
ENDBRANCH  29  30
ENDBRANCH  28  29
ENDBRANCH  27  28
ENDBRANCH  26  27
ENDBRANCH   1  26
TORSDOF 21
