REMARK SMILES Cc1ccc(S(=O)(=O)n2cc(C(=O)C(=O)N[C@@H](Cc3c[nH]c4ccccc34)C(=O)OCCOCCOC(=O)c3ccc(-c4c5nc(c(-c6c(F)c(F)c(F)c(F)c6F)c6ccc([nH]6)c(-c6c(F)c(F)c(F)c(F)c6F)c6nc(c(-c7c(F)c(F)c(F)c(F)c7F)c7ccc4[nH]7)C=C6)C=C5)cc3)c3ccccc32)cc1
REMARK SMILES IDX 31 1 30 2 28 3 29 4 17 5 16 6 14 7 15 8 12 10 13 11 11 12
REMARK SMILES IDX 9 13 10 14 107 15 102 16 106 17 103 18 105 19 104 20 6 21
REMARK SMILES IDX 7 22 8 23 5 24 1 25 2 26 3 27 109 28 4 29 108 30 18 31 19 32
REMARK SMILES IDX 20 33 27 34 21 35 22 36 26 37 23 39 25 40 24 41 32 42 33 43
REMARK SMILES IDX 34 44 35 45 36 46 37 47 38 48 39 49 40 50 101 51 41 52
REMARK SMILES IDX 100 53 42 54 43 55 44 56 94 57 45 58 99 59 93 60 95 61 46 62
REMARK SMILES IDX 98 63 92 64 91 65 47 67 79 68 59 69 78 70 60 71 63 72 77 73
REMARK SMILES IDX 96 74 61 75 62 76 76 78 97 79 64 80 48 81 49 82 57 83 50 84
REMARK SMILES IDX 51 85 55 86 58 87 52 88 53 89 56 90 54 91 80 92 81 93 89 94
REMARK SMILES IDX 82 95 83 96 87 97 90 98 84 99 85 100 88 101 86 102 65 103
REMARK SMILES IDX 66 104 74 105 67 106 68 107 72 108 75 109 69 110 70 111
REMARK SMILES IDX 73 112 71 113
REMARK H PARENT 16 9 21 38 95 66 63 77
REMARK Flexibility Score: inf
ROOT
ATOM      1  C   UNL     1     -11.534   2.431  -2.212  1.00  0.00     0.261 C 
ENDROOT
BRANCH   1   2
ATOM      2  O   UNL     1     -11.294   2.598  -0.820  1.00  0.00    -0.462 OA
BRANCH   2   3
ATOM      3  C   UNL     1     -11.060   1.429  -0.154  1.00  0.00     0.329 C 
ATOM      4  O   UNL     1     -11.768   0.429  -0.221  1.00  0.00    -0.250 OA
BRANCH   3   5
ATOM      5  C   UNL     1      -9.866   1.584   0.787  1.00  0.00     0.197 C 
BRANCH   5   6
ATOM      6  N   UNL     1      -8.952   2.647   0.306  1.00  0.00    -0.335 N 
ATOM      7  C   UNL     1      -7.798   2.543  -0.436  1.00  0.00     0.293 C 
ATOM      8  O   UNL     1      -7.153   3.525  -0.781  1.00  0.00    -0.265 OA
ATOM      9  H   UNL     1      -9.210   3.564   0.554  1.00  0.00     0.164 HD
BRANCH   7  10
ATOM     10  C   UNL     1      -7.388   1.169  -0.919  1.00  0.00     0.252 C 
ATOM     11  O   UNL     1      -8.184   0.636  -1.692  1.00  0.00    -0.283 OA
BRANCH  10  12
ATOM     12  C   UNL     1      -6.261   0.441  -0.357  1.00  0.00     0.054 A 
ATOM     13  N   UNL     1      -4.369  -0.263   0.636  1.00  0.00    -0.240 N 
ATOM     14  C   UNL     1      -5.009   0.857   0.104  1.00  0.00     0.117 A 
ATOM     15  C   UNL     1      -5.340  -1.279   0.743  1.00  0.00     0.065 A 
ATOM     16  C   UNL     1      -6.280  -0.975  -0.232  1.00  0.00     0.012 A 
ATOM     17  C   UNL     1      -5.271  -2.559   1.322  1.00  0.00     0.028 A 
ATOM     18  C   UNL     1      -7.041  -2.018  -0.796  1.00  0.00     0.011 A 
ATOM     19  C   UNL     1      -5.968  -3.589   0.688  1.00  0.00     0.002 A 
ATOM     20  C   UNL     1      -6.808  -3.330  -0.387  1.00  0.00     0.001 A 
BRANCH  13  21
ATOM     21  S   UNL     1      -2.863  -0.947   0.088  1.00  0.00     0.268 S 
ATOM     22  O   UNL     1      -3.167  -1.369  -1.270  1.00  0.00    -0.201 OA
ATOM     23  O   UNL     1      -2.588  -1.919   1.140  1.00  0.00    -0.201 OA
BRANCH  21  24
ATOM     24  C   UNL     1      -1.313  -0.147  -0.031  1.00  0.00     0.088 A 
ATOM     25  C   UNL     1       2.907   0.738  -0.041  1.00  0.00     0.044 C 
ATOM     26  C   UNL     1       1.428   0.486  -0.101  1.00  0.00    -0.051 A 
ATOM     27  C   UNL     1       1.028  -0.822  -0.322  1.00  0.00     0.005 A 
ATOM     28  C   UNL     1       0.445   1.480   0.113  1.00  0.00     0.005 A 
ATOM     29  C   UNL     1      -0.318  -1.120  -0.303  1.00  0.00     0.022 A 
ATOM     30  C   UNL     1      -0.940   1.171   0.156  1.00  0.00     0.022 A 
ENDBRANCH  21  24
ENDBRANCH  13  21
ENDBRANCH  10  12
ENDBRANCH   7  10
ENDBRANCH   5   6
BRANCH   5  31
ATOM     31  C   UNL     1     -10.379   1.879   2.214  1.00  0.00     0.074 C 
BRANCH  31  32
ATOM     32  C   UNL     1     -11.213   3.130   2.316  1.00  0.00    -0.020 A 
ATOM     33  C   UNL     1     -12.591   3.172   2.417  1.00  0.00     0.087 A 
ATOM     34  C   UNL     1     -10.765   4.492   2.255  1.00  0.00     0.003 A 
ATOM     35  N   UNL     1     -12.990   4.477   2.342  1.00  0.00    -0.361 N 
ATOM     36  C   UNL     1     -11.898   5.301   2.217  1.00  0.00     0.046 A 
ATOM     37  C   UNL     1      -9.501   5.114   2.161  1.00  0.00     0.010 A 
ATOM     38  H   UNL     1     -13.926   4.782   2.374  1.00  0.00     0.166 HD
ATOM     39  C   UNL     1     -11.832   6.690   2.056  1.00  0.00     0.026 A 
ATOM     40  C   UNL     1      -9.419   6.492   1.944  1.00  0.00     0.001 A 
ATOM     41  C   UNL     1     -10.572   7.268   1.891  1.00  0.00     0.002 A 
ENDBRANCH  31  32
ENDBRANCH   5  31
ENDBRANCH   3   5
ENDBRANCH   2   3
ENDBRANCH   1   2
BRANCH   1  42
ATOM     42  C   UNL     1     -10.353   2.927  -2.994  1.00  0.00     0.202 C 
BRANCH  42  43
ATOM     43  O   UNL     1      -9.824   1.824  -3.701  1.00  0.00    -0.374 OA
BRANCH  43  44
ATOM     44  C   UNL     1      -8.654   2.142  -4.443  1.00  0.00     0.202 C 
BRANCH  44  45
ATOM     45  C   UNL     1      -8.892   3.216  -5.516  1.00  0.00     0.261 C 
BRANCH  45  46
ATOM     46  O   UNL     1      -9.942   2.771  -6.397  1.00  0.00    -0.460 OA
BRANCH  46  47
ATOM     47  C   UNL     1     -11.042   3.571  -6.457  1.00  0.00     0.338 C 
ATOM     48  O   UNL     1     -11.032   4.786  -6.530  1.00  0.00    -0.246 OA
BRANCH  47  49
ATOM     49  C   UNL     1     -12.251   2.776  -6.093  1.00  0.00     0.060 A 
ATOM     50  C   UNL     1     -13.460   3.442  -5.829  1.00  0.00     0.016 A 
ATOM     51  C   UNL     1     -12.084   1.459  -5.676  1.00  0.00     0.016 A 
ATOM     52  C   UNL     1     -14.404   2.870  -4.966  1.00  0.00     0.010 A 
ATOM     53  C   UNL     1     -12.972   0.940  -4.758  1.00  0.00     0.010 A 
ATOM     54  C   UNL     1     -14.095   1.673  -4.337  1.00  0.00    -0.014 A 
BRANCH  54  55
ATOM     55  C   UNL     1     -14.794   1.093  -3.187  1.00  0.00     0.031 A 
ATOM     56  C   UNL     1     -15.351  -0.273  -3.365  1.00  0.00     0.074 A 
ATOM     57  C   UNL     1     -14.672   1.625  -1.938  1.00  0.00     0.049 A 
ATOM     58  N   UNL     1     -15.927  -0.932  -2.428  1.00  0.00    -0.248 NA
ATOM     59  C   UNL     1     -15.310  -1.030  -4.620  1.00  0.00     0.031 C 
ATOM     60  C   UNL     1     -14.884   0.947  -0.656  1.00  0.00     0.029 A 
ATOM     61  N   UNL     1     -14.405   2.949  -1.525  1.00  0.00    -0.354 N 
ATOM     62  C   UNL     1     -16.009  -2.245  -2.810  1.00  0.00     0.074 A 
ATOM     63  C   UNL     1     -15.718  -2.239  -4.217  1.00  0.00     0.031 C 
ATOM     64  C   UNL     1     -15.129   1.859   0.297  1.00  0.00     0.029 A 
ATOM     65  C   UNL     1     -15.162   3.150  -0.360  1.00  0.00     0.049 A 
ATOM     66  H   UNL     1     -13.810   3.598  -1.965  1.00  0.00     0.167 HD
ATOM     67  C   UNL     1     -16.207  -3.166  -1.828  1.00  0.00     0.037 A 
ATOM     68  C   UNL     1     -16.149   4.076  -0.314  1.00  0.00     0.037 A 
ATOM     69  C   UNL     1     -16.648  -2.492  -0.593  1.00  0.00     0.049 A 
ATOM     70  C   UNL     1     -17.411   3.349   0.013  1.00  0.00     0.074 A 
ATOM     71  C   UNL     1     -16.098  -2.290   0.660  1.00  0.00     0.029 A 
ATOM     72  N   UNL     1     -17.733  -1.606  -0.680  1.00  0.00    -0.354 N 
ATOM     73  N   UNL     1     -17.643   2.126  -0.401  1.00  0.00    -0.248 NA
ATOM     74  C   UNL     1     -18.321   3.796   1.058  1.00  0.00     0.031 C 
ATOM     75  C   UNL     1     -16.788  -1.187   1.263  1.00  0.00     0.029 A 
ATOM     76  C   UNL     1     -17.783  -0.743   0.399  1.00  0.00     0.049 A 
ATOM     77  H   UNL     1     -18.381  -1.599  -1.422  1.00  0.00     0.167 HD
ATOM     78  C   UNL     1     -18.570   1.569   0.432  1.00  0.00     0.074 A 
ATOM     79  C   UNL     1     -19.005   2.664   1.292  1.00  0.00     0.031 C 
ATOM     80  C   UNL     1     -18.860   0.239   0.526  1.00  0.00     0.037 A 
BRANCH  67  81
ATOM     81  C   UNL     1     -15.897  -4.646  -1.952  1.00  0.00     0.064 A 
ATOM     82  C   UNL     1     -16.249  -5.543  -0.921  1.00  0.00     0.173 A 
ATOM     83  C   UNL     1     -15.176  -5.240  -3.016  1.00  0.00     0.173 A 
ATOM     84  F   UNL     1     -16.882  -5.113   0.179  1.00  0.00    -0.203 F 
ATOM     85  C   UNL     1     -15.946  -6.912  -0.974  1.00  0.00     0.198 A 
ATOM     86  C   UNL     1     -14.923  -6.614  -3.095  1.00  0.00     0.198 A 
ATOM     87  F   UNL     1     -14.627  -4.515  -3.996  1.00  0.00    -0.203 F 
ATOM     88  F   UNL     1     -16.275  -7.708   0.053  1.00  0.00    -0.200 F 
ATOM     89  C   UNL     1     -15.306  -7.452  -2.072  1.00  0.00     0.200 A 
ATOM     90  F   UNL     1     -14.284  -7.113  -4.164  1.00  0.00    -0.200 F 
ATOM     91  F   UNL     1     -15.037  -8.763  -2.134  1.00  0.00    -0.200 F 
ENDBRANCH  67  81
BRANCH  68  92
ATOM     92  C   UNL     1     -15.818   5.285  -1.123  1.00  0.00     0.064 A 
ATOM     93  C   UNL     1     -14.775   6.067  -0.579  1.00  0.00     0.173 A 
ATOM     94  C   UNL     1     -15.958   5.314  -2.518  1.00  0.00     0.173 A 
ATOM     95  F   UNL     1     -14.645   6.141   0.755  1.00  0.00    -0.203 F 
ATOM     96  C   UNL     1     -13.776   6.622  -1.382  1.00  0.00     0.198 A 
ATOM     97  C   UNL     1     -14.978   5.920  -3.322  1.00  0.00     0.198 A 
ATOM     98  F   UNL     1     -16.942   4.627  -3.114  1.00  0.00    -0.203 F 
ATOM     99  F   UNL     1     -12.702   7.197  -0.824  1.00  0.00    -0.200 F 
ATOM    100  C   UNL     1     -13.852   6.498  -2.755  1.00  0.00     0.200 A 
ATOM    101  F   UNL     1     -15.077   5.862  -4.658  1.00  0.00    -0.200 F 
ATOM    102  F   UNL     1     -12.831   6.904  -3.525  1.00  0.00    -0.200 F 
ENDBRANCH  68  92
BRANCH  80 103
ATOM    103  C   UNL     1     -20.275  -0.217   0.776  1.00  0.00     0.064 A 
ATOM    104  C   UNL     1     -21.392   0.632   0.638  1.00  0.00     0.173 A 
ATOM    105  C   UNL     1     -20.571  -1.586   0.956  1.00  0.00     0.173 A 
ATOM    106  F   UNL     1     -21.263   1.935   0.348  1.00  0.00    -0.203 F 
ATOM    107  C   UNL     1     -22.697   0.160   0.733  1.00  0.00     0.198 A 
ATOM    108  C   UNL     1     -21.878  -2.064   0.977  1.00  0.00     0.198 A 
ATOM    109  F   UNL     1     -19.607  -2.510   1.069  1.00  0.00    -0.203 F 
ATOM    110  F   UNL     1     -23.718   1.022   0.639  1.00  0.00    -0.200 F 
ATOM    111  C   UNL     1     -22.941  -1.189   0.883  1.00  0.00     0.200 A 
ATOM    112  F   UNL     1     -22.099  -3.383   1.058  1.00  0.00    -0.200 F 
ATOM    113  F   UNL     1     -24.198  -1.648   0.914  1.00  0.00    -0.200 F 
ENDBRANCH  80 103
ENDBRANCH  54  55
ENDBRANCH  47  49
ENDBRANCH  46  47
ENDBRANCH  45  46
ENDBRANCH  44  45
ENDBRANCH  43  44
ENDBRANCH  42  43
ENDBRANCH   1  42
TORSDOF 21
