REMARK SMILES C[C@@H](C(=O)OCCOCCOC(=O)c1ccc(-c2c3nc(c(-c4c(F)c(F)c(F)c(F)c4F)c4ccc([nH]4)c(-c4c(F)c(F)c(F)c(F)c4F)c4nc(c(-c5c(F)c(F)c(F)c(F)c5F)c5ccc2[nH]5)C=C4)C=C3)cc1)N1C(=O)/C(=C/c2ccc(-c3ccc([N+](=O)[O-])cc3Cl)o2)SC1=S
REMARK SMILES IDX 7 1 6 2 5 3 3 4 4 5 2 6 1 7 77 8 78 9 98 10 79 11 80 12
REMARK SMILES IDX 97 13 99 14 81 15 82 16 83 17 96 18 84 19 85 20 86 21 87 22
REMARK SMILES IDX 94 23 88 24 93 25 95 26 89 27 90 28 91 29 92 30 8 31 9 32
REMARK SMILES IDX 10 33 11 34 12 35 13 36 14 37 15 38 76 39 16 40 75 41 17 42
REMARK SMILES IDX 18 43 19 44 69 45 20 46 74 47 68 48 70 49 21 50 73 51 67 52
REMARK SMILES IDX 66 53 22 55 54 56 34 57 53 58 35 59 38 60 52 61 71 62 36 63
REMARK SMILES IDX 37 64 51 66 72 67 39 68 23 69 24 70 32 71 25 72 26 73 30 74
REMARK SMILES IDX 33 75 27 76 28 77 31 78 29 79 55 80 56 81 64 82 57 83 58 84
REMARK SMILES IDX 62 85 65 86 59 87 60 88 63 89 61 90 40 91 41 92 49 93 42 94
REMARK SMILES IDX 43 95 47 96 50 97 44 98 45 99 48 100 46 101
REMARK H PARENT 70 54 38 65
REMARK Flexibility Score: inf
ROOT
ATOM      1  C   UNL     1       2.190   2.650  -3.570  1.00  0.00     0.202 C 
ENDROOT
BRANCH   1   2
ATOM      2  C   UNL     1       2.285   3.417  -2.248  1.00  0.00     0.261 C 
BRANCH   2   3
ATOM      3  O   UNL     1       1.978   2.606  -1.100  1.00  0.00    -0.462 OA
BRANCH   3   4
ATOM      4  C   UNL     1       0.695   2.716  -0.653  1.00  0.00     0.329 C 
ATOM      5  O   UNL     1      -0.148   3.450  -1.160  1.00  0.00    -0.250 OA
BRANCH   4   6
ATOM      6  C   UNL     1       0.436   1.872   0.608  1.00  0.00     0.199 C 
ATOM      7  C   UNL     1       1.259   0.581   0.658  1.00  0.00     0.044 C 
BRANCH   6   8
ATOM      8  N   UNL     1      -1.036   1.690   0.700  1.00  0.00    -0.279 N 
ATOM      9  C   UNL     1      -1.678   0.608   0.118  1.00  0.00     0.267 C 
ATOM     10  C   UNL     1      -1.869   2.689   1.185  1.00  0.00     0.149 C 
ATOM     11  O   UNL     1      -1.150  -0.329  -0.467  1.00  0.00    -0.268 OA
ATOM     12  C   UNL     1      -3.156   0.745   0.235  1.00  0.00     0.084 C 
ATOM     13  S   UNL     1      -3.548   2.302   0.838  1.00  0.00    -0.054 SA
ATOM     14  S   UNL     1      -1.452   4.087   2.001  1.00  0.00    -0.052 S 
ATOM     15  C   UNL     1      -3.998  -0.239  -0.111  1.00  0.00     0.068 C 
BRANCH  15  16
ATOM     16  C   UNL     1      -5.403  -0.039  -0.183  1.00  0.00     0.128 A 
ATOM     17  C   UNL     1      -6.114   0.559  -1.217  1.00  0.00     0.051 A 
ATOM     18  O   UNL     1      -6.308  -0.421   0.785  1.00  0.00    -0.457 OA
ATOM     19  C   UNL     1      -7.476   0.567  -0.858  1.00  0.00     0.051 A 
ATOM     20  C   UNL     1      -7.550  -0.020   0.385  1.00  0.00     0.136 A 
BRANCH  20  21
ATOM     21  C   UNL     1      -8.675  -0.281   1.276  1.00  0.00     0.036 A 
ATOM     22  C   UNL     1      -9.814  -0.907   0.733  1.00  0.00     0.020 A 
ATOM     23  C   UNL     1      -8.723   0.154   2.613  1.00  0.00     0.058 A 
ATOM     24  C   UNL     1     -10.979  -1.076   1.487  1.00  0.00     0.086 A 
ATOM     25  C   UNL     1      -9.887  -0.011   3.378  1.00  0.00     0.106 A 
ATOM     26  Cl  UNL     1      -7.402   0.978   3.369  1.00  0.00    -0.083 Cl
ATOM     27  C   UNL     1     -11.014  -0.614   2.806  1.00  0.00     0.270 A 
BRANCH  27  28
ATOM     28  N   UNL     1     -12.253  -0.735   3.585  1.00  0.00     0.062 N 
ATOM     29  O   UNL     1     -13.232  -1.254   3.031  1.00  0.00    -0.258 OA
ATOM     30  O   UNL     1     -12.248  -0.301   4.745  1.00  0.00    -0.258 OA
ENDBRANCH  27  28
ENDBRANCH  20  21
ENDBRANCH  15  16
ENDBRANCH   6   8
ENDBRANCH   4   6
ENDBRANCH   3   4
ENDBRANCH   2   3
ENDBRANCH   1   2
BRANCH   1  31
ATOM     31  O   UNL     1       0.917   2.113  -3.915  1.00  0.00    -0.374 OA
BRANCH  31  32
ATOM     32  C   UNL     1       0.547   0.865  -3.326  1.00  0.00     0.202 C 
BRANCH  32  33
ATOM     33  C   UNL     1       1.192  -0.389  -3.925  1.00  0.00     0.261 C 
BRANCH  33  34
ATOM     34  O   UNL     1       2.605  -0.439  -3.648  1.00  0.00    -0.460 OA
BRANCH  34  35
ATOM     35  C   UNL     1       3.401  -0.325  -4.734  1.00  0.00     0.338 C 
ATOM     36  O   UNL     1       3.055  -0.292  -5.909  1.00  0.00    -0.246 OA
BRANCH  35  37
ATOM     37  C   UNL     1       4.791  -0.051  -4.323  1.00  0.00     0.060 A 
ATOM     38  C   UNL     1       5.437   1.035  -4.928  1.00  0.00     0.016 A 
ATOM     39  C   UNL     1       5.477  -0.875  -3.428  1.00  0.00     0.016 A 
ATOM     40  C   UNL     1       6.790   1.263  -4.693  1.00  0.00     0.010 A 
ATOM     41  C   UNL     1       6.839  -0.650  -3.199  1.00  0.00     0.010 A 
ATOM     42  C   UNL     1       7.510   0.394  -3.863  1.00  0.00    -0.014 A 
BRANCH  42  43
ATOM     43  C   UNL     1       8.990   0.485  -3.830  1.00  0.00     0.031 A 
ATOM     44  C   UNL     1       9.794  -0.457  -4.683  1.00  0.00     0.074 A 
ATOM     45  C   UNL     1       9.609   1.420  -3.088  1.00  0.00     0.049 A 
ATOM     46  N   UNL     1      11.093  -0.571  -4.801  1.00  0.00    -0.248 NA
ATOM     47  C   UNL     1       9.029  -1.397  -5.518  1.00  0.00     0.031 C 
ATOM     48  C   UNL     1       8.939   2.415  -2.255  1.00  0.00     0.029 A 
ATOM     49  N   UNL     1      10.946   1.679  -2.918  1.00  0.00    -0.354 N 
ATOM     50  C   UNL     1      11.299  -1.592  -5.720  1.00  0.00     0.074 A 
ATOM     51  C   UNL     1       9.996  -2.089  -6.103  1.00  0.00     0.031 C 
ATOM     52  C   UNL     1       9.870   3.171  -1.649  1.00  0.00     0.029 A 
ATOM     53  C   UNL     1      11.199   2.695  -2.030  1.00  0.00     0.049 A 
ATOM     54  H   UNL     1      11.656   1.184  -3.387  1.00  0.00     0.167 HD
ATOM     55  C   UNL     1      12.471  -2.065  -6.208  1.00  0.00     0.037 A 
ATOM     56  C   UNL     1      12.371   3.170  -1.565  1.00  0.00     0.037 A 
ATOM     57  C   UNL     1      13.767  -1.572  -5.826  1.00  0.00     0.049 A 
ATOM     58  C   UNL     1      13.662   2.579  -2.070  1.00  0.00     0.074 A 
ATOM     59  C   UNL     1      15.012  -1.979  -6.271  1.00  0.00     0.029 A 
ATOM     60  N   UNL     1      13.984  -0.562  -4.900  1.00  0.00    -0.354 N 
ATOM     61  N   UNL     1      13.848   1.628  -2.952  1.00  0.00    -0.248 NA
ATOM     62  C   UNL     1      14.906   3.134  -1.517  1.00  0.00     0.031 C 
ATOM     63  C   UNL     1      15.985  -1.248  -5.580  1.00  0.00     0.029 A 
ATOM     64  C   UNL     1      15.344  -0.349  -4.742  1.00  0.00     0.049 A 
ATOM     65  H   UNL     1      13.276  -0.069  -4.425  1.00  0.00     0.167 HD
ATOM     66  C   UNL     1      15.225   1.488  -3.080  1.00  0.00     0.074 A 
ATOM     67  C   UNL     1      15.827   2.462  -2.194  1.00  0.00     0.031 C 
ATOM     68  C   UNL     1      15.927   0.630  -3.861  1.00  0.00     0.037 A 
BRANCH  55  69
ATOM     69  C   UNL     1      12.403  -3.192  -7.196  1.00  0.00     0.064 A 
ATOM     70  C   UNL     1      11.951  -2.994  -8.509  1.00  0.00     0.173 A 
ATOM     71  C   UNL     1      12.825  -4.481  -6.834  1.00  0.00     0.173 A 
ATOM     72  F   UNL     1      11.522  -1.785  -8.900  1.00  0.00    -0.203 F 
ATOM     73  C   UNL     1      11.902  -4.050  -9.416  1.00  0.00     0.198 A 
ATOM     74  C   UNL     1      12.801  -5.527  -7.752  1.00  0.00     0.198 A 
ATOM     75  F   UNL     1      13.269  -4.723  -5.591  1.00  0.00    -0.203 F 
ATOM     76  F   UNL     1      11.425  -3.847 -10.652  1.00  0.00    -0.200 F 
ATOM     77  C   UNL     1      12.334  -5.313  -9.040  1.00  0.00     0.200 A 
ATOM     78  F   UNL     1      13.229  -6.744  -7.389  1.00  0.00    -0.200 F 
ATOM     79  F   UNL     1      12.292  -6.326  -9.916  1.00  0.00    -0.200 F 
ENDBRANCH  55  69
BRANCH  56  80
ATOM     80  C   UNL     1      12.379   4.256  -0.550  1.00  0.00     0.064 A 
ATOM     81  C   UNL     1      12.845   5.539  -0.864  1.00  0.00     0.173 A 
ATOM     82  C   UNL     1      11.935   4.024   0.760  1.00  0.00     0.173 A 
ATOM     83  F   UNL     1      13.305   5.802  -2.096  1.00  0.00    -0.203 F 
ATOM     84  C   UNL     1      12.883   6.546   0.099  1.00  0.00     0.198 A 
ATOM     85  C   UNL     1      11.947   5.039   1.714  1.00  0.00     0.198 A 
ATOM     86  F   UNL     1      11.481   2.812   1.112  1.00  0.00    -0.203 F 
ATOM     87  F   UNL     1      13.376   7.752  -0.215  1.00  0.00    -0.200 F 
ATOM     88  C   UNL     1      12.428   6.297   1.386  1.00  0.00     0.200 A 
ATOM     89  F   UNL     1      11.496   4.796   2.953  1.00  0.00    -0.200 F 
ATOM     90  F   UNL     1      12.462   7.266   2.310  1.00  0.00    -0.200 F 
ENDBRANCH  56  80
BRANCH  68  91
ATOM     91  C   UNL     1      17.425   0.727  -3.819  1.00  0.00     0.064 A 
ATOM     92  C   UNL     1      18.161   0.283  -2.711  1.00  0.00     0.173 A 
ATOM     93  C   UNL     1      18.134   1.229  -4.921  1.00  0.00     0.173 A 
ATOM     94  F   UNL     1      17.529  -0.192  -1.627  1.00  0.00    -0.203 F 
ATOM     95  C   UNL     1      19.551   0.361  -2.699  1.00  0.00     0.198 A 
ATOM     96  C   UNL     1      19.525   1.278  -4.917  1.00  0.00     0.198 A 
ATOM     97  F   UNL     1      17.477   1.659  -6.009  1.00  0.00    -0.203 F 
ATOM     98  F   UNL     1      20.232  -0.027  -1.611  1.00  0.00    -0.200 F 
ATOM     99  C   UNL     1      20.232   0.851  -3.803  1.00  0.00     0.200 A 
ATOM    100  F   UNL     1      20.181   1.739  -5.990  1.00  0.00    -0.200 F 
ATOM    101  F   UNL     1      21.570   0.918  -3.792  1.00  0.00    -0.200 F 
ENDBRANCH  68  91
ENDBRANCH  42  43
ENDBRANCH  35  37
ENDBRANCH  34  35
ENDBRANCH  33  34
ENDBRANCH  32  33
ENDBRANCH  31  32
ENDBRANCH   1  31
TORSDOF 18
