REMARK SMILES CN(CCCC(=O)OCCOCCOC(=O)c1ccc(-c2c3nc(c(-c4c(F)c(F)c(F)c(F)c4F)c4ccc([nH]4)c(-c4c(F)c(F)c(F)c(F)c4F)c4nc(c(-c5c(F)c(F)c(F)c(F)c5F)c5ccc2[nH]5)C=C4)C=C3)cc1)c1cccc(F)c1C(N)=O
REMARK SMILES IDX 9 1 8 2 6 3 7 4 5 5 4 6 3 7 2 8 1 9 80 10 81 11 86 12 82 13
REMARK SMILES IDX 84 14 83 15 85 16 87 17 88 18 89 19 10 22 11 23 12 24 13 25
REMARK SMILES IDX 14 26 15 27 16 28 17 29 18 30 79 31 19 32 78 33 20 34 21 35
REMARK SMILES IDX 22 36 72 37 23 38 77 39 71 40 73 41 24 42 76 43 70 44 69 45
REMARK SMILES IDX 25 47 57 48 37 49 56 50 38 51 41 52 55 53 74 54 39 55 40 56
REMARK SMILES IDX 54 58 75 59 42 60 26 61 27 62 35 63 28 64 29 65 33 66 36 67
REMARK SMILES IDX 30 68 31 69 34 70 32 71 58 72 59 73 67 74 60 75 61 76 65 77
REMARK SMILES IDX 68 78 62 79 63 80 66 81 64 82 43 83 44 84 52 85 45 86 46 87
REMARK SMILES IDX 50 88 53 89 47 90 48 91 51 92 49 93
REMARK H PARENT 88 20 88 21 73 46 41 57
REMARK Flexibility Score: inf
ROOT
ATOM      1  C   UNL     1       0.626  -4.405   4.359  1.00  0.00     0.261 C 
ENDROOT
BRANCH   1   2
ATOM      2  O   UNL     1       0.025  -3.533   3.390  1.00  0.00    -0.463 OA
BRANCH   2   3
ATOM      3  C   UNL     1      -0.741  -4.118   2.438  1.00  0.00     0.305 C 
ATOM      4  O   UNL     1      -0.789  -5.322   2.218  1.00  0.00    -0.252 OA
BRANCH   3   5
ATOM      5  C   UNL     1      -1.686  -3.128   1.789  1.00  0.00     0.124 C 
BRANCH   5   6
ATOM      6  C   UNL     1      -1.359  -1.633   1.859  1.00  0.00     0.033 C 
BRANCH   6   7
ATOM      7  C   UNL     1       0.072  -1.160   1.563  1.00  0.00     0.117 C 
BRANCH   7   8
ATOM      8  N   UNL     1       0.451  -1.344   0.154  1.00  0.00    -0.374 N 
ATOM      9  C   UNL     1       0.892  -0.160  -0.574  1.00  0.00     0.143 C 
BRANCH   8  10
ATOM     10  C   UNL     1       1.096  -2.553  -0.131  1.00  0.00     0.052 A 
ATOM     11  C   UNL     1       0.297  -3.551  -0.721  1.00  0.00     0.027 A 
ATOM     12  C   UNL     1       2.426  -2.895   0.191  1.00  0.00     0.098 A 
ATOM     13  C   UNL     1       0.717  -4.876  -0.822  1.00  0.00     0.005 A 
ATOM     14  C   UNL     1       2.844  -4.230   0.072  1.00  0.00     0.138 A 
ATOM     15  C   UNL     1       1.989  -5.222  -0.395  1.00  0.00     0.040 A 
ATOM     16  F   UNL     1       4.086  -4.594   0.427  1.00  0.00    -0.206 F 
BRANCH  12  17
ATOM     17  C   UNL     1       3.438  -1.906   0.640  1.00  0.00     0.253 C 
ATOM     18  N   UNL     1       4.647  -1.957  -0.008  1.00  0.00    -0.365 N 
ATOM     19  O   UNL     1       3.233  -1.074   1.513  1.00  0.00    -0.269 OA
ATOM     20  H   UNL     1       4.802  -2.631  -0.709  1.00  0.00     0.159 HD
ATOM     21  H   UNL     1       5.360  -1.321   0.229  1.00  0.00     0.159 HD
ENDBRANCH  12  17
ENDBRANCH   8  10
ENDBRANCH   7   8
ENDBRANCH   6   7
ENDBRANCH   5   6
ENDBRANCH   3   5
ENDBRANCH   2   3
ENDBRANCH   1   2
BRANCH   1  22
ATOM     22  C   UNL     1       0.337  -3.856   5.758  1.00  0.00     0.202 C 
BRANCH  22  23
ATOM     23  O   UNL     1      -1.026  -3.929   6.187  1.00  0.00    -0.374 OA
BRANCH  23  24
ATOM     24  C   UNL     1      -1.964  -3.038   5.583  1.00  0.00     0.202 C 
BRANCH  24  25
ATOM     25  C   UNL     1      -1.975  -1.595   6.098  1.00  0.00     0.261 C 
BRANCH  25  26
ATOM     26  O   UNL     1      -0.726  -0.919   5.873  1.00  0.00    -0.460 OA
BRANCH  26  27
ATOM     27  C   UNL     1      -0.006  -0.699   6.999  1.00  0.00     0.338 C 
ATOM     28  O   UNL     1      -0.339  -0.931   8.148  1.00  0.00    -0.246 OA
BRANCH  27  29
ATOM     29  C   UNL     1       1.362  -0.264   6.660  1.00  0.00     0.060 A 
ATOM     30  C   UNL     1       2.417  -0.962   7.259  1.00  0.00     0.016 A 
ATOM     31  C   UNL     1       1.609   0.857   5.864  1.00  0.00     0.016 A 
ATOM     32  C   UNL     1       3.723  -0.502   7.122  1.00  0.00     0.010 A 
ATOM     33  C   UNL     1       2.922   1.321   5.732  1.00  0.00     0.010 A 
ATOM     34  C   UNL     1       3.976   0.670   6.399  1.00  0.00    -0.014 A 
BRANCH  34  35
ATOM     35  C   UNL     1       5.316   1.296   6.495  1.00  0.00     0.031 A 
ATOM     36  C   UNL     1       5.525   2.418   7.475  1.00  0.00     0.074 A 
ATOM     37  C   UNL     1       6.348   0.829   5.773  1.00  0.00     0.049 A 
ATOM     38  N   UNL     1       6.612   3.094   7.750  1.00  0.00    -0.248 NA
ATOM     39  C   UNL     1       4.346   2.832   8.251  1.00  0.00     0.031 C 
ATOM     40  C   UNL     1       6.281  -0.284   4.831  1.00  0.00     0.029 A 
ATOM     41  N   UNL     1       7.659   1.232   5.733  1.00  0.00    -0.354 N 
ATOM     42  C   UNL     1       6.247   4.012   8.727  1.00  0.00     0.074 A 
ATOM     43  C   UNL     1       4.832   3.831   8.970  1.00  0.00     0.031 C 
ATOM     44  C   UNL     1       7.504  -0.487   4.312  1.00  0.00     0.029 A 
ATOM     45  C   UNL     1       8.428   0.505   4.860  1.00  0.00     0.049 A 
ATOM     46  H   UNL     1       8.014   1.971   6.278  1.00  0.00     0.167 HD
ATOM     47  C   UNL     1       7.024   4.916   9.370  1.00  0.00     0.037 A 
ATOM     48  C   UNL     1       9.728   0.638   4.534  1.00  0.00     0.037 A 
ATOM     49  C   UNL     1       8.430   5.098   9.121  1.00  0.00     0.049 A 
ATOM     50  C   UNL     1      10.550   1.714   5.193  1.00  0.00     0.074 A 
ATOM     51  C   UNL     1       9.310   5.976   9.729  1.00  0.00     0.029 A 
ATOM     52  N   UNL     1       9.160   4.392   8.175  1.00  0.00    -0.354 N 
ATOM     53  N   UNL     1      10.207   2.566   6.129  1.00  0.00    -0.248 NA
ATOM     54  C   UNL     1      11.944   1.848   4.745  1.00  0.00     0.031 C 
ATOM     55  C   UNL     1      10.559   5.839   9.113  1.00  0.00     0.029 A 
ATOM     56  C   UNL     1      10.472   4.837   8.159  1.00  0.00     0.049 A 
ATOM     57  H   UNL     1       8.798   3.679   7.600  1.00  0.00     0.167 HD
ATOM     58  C   UNL     1      11.343   3.316   6.402  1.00  0.00     0.074 A 
ATOM     59  C   UNL     1      12.391   2.812   5.537  1.00  0.00     0.031 C 
ATOM     60  C   UNL     1      11.505   4.326   7.292  1.00  0.00     0.037 A 
BRANCH  47  61
ATOM     61  C   UNL     1       6.350   5.803  10.378  1.00  0.00     0.064 A 
ATOM     62  C   UNL     1       5.875   5.304  11.601  1.00  0.00     0.173 A 
ATOM     63  C   UNL     1       6.169   7.168  10.112  1.00  0.00     0.173 A 
ATOM     64  F   UNL     1       6.010   4.003  11.899  1.00  0.00    -0.203 F 
ATOM     65  C   UNL     1       5.207   6.131  12.501  1.00  0.00     0.198 A 
ATOM     66  C   UNL     1       5.529   7.999  11.028  1.00  0.00     0.198 A 
ATOM     67  F   UNL     1       6.608   7.698   8.961  1.00  0.00    -0.203 F 
ATOM     68  F   UNL     1       4.707   5.620  13.635  1.00  0.00    -0.200 F 
ATOM     69  C   UNL     1       5.038   7.478  12.216  1.00  0.00     0.200 A 
ATOM     70  F   UNL     1       5.375   9.302  10.756  1.00  0.00    -0.200 F 
ATOM     71  F   UNL     1       4.391   8.272  13.080  1.00  0.00    -0.200 F 
ENDBRANCH  47  61
BRANCH  48  72
ATOM     72  C   UNL     1      10.334  -0.284   3.541  1.00  0.00     0.064 A 
ATOM     73  C   UNL     1      11.274  -1.247   3.933  1.00  0.00     0.173 A 
ATOM     74  C   UNL     1       9.979  -0.231   2.185  1.00  0.00     0.173 A 
ATOM     75  F   UNL     1      11.664  -1.318   5.214  1.00  0.00    -0.203 F 
ATOM     76  C   UNL     1      11.839  -2.119   3.006  1.00  0.00     0.198 A 
ATOM     77  C   UNL     1      10.526  -1.121   1.263  1.00  0.00     0.198 A 
ATOM     78  F   UNL     1       9.088   0.675   1.757  1.00  0.00    -0.203 F 
ATOM     79  F   UNL     1      12.759  -3.010   3.401  1.00  0.00    -0.200 F 
ATOM     80  C   UNL     1      11.459  -2.061   1.673  1.00  0.00     0.200 A 
ATOM     81  F   UNL     1      10.146  -1.069  -0.021  1.00  0.00    -0.200 F 
ATOM     82  F   UNL     1      11.995  -2.908   0.783  1.00  0.00    -0.200 F 
ENDBRANCH  48  72
BRANCH  60  83
ATOM     83  C   UNL     1      12.873   4.936   7.401  1.00  0.00     0.064 A 
ATOM     84  C   UNL     1      13.395   5.763   6.395  1.00  0.00     0.173 A 
ATOM     85  C   UNL     1      13.657   4.721   8.546  1.00  0.00     0.173 A 
ATOM     86  F   UNL     1      12.693   5.987   5.274  1.00  0.00    -0.203 F 
ATOM     87  C   UNL     1      14.660   6.332   6.521  1.00  0.00     0.198 A 
ATOM     88  C   UNL     1      14.908   5.316   8.681  1.00  0.00     0.198 A 
ATOM     89  F   UNL     1      13.202   3.944   9.540  1.00  0.00    -0.203 F 
ATOM     90  F   UNL     1      15.157   7.080   5.526  1.00  0.00    -0.200 F 
ATOM     91  C   UNL     1      15.412   6.114   7.665  1.00  0.00     0.200 A 
ATOM     92  F   UNL     1      15.628   5.115   9.794  1.00  0.00    -0.200 F 
ATOM     93  F   UNL     1      16.626   6.668   7.787  1.00  0.00    -0.200 F 
ENDBRANCH  60  83
ENDBRANCH  34  35
ENDBRANCH  27  29
ENDBRANCH  26  27
ENDBRANCH  25  26
ENDBRANCH  24  25
ENDBRANCH  23  24
ENDBRANCH  22  23
ENDBRANCH   1  22
TORSDOF 19
