REMARK SMILES CC[C@@H]1CC[C@H]([C@@H](C)C(=O)OCCOCCOC(=O)c2ccc(-c3c4nc(c(-c5c(F)c(F)c(F)c(F)c5F)c5ccc([nH]5)c(-c5c(F)c(F)c(F)c(F)c5F)c5nc(c(-c6c(F)c(F)c(F)c(F)c6F)c6ccc3[nH]6)C=C5)C=C4)cc2)C1
REMARK SMILES IDX 14 1 13 2 12 3 11 4 9 5 10 6 7 7 8 8 6 9 3 10 4 11 83 12
REMARK SMILES IDX 5 13 2 14 1 15 15 16 16 17 17 18 18 19 19 20 20 21 21 22
REMARK SMILES IDX 82 23 22 24 81 25 23 26 24 27 25 28 75 29 26 30 80 31 74 32
REMARK SMILES IDX 76 33 27 34 79 35 73 36 72 37 28 39 60 40 40 41 59 42 41 43
REMARK SMILES IDX 44 44 58 45 77 46 42 47 43 48 57 50 78 51 45 52 29 53 30 54
REMARK SMILES IDX 38 55 31 56 32 57 36 58 39 59 33 60 34 61 37 62 35 63 61 64
REMARK SMILES IDX 62 65 70 66 63 67 64 68 68 69 71 70 65 71 66 72 69 73 67 74
REMARK SMILES IDX 46 75 47 76 55 77 48 78 49 79 53 80 56 81 50 82 51 83 54 84
REMARK SMILES IDX 52 85
REMARK H PARENT 76 38 44 49
REMARK Flexibility Score: inf
ROOT
ATOM      1  O   UNL     1       6.888   1.228   0.593  1.00  0.00    -0.374 OA
ENDROOT
BRANCH   1   2
ATOM      2  C   UNL     1       7.279   1.921   1.774  1.00  0.00     0.202 C 
BRANCH   2   3
ATOM      3  C   UNL     1       6.812   3.374   1.917  1.00  0.00     0.261 C 
BRANCH   3   4
ATOM      4  O   UNL     1       5.384   3.543   2.025  1.00  0.00    -0.463 OA
BRANCH   4   5
ATOM      5  C   UNL     1       4.790   4.093   0.930  1.00  0.00     0.309 C 
ATOM      6  O   UNL     1       5.359   4.308  -0.135  1.00  0.00    -0.252 OA
BRANCH   5   7
ATOM      7  C   UNL     1       3.358   4.544   1.172  1.00  0.00     0.099 C 
ATOM      8  C   UNL     1       3.427   5.987   1.681  1.00  0.00     0.020 C 
BRANCH   7   9
ATOM      9  C   UNL     1       2.474   3.662   2.078  1.00  0.00     0.003 C 
ATOM     10  C   UNL     1       1.033   1.705   2.062  1.00  0.00    -0.011 C 
ATOM     11  C   UNL     1       0.179   2.881   1.610  1.00  0.00     0.004 C 
ATOM     12  C   UNL     1       2.437   2.176   1.689  1.00  0.00     0.008 C 
ATOM     13  C   UNL     1       0.989   4.101   2.043  1.00  0.00     0.005 C 
BRANCH  10  14
ATOM     14  C   UNL     1       0.605   0.348   1.494  1.00  0.00     0.000 C 
ATOM     15  C   UNL     1       0.858   0.130   0.009  1.00  0.00     0.004 C 
ENDBRANCH  10  14
ENDBRANCH   7   9
ENDBRANCH   5   7
ENDBRANCH   4   5
ENDBRANCH   3   4
ENDBRANCH   2   3
ENDBRANCH   1   2
BRANCH   1  16
ATOM     16  C   UNL     1       5.542   0.758   0.532  1.00  0.00     0.202 C 
BRANCH  16  17
ATOM     17  C   UNL     1       5.219  -0.435   1.439  1.00  0.00     0.261 C 
BRANCH  17  18
ATOM     18  O   UNL     1       5.256  -0.058   2.830  1.00  0.00    -0.460 OA
BRANCH  18  19
ATOM     19  C   UNL     1       5.920  -0.925   3.627  1.00  0.00     0.338 C 
ATOM     20  O   UNL     1       6.319  -2.044   3.337  1.00  0.00    -0.246 OA
BRANCH  19  21
ATOM     21  C   UNL     1       6.280  -0.276   4.899  1.00  0.00     0.060 A 
ATOM     22  C   UNL     1       7.644  -0.147   5.191  1.00  0.00     0.016 A 
ATOM     23  C   UNL     1       5.315   0.082   5.843  1.00  0.00     0.016 A 
ATOM     24  C   UNL     1       8.049   0.277   6.455  1.00  0.00     0.010 A 
ATOM     25  C   UNL     1       5.725   0.502   7.116  1.00  0.00     0.010 A 
ATOM     26  C   UNL     1       7.093   0.556   7.442  1.00  0.00    -0.014 A 
BRANCH  26  27
ATOM     27  C   UNL     1       7.542   0.731   8.847  1.00  0.00     0.031 A 
ATOM     28  C   UNL     1       7.488  -0.447   9.783  1.00  0.00     0.074 A 
ATOM     29  C   UNL     1       8.053   1.900   9.272  1.00  0.00     0.049 A 
ATOM     30  N   UNL     1       7.869  -0.534  11.033  1.00  0.00    -0.248 NA
ATOM     31  C   UNL     1       6.933  -1.694   9.236  1.00  0.00     0.031 C 
ATOM     32  C   UNL     1       8.191   3.106   8.460  1.00  0.00     0.029 A 
ATOM     33  N   UNL     1       8.556   2.259  10.499  1.00  0.00    -0.354 N 
ATOM     34  C   UNL     1       7.603  -1.842  11.418  1.00  0.00     0.074 A 
ATOM     35  C   UNL     1       6.998  -2.504  10.283  1.00  0.00     0.031 C 
ATOM     36  C   UNL     1       8.740   4.076   9.211  1.00  0.00     0.029 A 
ATOM     37  C   UNL     1       8.974   3.564  10.561  1.00  0.00     0.049 A 
ATOM     38  H   UNL     1       8.612   1.638  11.261  1.00  0.00     0.167 HD
ATOM     39  C   UNL     1       7.854  -2.443  12.606  1.00  0.00     0.037 A 
ATOM     40  C   UNL     1       9.478   4.269  11.593  1.00  0.00     0.037 A 
ATOM     41  C   UNL     1       8.460  -1.794  13.738  1.00  0.00     0.049 A 
ATOM     42  C   UNL     1       9.694   3.593  12.923  1.00  0.00     0.074 A 
ATOM     43  C   UNL     1       8.778  -2.331  14.973  1.00  0.00     0.029 A 
ATOM     44  N   UNL     1       8.834  -0.460  13.773  1.00  0.00    -0.354 N 
ATOM     45  N   UNL     1       9.476   2.347  13.264  1.00  0.00    -0.248 NA
ATOM     46  C   UNL     1      10.233   4.424  14.010  1.00  0.00     0.031 C 
ATOM     47  C   UNL     1       9.304  -1.309  15.772  1.00  0.00     0.029 A 
ATOM     48  C   UNL     1       9.354  -0.148  15.019  1.00  0.00     0.049 A 
ATOM     49  H   UNL     1       8.743   0.173  13.024  1.00  0.00     0.167 HD
ATOM     50  C   UNL     1       9.870   2.238  14.591  1.00  0.00     0.074 A 
ATOM     51  C   UNL     1      10.355   3.542  14.992  1.00  0.00     0.031 C 
ATOM     52  C   UNL     1       9.836   1.154  15.404  1.00  0.00     0.037 A 
BRANCH  39  53
ATOM     53  C   UNL     1       7.453  -3.881  12.749  1.00  0.00     0.064 A 
ATOM     54  C   UNL     1       8.171  -4.910  12.122  1.00  0.00     0.173 A 
ATOM     55  C   UNL     1       6.359  -4.237  13.552  1.00  0.00     0.173 A 
ATOM     56  F   UNL     1       9.217  -4.620  11.333  1.00  0.00    -0.203 F 
ATOM     57  C   UNL     1       7.794  -6.242  12.276  1.00  0.00     0.198 A 
ATOM     58  C   UNL     1       6.000  -5.571  13.724  1.00  0.00     0.198 A 
ATOM     59  F   UNL     1       5.643  -3.290  14.177  1.00  0.00    -0.203 F 
ATOM     60  F   UNL     1       8.470  -7.206  11.636  1.00  0.00    -0.200 F 
ATOM     61  C   UNL     1       6.714  -6.571  13.081  1.00  0.00     0.200 A 
ATOM     62  F   UNL     1       4.962  -5.888  14.510  1.00  0.00    -0.200 F 
ATOM     63  F   UNL     1       6.356  -7.854  13.233  1.00  0.00    -0.200 F 
ENDBRANCH  39  53
BRANCH  40  64
ATOM     64  C   UNL     1       9.813   5.705  11.413  1.00  0.00     0.064 A 
ATOM     65  C   UNL     1      11.143   6.145  11.409  1.00  0.00     0.173 A 
ATOM     66  C   UNL     1       8.804   6.667  11.258  1.00  0.00     0.173 A 
ATOM     67  F   UNL     1      12.140   5.266  11.582  1.00  0.00    -0.203 F 
ATOM     68  C   UNL     1      11.451   7.497  11.268  1.00  0.00     0.198 A 
ATOM     69  C   UNL     1       9.114   8.014  11.093  1.00  0.00     0.198 A 
ATOM     70  F   UNL     1       7.515   6.295  11.261  1.00  0.00    -0.203 F 
ATOM     71  F   UNL     1      12.729   7.898  11.308  1.00  0.00    -0.200 F 
ATOM     72  C   UNL     1      10.437   8.429  11.105  1.00  0.00     0.200 A 
ATOM     73  F   UNL     1       8.132   8.910  10.927  1.00  0.00    -0.200 F 
ATOM     74  F   UNL     1      10.734   9.729  10.967  1.00  0.00    -0.200 F 
ENDBRANCH  40  64
BRANCH  52  75
ATOM     75  C   UNL     1      10.355   1.321  16.802  1.00  0.00     0.064 A 
ATOM     76  C   UNL     1       9.629   2.023  17.775  1.00  0.00     0.173 A 
ATOM     77  C   UNL     1      11.572   0.735  17.184  1.00  0.00     0.173 A 
ATOM     78  F   UNL     1       8.468   2.613  17.456  1.00  0.00    -0.203 F 
ATOM     79  C   UNL     1      10.113   2.150  19.075  1.00  0.00     0.198 A 
ATOM     80  C   UNL     1      12.040   0.842  18.491  1.00  0.00     0.198 A 
ATOM     81  F   UNL     1      12.300   0.047  16.292  1.00  0.00    -0.203 F 
ATOM     82  F   UNL     1       9.422   2.859  19.979  1.00  0.00    -0.200 F 
ATOM     83  C   UNL     1      11.313   1.554  19.433  1.00  0.00     0.200 A 
ATOM     84  F   UNL     1      13.194   0.256  18.838  1.00  0.00    -0.200 F 
ATOM     85  F   UNL     1      11.774   1.672  20.686  1.00  0.00    -0.200 F 
ENDBRANCH  52  75
ENDBRANCH  26  27
ENDBRANCH  19  21
ENDBRANCH  18  19
ENDBRANCH  17  18
ENDBRANCH  16  17
ENDBRANCH   1  16
TORSDOF 16
