REMARK SMILES COc1cc(OC)cc(-c2cc3nc(C)c(CCC(=O)OCCOCCOC(=O)c4ccc(-c5c6nc(c(-c7c(F)c(F)c(F)c(F)c7F)c7ccc([nH]7)c(-c7c(F)c(F)c(F)c(F)c7F)c7nc(c(-c8c(F)c(F)c(F)c(F)c8F)c8ccc5[nH]8)C=C7)C=C6)cc4)c(C)n3n2)c1
REMARK SMILES IDX 23 1 22 2 21 3 19 4 20 5 18 6 17 7 16 8 10 9 11 10 96 11
REMARK SMILES IDX 12 12 95 13 13 14 93 15 14 16 94 17 15 18 9 19 3 20 4 21
REMARK SMILES IDX 97 22 5 23 8 24 2 25 1 26 6 27 7 28 24 29 25 30 26 31 27 32
REMARK SMILES IDX 28 33 29 34 30 35 31 36 92 37 32 38 91 39 33 40 34 41 35 42
REMARK SMILES IDX 85 43 36 44 90 45 84 46 86 47 37 48 89 49 83 50 82 51 38 53
REMARK SMILES IDX 70 54 50 55 69 56 51 57 54 58 68 59 87 60 52 61 53 62 67 64
REMARK SMILES IDX 88 65 55 66 39 67 40 68 48 69 41 70 42 71 46 72 49 73 43 74
REMARK SMILES IDX 44 75 47 76 45 77 71 78 72 79 80 80 73 81 74 82 78 83 81 84
REMARK SMILES IDX 75 85 76 86 79 87 77 88 56 89 57 90 65 91 58 92 59 93 63 94
REMARK SMILES IDX 66 95 60 96 61 97 64 98 62 99
REMARK H PARENT 86 52 54 63
REMARK Flexibility Score: inf
ROOT
ATOM      1  C   UNL     1       8.060  -4.555   0.455  1.00  0.00     0.202 C 
ENDROOT
BRANCH   1   2
ATOM      2  C   UNL     1       8.576  -3.098   0.340  1.00  0.00     0.261 C 
BRANCH   2   3
ATOM      3  O   UNL     1       8.861  -2.652  -1.014  1.00  0.00    -0.463 OA
BRANCH   3   4
ATOM      4  C   UNL     1      10.118  -2.700  -1.505  1.00  0.00     0.306 C 
ATOM      5  O   UNL     1      11.100  -3.024  -0.852  1.00  0.00    -0.252 OA
BRANCH   4   6
ATOM      6  C   UNL     1      10.186  -2.293  -2.978  1.00  0.00     0.127 C 
BRANCH   6   7
ATOM      7  C   UNL     1       9.507  -3.200  -4.039  1.00  0.00     0.051 C 
BRANCH   7   8
ATOM      8  C   UNL     1       8.104  -2.806  -4.495  1.00  0.00    -0.005 A 
ATOM      9  C   UNL     1       3.705  -1.985  -4.048  1.00  0.00     0.095 A 
ATOM     10  C   UNL     1       4.175  -1.675  -5.352  1.00  0.00     0.080 A 
ATOM     11  N   UNL     1       4.696  -2.448  -3.297  1.00  0.00    -0.166 NA
ATOM     12  C   UNL     1       5.533  -1.950  -5.340  1.00  0.00     0.156 A 
ATOM     13  N   UNL     1       5.772  -2.480  -4.095  1.00  0.00    -0.219 N 
ATOM     14  N   UNL     1       6.541  -1.877  -6.260  1.00  0.00    -0.234 NA
ATOM     15  C   UNL     1       7.008  -2.982  -3.729  1.00  0.00     0.046 A 
ATOM     16  C   UNL     1       7.736  -2.276  -5.887  1.00  0.00     0.045 A 
ATOM     17  C   UNL     1       6.930  -3.726  -2.456  1.00  0.00     0.067 C 
ATOM     18  C   UNL     1       8.774  -2.269  -6.994  1.00  0.00     0.067 C 
BRANCH   9  19
ATOM     19  C   UNL     1       2.384  -1.998  -3.439  1.00  0.00     0.009 A 
ATOM     20  C   UNL     1       1.009  -1.643  -1.456  1.00  0.00     0.123 A 
ATOM     21  C   UNL     1       0.064  -2.527  -1.960  1.00  0.00     0.092 A 
ATOM     22  C   UNL     1       2.186  -1.408  -2.171  1.00  0.00     0.057 A 
ATOM     23  C   UNL     1       0.306  -3.164  -3.175  1.00  0.00     0.123 A 
ATOM     24  C   UNL     1       1.419  -2.860  -3.953  1.00  0.00     0.057 A 
BRANCH  20  25
ATOM     25  O   UNL     1       0.768  -1.177  -0.192  1.00  0.00    -0.497 OA
ATOM     26  C   UNL     1       1.084   0.199  -0.014  1.00  0.00     0.278 C 
ENDBRANCH  20  25
BRANCH  23  27
ATOM     27  O   UNL     1      -0.492  -4.221  -3.528  1.00  0.00    -0.497 OA
ATOM     28  C   UNL     1       0.128  -5.427  -3.052  1.00  0.00     0.278 C 
ENDBRANCH  23  27
ENDBRANCH   9  19
ENDBRANCH   7   8
ENDBRANCH   6   7
ENDBRANCH   4   6
ENDBRANCH   3   4
ENDBRANCH   2   3
ENDBRANCH   1   2
BRANCH   1  29
ATOM     29  O   UNL     1       9.071  -5.561   0.464  1.00  0.00    -0.374 OA
BRANCH  29  30
ATOM     30  C   UNL     1       9.643  -5.923  -0.786  1.00  0.00     0.202 C 
BRANCH  30  31
ATOM     31  C   UNL     1       8.978  -7.103  -1.489  1.00  0.00     0.261 C 
BRANCH  31  32
ATOM     32  O   UNL     1       7.809  -6.712  -2.214  1.00  0.00    -0.460 OA
BRANCH  32  33
ATOM     33  C   UNL     1       6.606  -7.057  -1.689  1.00  0.00     0.338 C 
ATOM     34  O   UNL     1       6.379  -7.433  -0.564  1.00  0.00    -0.246 OA
BRANCH  33  35
ATOM     35  C   UNL     1       5.616  -7.039  -2.796  1.00  0.00     0.060 A 
ATOM     36  C   UNL     1       4.351  -7.581  -2.557  1.00  0.00     0.016 A 
ATOM     37  C   UNL     1       5.984  -6.621  -4.087  1.00  0.00     0.016 A 
ATOM     38  C   UNL     1       3.538  -7.878  -3.639  1.00  0.00     0.010 A 
ATOM     39  C   UNL     1       5.165  -6.890  -5.160  1.00  0.00     0.010 A 
ATOM     40  C   UNL     1       3.999  -7.609  -4.935  1.00  0.00    -0.014 A 
BRANCH  40  41
ATOM     41  C   UNL     1       3.242  -8.098  -6.071  1.00  0.00     0.031 A 
ATOM     42  C   UNL     1       1.959  -7.405  -6.306  1.00  0.00     0.074 A 
ATOM     43  C   UNL     1       3.711  -9.043  -6.910  1.00  0.00     0.049 A 
ATOM     44  N   UNL     1       0.775  -7.890  -6.132  1.00  0.00    -0.248 NA
ATOM     45  C   UNL     1       1.986  -5.979  -6.656  1.00  0.00     0.031 C 
ATOM     46  C   UNL     1       5.045  -9.639  -6.984  1.00  0.00     0.029 A 
ATOM     47  N   UNL     1       3.064  -9.630  -7.952  1.00  0.00    -0.354 N 
ATOM     48  C   UNL     1      -0.105  -6.892  -6.529  1.00  0.00     0.074 A 
ATOM     49  C   UNL     1       0.682  -5.696  -6.688  1.00  0.00     0.031 C 
ATOM     50  C   UNL     1       5.167 -10.323  -8.148  1.00  0.00     0.029 A 
ATOM     51  C   UNL     1       3.883 -10.333  -8.826  1.00  0.00     0.049 A 
ATOM     52  H   UNL     1       2.090  -9.562  -8.078  1.00  0.00     0.167 HD
ATOM     53  C   UNL     1      -1.376  -7.190  -6.914  1.00  0.00     0.037 A 
ATOM     54  C   UNL     1       3.515 -10.826 -10.038  1.00  0.00     0.037 A 
ATOM     55  C   UNL     1      -1.770  -8.503  -6.467  1.00  0.00     0.049 A 
ATOM     56  C   UNL     1       2.034 -10.973 -10.014  1.00  0.00     0.074 A 
ATOM     57  C   UNL     1      -1.852  -9.118  -5.230  1.00  0.00     0.029 A 
ATOM     58  N   UNL     1      -1.765  -9.531  -7.378  1.00  0.00    -0.354 N 
ATOM     59  N   UNL     1       1.412 -11.841  -9.264  1.00  0.00    -0.248 NA
ATOM     60  C   UNL     1       1.242  -9.828 -10.443  1.00  0.00     0.031 C 
ATOM     61  C   UNL     1      -1.340 -10.435  -5.442  1.00  0.00     0.029 A 
ATOM     62  C   UNL     1      -1.066 -10.564  -6.802  1.00  0.00     0.049 A 
ATOM     63  H   UNL     1      -2.181  -9.528  -8.270  1.00  0.00     0.167 HD
ATOM     64  C   UNL     1       0.323 -11.147  -8.763  1.00  0.00     0.074 A 
ATOM     65  C   UNL     1       0.239  -9.927  -9.567  1.00  0.00     0.031 C 
ATOM     66  C   UNL     1      -0.234 -11.466  -7.559  1.00  0.00     0.037 A 
BRANCH  53  67
ATOM     67  C   UNL     1      -2.106  -6.440  -7.997  1.00  0.00     0.064 A 
ATOM     68  C   UNL     1      -3.472  -6.698  -8.222  1.00  0.00     0.173 A 
ATOM     69  C   UNL     1      -1.455  -5.690  -9.002  1.00  0.00     0.173 A 
ATOM     70  F   UNL     1      -4.177  -7.446  -7.360  1.00  0.00    -0.203 F 
ATOM     71  C   UNL     1      -4.119  -6.274  -9.387  1.00  0.00     0.198 A 
ATOM     72  C   UNL     1      -2.118  -5.215 -10.130  1.00  0.00     0.198 A 
ATOM     73  F   UNL     1      -0.132  -5.493  -9.001  1.00  0.00    -0.203 F 
ATOM     74  F   UNL     1      -5.384  -6.650  -9.618  1.00  0.00    -0.200 F 
ATOM     75  C   UNL     1      -3.442  -5.531 -10.337  1.00  0.00     0.200 A 
ATOM     76  F   UNL     1      -1.433  -4.524 -11.052  1.00  0.00    -0.200 F 
ATOM     77  F   UNL     1      -4.045  -5.169 -11.477  1.00  0.00    -0.200 F 
ENDBRANCH  53  67
BRANCH  54  78
ATOM     78  C   UNL     1       4.276 -10.784 -11.317  1.00  0.00     0.064 A 
ATOM     79  C   UNL     1       3.788 -11.439 -12.463  1.00  0.00     0.173 A 
ATOM     80  C   UNL     1       5.318  -9.861 -11.529  1.00  0.00     0.173 A 
ATOM     81  F   UNL     1       2.770 -12.307 -12.362  1.00  0.00    -0.203 F 
ATOM     82  C   UNL     1       4.277 -11.152 -13.743  1.00  0.00     0.198 A 
ATOM     83  C   UNL     1       5.809  -9.580 -12.806  1.00  0.00     0.198 A 
ATOM     84  F   UNL     1       5.818  -9.137 -10.518  1.00  0.00    -0.203 F 
ATOM     85  F   UNL     1       3.733 -11.743 -14.816  1.00  0.00    -0.200 F 
ATOM     86  C   UNL     1       5.277 -10.211 -13.914  1.00  0.00     0.200 A 
ATOM     87  F   UNL     1       6.755  -8.642 -12.961  1.00  0.00    -0.200 F 
ATOM     88  F   UNL     1       5.698  -9.883 -15.144  1.00  0.00    -0.200 F 
ENDBRANCH  54  78
BRANCH  66  89
ATOM     89  C   UNL     1       0.206 -12.733  -6.882  1.00  0.00     0.064 A 
ATOM     90  C   UNL     1       1.524 -13.002  -6.473  1.00  0.00     0.173 A 
ATOM     91  C   UNL     1      -0.781 -13.657  -6.515  1.00  0.00     0.173 A 
ATOM     92  F   UNL     1       2.511 -12.124  -6.694  1.00  0.00    -0.203 F 
ATOM     93  C   UNL     1       1.840 -14.166  -5.770  1.00  0.00     0.198 A 
ATOM     94  C   UNL     1      -0.470 -14.799  -5.782  1.00  0.00     0.198 A 
ATOM     95  F   UNL     1      -2.065 -13.430  -6.833  1.00  0.00    -0.203 F 
ATOM     96  F   UNL     1       3.108 -14.407  -5.402  1.00  0.00    -0.200 F 
ATOM     97  C   UNL     1       0.842 -15.059  -5.420  1.00  0.00     0.200 A 
ATOM     98  F   UNL     1      -1.447 -15.635  -5.407  1.00  0.00    -0.200 F 
ATOM     99  F   UNL     1       1.137 -16.159  -4.713  1.00  0.00    -0.200 F 
ENDBRANCH  66  89
ENDBRANCH  40  41
ENDBRANCH  33  35
ENDBRANCH  32  33
ENDBRANCH  31  32
ENDBRANCH  30  31
ENDBRANCH  29  30
ENDBRANCH   1  29
TORSDOF 19
