REMARK SMILES CC(C)(C)OC(=O)N1CCN(N[C@@H](C(=O)OCCOCCOC(=O)c2ccc(-c3c4nc(c(-c5c(F)c(F)c(F)c(F)c5F)c5ccc([nH]5)c(-c5c(F)c(F)c(F)c(F)c5F)c5nc(c(-c6c(F)c(F)c(F)c(F)c6F)c6ccc3[nH]6)C=C5)C=C4)cc2)c2ccccc2Cl)CC1
REMARK SMILES IDX 18 1 17 2 16 3 14 4 15 5 13 6 12 7 11 9 6 10 7 11 8 12 9 13
REMARK SMILES IDX 96 14 10 15 95 16 5 17 2 18 1 19 3 20 4 21 88 22 89 23 93 24
REMARK SMILES IDX 90 25 92 26 94 27 91 28 19 29 20 30 21 31 22 32 23 33 24 34
REMARK SMILES IDX 25 35 26 36 87 37 27 38 86 39 28 40 29 41 30 42 80 43 31 44
REMARK SMILES IDX 85 45 79 46 81 47 32 48 84 49 78 50 77 51 33 53 65 54 45 55
REMARK SMILES IDX 64 56 46 57 49 58 63 59 82 60 47 61 48 62 62 64 83 65 50 66
REMARK SMILES IDX 34 67 35 68 43 69 36 70 37 71 41 72 44 73 38 74 39 75 42 76
REMARK SMILES IDX 40 77 66 78 67 79 75 80 68 81 69 82 73 83 76 84 70 85 71 86
REMARK SMILES IDX 74 87 72 88 51 89 52 90 60 91 53 92 54 93 58 94 61 95 55 96
REMARK SMILES IDX 56 97 59 98 57 99
REMARK H PARENT 12 8 81 52 49 63
REMARK Flexibility Score: inf
ROOT
ATOM      1  C   UNL     1       1.698   0.423  10.964  1.00  0.00     0.202 C 
ENDROOT
BRANCH   1   2
ATOM      2  C   UNL     1       0.423   1.190  10.612  1.00  0.00     0.261 C 
BRANCH   2   3
ATOM      3  O   UNL     1       0.640   1.991   9.441  1.00  0.00    -0.462 OA
BRANCH   3   4
ATOM      4  C   UNL     1       0.405   3.323   9.566  1.00  0.00     0.329 C 
ATOM      5  O   UNL     1      -0.139   3.816  10.552  1.00  0.00    -0.250 OA
BRANCH   4   6
ATOM      6  C   UNL     1       0.885   4.177   8.362  1.00  0.00     0.211 C 
BRANCH   6   7
ATOM      7  N   UNL     1       1.795   3.513   7.362  1.00  0.00    -0.237 NA
ATOM      8  H   UNL     1       1.988   4.184   6.619  1.00  0.00     0.143 HD
BRANCH   7   9
ATOM      9  N   UNL     1       1.264   2.285   6.740  1.00  0.00    -0.240 NA
ATOM     10  C   UNL     1       0.399   2.813   2.592  1.00  0.00     0.410 C 
ATOM     11  O   UNL     1      -0.529   3.507   2.190  1.00  0.00    -0.224 OA
ATOM     12  N   UNL     1       0.861   2.874   3.884  1.00  0.00    -0.306 N 
ATOM     13  C   UNL     1      -0.004   3.443   4.901  1.00  0.00     0.140 C 
ATOM     14  C   UNL     1       2.205   2.519   4.336  1.00  0.00     0.140 C 
ATOM     15  C   UNL     1      -0.057   2.494   6.102  1.00  0.00     0.124 C 
ATOM     16  C   UNL     1       2.212   1.782   5.700  1.00  0.00     0.124 C 
BRANCH  10  17
ATOM     17  O   UNL     1       1.002   1.841   1.862  1.00  0.00    -0.444 OA
BRANCH  17  18
ATOM     18  C   UNL     1       0.484   1.516   0.541  1.00  0.00     0.106 C 
ATOM     19  C   UNL     1       1.132   0.174   0.170  1.00  0.00     0.056 C 
ATOM     20  C   UNL     1       0.929   2.586  -0.458  1.00  0.00     0.056 C 
ATOM     21  C   UNL     1      -1.042   1.308   0.509  1.00  0.00     0.056 C 
ENDBRANCH  17  18
ENDBRANCH  10  17
ENDBRANCH   7   9
ENDBRANCH   6   7
BRANCH   6  22
ATOM     22  C   UNL     1       1.532   5.483   8.849  1.00  0.00     0.000 A 
ATOM     23  C   UNL     1       2.385   5.485   9.975  1.00  0.00     0.007 A 
ATOM     24  C   UNL     1       1.280   6.718   8.226  1.00  0.00     0.046 A 
ATOM     25  C   UNL     1       2.925   6.669  10.483  1.00  0.00     0.000 A 
ATOM     26  C   UNL     1       1.825   7.903   8.738  1.00  0.00     0.021 A 
ATOM     27  Cl  UNL     1       0.280   6.866   6.826  1.00  0.00    -0.084 Cl
ATOM     28  C   UNL     1       2.638   7.880   9.869  1.00  0.00     0.002 A 
ENDBRANCH   6  22
ENDBRANCH   4   6
ENDBRANCH   3   4
ENDBRANCH   2   3
ENDBRANCH   1   2
BRANCH   1  29
ATOM     29  O   UNL     1       2.828   1.198  11.368  1.00  0.00    -0.374 OA
BRANCH  29  30
ATOM     30  C   UNL     1       3.537   1.909  10.357  1.00  0.00     0.202 C 
BRANCH  30  31
ATOM     31  C   UNL     1       4.516   1.127   9.475  1.00  0.00     0.261 C 
BRANCH  31  32
ATOM     32  O   UNL     1       3.867   0.114   8.694  1.00  0.00    -0.460 OA
BRANCH  32  33
ATOM     33  C   UNL     1       4.008  -1.139   9.188  1.00  0.00     0.338 C 
ATOM     34  O   UNL     1       4.675  -1.488  10.147  1.00  0.00    -0.246 OA
BRANCH  33  35
ATOM     35  C   UNL     1       3.074  -2.047   8.501  1.00  0.00     0.060 A 
ATOM     36  C   UNL     1       2.248  -2.851   9.299  1.00  0.00     0.016 A 
ATOM     37  C   UNL     1       3.060  -2.162   7.111  1.00  0.00     0.016 A 
ATOM     38  C   UNL     1       1.448  -3.826   8.712  1.00  0.00     0.010 A 
ATOM     39  C   UNL     1       2.266  -3.148   6.524  1.00  0.00     0.010 A 
ATOM     40  C   UNL     1       1.498  -4.013   7.327  1.00  0.00    -0.014 A 
BRANCH  40  41
ATOM     41  C   UNL     1       0.925  -5.239   6.727  1.00  0.00     0.031 A 
ATOM     42  C   UNL     1       1.864  -6.359   6.379  1.00  0.00     0.074 A 
ATOM     43  C   UNL     1      -0.393  -5.349   6.494  1.00  0.00     0.049 A 
ATOM     44  N   UNL     1       1.635  -7.462   5.716  1.00  0.00    -0.248 NA
ATOM     45  C   UNL     1       3.257  -6.206   6.832  1.00  0.00     0.031 C 
ATOM     46  C   UNL     1      -1.400  -4.354   6.850  1.00  0.00     0.029 A 
ATOM     47  N   UNL     1      -1.103  -6.348   5.877  1.00  0.00    -0.354 N 
ATOM     48  C   UNL     1       2.857  -8.120   5.651  1.00  0.00     0.074 A 
ATOM     49  C   UNL     1       3.829  -7.284   6.319  1.00  0.00     0.031 C 
ATOM     50  C   UNL     1      -2.601  -4.780   6.422  1.00  0.00     0.029 A 
ATOM     51  C   UNL     1      -2.435  -6.053   5.722  1.00  0.00     0.049 A 
ATOM     52  H   UNL     1      -0.698  -7.193   5.576  1.00  0.00     0.167 HD
ATOM     53  C   UNL     1       3.137  -9.316   5.084  1.00  0.00     0.037 A 
ATOM     54  C   UNL     1      -3.395  -6.721   5.053  1.00  0.00     0.037 A 
ATOM     55  C   UNL     1       2.156 -10.139   4.429  1.00  0.00     0.049 A 
ATOM     56  C   UNL     1      -3.043  -8.013   4.360  1.00  0.00     0.074 A 
ATOM     57  C   UNL     1       2.327 -11.374   3.831  1.00  0.00     0.029 A 
ATOM     58  N   UNL     1       0.818  -9.802   4.282  1.00  0.00    -0.354 N 
ATOM     59  N   UNL     1      -1.890  -8.635   4.301  1.00  0.00    -0.248 NA
ATOM     60  C   UNL     1      -4.126  -8.698   3.639  1.00  0.00     0.031 C 
ATOM     61  C   UNL     1       1.107 -11.757   3.268  1.00  0.00     0.029 A 
ATOM     62  C   UNL     1       0.158 -10.796   3.580  1.00  0.00     0.049 A 
ATOM     63  H   UNL     1       0.401  -8.979   4.625  1.00  0.00     0.167 HD
ATOM     64  C   UNL     1      -2.118  -9.801   3.581  1.00  0.00     0.074 A 
ATOM     65  C   UNL     1      -3.519  -9.799   3.218  1.00  0.00     0.031 C 
ATOM     66  C   UNL     1      -1.247 -10.789   3.259  1.00  0.00     0.037 A 
BRANCH  53  67
ATOM     67  C   UNL     1       4.562  -9.787   5.114  1.00  0.00     0.064 A 
ATOM     68  C   UNL     1       5.190 -10.181   6.305  1.00  0.00     0.173 A 
ATOM     69  C   UNL     1       5.301  -9.875   3.924  1.00  0.00     0.173 A 
ATOM     70  F   UNL     1       4.534 -10.103   7.473  1.00  0.00    -0.203 F 
ATOM     71  C   UNL     1       6.513 -10.618   6.307  1.00  0.00     0.198 A 
ATOM     72  C   UNL     1       6.612 -10.344   3.925  1.00  0.00     0.198 A 
ATOM     73  F   UNL     1       4.749  -9.513   2.756  1.00  0.00    -0.203 F 
ATOM     74  F   UNL     1       7.109 -10.939   7.464  1.00  0.00    -0.200 F 
ATOM     75  C   UNL     1       7.219 -10.707   5.117  1.00  0.00     0.200 A 
ATOM     76  F   UNL     1       7.287 -10.444   2.772  1.00  0.00    -0.200 F 
ATOM     77  F   UNL     1       8.489 -11.136   5.119  1.00  0.00    -0.200 F 
ENDBRANCH  53  67
BRANCH  54  78
ATOM     78  C   UNL     1      -4.775  -6.171   4.990  1.00  0.00     0.064 A 
ATOM     79  C   UNL     1      -5.843  -6.825   5.619  1.00  0.00     0.173 A 
ATOM     80  C   UNL     1      -5.058  -4.989   4.289  1.00  0.00     0.173 A 
ATOM     81  F   UNL     1      -5.628  -7.971   6.283  1.00  0.00    -0.203 F 
ATOM     82  C   UNL     1      -7.143  -6.331   5.532  1.00  0.00     0.198 A 
ATOM     83  C   UNL     1      -6.353  -4.478   4.229  1.00  0.00     0.198 A 
ATOM     84  F   UNL     1      -4.073  -4.323   3.669  1.00  0.00    -0.203 F 
ATOM     85  F   UNL     1      -8.152  -7.004   6.100  1.00  0.00    -0.200 F 
ATOM     86  C   UNL     1      -7.396  -5.155   4.842  1.00  0.00     0.200 A 
ATOM     87  F   UNL     1      -6.589  -3.334   3.574  1.00  0.00    -0.200 F 
ATOM     88  F   UNL     1      -8.646  -4.678   4.762  1.00  0.00    -0.200 F 
ENDBRANCH  54  78
BRANCH  66  89
ATOM     89  C   UNL     1      -1.786 -11.995   2.544  1.00  0.00     0.064 A 
ATOM     90  C   UNL     1      -2.160 -11.955   1.194  1.00  0.00     0.173 A 
ATOM     91  C   UNL     1      -1.838 -13.233   3.206  1.00  0.00     0.173 A 
ATOM     92  F   UNL     1      -2.140 -10.795   0.522  1.00  0.00    -0.203 F 
ATOM     93  C   UNL     1      -2.576 -13.109   0.535  1.00  0.00     0.198 A 
ATOM     94  C   UNL     1      -2.223 -14.389   2.535  1.00  0.00     0.198 A 
ATOM     95  F   UNL     1      -1.482 -13.325   4.496  1.00  0.00    -0.203 F 
ATOM     96  F   UNL     1      -2.960 -13.044  -0.748  1.00  0.00    -0.200 F 
ATOM     97  C   UNL     1      -2.595 -14.326   1.201  1.00  0.00     0.200 A 
ATOM     98  F   UNL     1      -2.221 -15.566   3.176  1.00  0.00    -0.200 F 
ATOM     99  F   UNL     1      -2.972 -15.439   0.557  1.00  0.00    -0.200 F 
ENDBRANCH  66  89
ENDBRANCH  40  41
ENDBRANCH  33  35
ENDBRANCH  32  33
ENDBRANCH  31  32
ENDBRANCH  30  31
ENDBRANCH  29  30
ENDBRANCH   1  29
TORSDOF 19
