REMARK SMILES COc1cc(OC)c([C@H]2CC(=O)Nc3c(C(=O)OCCOCCOC(=O)c4ccc(-c5c6nc(c(-c7c(F)c(F)c(F)c(F)c7F)c7ccc([nH]7)c(-c7c(F)c(F)c(F)c(F)c7F)c7nc(c(-c8c(F)c(F)c(F)c(F)c8F)c8ccc5[nH]8)C=C7)C=C6)cc4)cn(-c4ccccc4)c32)cc1OC
REMARK SMILES IDX 21 1 20 2 19 3 18 4 16 5 17 6 15 7 9 8 10 9 98 10 11 11
REMARK SMILES IDX 14 12 91 13 12 14 13 15 90 16 8 18 3 19 4 20 100 21 5 22
REMARK SMILES IDX 99 23 2 24 1 25 101 26 102 27 6 28 7 29 92 30 93 31 97 32
REMARK SMILES IDX 94 33 96 34 95 35 22 36 23 37 24 38 25 39 26 40 27 41 28 42
REMARK SMILES IDX 89 43 29 44 88 45 30 46 31 47 32 48 82 49 33 50 87 51 81 52
REMARK SMILES IDX 83 53 34 54 86 55 80 56 79 57 35 59 67 60 47 61 66 62 48 63
REMARK SMILES IDX 51 64 65 65 84 66 49 67 50 68 64 70 85 71 52 72 36 73 37 74
REMARK SMILES IDX 45 75 38 76 39 77 43 78 46 79 40 80 41 81 44 82 42 83 68 84
REMARK SMILES IDX 69 85 77 86 70 87 71 88 75 89 78 90 72 91 73 92 76 93 74 94
REMARK SMILES IDX 53 95 54 96 62 97 55 98 56 99 60 100 63 101 57 102 58 103
REMARK SMILES IDX 61 104 59 105
REMARK H PARENT 13 17 83 58 51 69
REMARK Flexibility Score: inf
ROOT
ATOM      1  O   UNL     1       7.224  -9.862   0.408  1.00  0.00    -0.374 OA
ENDROOT
BRANCH   1   2
ATOM      2  C   UNL     1       8.085  -8.741   0.599  1.00  0.00     0.202 C 
BRANCH   2   3
ATOM      3  C   UNL     1       7.610  -7.366   0.119  1.00  0.00     0.261 C 
BRANCH   3   4
ATOM      4  O   UNL     1       6.474  -6.886   0.855  1.00  0.00    -0.460 OA
BRANCH   4   5
ATOM      5  C   UNL     1       5.279  -7.030   0.217  1.00  0.00     0.341 C 
ATOM      6  O   UNL     1       5.149  -7.422  -0.943  1.00  0.00    -0.246 OA
BRANCH   5   7
ATOM      7  C   UNL     1       4.144  -6.822   1.098  1.00  0.00     0.102 A 
ATOM      8  C   UNL     1       2.178  -5.355   3.908  1.00  0.00     0.082 C 
ATOM      9  C   UNL     1       3.368  -4.962   4.795  1.00  0.00     0.115 C 
ATOM     10  C   UNL     1       2.699  -6.130   2.711  1.00  0.00     0.055 A 
ATOM     11  C   UNL     1       4.574  -4.475   4.005  1.00  0.00     0.225 C 
ATOM     12  C   UNL     1       3.993  -6.014   2.247  1.00  0.00     0.078 A 
ATOM     13  N   UNL     1       2.015  -6.958   1.835  1.00  0.00    -0.317 N 
ATOM     14  O   UNL     1       5.318  -3.593   4.431  1.00  0.00    -0.275 OA
ATOM     15  N   UNL     1       4.877  -5.149   2.847  1.00  0.00    -0.324 N 
ATOM     16  C   UNL     1       2.931  -7.479   0.949  1.00  0.00     0.109 A 
ATOM     17  H   UNL     1       5.758  -5.007   2.432  1.00  0.00     0.170 HD
BRANCH   8  18
ATOM     18  C   UNL     1       1.077  -5.991   4.751  1.00  0.00     0.008 A 
ATOM     19  C   UNL     1      -1.110  -7.350   5.987  1.00  0.00     0.164 A 
ATOM     20  C   UNL     1      -1.022  -5.953   5.974  1.00  0.00     0.097 A 
ATOM     21  C   UNL     1      -0.042  -8.087   5.484  1.00  0.00     0.161 A 
ATOM     22  C   UNL     1       0.059  -5.265   5.392  1.00  0.00     0.126 A 
ATOM     23  C   UNL     1       1.049  -7.399   4.918  1.00  0.00     0.058 A 
BRANCH  19  24
ATOM     24  O   UNL     1      -2.310  -7.827   6.431  1.00  0.00    -0.493 OA
ATOM     25  C   UNL     1      -2.271  -8.803   7.463  1.00  0.00     0.278 C 
ENDBRANCH  19  24
BRANCH  21  26
ATOM     26  O   UNL     1       0.115  -9.445   5.510  1.00  0.00    -0.493 OA
ATOM     27  C   UNL     1      -0.981 -10.230   5.057  1.00  0.00     0.278 C 
ENDBRANCH  21  26
BRANCH  22  28
ATOM     28  O   UNL     1       0.026  -3.928   5.677  1.00  0.00    -0.496 OA
ATOM     29  C   UNL     1       0.335  -2.974   4.677  1.00  0.00     0.278 C 
ENDBRANCH  22  28
ENDBRANCH   8  18
BRANCH  13  30
ATOM     30  C   UNL     1       0.632  -7.232   1.782  1.00  0.00     0.045 A 
ATOM     31  C   UNL     1      -0.282  -6.176   1.813  1.00  0.00     0.026 A 
ATOM     32  C   UNL     1       0.193  -8.560   1.749  1.00  0.00     0.026 A 
ATOM     33  C   UNL     1      -1.646  -6.452   1.869  1.00  0.00     0.002 A 
ATOM     34  C   UNL     1      -1.174  -8.825   1.830  1.00  0.00     0.002 A 
ATOM     35  C   UNL     1      -2.090  -7.774   1.902  1.00  0.00     0.000 A 
ENDBRANCH  13  30
ENDBRANCH   5   7
ENDBRANCH   4   5
ENDBRANCH   3   4
ENDBRANCH   2   3
ENDBRANCH   1   2
BRANCH   1  36
ATOM     36  C   UNL     1       6.066 -10.027   1.220  1.00  0.00     0.202 C 
BRANCH  36  37
ATOM     37  C   UNL     1       6.248 -10.414   2.677  1.00  0.00     0.261 C 
BRANCH  37  38
ATOM     38  O   UNL     1       7.017  -9.454   3.379  1.00  0.00    -0.460 OA
BRANCH  38  39
ATOM     39  C   UNL     1       8.306  -9.812   3.563  1.00  0.00     0.338 C 
ATOM     40  O   UNL     1       8.919 -10.706   2.997  1.00  0.00    -0.246 OA
BRANCH  39  41
ATOM     41  C   UNL     1       8.820  -9.073   4.716  1.00  0.00     0.060 A 
ATOM     42  C   UNL     1      10.065  -9.491   5.188  1.00  0.00     0.016 A 
ATOM     43  C   UNL     1       7.922  -8.336   5.502  1.00  0.00     0.016 A 
ATOM     44  C   UNL     1      10.286  -9.426   6.541  1.00  0.00     0.010 A 
ATOM     45  C   UNL     1       8.129  -8.304   6.854  1.00  0.00     0.010 A 
ATOM     46  C   UNL     1       9.261  -8.937   7.358  1.00  0.00    -0.014 A 
BRANCH  46  47
ATOM     47  C   UNL     1       9.472  -8.943   8.785  1.00  0.00     0.031 A 
ATOM     48  C   UNL     1      10.408  -7.870   9.175  1.00  0.00     0.074 A 
ATOM     49  C   UNL     1       8.796  -9.764   9.610  1.00  0.00     0.049 A 
ATOM     50  N   UNL     1      11.623  -8.006   9.589  1.00  0.00    -0.248 NA
ATOM     51  C   UNL     1      10.043  -6.484   8.825  1.00  0.00     0.031 C 
ATOM     52  C   UNL     1       7.682 -10.659   9.289  1.00  0.00     0.029 A 
ATOM     53  N   UNL     1       8.914  -9.897  10.959  1.00  0.00    -0.354 N 
ATOM     54  C   UNL     1      12.082  -6.708   9.780  1.00  0.00     0.074 A 
ATOM     55  C   UNL     1      11.191  -5.849   9.056  1.00  0.00     0.031 C 
ATOM     56  C   UNL     1       7.085 -11.060  10.437  1.00  0.00     0.029 A 
ATOM     57  C   UNL     1       7.848 -10.558  11.565  1.00  0.00     0.049 A 
ATOM     58  H   UNL     1       9.688  -9.556  11.463  1.00  0.00     0.167 HD
ATOM     59  C   UNL     1      12.925  -6.438  10.812  1.00  0.00     0.037 A 
ATOM     60  C   UNL     1       7.601 -10.588  12.901  1.00  0.00     0.037 A 
ATOM     61  C   UNL     1      13.602  -7.641  11.238  1.00  0.00     0.049 A 
ATOM     62  C   UNL     1       8.869 -10.219  13.587  1.00  0.00     0.074 A 
ATOM     63  C   UNL     1      14.433  -8.558  10.623  1.00  0.00     0.029 A 
ATOM     64  N   UNL     1      13.133  -8.262  12.369  1.00  0.00    -0.354 N 
ATOM     65  N   UNL     1       9.935 -10.970  13.585  1.00  0.00    -0.248 NA
ATOM     66  C   UNL     1       9.101  -8.805  13.847  1.00  0.00     0.031 C 
ATOM     67  C   UNL     1      14.062  -9.824  11.166  1.00  0.00     0.029 A 
ATOM     68  C   UNL     1      13.083  -9.610  12.137  1.00  0.00     0.049 A 
ATOM     69  H   UNL     1      12.875  -7.813  13.206  1.00  0.00     0.167 HD
ATOM     70  C   UNL     1      10.988 -10.086  13.399  1.00  0.00     0.074 A 
ATOM     71  C   UNL     1      10.419  -8.761  13.637  1.00  0.00     0.031 C 
ATOM     72  C   UNL     1      12.134 -10.490  12.777  1.00  0.00     0.037 A 
BRANCH  59  73
ATOM     73  C   UNL     1      12.757  -5.233  11.717  1.00  0.00     0.064 A 
ATOM     74  C   UNL     1      13.686  -5.054  12.760  1.00  0.00     0.173 A 
ATOM     75  C   UNL     1      11.584  -4.446  11.817  1.00  0.00     0.173 A 
ATOM     76  F   UNL     1      14.835  -5.746  12.776  1.00  0.00    -0.203 F 
ATOM     77  C   UNL     1      13.411  -4.245  13.865  1.00  0.00     0.198 A 
ATOM     78  C   UNL     1      11.336  -3.603  12.896  1.00  0.00     0.198 A 
ATOM     79  F   UNL     1      10.574  -4.523  10.947  1.00  0.00    -0.203 F 
ATOM     80  F   UNL     1      14.264  -4.223  14.897  1.00  0.00    -0.200 F 
ATOM     81  C   UNL     1      12.231  -3.531  13.939  1.00  0.00     0.200 A 
ATOM     82  F   UNL     1      10.177  -2.932  12.951  1.00  0.00    -0.200 F 
ATOM     83  F   UNL     1      11.932  -2.813  15.028  1.00  0.00    -0.200 F 
ENDBRANCH  59  73
BRANCH  60  84
ATOM     84  C   UNL     1       6.295 -10.548  13.605  1.00  0.00     0.064 A 
ATOM     85  C   UNL     1       6.201 -10.849  14.975  1.00  0.00     0.173 A 
ATOM     86  C   UNL     1       5.168  -9.934  13.024  1.00  0.00     0.173 A 
ATOM     87  F   UNL     1       7.246 -11.388  15.620  1.00  0.00    -0.203 F 
ATOM     88  C   UNL     1       5.060 -10.531  15.723  1.00  0.00     0.198 A 
ATOM     89  C   UNL     1       4.029  -9.622  13.769  1.00  0.00     0.198 A 
ATOM     90  F   UNL     1       5.187  -9.533  11.745  1.00  0.00    -0.203 F 
ATOM     91  F   UNL     1       5.033 -10.776  17.041  1.00  0.00    -0.200 F 
ATOM     92  C   UNL     1       3.980  -9.908  15.121  1.00  0.00     0.200 A 
ATOM     93  F   UNL     1       3.007  -8.983  13.183  1.00  0.00    -0.200 F 
ATOM     94  F   UNL     1       2.913  -9.547  15.847  1.00  0.00    -0.200 F 
ENDBRANCH  60  84
BRANCH  72  95
ATOM     95  C   UNL     1      12.330 -11.966  12.566  1.00  0.00     0.064 A 
ATOM     96  C   UNL     1      11.512 -12.768  11.751  1.00  0.00     0.173 A 
ATOM     97  C   UNL     1      13.480 -12.556  13.106  1.00  0.00     0.173 A 
ATOM     98  F   UNL     1      10.447 -12.254  11.123  1.00  0.00    -0.203 F 
ATOM     99  C   UNL     1      11.816 -14.111  11.525  1.00  0.00     0.198 A 
ATOM    100  C   UNL     1      13.801 -13.884  12.848  1.00  0.00     0.198 A 
ATOM    101  F   UNL     1      14.323 -11.823  13.850  1.00  0.00    -0.203 F 
ATOM    102  F   UNL     1      11.015 -14.862  10.754  1.00  0.00    -0.200 F 
ATOM    103  C   UNL     1      12.964 -14.665  12.066  1.00  0.00     0.200 A 
ATOM    104  F   UNL     1      14.938 -14.399  13.334  1.00  0.00    -0.200 F 
ATOM    105  F   UNL     1      13.280 -15.943  11.815  1.00  0.00    -0.200 F 
ENDBRANCH  72  95
ENDBRANCH  46  47
ENDBRANCH  39  41
ENDBRANCH  38  39
ENDBRANCH  37  38
ENDBRANCH  36  37
ENDBRANCH   1  36
TORSDOF 19
