REMARK SMILES CCCc1cc(O[C@@H]2CCOC3(CCC3)C2)c(C(=O)OCCOCCOC(=O)c2ccc(-c3c4nc(c(-c5c(F)c(F)c(F)c(F)c5F)c5ccc([nH]5)c(-c5c(F)c(F)c(F)c(F)c5F)c5nc(c(-c6c(F)c(F)c(F)c(F)c6F)c6ccc3[nH]6)C=C5)C=C4)cc2)s1
REMARK SMILES IDX 23 1 22 2 21 3 20 4 18 5 19 6 17 7 4 8 5 9 92 10 6 11 3 12
REMARK SMILES IDX 2 13 1 14 7 15 8 16 9 17 16 18 10 19 12 20 11 21 13 22 15 23
REMARK SMILES IDX 14 24 24 25 25 26 26 27 27 28 28 29 29 30 30 31 91 32 31 33
REMARK SMILES IDX 90 34 32 35 33 36 34 37 84 38 35 39 89 40 83 41 85 42 36 43
REMARK SMILES IDX 88 44 82 45 81 46 37 48 69 49 49 50 68 51 50 52 53 53 67 54
REMARK SMILES IDX 86 55 51 56 52 57 66 59 87 60 54 61 38 62 39 63 47 64 40 65
REMARK SMILES IDX 41 66 45 67 48 68 42 69 43 70 46 71 44 72 70 73 71 74 79 75
REMARK SMILES IDX 72 76 73 77 77 78 80 79 74 80 75 81 78 82 76 83 55 84 56 85
REMARK SMILES IDX 64 86 57 87 58 88 62 89 65 90 59 91 60 92 63 93 61 94
REMARK H PARENT 85 47 53 58
REMARK Flexibility Score: inf
ROOT
ATOM      1  O   UNL     1       1.621   4.844   5.536  1.00  0.00    -0.374 OA
ENDROOT
BRANCH   1   2
ATOM      2  C   UNL     1       0.463   4.875   6.375  1.00  0.00     0.202 C 
BRANCH   2   3
ATOM      3  C   UNL     1      -0.846   4.618   5.625  1.00  0.00     0.261 C 
BRANCH   3   4
ATOM      4  O   UNL     1      -0.891   3.234   5.246  1.00  0.00    -0.459 OA
BRANCH   4   5
ATOM      5  C   UNL     1      -1.037   3.000   3.909  1.00  0.00     0.352 C 
ATOM      6  O   UNL     1      -1.469   3.817   3.116  1.00  0.00    -0.245 OA
BRANCH   5   7
ATOM      7  C   UNL     1      -0.444   1.718   3.576  1.00  0.00     0.155 A 
ATOM      8  C   UNL     1       0.876   0.042   2.332  1.00  0.00     0.009 A 
ATOM      9  C   UNL     1       0.460  -0.404   3.569  1.00  0.00     0.062 A 
ATOM     10  S   UNL     1       0.405   1.653   2.085  1.00  0.00    -0.130 S 
ATOM     11  C   UNL     1      -0.365   0.522   4.273  1.00  0.00     0.145 A 
BRANCH   8  12
ATOM     12  C   UNL     1       1.669  -0.726   1.312  1.00  0.00     0.046 C 
BRANCH  12  13
ATOM     13  C   UNL     1       0.905  -0.993   0.011  1.00  0.00     0.002 C 
ATOM     14  C   UNL     1       1.059   0.121  -1.018  1.00  0.00     0.004 C 
ENDBRANCH  12  13
ENDBRANCH   8  12
BRANCH  11  15
ATOM     15  O   UNL     1      -0.989   0.405   5.478  1.00  0.00    -0.488 OA
BRANCH  15  16
ATOM     16  C   UNL     1      -1.202  -0.862   6.119  1.00  0.00     0.178 C 
ATOM     17  C   UNL     1      -0.004  -1.790   6.334  1.00  0.00     0.074 C 
ATOM     18  C   UNL     1      -2.462  -1.612   5.672  1.00  0.00     0.080 C 
ATOM     19  C   UNL     1      -0.183  -3.129   5.616  1.00  0.00     0.165 C 
ATOM     20  C   UNL     1      -2.212  -2.420   4.401  1.00  0.00     0.072 C 
ATOM     21  O   UNL     1      -0.866  -2.970   4.374  1.00  0.00    -0.375 OA
ATOM     22  C   UNL     1      -3.319  -3.467   4.053  1.00  0.00     0.036 C 
ATOM     23  C   UNL     1      -2.668  -1.679   3.101  1.00  0.00     0.036 C 
ATOM     24  C   UNL     1      -3.197  -3.022   2.583  1.00  0.00     0.006 C 
ENDBRANCH  15  16
ENDBRANCH  11  15
ENDBRANCH   5   7
ENDBRANCH   4   5
ENDBRANCH   3   4
ENDBRANCH   2   3
ENDBRANCH   1   2
BRANCH   1  25
ATOM     25  C   UNL     1       2.216   3.558   5.336  1.00  0.00     0.202 C 
BRANCH  25  26
ATOM     26  C   UNL     1       3.251   3.175   6.398  1.00  0.00     0.261 C 
BRANCH  26  27
ATOM     27  O   UNL     1       2.601   2.876   7.647  1.00  0.00    -0.460 OA
BRANCH  27  28
ATOM     28  C   UNL     1       2.753   3.814   8.611  1.00  0.00     0.338 C 
ATOM     29  O   UNL     1       3.486   4.788   8.591  1.00  0.00    -0.246 OA
BRANCH  28  30
ATOM     30  C   UNL     1       1.748   3.599   9.671  1.00  0.00     0.060 A 
ATOM     31  C   UNL     1       1.049   4.724  10.127  1.00  0.00     0.016 A 
ATOM     32  C   UNL     1       1.515   2.343  10.238  1.00  0.00     0.016 A 
ATOM     33  C   UNL     1       0.157   4.609  11.190  1.00  0.00     0.010 A 
ATOM     34  C   UNL     1       0.626   2.230  11.312  1.00  0.00     0.010 A 
ATOM     35  C   UNL     1      -0.026   3.369  11.815  1.00  0.00    -0.014 A 
BRANCH  35  36
ATOM     36  C   UNL     1      -0.769   3.310  13.096  1.00  0.00     0.031 A 
ATOM     37  C   UNL     1       0.007   3.357  14.382  1.00  0.00     0.074 A 
ATOM     38  C   UNL     1      -2.112   3.262  13.115  1.00  0.00     0.049 A 
ATOM     39  N   UNL     1      -0.426   3.322  15.617  1.00  0.00    -0.248 NA
ATOM     40  C   UNL     1       1.470   3.456  14.260  1.00  0.00     0.031 C 
ATOM     41  C   UNL     1      -2.973   3.251  11.936  1.00  0.00     0.029 A 
ATOM     42  N   UNL     1      -2.984   3.213  14.173  1.00  0.00    -0.354 N 
ATOM     43  C   UNL     1       0.708   3.398  16.415  1.00  0.00     0.074 A 
ATOM     44  C   UNL     1       1.850   3.449  15.529  1.00  0.00     0.031 C 
ATOM     45  C   UNL     1      -4.256   3.190  12.335  1.00  0.00     0.029 A 
ATOM     46  C   UNL     1      -4.301   3.136  13.796  1.00  0.00     0.049 A 
ATOM     47  H   UNL     1      -2.693   3.232  15.113  1.00  0.00     0.167 HD
ATOM     48  C   UNL     1       0.787   3.433  17.766  1.00  0.00     0.037 A 
ATOM     49  C   UNL     1      -5.413   3.020  14.547  1.00  0.00     0.037 A 
ATOM     50  C   UNL     1      -0.348   3.384  18.647  1.00  0.00     0.049 A 
ATOM     51  C   UNL     1      -5.293   2.997  16.049  1.00  0.00     0.074 A 
ATOM     52  C   UNL     1      -0.371   3.430  20.030  1.00  0.00     0.029 A 
ATOM     53  N   UNL     1      -1.665   3.271  18.228  1.00  0.00    -0.354 N 
ATOM     54  N   UNL     1      -4.220   3.094  16.795  1.00  0.00    -0.248 NA
ATOM     55  C   UNL     1      -6.541   2.850  16.812  1.00  0.00     0.031 C 
ATOM     56  C   UNL     1      -1.700   3.303  20.449  1.00  0.00     0.029 A 
ATOM     57  C   UNL     1      -2.507   3.222  19.326  1.00  0.00     0.049 A 
ATOM     58  H   UNL     1      -1.957   3.232  17.289  1.00  0.00     0.167 HD
ATOM     59  C   UNL     1      -4.662   3.047  18.111  1.00  0.00     0.074 A 
ATOM     60  C   UNL     1      -6.104   2.921  18.062  1.00  0.00     0.031 C 
ATOM     61  C   UNL     1      -3.941   3.103  19.257  1.00  0.00     0.037 A 
BRANCH  48  62
ATOM     62  C   UNL     1       2.156   3.508  18.373  1.00  0.00     0.064 A 
ATOM     63  C   UNL     1       2.912   4.689  18.335  1.00  0.00     0.173 A 
ATOM     64  C   UNL     1       2.706   2.394  19.023  1.00  0.00     0.173 A 
ATOM     65  F   UNL     1       2.436   5.776  17.710  1.00  0.00    -0.203 F 
ATOM     66  C   UNL     1       4.180   4.745  18.909  1.00  0.00     0.198 A 
ATOM     67  C   UNL     1       3.964   2.460  19.616  1.00  0.00     0.198 A 
ATOM     68  F   UNL     1       2.022   1.242  19.086  1.00  0.00    -0.203 F 
ATOM     69  F   UNL     1       4.902   5.870  18.826  1.00  0.00    -0.200 F 
ATOM     70  C   UNL     1       4.702   3.633  19.554  1.00  0.00     0.200 A 
ATOM     71  F   UNL     1       4.463   1.388  20.245  1.00  0.00    -0.200 F 
ATOM     72  F   UNL     1       5.920   3.689  20.109  1.00  0.00    -0.200 F 
ENDBRANCH  48  62
BRANCH  49  73
ATOM     73  C   UNL     1      -6.741   2.909  13.892  1.00  0.00     0.064 A 
ATOM     74  C   UNL     1      -7.676   3.949  13.970  1.00  0.00     0.173 A 
ATOM     75  C   UNL     1      -7.106   1.752  13.188  1.00  0.00     0.173 A 
ATOM     76  F   UNL     1      -7.382   5.064  14.655  1.00  0.00    -0.203 F 
ATOM     77  C   UNL     1      -8.933   3.831  13.380  1.00  0.00     0.198 A 
ATOM     78  C   UNL     1      -8.354   1.645  12.578  1.00  0.00     0.198 A 
ATOM     79  F   UNL     1      -6.247   0.727  13.089  1.00  0.00    -0.203 F 
ATOM     80  F   UNL     1      -9.825   4.823  13.504  1.00  0.00    -0.200 F 
ATOM     81  C   UNL     1      -9.269   2.681  12.680  1.00  0.00     0.200 A 
ATOM     82  F   UNL     1      -8.671   0.535  11.896  1.00  0.00    -0.200 F 
ATOM     83  F   UNL     1     -10.477   2.569  12.112  1.00  0.00    -0.200 F 
ENDBRANCH  49  73
BRANCH  61  84
ATOM     84  C   UNL     1      -4.698   3.058  20.551  1.00  0.00     0.064 A 
ATOM     85  C   UNL     1      -5.268   1.869  21.026  1.00  0.00     0.173 A 
ATOM     86  C   UNL     1      -4.813   4.208  21.346  1.00  0.00     0.173 A 
ATOM     87  F   UNL     1      -5.196   0.746  20.295  1.00  0.00    -0.203 F 
ATOM     88  C   UNL     1      -5.945   1.837  22.243  1.00  0.00     0.198 A 
ATOM     89  C   UNL     1      -5.469   4.167  22.573  1.00  0.00     0.198 A 
ATOM     90  F   UNL     1      -4.279   5.369  20.938  1.00  0.00    -0.203 F 
ATOM     91  F   UNL     1      -6.516   0.699  22.660  1.00  0.00    -0.200 F 
ATOM     92  C   UNL     1      -6.038   2.984  23.018  1.00  0.00     0.200 A 
ATOM     93  F   UNL     1      -5.549   5.273  23.326  1.00  0.00    -0.200 F 
ATOM     94  F   UNL     1      -6.684   2.949  24.192  1.00  0.00    -0.200 F 
ENDBRANCH  61  84
ENDBRANCH  35  36
ENDBRANCH  28  30
ENDBRANCH  27  28
ENDBRANCH  26  27
ENDBRANCH  25  26
ENDBRANCH   1  25
TORSDOF 18
