REMARK SMILES Cc1ccc(S(=O)(=O)N2c3ccc(C(=O)OCCOCCOC(=O)c4ccc(-c5c6nc(c(-c7c(F)c(F)c(F)c(F)c7F)c7ccc([nH]7)c(-c7c(F)c(F)c(F)c(F)c7F)c7nc(c(-c8c(F)c(F)c(F)c(F)c8F)c8ccc5[nH]8)C=C7)C=C6)cc4)cc3C[C@H]2C)cc1
REMARK SMILES IDX 19 1 18 2 17 3 16 4 14 5 15 6 13 7 9 8 10 9 91 10 11 11
REMARK SMILES IDX 89 12 90 13 92 14 12 15 88 16 6 17 7 18 8 19 5 20 1 21 2 22
REMARK SMILES IDX 3 23 94 24 4 25 93 26 20 27 21 28 22 29 23 30 24 31 25 32
REMARK SMILES IDX 26 33 87 34 27 35 86 36 28 37 29 38 30 39 80 40 31 41 85 42
REMARK SMILES IDX 79 43 81 44 32 45 84 46 78 47 77 48 33 50 65 51 45 52 64 53
REMARK SMILES IDX 46 54 49 55 63 56 82 57 47 58 48 59 62 61 83 62 50 63 34 64
REMARK SMILES IDX 35 65 43 66 36 67 37 68 41 69 44 70 38 71 39 72 42 73 40 74
REMARK SMILES IDX 66 75 67 76 75 77 68 78 69 79 73 80 76 81 70 82 71 83 74 84
REMARK SMILES IDX 72 85 51 86 52 87 60 88 53 89 54 90 58 91 61 92 55 93 56 94
REMARK SMILES IDX 59 95 57 96
REMARK H PARENT 81 49 49 60
REMARK Flexibility Score: inf
ROOT
ATOM      1  O   UNL     1     -10.086   4.895   1.099  1.00  0.00    -0.374 OA
ENDROOT
BRANCH   1   2
ATOM      2  C   UNL     1     -10.253   3.958   2.150  1.00  0.00     0.202 C 
BRANCH   2   3
ATOM      3  C   UNL     1     -10.698   2.708   1.471  1.00  0.00     0.261 C 
BRANCH   3   4
ATOM      4  O   UNL     1      -9.589   2.033   0.886  1.00  0.00    -0.460 OA
BRANCH   4   5
ATOM      5  C   UNL     1      -9.123   2.458  -0.326  1.00  0.00     0.338 C 
ATOM      6  O   UNL     1      -9.654   3.153  -1.148  1.00  0.00    -0.246 OA
BRANCH   5   7
ATOM      7  C   UNL     1      -7.716   2.030  -0.325  1.00  0.00     0.060 A 
ATOM      8  N   UNL     1      -3.655   1.693   0.378  1.00  0.00    -0.263 N 
ATOM      9  C   UNL     1      -5.081   1.711   0.227  1.00  0.00     0.055 A 
ATOM     10  C   UNL     1      -3.213   2.985  -0.290  1.00  0.00     0.101 C 
ATOM     11  C   UNL     1      -5.963   0.867   0.865  1.00  0.00     0.028 A 
ATOM     12  C   UNL     1      -5.485   2.661  -0.715  1.00  0.00    -0.021 A 
ATOM     13  C   UNL     1      -4.316   3.376  -1.293  1.00  0.00     0.063 C 
ATOM     14  C   UNL     1      -3.091   4.044   0.822  1.00  0.00     0.032 C 
ATOM     15  C   UNL     1      -7.298   1.004   0.552  1.00  0.00     0.018 A 
ATOM     16  C   UNL     1      -6.814   2.831  -1.020  1.00  0.00     0.021 A 
BRANCH   8  17
ATOM     17  S   UNL     1      -3.065   0.204  -0.260  1.00  0.00     0.264 S 
ATOM     18  O   UNL     1      -3.232   0.244  -1.700  1.00  0.00    -0.201 OA
ATOM     19  O   UNL     1      -3.634  -0.877   0.525  1.00  0.00    -0.201 OA
BRANCH  17  20
ATOM     20  C   UNL     1      -1.330   0.114   0.037  1.00  0.00     0.088 A 
ATOM     21  C   UNL     1       2.929  -0.263   0.025  1.00  0.00     0.044 C 
ATOM     22  C   UNL     1       1.438  -0.142   0.089  1.00  0.00    -0.051 A 
ATOM     23  C   UNL     1       0.639  -1.270  -0.126  1.00  0.00     0.005 A 
ATOM     24  C   UNL     1       0.837   1.088   0.376  1.00  0.00     0.005 A 
ATOM     25  C   UNL     1      -0.743  -1.141  -0.164  1.00  0.00     0.022 A 
ATOM     26  C   UNL     1      -0.549   1.210   0.382  1.00  0.00     0.022 A 
ENDBRANCH  17  20
ENDBRANCH   8  17
ENDBRANCH   5   7
ENDBRANCH   4   5
ENDBRANCH   3   4
ENDBRANCH   2   3
ENDBRANCH   1   2
BRANCH   1  27
ATOM     27  C   UNL     1      -9.778   6.212   1.501  1.00  0.00     0.202 C 
BRANCH  27  28
ATOM     28  C   UNL     1     -10.845   6.817   2.425  1.00  0.00     0.261 C 
BRANCH  28  29
ATOM     29  O   UNL     1     -12.123   6.808   1.749  1.00  0.00    -0.460 OA
BRANCH  29  30
ATOM     30  C   UNL     1     -13.035   5.886   2.172  1.00  0.00     0.338 C 
ATOM     31  O   UNL     1     -13.298   5.634   3.337  1.00  0.00    -0.246 OA
BRANCH  30  32
ATOM     32  C   UNL     1     -13.438   5.015   1.024  1.00  0.00     0.060 A 
ATOM     33  C   UNL     1     -14.097   3.788   1.257  1.00  0.00     0.016 A 
ATOM     34  C   UNL     1     -12.861   5.259  -0.217  1.00  0.00     0.016 A 
ATOM     35  C   UNL     1     -14.044   2.753   0.301  1.00  0.00     0.010 A 
ATOM     36  C   UNL     1     -12.723   4.210  -1.103  1.00  0.00     0.010 A 
ATOM     37  C   UNL     1     -13.285   2.941  -0.853  1.00  0.00    -0.014 A 
BRANCH  37  38
ATOM     38  C   UNL     1     -12.858   1.905  -1.810  1.00  0.00     0.031 A 
ATOM     39  C   UNL     1     -13.175   2.113  -3.244  1.00  0.00     0.074 A 
ATOM     40  C   UNL     1     -11.909   0.990  -1.479  1.00  0.00     0.049 A 
ATOM     41  N   UNL     1     -12.948   1.249  -4.169  1.00  0.00    -0.248 NA
ATOM     42  C   UNL     1     -13.779   3.337  -3.763  1.00  0.00     0.031 C 
ATOM     43  C   UNL     1     -10.932   0.341  -2.362  1.00  0.00     0.029 A 
ATOM     44  N   UNL     1     -11.585   0.463  -0.224  1.00  0.00    -0.354 N 
ATOM     45  C   UNL     1     -13.045   1.890  -5.381  1.00  0.00     0.074 A 
ATOM     46  C   UNL     1     -13.601   3.185  -5.076  1.00  0.00     0.031 C 
ATOM     47  C   UNL     1     -10.307  -0.652  -1.704  1.00  0.00     0.029 A 
ATOM     48  C   UNL     1     -10.935  -0.770  -0.402  1.00  0.00     0.049 A 
ATOM     49  H   UNL     1     -11.780   0.887   0.642  1.00  0.00     0.167 HD
ATOM     50  C   UNL     1     -12.526   1.279  -6.485  1.00  0.00     0.037 A 
ATOM     51  C   UNL     1     -11.436  -1.887   0.186  1.00  0.00     0.037 A 
ATOM     52  C   UNL     1     -11.980  -0.041  -6.132  1.00  0.00     0.049 A 
ATOM     53  C   UNL     1     -11.986  -2.759  -0.902  1.00  0.00     0.074 A 
ATOM     54  C   UNL     1     -10.691  -0.500  -5.907  1.00  0.00     0.029 A 
ATOM     55  N   UNL     1     -12.829  -1.003  -5.574  1.00  0.00    -0.354 N 
ATOM     56  N   UNL     1     -12.255  -2.290  -2.092  1.00  0.00    -0.248 NA
ATOM     57  C   UNL     1     -12.178  -4.200  -0.811  1.00  0.00     0.031 C 
ATOM     58  C   UNL     1     -10.776  -1.693  -5.134  1.00  0.00     0.029 A 
ATOM     59  C   UNL     1     -12.114  -1.986  -4.909  1.00  0.00     0.049 A 
ATOM     60  H   UNL     1     -13.811  -0.984  -5.644  1.00  0.00     0.167 HD
ATOM     61  C   UNL     1     -12.549  -3.311  -2.930  1.00  0.00     0.074 A 
ATOM     62  C   UNL     1     -12.534  -4.489  -2.077  1.00  0.00     0.031 C 
ATOM     63  C   UNL     1     -12.782  -3.112  -4.258  1.00  0.00     0.037 A 
BRANCH  50  64
ATOM     64  C   UNL     1     -12.294   1.999  -7.799  1.00  0.00     0.064 A 
ATOM     65  C   UNL     1     -11.247   1.624  -8.667  1.00  0.00     0.173 A 
ATOM     66  C   UNL     1     -13.062   3.092  -8.253  1.00  0.00     0.173 A 
ATOM     67  F   UNL     1     -10.485   0.552  -8.419  1.00  0.00    -0.203 F 
ATOM     68  C   UNL     1     -10.940   2.340  -9.832  1.00  0.00     0.198 A 
ATOM     69  C   UNL     1     -12.714   3.849  -9.379  1.00  0.00     0.198 A 
ATOM     70  F   UNL     1     -14.216   3.426  -7.663  1.00  0.00    -0.203 F 
ATOM     71  F   UNL     1      -9.941   1.924 -10.625  1.00  0.00    -0.200 F 
ATOM     72  C   UNL     1     -11.651   3.473 -10.169  1.00  0.00     0.200 A 
ATOM     73  F   UNL     1     -13.431   4.937  -9.696  1.00  0.00    -0.200 F 
ATOM     74  F   UNL     1     -11.335   4.178 -11.264  1.00  0.00    -0.200 F 
ENDBRANCH  50  64
BRANCH  51  75
ATOM     75  C   UNL     1     -11.964  -1.575   1.550  1.00  0.00     0.064 A 
ATOM     76  C   UNL     1     -10.992  -1.225   2.519  1.00  0.00     0.173 A 
ATOM     77  C   UNL     1     -13.264  -1.085   1.750  1.00  0.00     0.173 A 
ATOM     78  F   UNL     1      -9.718  -1.620   2.359  1.00  0.00    -0.203 F 
ATOM     79  C   UNL     1     -11.269  -0.316   3.542  1.00  0.00     0.198 A 
ATOM     80  C   UNL     1     -13.535  -0.169   2.776  1.00  0.00     0.198 A 
ATOM     81  F   UNL     1     -14.230  -1.353   0.861  1.00  0.00    -0.203 F 
ATOM     82  F   UNL     1     -10.275   0.141   4.318  1.00  0.00    -0.200 F 
ATOM     83  C   UNL     1     -12.532   0.239   3.645  1.00  0.00     0.200 A 
ATOM     84  F   UNL     1     -14.738   0.420   2.846  1.00  0.00    -0.200 F 
ATOM     85  F   UNL     1     -12.751   1.244   4.508  1.00  0.00    -0.200 F 
ENDBRANCH  51  75
BRANCH  63  86
ATOM     86  C   UNL     1     -13.604  -4.069  -5.059  1.00  0.00     0.064 A 
ATOM     87  C   UNL     1     -14.618  -4.854  -4.482  1.00  0.00     0.173 A 
ATOM     88  C   UNL     1     -13.513  -4.103  -6.465  1.00  0.00     0.173 A 
ATOM     89  F   UNL     1     -14.899  -4.786  -3.172  1.00  0.00    -0.203 F 
ATOM     90  C   UNL     1     -15.414  -5.698  -5.246  1.00  0.00     0.198 A 
ATOM     91  C   UNL     1     -14.363  -4.892  -7.232  1.00  0.00     0.198 A 
ATOM     92  F   UNL     1     -12.627  -3.349  -7.131  1.00  0.00    -0.203 F 
ATOM     93  F   UNL     1     -16.319  -6.480  -4.641  1.00  0.00    -0.200 F 
ATOM     94  C   UNL     1     -15.293  -5.711  -6.621  1.00  0.00     0.200 A 
ATOM     95  F   UNL     1     -14.289  -4.839  -8.569  1.00  0.00    -0.200 F 
ATOM     96  F   UNL     1     -16.088  -6.494  -7.359  1.00  0.00    -0.200 F 
ENDBRANCH  63  86
ENDBRANCH  37  38
ENDBRANCH  30  32
ENDBRANCH  29  30
ENDBRANCH  28  29
ENDBRANCH  27  28
ENDBRANCH   1  27
TORSDOF 16
