REMARK SMILES CC(C)(C)c1ccc(OCC(=O)NNC(=O)[C@H]2[C@@H](C(=O)OCCOCCOC(=O)c3ccc(-c4c5nc(c(-c6c(F)c(F)c(F)c(F)c6F)c6ccc([nH]6)c(-c6c(F)c(F)c(F)c(F)c6F)c6nc(c(-c7c(F)c(F)c(F)c(F)c7F)c7ccc4[nH]7)C=C6)C=C5)cc3)[C@@H]3C=C[C@H]2C3)cc1
REMARK SMILES IDX 22 1 21 2 19 3 20 4 18 5 17 6 96 7 93 8 95 9 97 10 94 11
REMARK SMILES IDX 15 12 14 13 16 15 13 16 11 17 12 18 10 20 9 21 8 22 5 23
REMARK SMILES IDX 6 24 99 25 7 26 98 27 2 28 1 29 3 30 4 31 23 32 24 33 25 34
REMARK SMILES IDX 26 35 27 36 28 37 29 38 30 39 31 40 92 41 32 42 91 43 33 44
REMARK SMILES IDX 34 45 35 46 85 47 36 48 90 49 84 50 86 51 37 52 89 53 83 54
REMARK SMILES IDX 82 55 38 57 70 58 50 59 69 60 51 61 54 62 68 63 87 64 52 65
REMARK SMILES IDX 53 66 67 68 88 69 55 70 39 71 40 72 48 73 41 74 42 75 46 76
REMARK SMILES IDX 49 77 43 78 44 79 47 80 45 81 71 82 72 83 80 84 73 85 74 86
REMARK SMILES IDX 78 87 81 88 75 89 76 90 79 91 77 92 56 93 57 94 65 95 58 96
REMARK SMILES IDX 59 97 63 98 66 99 60 100 61 101 64 102 62 103
REMARK H PARENT 14 14 13 19 86 56 54 67
REMARK Flexibility Score: inf
ROOT
ATOM      1  C   UNL     1       5.357   9.472   2.624  1.00  0.00     0.261 C 
ENDROOT
BRANCH   1   2
ATOM      2  O   UNL     1       5.894   8.218   3.130  1.00  0.00    -0.463 OA
BRANCH   2   3
ATOM      3  C   UNL     1       5.726   7.166   2.290  1.00  0.00     0.310 C 
ATOM      4  O   UNL     1       5.232   7.299   1.171  1.00  0.00    -0.252 OA
BRANCH   3   5
ATOM      5  C   UNL     1       6.027   5.779   2.850  1.00  0.00     0.119 C 
ATOM      6  C   UNL     1       7.178   5.241   3.807  1.00  0.00     0.102 C 
ATOM      7  C   UNL     1       7.713   4.014   3.032  1.00  0.00     0.025 C 
ATOM      8  C   UNL     1       6.190   4.819   1.612  1.00  0.00     0.027 C 
ATOM      9  C   UNL     1       6.614   2.976   2.894  1.00  0.00    -0.027 C 
ATOM     10  C   UNL     1       7.694   4.556   1.602  1.00  0.00     0.017 C 
ATOM     11  C   UNL     1       5.715   3.453   2.024  1.00  0.00    -0.027 C 
BRANCH   6  12
ATOM     12  C   UNL     1       8.231   6.120   4.518  1.00  0.00     0.242 C 
ATOM     13  N   UNL     1       9.572   6.241   4.182  1.00  0.00    -0.267 N 
ATOM     14  H   UNL     1      10.136   6.742   4.815  1.00  0.00     0.191 HD
ATOM     15  O   UNL     1       7.846   6.778   5.497  1.00  0.00    -0.273 OA
BRANCH  13  16
ATOM     16  N   UNL     1      10.214   5.735   3.054  1.00  0.00    -0.265 N 
ATOM     17  C   UNL     1      11.171   6.323   2.257  1.00  0.00     0.276 C 
ATOM     18  O   UNL     1      11.336   5.806   1.144  1.00  0.00    -0.269 OA
ATOM     19  H   UNL     1       9.945   4.826   2.788  1.00  0.00     0.191 HD
BRANCH  17  20
ATOM     20  C   UNL     1      12.113   7.462   2.737  1.00  0.00     0.331 C 
BRANCH  20  21
ATOM     21  O   UNL     1      11.987   8.856   2.544  1.00  0.00    -0.484 OA
BRANCH  21  22
ATOM     22  C   UNL     1      11.620   9.418   1.358  1.00  0.00     0.120 A 
ATOM     23  C   UNL     1      10.378  10.747  -0.848  1.00  0.00    -0.042 A 
ATOM     24  C   UNL     1      10.495  11.367   0.405  1.00  0.00     0.008 A 
ATOM     25  C   UNL     1      11.005   9.489  -0.986  1.00  0.00     0.008 A 
ATOM     26  C   UNL     1      11.114  10.717   1.481  1.00  0.00     0.047 A 
ATOM     27  C   UNL     1      11.617   8.828   0.104  1.00  0.00     0.047 A 
BRANCH  23  28
ATOM     28  C   UNL     1       9.618  11.422  -2.011  1.00  0.00    -0.013 C 
ATOM     29  C   UNL     1       8.499  12.390  -1.544  1.00  0.00     0.016 C 
ATOM     30  C   UNL     1       8.920  10.402  -2.943  1.00  0.00     0.016 C 
ATOM     31  C   UNL     1      10.636  12.232  -2.833  1.00  0.00     0.016 C 
ENDBRANCH  23  28
ENDBRANCH  21  22
ENDBRANCH  20  21
ENDBRANCH  17  20
ENDBRANCH  13  16
ENDBRANCH   6  12
ENDBRANCH   3   5
ENDBRANCH   2   3
ENDBRANCH   1   2
BRANCH   1  32
ATOM     32  C   UNL     1       6.337  10.467   1.975  1.00  0.00     0.202 C 
BRANCH  32  33
ATOM     33  O   UNL     1       7.251   9.991   1.006  1.00  0.00    -0.374 OA
BRANCH  33  34
ATOM     34  C   UNL     1       8.125   8.939   1.358  1.00  0.00     0.202 C 
BRANCH  34  35
ATOM     35  C   UNL     1       8.675   8.843   2.779  1.00  0.00     0.261 C 
BRANCH  35  36
ATOM     36  O   UNL     1       8.447   9.937   3.650  1.00  0.00    -0.460 OA
BRANCH  36  37
ATOM     37  C   UNL     1       9.026   9.823   4.870  1.00  0.00     0.338 C 
ATOM     38  O   UNL     1       9.900   9.045   5.206  1.00  0.00    -0.246 OA
BRANCH  37  39
ATOM     39  C   UNL     1       8.285  10.724   5.778  1.00  0.00     0.060 A 
ATOM     40  C   UNL     1       7.959  12.029   5.390  1.00  0.00     0.016 A 
ATOM     41  C   UNL     1       7.884  10.235   7.024  1.00  0.00     0.016 A 
ATOM     42  C   UNL     1       7.264  12.861   6.267  1.00  0.00     0.010 A 
ATOM     43  C   UNL     1       7.164  11.059   7.891  1.00  0.00     0.010 A 
ATOM     44  C   UNL     1       6.880  12.387   7.529  1.00  0.00    -0.014 A 
BRANCH  44  45
ATOM     45  C   UNL     1       6.281  13.314   8.518  1.00  0.00     0.031 A 
ATOM     46  C   UNL     1       7.136  13.832   9.639  1.00  0.00     0.074 A 
ATOM     47  C   UNL     1       4.996  13.694   8.406  1.00  0.00     0.049 A 
ATOM     48  N   UNL     1       6.827  14.648  10.614  1.00  0.00    -0.248 NA
ATOM     49  C   UNL     1       8.530  13.361   9.668  1.00  0.00     0.031 C 
ATOM     50  C   UNL     1       4.080  13.263   7.352  1.00  0.00     0.029 A 
ATOM     51  N   UNL     1       4.240  14.529   9.189  1.00  0.00    -0.354 N 
ATOM     52  C   UNL     1       7.982  14.781  11.373  1.00  0.00     0.074 A 
ATOM     53  C   UNL     1       8.987  13.934  10.770  1.00  0.00     0.031 C 
ATOM     54  C   UNL     1       2.884  13.844   7.549  1.00  0.00     0.029 A 
ATOM     55  C   UNL     1       2.944  14.662   8.759  1.00  0.00     0.049 A 
ATOM     56  H   UNL     1       4.594  14.989   9.985  1.00  0.00     0.167 HD
ATOM     57  C   UNL     1       8.186  15.550  12.470  1.00  0.00     0.037 A 
ATOM     58  C   UNL     1       1.922  15.359   9.290  1.00  0.00     0.037 A 
ATOM     59  C   UNL     1       7.177  16.386  13.064  1.00  0.00     0.049 A 
ATOM     60  C   UNL     1       2.161  16.171  10.537  1.00  0.00     0.074 A 
ATOM     61  C   UNL     1       7.282  17.224  14.159  1.00  0.00     0.029 A 
ATOM     62  N   UNL     1       5.867  16.478  12.613  1.00  0.00    -0.354 N 
ATOM     63  N   UNL     1       3.267  16.326  11.224  1.00  0.00    -0.248 NA
ATOM     64  C   UNL     1       1.011  16.909  11.076  1.00  0.00     0.031 C 
ATOM     65  C   UNL     1       6.022  17.783  14.403  1.00  0.00     0.029 A 
ATOM     66  C   UNL     1       5.146  17.340  13.424  1.00  0.00     0.049 A 
ATOM     67  H   UNL     1       5.503  16.002  11.832  1.00  0.00     0.167 HD
ATOM     68  C   UNL     1       2.957  17.203  12.256  1.00  0.00     0.074 A 
ATOM     69  C   UNL     1       1.560  17.552  12.097  1.00  0.00     0.031 C 
ATOM     70  C   UNL     1       3.757  17.680  13.242  1.00  0.00     0.037 A 
BRANCH  57  71
ATOM     71  C   UNL     1       9.544  15.491  13.109  1.00  0.00     0.064 A 
ATOM     72  C   UNL     1      10.682  16.025  12.483  1.00  0.00     0.173 A 
ATOM     73  C   UNL     1       9.710  14.895  14.368  1.00  0.00     0.173 A 
ATOM     74  F   UNL     1      10.582  16.593  11.271  1.00  0.00    -0.203 F 
ATOM     75  C   UNL     1      11.938  15.931  13.077  1.00  0.00     0.198 A 
ATOM     76  C   UNL     1      10.963  14.831  14.973  1.00  0.00     0.198 A 
ATOM     77  F   UNL     1       8.657  14.372  15.013  1.00  0.00    -0.203 F 
ATOM     78  F   UNL     1      13.018  16.395  12.432  1.00  0.00    -0.200 F 
ATOM     79  C   UNL     1      12.077  15.339  14.323  1.00  0.00     0.200 A 
ATOM     80  F   UNL     1      11.094  14.269  16.183  1.00  0.00    -0.200 F 
ATOM     81  F   UNL     1      13.287  15.249  14.893  1.00  0.00    -0.200 F 
ENDBRANCH  57  71
BRANCH  58  82
ATOM     82  C   UNL     1       0.589  15.337   8.632  1.00  0.00     0.064 A 
ATOM     83  C   UNL     1       0.080  16.477   7.995  1.00  0.00     0.173 A 
ATOM     84  C   UNL     1      -0.199  14.177   8.618  1.00  0.00     0.173 A 
ATOM     85  F   UNL     1       0.784  17.618   8.000  1.00  0.00    -0.203 F 
ATOM     86  C   UNL     1      -1.170  16.460   7.379  1.00  0.00     0.198 A 
ATOM     87  C   UNL     1      -1.436  14.153   7.978  1.00  0.00     0.198 A 
ATOM     88  F   UNL     1       0.242  13.059   9.214  1.00  0.00    -0.203 F 
ATOM     89  F   UNL     1      -1.649  17.575   6.809  1.00  0.00    -0.200 F 
ATOM     90  C   UNL     1      -1.924  15.296   7.364  1.00  0.00     0.200 A 
ATOM     91  F   UNL     1      -2.155  13.022   7.955  1.00  0.00    -0.200 F 
ATOM     92  F   UNL     1      -3.121  15.278   6.763  1.00  0.00    -0.200 F 
ENDBRANCH  58  82
BRANCH  70  93
ATOM     93  C   UNL     1       3.152  18.666  14.200  1.00  0.00     0.064 A 
ATOM     94  C   UNL     1       2.208  18.279  15.162  1.00  0.00     0.173 A 
ATOM     95  C   UNL     1       3.553  20.010  14.176  1.00  0.00     0.173 A 
ATOM     96  F   UNL     1       1.781  17.008  15.217  1.00  0.00    -0.203 F 
ATOM     97  C   UNL     1       1.666  19.209  16.047  1.00  0.00     0.198 A 
ATOM     98  C   UNL     1       3.034  20.930  15.082  1.00  0.00     0.198 A 
ATOM     99  F   UNL     1       4.460  20.430  13.280  1.00  0.00    -0.203 F 
ATOM    100  F   UNL     1       0.728  18.828  16.924  1.00  0.00    -0.200 F 
ATOM    101  C   UNL     1       2.085  20.530  16.011  1.00  0.00     0.200 A 
ATOM    102  F   UNL     1       3.451  22.203  15.056  1.00  0.00    -0.200 F 
ATOM    103  F   UNL     1       1.567  21.422  16.867  1.00  0.00    -0.200 F 
ENDBRANCH  70  93
ENDBRANCH  44  45
ENDBRANCH  37  39
ENDBRANCH  36  37
ENDBRANCH  35  36
ENDBRANCH  34  35
ENDBRANCH  33  34
ENDBRANCH  32  33
ENDBRANCH   1  32
TORSDOF 20
