REMARK SMILES O=C(OCCOCCOC(=O)[C@@H]1CC(=O)N(c2ccc(Cl)cc2C(=O)c2ccccc2)C1)c1ccc(-c2c3nc(c(-c4c(F)c(F)c(F)c(F)c4F)c4ccc([nH]4)c(-c4c(F)c(F)c(F)c(F)c4F)c4nc(c(-c5c(F)c(F)c(F)c(F)c5F)c5ccc2[nH]5)C=C4)C=C3)cc1
REMARK SMILES IDX 7 1 6 2 5 3 4 4 3 5 2 6 1 7 33 8 34 9 95 10 35 11 94 12
REMARK SMILES IDX 36 13 37 14 38 15 88 16 39 17 93 18 87 19 89 20 40 21 92 22
REMARK SMILES IDX 86 23 85 24 41 26 73 27 53 28 72 29 54 30 57 31 71 32 90 33
REMARK SMILES IDX 55 34 56 35 70 37 91 38 58 39 42 40 43 41 51 42 44 43 45 44
REMARK SMILES IDX 49 45 52 46 46 47 47 48 50 49 48 50 74 51 75 52 83 53 76 54
REMARK SMILES IDX 77 55 81 56 84 57 78 58 79 59 82 60 80 61 59 62 60 63 68 64
REMARK SMILES IDX 61 65 62 66 66 67 69 68 63 69 64 70 67 71 65 72 8 73 9 74
REMARK SMILES IDX 10 75 11 76 12 77 13 78 32 79 14 80 16 81 15 82 17 83 18 84
REMARK SMILES IDX 23 85 19 86 22 87 20 88 21 89 24 90 25 91 26 92 27 93 31 94
REMARK SMILES IDX 28 95 30 96 29 97
REMARK H PARENT 89 25 57 36
REMARK Flexibility Score: inf
ROOT
ATOM      1  C   UNL     1       2.186   0.932  -1.577  1.00  0.00     0.202 C 
ENDROOT
BRANCH   1   2
ATOM      2  O   UNL     1       3.319   1.442  -0.860  1.00  0.00    -0.374 OA
BRANCH   2   3
ATOM      3  C   UNL     1       3.994   0.470  -0.069  1.00  0.00     0.202 C 
BRANCH   3   4
ATOM      4  C   UNL     1       3.391   0.193   1.318  1.00  0.00     0.261 C 
BRANCH   4   5
ATOM      5  O   UNL     1       1.941   0.050   1.313  1.00  0.00    -0.460 OA
BRANCH   5   6
ATOM      6  C   UNL     1       1.054   0.999   1.736  1.00  0.00     0.338 C 
ATOM      7  O   UNL     1      -0.155   0.825   1.761  1.00  0.00    -0.246 OA
BRANCH   6   8
ATOM      8  C   UNL     1       1.642   2.283   2.144  1.00  0.00     0.060 A 
ATOM      9  C   UNL     1       2.235   3.027   1.146  1.00  0.00     0.016 A 
ATOM     10  C   UNL     1       1.890   2.575   3.480  1.00  0.00     0.016 A 
ATOM     11  C   UNL     1       3.396   3.700   1.450  1.00  0.00     0.010 A 
ATOM     12  C   UNL     1       2.868   3.528   3.781  1.00  0.00     0.010 A 
ATOM     13  C   UNL     1       3.714   4.021   2.767  1.00  0.00    -0.014 A 
BRANCH  13  14
ATOM     14  C   UNL     1       4.953   4.791   3.070  1.00  0.00     0.031 A 
ATOM     15  C   UNL     1       5.793   4.377   4.246  1.00  0.00     0.074 A 
ATOM     16  C   UNL     1       5.358   5.824   2.300  1.00  0.00     0.049 A 
ATOM     17  N   UNL     1       6.572   5.103   5.001  1.00  0.00    -0.248 NA
ATOM     18  C   UNL     1       5.701   2.967   4.663  1.00  0.00     0.031 C 
ATOM     19  C   UNL     1       4.746   6.264   1.042  1.00  0.00     0.029 A 
ATOM     20  N   UNL     1       6.406   6.698   2.458  1.00  0.00    -0.354 N 
ATOM     21  C   UNL     1       6.930   4.284   6.066  1.00  0.00     0.074 A 
ATOM     22  C   UNL     1       6.338   2.987   5.826  1.00  0.00     0.031 C 
ATOM     23  C   UNL     1       5.481   7.237   0.494  1.00  0.00     0.029 A 
ATOM     24  C   UNL     1       6.465   7.654   1.472  1.00  0.00     0.049 A 
ATOM     25  H   UNL     1       7.049   6.644   3.202  1.00  0.00     0.167 HD
ATOM     26  C   UNL     1       7.647   4.637   7.161  1.00  0.00     0.037 A 
ATOM     27  C   UNL     1       7.137   8.817   1.416  1.00  0.00     0.037 A 
ATOM     28  C   UNL     1       8.293   5.921   7.274  1.00  0.00     0.049 A 
ATOM     29  C   UNL     1       7.921   9.205   2.632  1.00  0.00     0.074 A 
ATOM     30  C   UNL     1       9.023   6.449   8.322  1.00  0.00     0.029 A 
ATOM     31  N   UNL     1       8.310   6.870   6.255  1.00  0.00    -0.354 N 
ATOM     32  N   UNL     1       8.092   8.540   3.750  1.00  0.00    -0.248 NA
ATOM     33  C   UNL     1       8.560  10.522   2.603  1.00  0.00     0.031 C 
ATOM     34  C   UNL     1       9.458   7.727   7.944  1.00  0.00     0.029 A 
ATOM     35  C   UNL     1       9.045   7.975   6.643  1.00  0.00     0.049 A 
ATOM     36  H   UNL     1       7.862   6.769   5.384  1.00  0.00     0.167 HD
ATOM     37  C   UNL     1       8.873   9.348   4.558  1.00  0.00     0.074 A 
ATOM     38  C   UNL     1       9.153  10.548   3.788  1.00  0.00     0.031 C 
ATOM     39  C   UNL     1       9.313   9.130   5.822  1.00  0.00     0.037 A 
BRANCH  26  40
ATOM     40  C   UNL     1       7.660   3.684   8.325  1.00  0.00     0.064 A 
ATOM     41  C   UNL     1       8.297   2.435   8.287  1.00  0.00     0.173 A 
ATOM     42  C   UNL     1       6.962   4.017   9.500  1.00  0.00     0.173 A 
ATOM     43  F   UNL     1       8.965   2.051   7.189  1.00  0.00    -0.203 F 
ATOM     44  C   UNL     1       8.193   1.540   9.353  1.00  0.00     0.198 A 
ATOM     45  C   UNL     1       6.888   3.135  10.576  1.00  0.00     0.198 A 
ATOM     46  F   UNL     1       6.333   5.198   9.601  1.00  0.00    -0.203 F 
ATOM     47  F   UNL     1       8.744   0.322   9.259  1.00  0.00    -0.200 F 
ATOM     48  C   UNL     1       7.490   1.890  10.496  1.00  0.00     0.200 A 
ATOM     49  F   UNL     1       6.215   3.483  11.682  1.00  0.00    -0.200 F 
ATOM     50  F   UNL     1       7.378   1.022  11.511  1.00  0.00    -0.200 F 
ENDBRANCH  26  40
BRANCH  27  51
ATOM     51  C   UNL     1       6.996   9.713   0.235  1.00  0.00     0.064 A 
ATOM     52  C   UNL     1       8.090   9.967  -0.602  1.00  0.00     0.173 A 
ATOM     53  C   UNL     1       5.765  10.294  -0.117  1.00  0.00     0.173 A 
ATOM     54  F   UNL     1       9.293   9.457  -0.302  1.00  0.00    -0.203 F 
ATOM     55  C   UNL     1       7.960  10.762  -1.740  1.00  0.00     0.198 A 
ATOM     56  C   UNL     1       5.626  11.054  -1.277  1.00  0.00     0.198 A 
ATOM     57  F   UNL     1       4.679  10.087   0.644  1.00  0.00    -0.203 F 
ATOM     58  F   UNL     1       9.032  11.015  -2.503  1.00  0.00    -0.200 F 
ATOM     59  C   UNL     1       6.726  11.293  -2.085  1.00  0.00     0.200 A 
ATOM     60  F   UNL     1       4.425  11.540  -1.618  1.00  0.00    -0.200 F 
ATOM     61  F   UNL     1       6.597  12.037  -3.192  1.00  0.00    -0.200 F 
ENDBRANCH  27  51
BRANCH  39  62
ATOM     62  C   UNL     1      10.213  10.179   6.392  1.00  0.00     0.064 A 
ATOM     63  C   UNL     1       9.725  11.421   6.819  1.00  0.00     0.173 A 
ATOM     64  C   UNL     1      11.586   9.922   6.518  1.00  0.00     0.173 A 
ATOM     65  F   UNL     1       8.422  11.716   6.691  1.00  0.00    -0.203 F 
ATOM     66  C   UNL     1      10.589  12.384   7.327  1.00  0.00     0.198 A 
ATOM     67  C   UNL     1      12.441  10.876   7.055  1.00  0.00     0.198 A 
ATOM     68  F   UNL     1      12.093   8.745   6.120  1.00  0.00    -0.203 F 
ATOM     69  F   UNL     1      10.116  13.588   7.676  1.00  0.00    -0.200 F 
ATOM     70  C   UNL     1      11.944  12.108   7.451  1.00  0.00     0.200 A 
ATOM     71  F   UNL     1      13.747  10.605   7.183  1.00  0.00    -0.200 F 
ATOM     72  F   UNL     1      12.774  13.038   7.942  1.00  0.00    -0.200 F 
ENDBRANCH  39  62
ENDBRANCH  13  14
ENDBRANCH   6   8
ENDBRANCH   5   6
ENDBRANCH   4   5
ENDBRANCH   3   4
ENDBRANCH   2   3
ENDBRANCH   1   2
BRANCH   1  73
ATOM     73  C   UNL     1       2.409   1.044  -3.079  1.00  0.00     0.261 C 
BRANCH  73  74
ATOM     74  O   UNL     1       2.835  -0.230  -3.611  1.00  0.00    -0.463 OA
BRANCH  74  75
ATOM     75  C   UNL     1       4.237  -0.634  -3.552  1.00  0.00     0.311 C 
ATOM     76  O   UNL     1       4.820   0.344  -3.002  1.00  0.00    -0.252 OA
BRANCH  75  77
ATOM     77  C   UNL     1       4.990  -2.549  -4.290  1.00  0.00     0.128 C 
ATOM     78  C   UNL     1       4.368  -3.729  -5.460  1.00  0.00     0.117 C 
ATOM     79  C   UNL     1       5.635  -3.902  -3.459  1.00  0.00     0.141 C 
ATOM     80  C   UNL     1       3.897  -4.916  -4.649  1.00  0.00     0.227 C 
ATOM     81  N   UNL     1       4.610  -4.913  -3.459  1.00  0.00    -0.311 N 
ATOM     82  O   UNL     1       2.982  -5.656  -4.972  1.00  0.00    -0.274 OA
BRANCH  81  83
ATOM     83  C   UNL     1       4.041  -5.430  -2.277  1.00  0.00     0.055 A 
ATOM     84  C   UNL     1       3.899  -6.821  -2.185  1.00  0.00     0.028 A 
ATOM     85  C   UNL     1       3.616  -4.622  -1.206  1.00  0.00     0.048 A 
ATOM     86  C   UNL     1       3.401  -7.410  -1.021  1.00  0.00     0.023 A 
ATOM     87  C   UNL     1       3.106  -5.226  -0.042  1.00  0.00     0.035 A 
ATOM     88  C   UNL     1       3.013  -6.611   0.049  1.00  0.00     0.041 A 
ATOM     89  Cl  UNL     1       2.413  -7.337   1.488  1.00  0.00    -0.084 Cl
BRANCH  85  90
ATOM     90  C   UNL     1       3.632  -3.137  -1.216  1.00  0.00     0.195 C 
ATOM     91  O   UNL     1       3.391  -2.518  -0.187  1.00  0.00    -0.289 OA
BRANCH  90  92
ATOM     92  C   UNL     1       4.021  -2.369  -2.412  1.00  0.00     0.023 A 
ATOM     93  C   UNL     1       5.687  -1.670  -2.463  1.00  0.00     0.012 A 
ATOM     94  C   UNL     1       2.981  -2.313  -3.871  1.00  0.00     0.012 A 
ATOM     95  C   UNL     1       6.309  -0.877  -3.958  1.00  0.00     0.001 A 
ATOM     96  C   UNL     1       3.575  -1.415  -5.354  1.00  0.00     0.001 A 
ATOM     97  C   UNL     1       5.218  -0.699  -5.384  1.00  0.00     0.000 A 
ENDBRANCH  90  92
ENDBRANCH  85  90
ENDBRANCH  81  83
ENDBRANCH  75  77
ENDBRANCH  74  75
ENDBRANCH  73  74
ENDBRANCH   1  73
TORSDOF 17
