REMARK SMILES C[C@@]1(c2ccccc2C(=O)OCCOCCOC(=O)c2ccc(-c3c4nc(c(-c5c(F)c(F)c(F)c(F)c5F)c5ccc([nH]5)c(-c5c(F)c(F)c(F)c(F)c5F)c5nc(c(-c6c(F)c(F)c(F)c(F)c6F)c6ccc3[nH]6)C=C5)C=C4)cc2)NN=C(c2ccccc2)S1
REMARK SMILES IDX 14 1 13 2 12 3 11 4 9 5 10 6 8 7 3 8 4 9 5 10 7 11 6 12 2 13
REMARK SMILES IDX 1 14 83 15 92 16 84 17 85 19 86 20 87 21 91 22 88 23 90 24
REMARK SMILES IDX 89 25 15 26 16 27 17 28 18 29 19 30 20 31 21 32 82 33 22 34
REMARK SMILES IDX 81 35 23 36 24 37 25 38 75 39 26 40 80 41 74 42 76 43 27 44
REMARK SMILES IDX 79 45 73 46 72 47 28 49 60 50 40 51 59 52 41 53 44 54 58 55
REMARK SMILES IDX 77 56 42 57 43 58 57 60 78 61 45 62 29 63 30 64 38 65 31 66
REMARK SMILES IDX 32 67 36 68 39 69 33 70 34 71 37 72 35 73 61 74 62 75 70 76
REMARK SMILES IDX 63 77 64 78 68 79 71 80 65 81 66 82 69 83 67 84 46 85 47 86
REMARK SMILES IDX 55 87 48 88 49 89 53 90 56 91 50 92 51 93 54 94 52 95
REMARK H PARENT 83 18 76 48 44 59
REMARK Flexibility Score: inf
ROOT
ATOM      1  O   UNL     1       5.570   1.099  -1.832  1.00  0.00    -0.374 OA
ENDROOT
BRANCH   1   2
ATOM      2  C   UNL     1       4.699   1.486  -2.896  1.00  0.00     0.202 C 
BRANCH   2   3
ATOM      3  C   UNL     1       3.622   0.479  -3.286  1.00  0.00     0.261 C 
BRANCH   3   4
ATOM      4  O   UNL     1       2.711   0.276  -2.189  1.00  0.00    -0.460 OA
BRANCH   4   5
ATOM      5  C   UNL     1       2.603  -0.980  -1.738  1.00  0.00     0.338 C 
ATOM      6  O   UNL     1       3.188  -1.935  -2.236  1.00  0.00    -0.246 OA
BRANCH   5   7
ATOM      7  C   UNL     1       1.736  -1.152  -0.521  1.00  0.00     0.066 A 
ATOM      8  C   UNL     1       0.665  -0.363  -0.012  1.00  0.00     0.004 A 
ATOM      9  C   UNL     1      -0.194  -1.021   0.921  1.00  0.00     0.008 A 
ATOM     10  C   UNL     1       0.106  -2.254   1.499  1.00  0.00     0.000 A 
ATOM     11  C   UNL     1       2.049  -2.375   0.130  1.00  0.00     0.016 A 
ATOM     12  C   UNL     1       1.273  -2.900   1.155  1.00  0.00     0.001 A 
BRANCH   8  13
ATOM     13  C   UNL     1       0.537   1.186  -0.028  1.00  0.00     0.129 C 
ATOM     14  C   UNL     1       1.563   1.706   1.008  1.00  0.00     0.054 C 
ATOM     15  N   UNL     1      -0.783   1.668   0.465  1.00  0.00    -0.288 NA
ATOM     16  S   UNL     1       0.670   2.087  -1.606  1.00  0.00    -0.070 SA
ATOM     17  N   UNL     1      -1.215   2.872   0.001  1.00  0.00    -0.171 NA
ATOM     18  H   UNL     1      -1.320   1.138   1.098  1.00  0.00     0.185 HD
ATOM     19  C   UNL     1      -0.576   3.179  -1.082  1.00  0.00     0.126 C 
BRANCH  19  20
ATOM     20  C   UNL     1      -0.857   4.386  -1.851  1.00  0.00     0.009 A 
ATOM     21  C   UNL     1      -0.208   5.583  -1.547  1.00  0.00     0.011 A 
ATOM     22  C   UNL     1      -1.876   4.349  -2.801  1.00  0.00     0.011 A 
ATOM     23  C   UNL     1      -0.582   6.752  -2.214  1.00  0.00     0.001 A 
ATOM     24  C   UNL     1      -2.233   5.521  -3.462  1.00  0.00     0.001 A 
ATOM     25  C   UNL     1      -1.579   6.718  -3.184  1.00  0.00     0.000 A 
ENDBRANCH  19  20
ENDBRANCH   8  13
ENDBRANCH   5   7
ENDBRANCH   4   5
ENDBRANCH   3   4
ENDBRANCH   2   3
ENDBRANCH   1   2
BRANCH   1  26
ATOM     26  C   UNL     1       5.051   1.250  -0.512  1.00  0.00     0.202 C 
BRANCH  26  27
ATOM     27  C   UNL     1       5.095   2.667   0.081  1.00  0.00     0.261 C 
BRANCH  27  28
ATOM     28  O   UNL     1       4.387   3.640  -0.707  1.00  0.00    -0.460 OA
BRANCH  28  29
ATOM     29  C   UNL     1       5.173   4.457  -1.458  1.00  0.00     0.338 C 
ATOM     30  O   UNL     1       6.387   4.508  -1.483  1.00  0.00    -0.246 OA
BRANCH  29  31
ATOM     31  C   UNL     1       4.314   5.242  -2.365  1.00  0.00     0.060 A 
ATOM     32  C   UNL     1       4.357   5.009  -3.745  1.00  0.00     0.016 A 
ATOM     33  C   UNL     1       3.495   6.240  -1.854  1.00  0.00     0.016 A 
ATOM     34  C   UNL     1       3.538   5.744  -4.616  1.00  0.00     0.010 A 
ATOM     35  C   UNL     1       2.690   6.971  -2.731  1.00  0.00     0.010 A 
ATOM     36  C   UNL     1       2.669   6.727  -4.122  1.00  0.00    -0.014 A 
BRANCH  36  37
ATOM     37  C   UNL     1       1.763   7.536  -5.009  1.00  0.00     0.031 A 
ATOM     38  C   UNL     1       1.801   9.046  -4.936  1.00  0.00     0.074 A 
ATOM     39  C   UNL     1       0.819   6.963  -5.791  1.00  0.00     0.049 A 
ATOM     40  N   UNL     1       0.955   9.932  -5.407  1.00  0.00    -0.248 NA
ATOM     41  C   UNL     1       2.919   9.635  -4.182  1.00  0.00     0.031 C 
ATOM     42  C   UNL     1       0.594   5.526  -5.953  1.00  0.00     0.029 A 
ATOM     43  N   UNL     1      -0.176   7.535  -6.561  1.00  0.00    -0.354 N 
ATOM     44  C   UNL     1       1.418  11.168  -4.971  1.00  0.00     0.074 A 
ATOM     45  C   UNL     1       2.564  10.909  -4.126  1.00  0.00     0.031 C 
ATOM     46  C   UNL     1      -0.476   5.329  -6.744  1.00  0.00     0.029 A 
ATOM     47  C   UNL     1      -1.043   6.622  -7.120  1.00  0.00     0.049 A 
ATOM     48  H   UNL     1      -0.258   8.506  -6.698  1.00  0.00     0.167 HD
ATOM     49  C   UNL     1       0.972  12.411  -5.278  1.00  0.00     0.037 A 
ATOM     50  C   UNL     1      -2.183   6.796  -7.822  1.00  0.00     0.037 A 
ATOM     51  C   UNL     1      -0.112  12.693  -6.182  1.00  0.00     0.049 A 
ATOM     52  C   UNL     1      -2.689   8.186  -8.118  1.00  0.00     0.074 A 
ATOM     53  C   UNL     1      -0.540  13.923  -6.654  1.00  0.00     0.029 A 
ATOM     54  N   UNL     1      -0.934  11.738  -6.756  1.00  0.00    -0.354 N 
ATOM     55  N   UNL     1      -2.192   9.345  -7.766  1.00  0.00    -0.248 NA
ATOM     56  C   UNL     1      -3.921   8.287  -8.920  1.00  0.00     0.031 C 
ATOM     57  C   UNL     1      -1.652  13.716  -7.475  1.00  0.00     0.029 A 
ATOM     58  C   UNL     1      -1.884  12.354  -7.557  1.00  0.00     0.049 A 
ATOM     59  H   UNL     1      -0.856  10.767  -6.616  1.00  0.00     0.167 HD
ATOM     60  C   UNL     1      -3.013  10.306  -8.347  1.00  0.00     0.074 A 
ATOM     61  C   UNL     1      -4.049   9.598  -9.063  1.00  0.00     0.031 C 
ATOM     62  C   UNL     1      -2.902  11.656  -8.297  1.00  0.00     0.037 A 
BRANCH  49  63
ATOM     63  C   UNL     1       1.689  13.580  -4.660  1.00  0.00     0.064 A 
ATOM     64  C   UNL     1       3.016  13.889  -4.998  1.00  0.00     0.173 A 
ATOM     65  C   UNL     1       1.032  14.425  -3.753  1.00  0.00     0.173 A 
ATOM     66  F   UNL     1       3.691  13.115  -5.862  1.00  0.00    -0.203 F 
ATOM     67  C   UNL     1       3.674  14.966  -4.412  1.00  0.00     0.198 A 
ATOM     68  C   UNL     1       1.680  15.526  -3.200  1.00  0.00     0.198 A 
ATOM     69  F   UNL     1      -0.243  14.189  -3.409  1.00  0.00    -0.203 F 
ATOM     70  F   UNL     1       4.963  15.196  -4.698  1.00  0.00    -0.200 F 
ATOM     71  C   UNL     1       3.004  15.787  -3.519  1.00  0.00     0.200 A 
ATOM     72  F   UNL     1       1.025  16.334  -2.354  1.00  0.00    -0.200 F 
ATOM     73  F   UNL     1       3.638  16.828  -2.961  1.00  0.00    -0.200 F 
ENDBRANCH  49  63
BRANCH  50  74
ATOM     74  C   UNL     1      -2.962   5.623  -8.313  1.00  0.00     0.064 A 
ATOM     75  C   UNL     1      -2.995   5.295  -9.675  1.00  0.00     0.173 A 
ATOM     76  C   UNL     1      -3.761   4.862  -7.449  1.00  0.00     0.173 A 
ATOM     77  F   UNL     1      -2.295   6.028 -10.553  1.00  0.00    -0.203 F 
ATOM     78  C   UNL     1      -3.806   4.265 -10.150  1.00  0.00     0.198 A 
ATOM     79  C   UNL     1      -4.544   3.810  -7.917  1.00  0.00     0.198 A 
ATOM     80  F   UNL     1      -3.817   5.167  -6.149  1.00  0.00    -0.203 F 
ATOM     81  F   UNL     1      -3.873   4.021 -11.466  1.00  0.00    -0.200 F 
ATOM     82  C   UNL     1      -4.574   3.518  -9.270  1.00  0.00     0.200 A 
ATOM     83  F   UNL     1      -5.289   3.100  -7.059  1.00  0.00    -0.200 F 
ATOM     84  F   UNL     1      -5.364   2.537  -9.728  1.00  0.00    -0.200 F 
ENDBRANCH  50  74
BRANCH  62  85
ATOM     85  C   UNL     1      -3.876  12.476  -9.097  1.00  0.00     0.064 A 
ATOM     86  C   UNL     1      -5.221  12.608  -8.724  1.00  0.00     0.173 A 
ATOM     87  C   UNL     1      -3.437  13.192 -10.223  1.00  0.00     0.173 A 
ATOM     88  F   UNL     1      -5.698  11.932  -7.667  1.00  0.00    -0.203 F 
ATOM     89  C   UNL     1      -6.092  13.414  -9.454  1.00  0.00     0.198 A 
ATOM     90  C   UNL     1      -4.302  14.021 -10.932  1.00  0.00     0.198 A 
ATOM     91  F   UNL     1      -2.159  13.105 -10.622  1.00  0.00    -0.203 F 
ATOM     92  F   UNL     1      -7.383  13.495  -9.101  1.00  0.00    -0.200 F 
ATOM     93  C   UNL     1      -5.630  14.128 -10.550  1.00  0.00     0.200 A 
ATOM     94  F   UNL     1      -3.848  14.721 -11.981  1.00  0.00    -0.200 F 
ATOM     95  F   UNL     1      -6.466  14.916 -11.241  1.00  0.00    -0.200 F 
ENDBRANCH  62  85
ENDBRANCH  36  37
ENDBRANCH  29  31
ENDBRANCH  28  29
ENDBRANCH  27  28
ENDBRANCH  26  27
ENDBRANCH   1  26
TORSDOF 16
