REMARK SMILES C[NH2+]C[C@H](C)C(=O)N1CCc2cc(C(=O)OCCOCCOC(=O)c3ccc(-c4c5nc(c(-c6c(F)c(F)c(F)c(F)c6F)c6ccc([nH]6)c(-c6c(F)c(F)c(F)c(F)c6F)c6nc(c(-c7c(F)c(F)c(F)c(F)c7F)c7ccc4[nH]7)C=C6)C=C5)cc3)ccc21
REMARK SMILES IDX 18 1 17 2 16 3 14 4 15 5 13 6 8 7 9 8 90 9 10 10 11 11 89 12
REMARK SMILES IDX 12 13 88 14 6 15 7 16 4 17 5 18 3 19 2 20 1 21 19 24 20 25
REMARK SMILES IDX 21 26 22 27 23 28 24 29 25 30 26 31 87 32 27 33 86 34 28 35
REMARK SMILES IDX 29 36 30 37 80 38 31 39 85 40 79 41 81 42 32 43 84 44 78 45
REMARK SMILES IDX 77 46 33 48 65 49 45 50 64 51 46 52 49 53 63 54 82 55 47 56
REMARK SMILES IDX 48 57 62 59 83 60 50 61 34 62 35 63 43 64 36 65 37 66 41 67
REMARK SMILES IDX 44 68 38 69 39 70 42 71 40 72 66 73 67 74 75 75 68 76 69 77
REMARK SMILES IDX 73 78 76 79 70 80 71 81 74 82 72 83 51 84 52 85 60 86 53 87
REMARK SMILES IDX 54 88 58 89 61 90 55 91 56 92 59 93 57 94
REMARK H PARENT 2 22 2 23 81 47 49 58
REMARK Flexibility Score: inf
ROOT
ATOM      1  C   UNL     1      -2.675  -8.448   4.286  1.00  0.00     0.202 C 
ENDROOT
BRANCH   1   2
ATOM      2  C   UNL     1      -1.757  -8.443   3.060  1.00  0.00     0.261 C 
BRANCH   2   3
ATOM      3  O   UNL     1      -1.777  -7.166   2.409  1.00  0.00    -0.460 OA
BRANCH   3   4
ATOM      4  C   UNL     1      -2.447  -7.134   1.233  1.00  0.00     0.338 C 
ATOM      5  O   UNL     1      -2.882  -8.092   0.613  1.00  0.00    -0.246 OA
BRANCH   4   6
ATOM      6  C   UNL     1      -2.730  -5.731   0.850  1.00  0.00     0.060 A 
ATOM      7  N   UNL     1      -3.684  -1.974  -0.636  1.00  0.00    -0.311 N 
ATOM      8  C   UNL     1      -4.956  -2.235  -1.331  1.00  0.00     0.130 C 
ATOM      9  C   UNL     1      -3.270  -3.146  -0.001  1.00  0.00     0.047 A 
ATOM     10  C   UNL     1      -5.323  -3.700  -1.084  1.00  0.00     0.059 C 
ATOM     11  C   UNL     1      -4.118  -4.195  -0.351  1.00  0.00    -0.022 A 
ATOM     12  C   UNL     1      -2.263  -3.345   0.920  1.00  0.00     0.027 A 
ATOM     13  C   UNL     1      -3.847  -5.496   0.038  1.00  0.00     0.021 A 
ATOM     14  C   UNL     1      -1.977  -4.649   1.339  1.00  0.00     0.018 A 
BRANCH   7  15
ATOM     15  C   UNL     1      -3.066  -0.758  -0.801  1.00  0.00     0.235 C 
ATOM     16  O   UNL     1      -3.750   0.272  -0.871  1.00  0.00    -0.274 OA
BRANCH  15  17
ATOM     17  C   UNL     1      -1.566  -0.662  -1.131  1.00  0.00     0.131 C 
ATOM     18  C   UNL     1      -0.619  -0.676   0.064  1.00  0.00     0.024 C 
BRANCH  17  19
ATOM     19  C   UNL     1      -1.065  -1.606  -2.246  1.00  0.00     0.273 C 
BRANCH  19  20
ATOM     20  N   UNL     1      -1.937  -1.882  -3.390  1.00  0.00    -0.348 N 
ATOM     21  C   UNL     1      -2.399  -0.695  -4.094  1.00  0.00     0.330 C 
ATOM     22  H   UNL     1      -1.422  -2.465  -4.050  1.00  0.00     0.346 HD
ATOM     23  H   UNL     1      -2.768  -2.342  -3.018  1.00  0.00     0.346 HD
ENDBRANCH  19  20
ENDBRANCH  17  19
ENDBRANCH  15  17
ENDBRANCH   7  15
ENDBRANCH   4   6
ENDBRANCH   3   4
ENDBRANCH   2   3
ENDBRANCH   1   2
BRANCH   1  24
ATOM     24  O   UNL     1      -4.067  -8.241   4.058  1.00  0.00    -0.374 OA
BRANCH  24  25
ATOM     25  C   UNL     1      -4.517  -6.900   3.865  1.00  0.00     0.202 C 
BRANCH  25  26
ATOM     26  C   UNL     1      -4.659  -6.014   5.110  1.00  0.00     0.261 C 
BRANCH  26  27
ATOM     27  O   UNL     1      -3.400  -5.768   5.759  1.00  0.00    -0.460 OA
BRANCH  27  28
ATOM     28  C   UNL     1      -3.220  -6.456   6.912  1.00  0.00     0.338 C 
ATOM     29  O   UNL     1      -4.017  -7.194   7.470  1.00  0.00    -0.246 OA
BRANCH  28  30
ATOM     30  C   UNL     1      -1.817  -6.342   7.347  1.00  0.00     0.060 A 
ATOM     31  C   UNL     1      -1.109  -7.529   7.572  1.00  0.00     0.016 A 
ATOM     32  C   UNL     1      -1.231  -5.102   7.607  1.00  0.00     0.016 A 
ATOM     33  C   UNL     1       0.175  -7.484   8.107  1.00  0.00     0.010 A 
ATOM     34  C   UNL     1       0.057  -5.059   8.149  1.00  0.00     0.010 A 
ATOM     35  C   UNL     1       0.751  -6.250   8.436  1.00  0.00    -0.014 A 
BRANCH  35  36
ATOM     36  C   UNL     1       2.020  -6.212   9.202  1.00  0.00     0.031 A 
ATOM     37  C   UNL     1       1.977  -5.905  10.673  1.00  0.00     0.074 A 
ATOM     38  C   UNL     1       3.193  -6.471   8.599  1.00  0.00     0.049 A 
ATOM     39  N   UNL     1       2.963  -5.774  11.525  1.00  0.00    -0.248 NA
ATOM     40  C   UNL     1       0.643  -5.715  11.263  1.00  0.00     0.031 C 
ATOM     41  C   UNL     1       3.356  -6.821   7.190  1.00  0.00     0.029 A 
ATOM     42  N   UNL     1       4.471  -6.472   9.099  1.00  0.00    -0.354 N 
ATOM     43  C   UNL     1       2.369  -5.476  12.745  1.00  0.00     0.074 A 
ATOM     44  C   UNL     1       0.942  -5.410  12.516  1.00  0.00     0.031 C 
ATOM     45  C   UNL     1       4.663  -6.996   6.934  1.00  0.00     0.029 A 
ATOM     46  C   UNL     1       5.429  -6.733   8.152  1.00  0.00     0.049 A 
ATOM     47  H   UNL     1       4.680  -6.302  10.046  1.00  0.00     0.167 HD
ATOM     48  C   UNL     1       2.962  -5.286  13.949  1.00  0.00     0.037 A 
ATOM     49  C   UNL     1       6.772  -6.734   8.252  1.00  0.00     0.037 A 
ATOM     50  C   UNL     1       4.384  -5.354  14.169  1.00  0.00     0.049 A 
ATOM     51  C   UNL     1       7.412  -6.442   9.585  1.00  0.00     0.074 A 
ATOM     52  C   UNL     1       5.082  -5.199  15.354  1.00  0.00     0.029 A 
ATOM     53  N   UNL     1       5.327  -5.586  13.178  1.00  0.00    -0.354 N 
ATOM     54  N   UNL     1       6.845  -6.189  10.741  1.00  0.00    -0.248 NA
ATOM     55  C   UNL     1       8.881  -6.441   9.628  1.00  0.00     0.031 C 
ATOM     56  C   UNL     1       6.449  -5.271  15.069  1.00  0.00     0.029 A 
ATOM     57  C   UNL     1       6.603  -5.544  13.719  1.00  0.00     0.049 A 
ATOM     58  H   UNL     1       5.121  -5.755  12.230  1.00  0.00     0.167 HD
ATOM     59  C   UNL     1       7.883  -6.032  11.651  1.00  0.00     0.074 A 
ATOM     60  C   UNL     1       9.114  -6.231  10.916  1.00  0.00     0.031 C 
ATOM     61  C   UNL     1       7.822  -5.750  12.977  1.00  0.00     0.037 A 
BRANCH  48  62
ATOM     62  C   UNL     1       2.075  -4.953  15.115  1.00  0.00     0.064 A 
ATOM     63  C   UNL     1       1.185  -5.890  15.663  1.00  0.00     0.173 A 
ATOM     64  C   UNL     1       2.135  -3.684  15.711  1.00  0.00     0.173 A 
ATOM     65  F   UNL     1       1.078  -7.115  15.125  1.00  0.00    -0.203 F 
ATOM     66  C   UNL     1       0.366  -5.558  16.739  1.00  0.00     0.198 A 
ATOM     67  C   UNL     1       1.340  -3.367  16.809  1.00  0.00     0.198 A 
ATOM     68  F   UNL     1       2.971  -2.750  15.233  1.00  0.00    -0.203 F 
ATOM     69  F   UNL     1      -0.517  -6.452  17.208  1.00  0.00    -0.200 F 
ATOM     70  C   UNL     1       0.449  -4.300  17.316  1.00  0.00     0.200 A 
ATOM     71  F   UNL     1       1.434  -2.155  17.375  1.00  0.00    -0.200 F 
ATOM     72  F   UNL     1      -0.335  -3.984  18.356  1.00  0.00    -0.200 F 
ENDBRANCH  48  62
BRANCH  49  73
ATOM     73  C   UNL     1       7.605  -7.015   7.053  1.00  0.00     0.064 A 
ATOM     74  C   UNL     1       8.380  -8.180   6.967  1.00  0.00     0.173 A 
ATOM     75  C   UNL     1       7.652  -6.120   5.974  1.00  0.00     0.173 A 
ATOM     76  F   UNL     1       8.387  -9.055   7.984  1.00  0.00    -0.203 F 
ATOM     77  C   UNL     1       9.183  -8.430   5.857  1.00  0.00     0.198 A 
ATOM     78  C   UNL     1       8.431  -6.386   4.850  1.00  0.00     0.198 A 
ATOM     79  F   UNL     1       6.929  -4.990   6.005  1.00  0.00    -0.203 F 
ATOM     80  F   UNL     1       9.951  -9.527   5.822  1.00  0.00    -0.200 F 
ATOM     81  C   UNL     1       9.203  -7.537   4.796  1.00  0.00     0.200 A 
ATOM     82  F   UNL     1       8.434  -5.528   3.821  1.00  0.00    -0.200 F 
ATOM     83  F   UNL     1       9.970  -7.781   3.726  1.00  0.00    -0.200 F 
ENDBRANCH  49  73
BRANCH  61  84
ATOM     84  C   UNL     1       9.120  -5.686  13.732  1.00  0.00     0.064 A 
ATOM     85  C   UNL     1      10.041  -4.645  13.538  1.00  0.00     0.173 A 
ATOM     86  C   UNL     1       9.428  -6.660  14.695  1.00  0.00     0.173 A 
ATOM     87  F   UNL     1       9.803  -3.695  12.621  1.00  0.00    -0.203 F 
ATOM     88  C   UNL     1      11.234  -4.601  14.255  1.00  0.00     0.198 A 
ATOM     89  C   UNL     1      10.605  -6.593  15.436  1.00  0.00     0.198 A 
ATOM     90  F   UNL     1       8.580  -7.673  14.928  1.00  0.00    -0.203 F 
ATOM     91  F   UNL     1      12.124  -3.628  14.012  1.00  0.00    -0.200 F 
ATOM     92  C   UNL     1      11.511  -5.569  15.209  1.00  0.00     0.200 A 
ATOM     93  F   UNL     1      10.861  -7.519  16.370  1.00  0.00    -0.200 F 
ATOM     94  F   UNL     1      12.655  -5.519  15.905  1.00  0.00    -0.200 F 
ENDBRANCH  61  84
ENDBRANCH  35  36
ENDBRANCH  28  30
ENDBRANCH  27  28
ENDBRANCH  26  27
ENDBRANCH  25  26
ENDBRANCH  24  25
ENDBRANCH   1  24
TORSDOF 18
