REMARK SMILES O=C(OCCOCCOC(=O)[C@@H]1CCc2[nH]ncc2C1)c1ccc(-c2c3nc(c(-c4c(F)c(F)c(F)c(F)c4F)c4ccc([nH]4)c(-c4c(F)c(F)c(F)c(F)c4F)c4nc(c(-c5c(F)c(F)c(F)c(F)c5F)c5ccc2[nH]5)C=C4)C=C3)cc1
REMARK SMILES IDX 5 1 4 2 3 3 2 4 1 5 21 6 22 7 83 8 23 9 82 10 24 11 25 12
REMARK SMILES IDX 26 13 76 14 27 15 81 16 75 17 77 18 28 19 80 20 74 21 73 22
REMARK SMILES IDX 29 24 61 25 41 26 60 27 42 28 45 29 59 30 78 31 43 32 44 33
REMARK SMILES IDX 58 35 79 36 46 37 30 38 31 39 39 40 32 41 33 42 37 43 40 44
REMARK SMILES IDX 34 45 35 46 38 47 36 48 62 49 63 50 71 51 64 52 65 53 69 54
REMARK SMILES IDX 72 55 66 56 67 57 70 58 68 59 47 60 48 61 56 62 49 63 50 64
REMARK SMILES IDX 54 65 57 66 51 67 52 68 55 69 53 70 6 71 7 72 8 73 9 74
REMARK SMILES IDX 10 75 11 76 12 77 13 78 20 79 14 80 19 81 15 82 18 83 16 84
REMARK SMILES IDX 17 85
REMARK H PARENT 77 23 45 34 16 86
REMARK Flexibility Score: inf
ROOT
ATOM      1  C   UNL     1       4.622  -0.334  -1.463  1.00  0.00     0.202 C 
ENDROOT
BRANCH   1   2
ATOM      2  C   UNL     1       4.253  -1.308  -0.329  1.00  0.00     0.261 C 
BRANCH   2   3
ATOM      3  O   UNL     1       2.854  -1.266  -0.003  1.00  0.00    -0.460 OA
BRANCH   3   4
ATOM      4  C   UNL     1       2.247  -0.543   0.969  1.00  0.00     0.338 C 
ATOM      5  O   UNL     1       1.033  -0.661   1.125  1.00  0.00    -0.246 OA
BRANCH   4   6
ATOM      6  C   UNL     1       2.978   0.412   1.857  1.00  0.00     0.060 A 
ATOM      7  C   UNL     1       4.217   0.975   1.561  1.00  0.00     0.016 A 
ATOM      8  C   UNL     1       2.347   0.813   3.047  1.00  0.00     0.016 A 
ATOM      9  C   UNL     1       4.866   1.819   2.431  1.00  0.00     0.010 A 
ATOM     10  C   UNL     1       2.975   1.704   3.925  1.00  0.00     0.010 A 
ATOM     11  C   UNL     1       4.255   2.176   3.622  1.00  0.00    -0.014 A 
BRANCH  11  12
ATOM     12  C   UNL     1       5.116   2.889   4.573  1.00  0.00     0.031 A 
ATOM     13  C   UNL     1       5.756   2.081   5.657  1.00  0.00     0.074 A 
ATOM     14  C   UNL     1       5.504   4.142   4.280  1.00  0.00     0.049 A 
ATOM     15  N   UNL     1       6.617   2.448   6.565  1.00  0.00    -0.248 NA
ATOM     16  C   UNL     1       5.403   0.650   5.704  1.00  0.00     0.031 C 
ATOM     17  C   UNL     1       5.057   4.910   3.113  1.00  0.00     0.029 A 
ATOM     18  N   UNL     1       6.411   4.960   4.891  1.00  0.00    -0.354 N 
ATOM     19  C   UNL     1       6.876   1.308   7.312  1.00  0.00     0.074 A 
ATOM     20  C   UNL     1       6.093   0.232   6.752  1.00  0.00     0.031 C 
ATOM     21  C   UNL     1       5.720   6.076   3.076  1.00  0.00     0.029 A 
ATOM     22  C   UNL     1       6.575   6.165   4.253  1.00  0.00     0.049 A 
ATOM     23  H   UNL     1       6.899   4.711   5.708  1.00  0.00     0.167 HD
ATOM     24  C   UNL     1       7.692   1.190   8.383  1.00  0.00     0.037 A 
ATOM     25  C   UNL     1       7.316   7.226   4.615  1.00  0.00     0.037 A 
ATOM     26  C   UNL     1       8.458   2.290   8.900  1.00  0.00     0.049 A 
ATOM     27  C   UNL     1       8.124   7.103   5.879  1.00  0.00     0.074 A 
ATOM     28  C   UNL     1       9.260   2.339  10.022  1.00  0.00     0.029 A 
ATOM     29  N   UNL     1       8.510   3.548   8.308  1.00  0.00    -0.354 N 
ATOM     30  N   UNL     1       8.295   6.055   6.653  1.00  0.00    -0.248 NA
ATOM     31  C   UNL     1       8.827   8.307   6.332  1.00  0.00     0.031 C 
ATOM     32  C   UNL     1       9.752   3.644  10.141  1.00  0.00     0.029 A 
ATOM     33  C   UNL     1       9.313   4.390   9.056  1.00  0.00     0.049 A 
ATOM     34  H   UNL     1       8.044   3.802   7.479  1.00  0.00     0.167 HD
ATOM     35  C   UNL     1       9.144   6.463   7.669  1.00  0.00     0.074 A 
ATOM     36  C   UNL     1       9.467   7.852   7.399  1.00  0.00     0.031 C 
ATOM     37  C   UNL     1       9.615   5.763   8.732  1.00  0.00     0.037 A 
BRANCH  24  38
ATOM     38  C   UNL     1       7.689  -0.127   9.100  1.00  0.00     0.064 A 
ATOM     39  C   UNL     1       8.251  -1.288   8.548  1.00  0.00     0.173 A 
ATOM     40  C   UNL     1       7.052  -0.237  10.346  1.00  0.00     0.173 A 
ATOM     41  F   UNL     1       8.839  -1.247   7.343  1.00  0.00    -0.203 F 
ATOM     42  C   UNL     1       8.145  -2.515   9.201  1.00  0.00     0.198 A 
ATOM     43  C   UNL     1       6.974  -1.458  11.009  1.00  0.00     0.198 A 
ATOM     44  F   UNL     1       6.484   0.838  10.912  1.00  0.00    -0.203 F 
ATOM     45  F   UNL     1       8.626  -3.624   8.622  1.00  0.00    -0.200 F 
ATOM     46  C   UNL     1       7.510  -2.599  10.431  1.00  0.00     0.200 A 
ATOM     47  F   UNL     1       6.360  -1.535  12.198  1.00  0.00    -0.200 F 
ATOM     48  F   UNL     1       7.398  -3.781  11.051  1.00  0.00    -0.200 F 
ENDBRANCH  24  38
BRANCH  25  49
ATOM     49  C   UNL     1       7.281   8.484   3.822  1.00  0.00     0.064 A 
ATOM     50  C   UNL     1       8.431   8.994   3.204  1.00  0.00     0.173 A 
ATOM     51  C   UNL     1       6.093   9.221   3.684  1.00  0.00     0.173 A 
ATOM     52  F   UNL     1       9.597   8.342   3.318  1.00  0.00    -0.203 F 
ATOM     53  C   UNL     1       8.399  10.199   2.501  1.00  0.00     0.198 A 
ATOM     54  C   UNL     1       6.054  10.407   2.954  1.00  0.00     0.198 A 
ATOM     55  F   UNL     1       4.960   8.786   4.256  1.00  0.00    -0.203 F 
ATOM     56  F   UNL     1       9.526  10.690   1.967  1.00  0.00    -0.200 F 
ATOM     57  C   UNL     1       7.210  10.901   2.372  1.00  0.00     0.200 A 
ATOM     58  F   UNL     1       4.899  11.072   2.821  1.00  0.00    -0.200 F 
ATOM     59  F   UNL     1       7.181  12.059   1.699  1.00  0.00    -0.200 F 
ENDBRANCH  25  49
BRANCH  37  60
ATOM     60  C   UNL     1      10.568   6.481   9.639  1.00  0.00     0.064 A 
ATOM     61  C   UNL     1      10.144   7.505  10.496  1.00  0.00     0.173 A 
ATOM     62  C   UNL     1      11.920   6.105   9.672  1.00  0.00     0.173 A 
ATOM     63  F   UNL     1       8.864   7.907  10.488  1.00  0.00    -0.203 F 
ATOM     64  C   UNL     1      11.048   8.152  11.332  1.00  0.00     0.198 A 
ATOM     65  C   UNL     1      12.812   6.729  10.537  1.00  0.00     0.198 A 
ATOM     66  F   UNL     1      12.369   5.123   8.877  1.00  0.00    -0.203 F 
ATOM     67  F   UNL     1      10.635   9.169  12.102  1.00  0.00    -0.200 F 
ATOM     68  C   UNL     1      12.378   7.758  11.358  1.00  0.00     0.200 A 
ATOM     69  F   UNL     1      14.092   6.334  10.573  1.00  0.00    -0.200 F 
ATOM     70  F   UNL     1      13.245   8.377  12.171  1.00  0.00    -0.200 F 
ENDBRANCH  37  60
ENDBRANCH  11  12
ENDBRANCH   4   6
ENDBRANCH   3   4
ENDBRANCH   2   3
ENDBRANCH   1   2
BRANCH   1  71
ATOM     71  O   UNL     1       4.128   1.009  -1.391  1.00  0.00    -0.374 OA
BRANCH  71  72
ATOM     72  C   UNL     1       2.724   1.201  -1.614  1.00  0.00     0.202 C 
BRANCH  72  73
ATOM     73  C   UNL     1       2.477   2.165  -2.773  1.00  0.00     0.261 C 
BRANCH  73  74
ATOM     74  O   UNL     1       2.850   1.480  -3.974  1.00  0.00    -0.463 OA
BRANCH  74  75
ATOM     75  C   UNL     1       4.156   1.617  -4.310  1.00  0.00     0.309 C 
ATOM     76  O   UNL     1       4.853   2.591  -4.047  1.00  0.00    -0.252 OA
BRANCH  75  77
ATOM     77  C   UNL     1       4.698   0.366  -4.957  1.00  0.00     0.104 C 
ATOM     78  C   UNL     1       5.249   0.681  -6.362  1.00  0.00     0.022 C 
ATOM     79  C   UNL     1       3.697  -0.820  -5.025  1.00  0.00     0.054 C 
ATOM     80  C   UNL     1       6.068  -0.500  -6.923  1.00  0.00     0.057 C 
ATOM     81  C   UNL     1       4.360  -1.960  -5.701  1.00  0.00    -0.006 A 
ATOM     82  C   UNL     1       5.407  -1.784  -6.575  1.00  0.00     0.038 A 
ATOM     83  C   UNL     1       4.179  -3.350  -5.634  1.00  0.00     0.138 A 
ATOM     84  N   UNL     1       5.757  -3.026  -7.009  1.00  0.00    -0.282 N 
ATOM     85  N   UNL     1       5.032  -4.003  -6.431  1.00  0.00    -0.184 NA
ATOM     86  H   UNL     1       6.465  -3.192  -7.673  1.00  0.00     0.190 HD
ENDBRANCH  75  77
ENDBRANCH  74  75
ENDBRANCH  73  74
ENDBRANCH  72  73
ENDBRANCH  71  72
ENDBRANCH   1  71
TORSDOF 14
