REMARK SMILES Cn1cc(S[C@@H]2CCC[C@]([NH2+]C3CC3)(C(=O)OCCOCCOC(=O)c3ccc(-c4c5nc(c(-c6c(F)c(F)c(F)c(F)c6F)c6ccc([nH]6)c(-c6c(F)c(F)c(F)c(F)c6F)c6nc(c(-c7c(F)c(F)c(F)c(F)c7F)c7ccc4[nH]7)C=C6)C=C5)cc3)C2)cn1
REMARK SMILES IDX 20 1 19 2 18 3 17 4 15 5 16 6 10 7 6 8 7 9 89 10 8 11 9 12
REMARK SMILES IDX 5 13 4 14 1 15 2 16 3 17 91 18 90 19 11 20 12 23 13 24 14 25
REMARK SMILES IDX 21 26 22 27 23 28 24 29 25 30 26 31 27 32 88 33 28 34 87 35
REMARK SMILES IDX 29 36 30 37 31 38 81 39 32 40 86 41 80 42 82 43 33 44 85 45
REMARK SMILES IDX 79 46 78 47 34 49 66 50 46 51 65 52 47 53 50 54 64 55 83 56
REMARK SMILES IDX 48 57 49 58 63 60 84 61 51 62 35 63 36 64 44 65 37 66 38 67
REMARK SMILES IDX 42 68 45 69 39 70 40 71 43 72 41 73 67 74 68 75 76 76 69 77
REMARK SMILES IDX 70 78 74 79 77 80 71 81 72 82 75 83 73 84 52 85 53 86 61 87
REMARK SMILES IDX 54 88 55 89 59 90 62 91 56 92 57 93 60 94 58 95
REMARK H PARENT 11 21 11 22 82 48 50 59
REMARK Flexibility Score: inf
ROOT
ATOM      1  O   UNL     1      -0.827  -7.910   3.472  1.00  0.00    -0.374 OA
ENDROOT
BRANCH   1   2
ATOM      2  C   UNL     1      -0.646  -6.749   4.281  1.00  0.00     0.202 C 
BRANCH   2   3
ATOM      3  C   UNL     1       0.735  -6.086   4.269  1.00  0.00     0.261 C 
BRANCH   3   4
ATOM      4  O   UNL     1       1.052  -5.450   3.012  1.00  0.00    -0.459 OA
BRANCH   4   5
ATOM      5  C   UNL     1       1.981  -6.110   2.266  1.00  0.00     0.368 C 
ATOM      6  O   UNL     1       2.433  -7.213   2.573  1.00  0.00    -0.245 OA
BRANCH   5   7
ATOM      7  C   UNL     1       2.341  -5.405   0.903  1.00  0.00     0.195 C 
ATOM      8  C   UNL     1       2.581  -3.124  -0.261  1.00  0.00     0.058 C 
ATOM      9  C   UNL     1       1.531  -3.505  -1.314  1.00  0.00     0.015 C 
ATOM     10  C   UNL     1       2.445  -3.873   1.074  1.00  0.00     0.096 C 
ATOM     11  C   UNL     1       1.286  -5.010  -1.436  1.00  0.00     0.008 C 
ATOM     12  C   UNL     1       1.197  -5.716  -0.088  1.00  0.00     0.081 C 
BRANCH   8  13
ATOM     13  S   UNL     1       2.828  -1.336   0.019  1.00  0.00    -0.119 SA
BRANCH  13  14
ATOM     14  C   UNL     1       1.282  -0.553   0.072  1.00  0.00     0.046 A 
ATOM     15  C   UNL     1      -2.263   0.032   0.130  1.00  0.00     0.173 C 
ATOM     16  N   UNL     1      -0.821   0.045   0.143  1.00  0.00    -0.275 N 
ATOM     17  C   UNL     1       0.016  -1.023   0.322  1.00  0.00     0.123 A 
ATOM     18  N   UNL     1      -0.175   1.201  -0.086  1.00  0.00    -0.181 NA
ATOM     19  C   UNL     1       1.109   0.833  -0.128  1.00  0.00     0.150 A 
ENDBRANCH  13  14
ENDBRANCH   8  13
BRANCH   7  20
ATOM     20  N   UNL     1       3.615  -6.068   0.547  1.00  0.00    -0.330 N 
ATOM     21  H   UNL     1       3.379  -7.050   0.401  1.00  0.00     0.347 HD
ATOM     22  H   UNL     1       4.202  -5.764   1.324  1.00  0.00     0.347 HD
BRANCH  20  23
ATOM     23  C   UNL     1       4.458  -5.707  -0.568  1.00  0.00     0.183 C 
ATOM     24  C   UNL     1       5.741  -4.973  -0.298  1.00  0.00     0.071 C 
ATOM     25  C   UNL     1       5.781  -6.419  -0.684  1.00  0.00     0.071 C 
ENDBRANCH  20  23
ENDBRANCH   7  20
ENDBRANCH   5   7
ENDBRANCH   4   5
ENDBRANCH   3   4
ENDBRANCH   2   3
ENDBRANCH   1   2
BRANCH   1  26
ATOM     26  C   UNL     1      -0.987  -7.706   2.071  1.00  0.00     0.202 C 
BRANCH  26  27
ATOM     27  C   UNL     1      -2.381  -7.281   1.594  1.00  0.00     0.261 C 
BRANCH  27  28
ATOM     28  O   UNL     1      -2.778  -6.014   2.150  1.00  0.00    -0.460 OA
BRANCH  28  29
ATOM     29  C   UNL     1      -3.760  -6.096   3.077  1.00  0.00     0.338 C 
ATOM     30  O   UNL     1      -4.412  -7.086   3.384  1.00  0.00    -0.246 OA
BRANCH  29  31
ATOM     31  C   UNL     1      -3.856  -4.836   3.836  1.00  0.00     0.060 A 
ATOM     32  C   UNL     1      -3.829  -4.928   5.234  1.00  0.00     0.016 A 
ATOM     33  C   UNL     1      -4.051  -3.604   3.208  1.00  0.00     0.016 A 
ATOM     34  C   UNL     1      -4.063  -3.799   6.012  1.00  0.00     0.010 A 
ATOM     35  C   UNL     1      -4.296  -2.471   3.992  1.00  0.00     0.010 A 
ATOM     36  C   UNL     1      -4.347  -2.574   5.395  1.00  0.00    -0.014 A 
BRANCH  36  37
ATOM     37  C   UNL     1      -4.880  -1.458   6.214  1.00  0.00     0.031 A 
ATOM     38  C   UNL     1      -6.368  -1.241   6.257  1.00  0.00     0.074 A 
ATOM     39  C   UNL     1      -4.062  -0.681   6.944  1.00  0.00     0.049 A 
ATOM     40  N   UNL     1      -7.058  -0.316   6.875  1.00  0.00    -0.248 NA
ATOM     41  C   UNL     1      -7.190  -2.199   5.499  1.00  0.00     0.031 C 
ATOM     42  C   UNL     1      -2.610  -0.824   7.025  1.00  0.00     0.029 A 
ATOM     43  N   UNL     1      -4.342   0.389   7.756  1.00  0.00    -0.354 N 
ATOM     44  C   UNL     1      -8.389  -0.576   6.575  1.00  0.00     0.074 A 
ATOM     45  C   UNL     1      -8.412  -1.726   5.699  1.00  0.00     0.031 C 
ATOM     46  C   UNL     1      -2.124   0.133   7.834  1.00  0.00     0.029 A 
ATOM     47  C   UNL     1      -3.226   0.971   8.303  1.00  0.00     0.049 A 
ATOM     48  H   UNL     1      -5.257   0.709   7.930  1.00  0.00     0.167 HD
ATOM     49  C   UNL     1      -9.493   0.081   7.001  1.00  0.00     0.037 A 
ATOM     50  C   UNL     1      -3.110   2.069   9.076  1.00  0.00     0.037 A 
ATOM     51  C   UNL     1      -9.471   1.220   7.881  1.00  0.00     0.049 A 
ATOM     52  C   UNL     1      -4.350   2.823   9.480  1.00  0.00     0.074 A 
ATOM     53  C   UNL     1     -10.537   1.946   8.380  1.00  0.00     0.029 A 
ATOM     54  N   UNL     1      -8.318   1.798   8.389  1.00  0.00    -0.354 N 
ATOM     55  N   UNL     1      -5.606   2.563   9.206  1.00  0.00    -0.248 NA
ATOM     56  C   UNL     1      -4.156   4.025  10.305  1.00  0.00     0.031 C 
ATOM     57  C   UNL     1     -10.027   2.993   9.155  1.00  0.00     0.029 A 
ATOM     58  C   UNL     1      -8.646   2.888   9.179  1.00  0.00     0.049 A 
ATOM     59  H   UNL     1      -7.402   1.482   8.215  1.00  0.00     0.167 HD
ATOM     60  C   UNL     1      -6.350   3.546   9.847  1.00  0.00     0.074 A 
ATOM     61  C   UNL     1      -5.406   4.403  10.533  1.00  0.00     0.031 C 
ATOM     62  C   UNL     1      -7.694   3.722   9.866  1.00  0.00     0.037 A 
BRANCH  49  63
ATOM     63  C   UNL     1     -10.823  -0.401   6.501  1.00  0.00     0.064 A 
ATOM     64  C   UNL     1     -11.392  -1.599   6.957  1.00  0.00     0.173 A 
ATOM     65  C   UNL     1     -11.553   0.365   5.580  1.00  0.00     0.173 A 
ATOM     66  F   UNL     1     -10.726  -2.375   7.825  1.00  0.00    -0.203 F 
ATOM     67  C   UNL     1     -12.634  -2.023   6.493  1.00  0.00     0.198 A 
ATOM     68  C   UNL     1     -12.806  -0.049   5.138  1.00  0.00     0.198 A 
ATOM     69  F   UNL     1     -11.053   1.519   5.114  1.00  0.00    -0.203 F 
ATOM     70  F   UNL     1     -13.140  -3.192   6.909  1.00  0.00    -0.200 F 
ATOM     71  C   UNL     1     -13.344  -1.245   5.590  1.00  0.00     0.200 A 
ATOM     72  F   UNL     1     -13.494   0.709   4.273  1.00  0.00    -0.200 F 
ATOM     73  F   UNL     1     -14.542  -1.651   5.149  1.00  0.00    -0.200 F 
ENDBRANCH  49  63
BRANCH  50  74
ATOM     74  C   UNL     1      -1.766   2.535   9.508  1.00  0.00     0.064 A 
ATOM     75  C   UNL     1      -1.377   2.476  10.853  1.00  0.00     0.173 A 
ATOM     76  C   UNL     1      -0.855   3.073   8.588  1.00  0.00     0.173 A 
ATOM     77  F   UNL     1      -2.224   1.995  11.775  1.00  0.00    -0.203 F 
ATOM     78  C   UNL     1      -0.135   2.955  11.264  1.00  0.00     0.198 A 
ATOM     79  C   UNL     1       0.398   3.526   8.995  1.00  0.00     0.198 A 
ATOM     80  F   UNL     1      -1.181   3.155   7.290  1.00  0.00    -0.203 F 
ATOM     81  F   UNL     1       0.194   2.932  12.563  1.00  0.00    -0.200 F 
ATOM     82  C   UNL     1       0.754   3.475  10.335  1.00  0.00     0.200 A 
ATOM     83  F   UNL     1       1.256   4.019   8.092  1.00  0.00    -0.200 F 
ATOM     84  F   UNL     1       1.948   3.936  10.730  1.00  0.00    -0.200 F 
ENDBRANCH  50  74
BRANCH  62  85
ATOM     85  C   UNL     1      -8.231   4.858  10.688  1.00  0.00     0.064 A 
ATOM     86  C   UNL     1      -8.094   6.192  10.278  1.00  0.00     0.173 A 
ATOM     87  C   UNL     1      -8.933   4.603  11.876  1.00  0.00     0.173 A 
ATOM     88  F   UNL     1      -7.420   6.489   9.157  1.00  0.00    -0.203 F 
ATOM     89  C   UNL     1      -8.622   7.231  11.040  1.00  0.00     0.198 A 
ATOM     90  C   UNL     1      -9.484   5.642  12.620  1.00  0.00     0.198 A 
ATOM     91  F   UNL     1      -9.098   3.343  12.306  1.00  0.00    -0.203 F 
ATOM     92  F   UNL     1      -8.444   8.502  10.652  1.00  0.00    -0.200 F 
ATOM     93  C   UNL     1      -9.322   6.955  12.206  1.00  0.00     0.200 A 
ATOM     94  F   UNL     1     -10.172   5.372  13.738  1.00  0.00    -0.200 F 
ATOM     95  F   UNL     1      -9.837   7.957  12.933  1.00  0.00    -0.200 F 
ENDBRANCH  62  85
ENDBRANCH  36  37
ENDBRANCH  29  31
ENDBRANCH  28  29
ENDBRANCH  27  28
ENDBRANCH  26  27
ENDBRANCH   1  26
TORSDOF 18
