REMARK SMILES C[N@@H+]1CCN(C(=O)c2cc(-n3cccn3)ccc2Cl)C[C@H]1C(=O)OCCOCCOC(=O)c1ccc(-c2c3nc(c(-c4c(F)c(F)c(F)c(F)c4F)c4ccc([nH]4)c(-c4c(F)c(F)c(F)c(F)c4F)c4nc(c(-c5c(F)c(F)c(F)c(F)c5F)c5ccc2[nH]5)C=C4)C=C3)cc1
REMARK SMILES IDX 26 1 25 2 24 3 22 4 23 5 21 6 1 7 2 8 3 9 4 11 20 12 5 13
REMARK SMILES IDX 6 14 7 15 8 16 9 17 18 18 10 19 17 20 19 21 16 22 11 23
REMARK SMILES IDX 12 24 15 25 13 26 14 27 27 28 28 29 29 30 30 31 31 32 32 33
REMARK SMILES IDX 33 34 34 35 95 36 35 37 94 38 36 39 37 40 38 41 88 42 39 43
REMARK SMILES IDX 93 44 87 45 89 46 40 47 92 48 86 49 85 50 41 52 73 53 53 54
REMARK SMILES IDX 72 55 54 56 57 57 71 58 90 59 55 60 56 61 70 63 91 64 58 65
REMARK SMILES IDX 42 66 43 67 51 68 44 69 45 70 49 71 52 72 46 73 47 74 50 75
REMARK SMILES IDX 48 76 74 77 75 78 83 79 76 80 77 81 81 82 84 83 78 84 79 85
REMARK SMILES IDX 82 86 80 87 59 88 60 89 68 90 61 91 62 92 66 93 69 94 63 95
REMARK SMILES IDX 64 96 67 97 65 98
REMARK H PARENT 2 10 89 51 57 62
REMARK Flexibility Score: inf
ROOT
ATOM      1  C   UNL     1       2.825  -4.347  -1.475  1.00  0.00     0.202 C 
ENDROOT
BRANCH   1   2
ATOM      2  C   UNL     1       1.353  -4.012  -1.714  1.00  0.00     0.261 C 
BRANCH   2   3
ATOM      3  O   UNL     1       1.027  -2.643  -1.404  1.00  0.00    -0.459 OA
BRANCH   3   4
ATOM      4  C   UNL     1       0.399  -2.486  -0.212  1.00  0.00     0.366 C 
ATOM      5  O   UNL     1       0.172  -3.409   0.570  1.00  0.00    -0.245 OA
BRANCH   4   6
ATOM      6  C   UNL     1      -0.118  -1.094   0.081  1.00  0.00     0.314 C 
ATOM      7  C   UNL     1       1.981   0.184  -0.119  1.00  0.00     0.333 C 
ATOM      8  N   UNL     1       0.573   0.114  -0.486  1.00  0.00    -0.323 N 
ATOM      9  C   UNL     1      -0.123   1.313   0.079  1.00  0.00     0.284 C 
ATOM     10  H   UNL     1       0.530   0.069  -1.504  1.00  0.00     0.348 HD
ATOM     11  C   UNL     1      -1.640   1.337  -0.218  1.00  0.00     0.181 C 
ATOM     12  C   UNL     1      -1.574  -1.109  -0.403  1.00  0.00     0.197 C 
ATOM     13  N   UNL     1      -2.273   0.062   0.121  1.00  0.00    -0.326 N 
BRANCH  13  14
ATOM     14  C   UNL     1      -3.404   0.025   0.918  1.00  0.00     0.255 C 
ATOM     15  O   UNL     1      -3.996   1.022   1.321  1.00  0.00    -0.269 OA
BRANCH  14  16
ATOM     16  C   UNL     1      -3.958  -1.292   1.280  1.00  0.00     0.060 A 
ATOM     17  C   UNL     1      -5.118  -1.706   0.614  1.00  0.00     0.043 A 
ATOM     18  C   UNL     1      -3.386  -2.090   2.280  1.00  0.00     0.053 A 
ATOM     19  C   UNL     1      -5.733  -2.901   1.000  1.00  0.00     0.065 A 
ATOM     20  C   UNL     1      -3.959  -3.325   2.591  1.00  0.00     0.023 A 
ATOM     21  Cl  UNL     1      -1.994  -1.606   3.178  1.00  0.00    -0.083 Cl
ATOM     22  C   UNL     1      -5.148  -3.721   1.974  1.00  0.00     0.030 A 
BRANCH  19  23
ATOM     23  N   UNL     1      -6.981  -3.252   0.437  1.00  0.00    -0.241 N 
ATOM     24  C   UNL     1      -8.011  -3.907   1.074  1.00  0.00     0.115 A 
ATOM     25  N   UNL     1      -7.306  -2.919  -0.834  1.00  0.00    -0.177 NA
ATOM     26  C   UNL     1      -9.027  -4.035   0.158  1.00  0.00     0.042 A 
ATOM     27  C   UNL     1      -8.518  -3.451  -1.012  1.00  0.00     0.135 A 
ENDBRANCH  19  23
ENDBRANCH  14  16
ENDBRANCH  13  14
ENDBRANCH   4   6
ENDBRANCH   3   4
ENDBRANCH   2   3
ENDBRANCH   1   2
BRANCH   1  28
ATOM     28  O   UNL     1       3.288  -4.335  -0.128  1.00  0.00    -0.374 OA
BRANCH  28  29
ATOM     29  C   UNL     1       3.569  -3.085   0.493  1.00  0.00     0.202 C 
BRANCH  29  30
ATOM     30  C   UNL     1       4.810  -2.344   0.008  1.00  0.00     0.261 C 
BRANCH  30  31
ATOM     31  O   UNL     1       4.571  -1.711  -1.250  1.00  0.00    -0.460 OA
BRANCH  31  32
ATOM     32  C   UNL     1       5.180  -2.267  -2.322  1.00  0.00     0.338 C 
ATOM     33  O   UNL     1       5.807  -3.301  -2.358  1.00  0.00    -0.246 OA
BRANCH  32  34
ATOM     34  C   UNL     1       5.071  -1.319  -3.444  1.00  0.00     0.060 A 
ATOM     35  C   UNL     1       5.953  -1.537  -4.497  1.00  0.00     0.016 A 
ATOM     36  C   UNL     1       4.319  -0.136  -3.348  1.00  0.00     0.016 A 
ATOM     37  C   UNL     1       6.271  -0.468  -5.302  1.00  0.00     0.010 A 
ATOM     38  C   UNL     1       4.631   0.933  -4.163  1.00  0.00     0.010 A 
ATOM     39  C   UNL     1       5.674   0.782  -5.064  1.00  0.00    -0.014 A 
BRANCH  39  40
ATOM     40  C   UNL     1       6.118   1.883  -5.895  1.00  0.00     0.031 A 
ATOM     41  C   UNL     1       5.799   1.648  -7.318  1.00  0.00     0.074 A 
ATOM     42  C   UNL     1       6.783   2.962  -5.438  1.00  0.00     0.049 A 
ATOM     43  N   UNL     1       6.629   1.280  -8.234  1.00  0.00    -0.248 NA
ATOM     44  C   UNL     1       4.387   1.590  -7.720  1.00  0.00     0.031 C 
ATOM     45  C   UNL     1       6.960   3.413  -4.056  1.00  0.00     0.029 A 
ATOM     46  N   UNL     1       7.415   3.931  -6.160  1.00  0.00    -0.354 N 
ATOM     47  C   UNL     1       5.872   1.123  -9.387  1.00  0.00     0.074 A 
ATOM     48  C   UNL     1       4.492   1.167  -8.981  1.00  0.00     0.031 C 
ATOM     49  C   UNL     1       7.452   4.676  -4.057  1.00  0.00     0.029 A 
ATOM     50  C   UNL     1       7.769   5.056  -5.423  1.00  0.00     0.049 A 
ATOM     51  H   UNL     1       7.605   3.842  -7.121  1.00  0.00     0.167 HD
ATOM     52  C   UNL     1       6.463   1.244 -10.604  1.00  0.00     0.037 A 
ATOM     53  C   UNL     1       8.250   6.220  -5.928  1.00  0.00     0.037 A 
ATOM     54  C   UNL     1       7.896   1.136 -10.492  1.00  0.00     0.049 A 
ATOM     55  C   UNL     1       8.849   5.904  -7.246  1.00  0.00     0.074 A 
ATOM     56  C   UNL     1       8.804   0.132 -10.239  1.00  0.00     0.029 A 
ATOM     57  N   UNL     1       8.529   2.325 -10.243  1.00  0.00    -0.354 N 
ATOM     58  N   UNL     1       9.926   5.183  -7.394  1.00  0.00    -0.248 NA
ATOM     59  C   UNL     1       8.031   6.057  -8.440  1.00  0.00     0.031 C 
ATOM     60  C   UNL     1       9.897   0.759  -9.566  1.00  0.00     0.029 A 
ATOM     61  C   UNL     1       9.644   2.129  -9.478  1.00  0.00     0.049 A 
ATOM     62  H   UNL     1       8.223   3.201 -10.571  1.00  0.00     0.167 HD
ATOM     63  C   UNL     1       9.693   4.442  -8.539  1.00  0.00     0.074 A 
ATOM     64  C   UNL     1       8.600   5.132  -9.218  1.00  0.00     0.031 C 
ATOM     65  C   UNL     1      10.208   3.183  -8.662  1.00  0.00     0.037 A 
BRANCH  52  66
ATOM     66  C   UNL     1       5.822   1.971 -11.764  1.00  0.00     0.064 A 
ATOM     67  C   UNL     1       6.475   1.976 -13.012  1.00  0.00     0.173 A 
ATOM     68  C   UNL     1       4.789   2.924 -11.613  1.00  0.00     0.173 A 
ATOM     69  F   UNL     1       7.498   1.141 -13.249  1.00  0.00    -0.203 F 
ATOM     70  C   UNL     1       6.156   2.905 -14.007  1.00  0.00     0.198 A 
ATOM     71  C   UNL     1       4.440   3.813 -12.626  1.00  0.00     0.198 A 
ATOM     72  F   UNL     1       4.162   3.120 -10.448  1.00  0.00    -0.203 F 
ATOM     73  F   UNL     1       6.883   2.952 -15.132  1.00  0.00    -0.200 F 
ATOM     74  C   UNL     1       5.141   3.824 -13.812  1.00  0.00     0.200 A 
ATOM     75  F   UNL     1       3.475   4.717 -12.403  1.00  0.00    -0.200 F 
ATOM     76  F   UNL     1       4.871   4.751 -14.740  1.00  0.00    -0.200 F 
ENDBRANCH  52  66
BRANCH  53  77
ATOM     77  C   UNL     1       7.893   7.609  -5.543  1.00  0.00     0.064 A 
ATOM     78  C   UNL     1       8.640   8.707  -6.006  1.00  0.00     0.173 A 
ATOM     79  C   UNL     1       6.637   7.903  -4.980  1.00  0.00     0.173 A 
ATOM     80  F   UNL     1       9.826   8.513  -6.602  1.00  0.00    -0.203 F 
ATOM     81  C   UNL     1       8.145  10.015  -5.941  1.00  0.00     0.198 A 
ATOM     82  C   UNL     1       6.144   9.209  -4.913  1.00  0.00     0.198 A 
ATOM     83  F   UNL     1       5.818   6.921  -4.578  1.00  0.00    -0.203 F 
ATOM     84  F   UNL     1       8.856  11.028  -6.456  1.00  0.00    -0.200 F 
ATOM     85  C   UNL     1       6.891  10.262  -5.406  1.00  0.00     0.200 A 
ATOM     86  F   UNL     1       4.912   9.429  -4.433  1.00  0.00    -0.200 F 
ATOM     87  F   UNL     1       6.386  11.504  -5.406  1.00  0.00    -0.200 F 
ENDBRANCH  53  77
BRANCH  65  88
ATOM     88  C   UNL     1      11.359   2.823  -7.767  1.00  0.00     0.064 A 
ATOM     89  C   UNL     1      11.288   2.725  -6.367  1.00  0.00     0.173 A 
ATOM     90  C   UNL     1      12.571   2.476  -8.378  1.00  0.00     0.173 A 
ATOM     91  F   UNL     1      10.141   2.961  -5.714  1.00  0.00    -0.203 F 
ATOM     92  C   UNL     1      12.398   2.337  -5.617  1.00  0.00     0.198 A 
ATOM     93  C   UNL     1      13.664   2.050  -7.631  1.00  0.00     0.198 A 
ATOM     94  F   UNL     1      12.683   2.511  -9.716  1.00  0.00    -0.203 F 
ATOM     95  F   UNL     1      12.317   2.270  -4.279  1.00  0.00    -0.200 F 
ATOM     96  C   UNL     1      13.582   1.992  -6.250  1.00  0.00     0.200 A 
ATOM     97  F   UNL     1      14.790   1.676  -8.254  1.00  0.00    -0.200 F 
ATOM     98  F   UNL     1      14.638   1.584  -5.533  1.00  0.00    -0.200 F 
ENDBRANCH  65  88
ENDBRANCH  39  40
ENDBRANCH  32  34
ENDBRANCH  31  32
ENDBRANCH  30  31
ENDBRANCH  29  30
ENDBRANCH  28  29
ENDBRANCH   1  28
TORSDOF 17
