REMARK SMILES CS(=O)(=O)c1ccc(C2=NN(c3ccc(C(=O)OCCOCCOC(=O)c4ccc(-c5c6nc(c(-c7c(F)c(F)c(F)c(F)c7F)c7ccc([nH]7)c(-c7c(F)c(F)c(F)c(F)c7F)c7nc(c(-c8c(F)c(F)c(F)c(F)c8F)c8ccc5[nH]8)C=C7)C=C6)cc4)cc3)[C@H](c3ccccc3)C2)cc1
REMARK SMILES IDX 20 1 19 2 18 3 16 4 17 5 15 6 12 7 13 8 91 9 14 10 90 11
REMARK SMILES IDX 11 12 9 13 10 14 99 15 92 16 8 17 5 18 6 19 101 20 7 21
REMARK SMILES IDX 100 22 2 23 1 24 3 25 4 26 93 27 94 28 98 29 95 30 97 31
REMARK SMILES IDX 96 32 21 33 22 34 23 35 24 36 25 37 26 38 27 39 28 40 89 41
REMARK SMILES IDX 29 42 88 43 30 44 31 45 32 46 82 47 33 48 87 49 81 50 83 51
REMARK SMILES IDX 34 52 86 53 80 54 79 55 35 57 67 58 47 59 66 60 48 61 51 62
REMARK SMILES IDX 65 63 84 64 49 65 50 66 64 68 85 69 52 70 36 71 37 72 45 73
REMARK SMILES IDX 38 74 39 75 43 76 46 77 40 78 41 79 44 80 42 81 68 82 69 83
REMARK SMILES IDX 77 84 70 85 71 86 75 87 78 88 72 89 73 90 76 91 74 92 53 93
REMARK SMILES IDX 54 94 62 95 55 96 56 97 60 98 63 99 57 100 58 101 61 102
REMARK SMILES IDX 59 103
REMARK H PARENT 83 56 51 67
REMARK Flexibility Score: inf
ROOT
ATOM      1  C   UNL     1       9.278  -6.219  11.624  1.00  0.00     0.202 C 
ENDROOT
BRANCH   1   2
ATOM      2  C   UNL     1       8.602  -5.190  12.534  1.00  0.00     0.261 C 
BRANCH   2   3
ATOM      3  O   UNL     1       7.353  -4.762  11.967  1.00  0.00    -0.460 OA
BRANCH   3   4
ATOM      4  C   UNL     1       7.289  -3.455  11.620  1.00  0.00     0.338 C 
ATOM      5  O   UNL     1       8.107  -2.587  11.899  1.00  0.00    -0.246 OA
BRANCH   4   6
ATOM      6  C   UNL     1       6.133  -3.211  10.724  1.00  0.00     0.060 A 
ATOM      7  C   UNL     1       3.942  -2.547   9.093  1.00  0.00     0.060 A 
ATOM      8  C   UNL     1       5.109  -1.775   9.060  1.00  0.00     0.029 A 
ATOM      9  C   UNL     1       3.926  -3.711   9.876  1.00  0.00     0.029 A 
ATOM     10  C   UNL     1       6.193  -2.096   9.877  1.00  0.00     0.018 A 
ATOM     11  C   UNL     1       5.010  -4.044  10.693  1.00  0.00     0.018 A 
BRANCH   7  12
ATOM     12  N   UNL     1       2.760  -2.103   8.478  1.00  0.00    -0.257 N 
ATOM     13  C   UNL     1       1.968  -0.842   6.941  1.00  0.00     0.071 C 
ATOM     14  N   UNL     1       2.784  -1.829   7.141  1.00  0.00    -0.176 NA
ATOM     15  C   UNL     1       1.340  -0.243   8.166  1.00  0.00     0.091 C 
ATOM     16  C   UNL     1       1.952  -1.135   9.251  1.00  0.00     0.144 C 
BRANCH  13  17
ATOM     17  C   UNL     1       1.633  -0.343   5.596  1.00  0.00    -0.002 A 
ATOM     18  C   UNL     1       0.878   0.515   3.057  1.00  0.00     0.067 A 
ATOM     19  C   UNL     1       0.956  -0.854   3.326  1.00  0.00     0.021 A 
ATOM     20  C   UNL     1       1.190   1.456   4.046  1.00  0.00     0.021 A 
ATOM     21  C   UNL     1       1.352  -1.281   4.595  1.00  0.00     0.011 A 
ATOM     22  C   UNL     1       1.557   1.026   5.325  1.00  0.00     0.011 A 
BRANCH  18  23
ATOM     23  S   UNL     1       0.357   1.089   1.455  1.00  0.00     0.175 S 
ATOM     24  C   UNL     1       1.124   0.011   0.275  1.00  0.00     0.163 C 
ATOM     25  O   UNL     1       0.937   2.405   1.267  1.00  0.00    -0.224 OA
ATOM     26  O   UNL     1      -1.077   0.885   1.395  1.00  0.00    -0.224 OA
ENDBRANCH  18  23
ENDBRANCH  13  17
BRANCH  16  27
ATOM     27  C   UNL     1       1.007  -1.855  10.203  1.00  0.00    -0.023 A 
ATOM     28  C   UNL     1      -0.296  -2.240   9.862  1.00  0.00     0.006 A 
ATOM     29  C   UNL     1       1.490  -2.223  11.475  1.00  0.00     0.006 A 
ATOM     30  C   UNL     1      -1.088  -2.961  10.763  1.00  0.00     0.000 A 
ATOM     31  C   UNL     1       0.714  -2.974  12.359  1.00  0.00     0.000 A 
ATOM     32  C   UNL     1      -0.579  -3.339  12.004  1.00  0.00     0.000 A 
ENDBRANCH  16  27
ENDBRANCH   7  12
ENDBRANCH   4   6
ENDBRANCH   3   4
ENDBRANCH   2   3
ENDBRANCH   1   2
BRANCH   1  33
ATOM     33  O   UNL     1       9.753  -5.726  10.371  1.00  0.00    -0.374 OA
BRANCH  33  34
ATOM     34  C   UNL     1       8.789  -5.535   9.335  1.00  0.00     0.202 C 
BRANCH  34  35
ATOM     35  C   UNL     1       8.384  -6.787   8.549  1.00  0.00     0.261 C 
BRANCH  35  36
ATOM     36  O   UNL     1       7.733  -7.762   9.383  1.00  0.00    -0.460 OA
BRANCH  36  37
ATOM     37  C   UNL     1       8.484  -8.852   9.656  1.00  0.00     0.338 C 
ATOM     38  O   UNL     1       9.588  -9.124   9.203  1.00  0.00    -0.246 OA
BRANCH  37  39
ATOM     39  C   UNL     1       7.864  -9.661  10.723  1.00  0.00     0.060 A 
ATOM     40  C   UNL     1       8.701 -10.089  11.760  1.00  0.00     0.016 A 
ATOM     41  C   UNL     1       6.536 -10.089  10.660  1.00  0.00     0.016 A 
ATOM     42  C   UNL     1       8.242 -11.020  12.687  1.00  0.00     0.010 A 
ATOM     43  C   UNL     1       6.075 -11.027  11.592  1.00  0.00     0.010 A 
ATOM     44  C   UNL     1       6.945 -11.538  12.573  1.00  0.00    -0.014 A 
BRANCH  44  45
ATOM     45  C   UNL     1       6.598 -12.755  13.348  1.00  0.00     0.031 A 
ATOM     46  C   UNL     1       6.691 -14.096  12.667  1.00  0.00     0.074 A 
ATOM     47  C   UNL     1       6.294 -12.683  14.656  1.00  0.00     0.049 A 
ATOM     48  N   UNL     1       6.479 -15.294  13.152  1.00  0.00    -0.248 NA
ATOM     49  C   UNL     1       7.080 -14.084  11.247  1.00  0.00     0.031 C 
ATOM     50  C   UNL     1       6.210 -11.451  15.438  1.00  0.00     0.029 A 
ATOM     51  N   UNL     1       6.008 -13.676  15.559  1.00  0.00    -0.354 N 
ATOM     52  C   UNL     1       6.717 -16.173  12.102  1.00  0.00     0.074 A 
ATOM     53  C   UNL     1       7.046 -15.373  10.943  1.00  0.00     0.031 C 
ATOM     54  C   UNL     1       5.887 -11.761  16.706  1.00  0.00     0.029 A 
ATOM     55  C   UNL     1       5.725 -13.210  16.819  1.00  0.00     0.049 A 
ATOM     56  H   UNL     1       6.005 -14.633  15.325  1.00  0.00     0.167 HD
ATOM     57  C   UNL     1       6.686 -17.527  12.108  1.00  0.00     0.037 A 
ATOM     58  C   UNL     1       5.369 -13.880  17.932  1.00  0.00     0.037 A 
ATOM     59  C   UNL     1       6.360 -18.327  13.258  1.00  0.00     0.049 A 
ATOM     60  C   UNL     1       5.288 -15.386  17.895  1.00  0.00     0.074 A 
ATOM     61  C   UNL     1       6.282 -19.705  13.359  1.00  0.00     0.029 A 
ATOM     62  N   UNL     1       6.061 -17.816  14.511  1.00  0.00    -0.354 N 
ATOM     63  N   UNL     1       5.528 -16.207  16.902  1.00  0.00    -0.248 NA
ATOM     64  C   UNL     1       4.900 -16.058  19.144  1.00  0.00     0.031 C 
ATOM     65  C   UNL     1       5.903 -20.027  14.666  1.00  0.00     0.029 A 
ATOM     66  C   UNL     1       5.790 -18.852  15.391  1.00  0.00     0.049 A 
ATOM     67  H   UNL     1       6.044 -16.859  14.742  1.00  0.00     0.167 HD
ATOM     68  C   UNL     1       5.351 -17.487  17.412  1.00  0.00     0.074 A 
ATOM     69  C   UNL     1       5.003 -17.335  18.808  1.00  0.00     0.031 C 
ATOM     70  C   UNL     1       5.461 -18.682  16.782  1.00  0.00     0.037 A 
BRANCH  57  71
ATOM     71  C   UNL     1       7.010 -18.232  10.824  1.00  0.00     0.064 A 
ATOM     72  C   UNL     1       8.324 -18.291  10.334  1.00  0.00     0.173 A 
ATOM     73  C   UNL     1       6.008 -18.892  10.099  1.00  0.00     0.173 A 
ATOM     74  F   UNL     1       9.315 -17.661  10.983  1.00  0.00    -0.203 F 
ATOM     75  C   UNL     1       8.618 -18.973   9.156  1.00  0.00     0.198 A 
ATOM     76  C   UNL     1       6.310 -19.595   8.936  1.00  0.00     0.198 A 
ATOM     77  F   UNL     1       4.736 -18.867  10.526  1.00  0.00    -0.203 F 
ATOM     78  F   UNL     1       9.874 -18.986   8.688  1.00  0.00    -0.200 F 
ATOM     79  C   UNL     1       7.614 -19.631   8.463  1.00  0.00     0.200 A 
ATOM     80  F   UNL     1       5.340 -20.239   8.272  1.00  0.00    -0.200 F 
ATOM     81  F   UNL     1       7.901 -20.296   7.336  1.00  0.00    -0.200 F 
ENDBRANCH  57  71
BRANCH  58  82
ATOM     82  C   UNL     1       5.048 -13.141  19.182  1.00  0.00     0.064 A 
ATOM     83  C   UNL     1       5.857 -13.250  20.321  1.00  0.00     0.173 A 
ATOM     84  C   UNL     1       3.891 -12.353  19.277  1.00  0.00     0.173 A 
ATOM     85  F   UNL     1       6.960 -14.013  20.288  1.00  0.00    -0.203 F 
ATOM     86  C   UNL     1       5.505 -12.627  21.517  1.00  0.00     0.198 A 
ATOM     87  C   UNL     1       3.556 -11.705  20.464  1.00  0.00     0.198 A 
ATOM     88  F   UNL     1       3.082 -12.216  18.216  1.00  0.00    -0.203 F 
ATOM     89  F   UNL     1       6.263 -12.801  22.608  1.00  0.00    -0.200 F 
ATOM     90  C   UNL     1       4.357 -11.853  21.586  1.00  0.00     0.200 A 
ATOM     91  F   UNL     1       2.451 -10.951  20.524  1.00  0.00    -0.200 F 
ATOM     92  F   UNL     1       4.013 -11.262  22.739  1.00  0.00    -0.200 F 
ENDBRANCH  58  82
BRANCH  70  93
ATOM     93  C   UNL     1       5.246 -19.918  17.608  1.00  0.00     0.064 A 
ATOM     94  C   UNL     1       3.974 -20.281  18.073  1.00  0.00     0.173 A 
ATOM     95  C   UNL     1       6.325 -20.759  17.919  1.00  0.00     0.173 A 
ATOM     96  F   UNL     1       2.913 -19.503  17.813  1.00  0.00    -0.203 F 
ATOM     97  C   UNL     1       3.796 -21.422  18.851  1.00  0.00     0.198 A 
ATOM     98  C   UNL     1       6.138 -21.916  18.671  1.00  0.00     0.198 A 
ATOM     99  F   UNL     1       7.561 -20.462  17.490  1.00  0.00    -0.203 F 
ATOM    100  F   UNL     1       2.580 -21.718  19.332  1.00  0.00    -0.200 F 
ATOM    101  C   UNL     1       4.876 -22.240  19.145  1.00  0.00     0.200 A 
ATOM    102  F   UNL     1       7.180 -22.713  18.943  1.00  0.00    -0.200 F 
ATOM    103  F   UNL     1       4.702 -23.338  19.894  1.00  0.00    -0.200 F 
ENDBRANCH  70  93
ENDBRANCH  44  45
ENDBRANCH  37  39
ENDBRANCH  36  37
ENDBRANCH  35  36
ENDBRANCH  34  35
ENDBRANCH  33  34
ENDBRANCH   1  33
TORSDOF 18
