REMARK SMILES O=C(OCCOCCOC(=O)c1ccc(NS(=O)(=O)c2ccc3c(c2)CCC3)cc1Cl)c1ccc(-c2c3nc(c(-c4c(F)c(F)c(F)c(F)c4F)c4ccc([nH]4)c(-c4c(F)c(F)c(F)c(F)c4F)c4nc(c(-c5c(F)c(F)c(F)c(F)c5F)c5ccc2[nH]5)C=C4)C=C3)cc1
REMARK SMILES IDX 7 1 6 2 5 3 4 4 3 5 2 6 1 7 32 8 33 9 94 10 34 11 93 12
REMARK SMILES IDX 35 13 36 14 37 15 87 16 38 17 92 18 86 19 88 20 39 21 91 22
REMARK SMILES IDX 85 23 84 24 40 26 72 27 52 28 71 29 53 30 56 31 70 32 89 33
REMARK SMILES IDX 54 34 55 35 69 37 90 38 57 39 41 40 42 41 50 42 43 43 44 44
REMARK SMILES IDX 48 45 51 46 45 47 46 48 49 49 47 50 73 51 74 52 82 53 75 54
REMARK SMILES IDX 76 55 80 56 83 57 77 58 78 59 81 60 79 61 58 62 59 63 67 64
REMARK SMILES IDX 60 65 61 66 65 67 68 68 62 69 63 70 66 71 64 72 8 73 9 74
REMARK SMILES IDX 10 75 11 76 12 77 13 78 30 79 14 80 29 81 31 82 15 83 16 84
REMARK SMILES IDX 17 86 18 87 19 88 20 89 21 90 25 91 22 92 24 93 23 94 26 95
REMARK SMILES IDX 28 96 27 97
REMARK H PARENT 88 25 56 36 16 85
REMARK Flexibility Score: inf
ROOT
ATOM      1  C   UNL     1       2.634  -1.524  -1.883  1.00  0.00     0.202 C 
ENDROOT
BRANCH   1   2
ATOM      2  O   UNL     1       3.982  -1.328  -1.430  1.00  0.00    -0.374 OA
BRANCH   2   3
ATOM      3  C   UNL     1       4.258  -1.860  -0.134  1.00  0.00     0.202 C 
BRANCH   3   4
ATOM      4  C   UNL     1       3.939  -0.889   1.011  1.00  0.00     0.261 C 
BRANCH   4   5
ATOM      5  O   UNL     1       2.560  -0.487   0.969  1.00  0.00    -0.460 OA
BRANCH   5   6
ATOM      6  C   UNL     1       2.030   0.688   0.563  1.00  0.00     0.338 C 
ATOM      7  O   UNL     1       0.822   0.865   0.712  1.00  0.00    -0.246 OA
BRANCH   6   8
ATOM      8  C   UNL     1       2.821   1.795  -0.061  1.00  0.00     0.060 A 
ATOM      9  C   UNL     1       4.034   1.645  -0.738  1.00  0.00     0.016 A 
ATOM     10  C   UNL     1       2.238   3.074  -0.037  1.00  0.00     0.016 A 
ATOM     11  C   UNL     1       4.677   2.724  -1.330  1.00  0.00     0.010 A 
ATOM     12  C   UNL     1       2.859   4.160  -0.658  1.00  0.00     0.010 A 
ATOM     13  C   UNL     1       4.091   3.985  -1.295  1.00  0.00    -0.014 A 
BRANCH  13  14
ATOM     14  C   UNL     1       4.835   5.126  -1.850  1.00  0.00     0.031 A 
ATOM     15  C   UNL     1       5.532   6.044  -0.900  1.00  0.00     0.074 A 
ATOM     16  C   UNL     1       4.938   5.271  -3.181  1.00  0.00     0.049 A 
ATOM     17  N   UNL     1       6.166   7.160  -1.137  1.00  0.00    -0.248 NA
ATOM     18  C   UNL     1       5.519   5.643   0.517  1.00  0.00     0.031 C 
ATOM     19  C   UNL     1       4.382   4.350  -4.173  1.00  0.00     0.029 A 
ATOM     20  N   UNL     1       5.554   6.239  -3.928  1.00  0.00    -0.354 N 
ATOM     21  C   UNL     1       6.599   7.611   0.101  1.00  0.00     0.074 A 
ATOM     22  C   UNL     1       6.160   6.650   1.088  1.00  0.00     0.031 C 
ATOM     23  C   UNL     1       4.684   4.798  -5.402  1.00  0.00     0.029 A 
ATOM     24  C   UNL     1       5.396   6.066  -5.280  1.00  0.00     0.049 A 
ATOM     25  H   UNL     1       6.060   6.985  -3.533  1.00  0.00     0.167 HD
ATOM     26  C   UNL     1       7.290   8.741   0.378  1.00  0.00     0.037 A 
ATOM     27  C   UNL     1       5.754   6.873  -6.295  1.00  0.00     0.037 A 
ATOM     28  C   UNL     1       7.697   9.679  -0.632  1.00  0.00     0.049 A 
ATOM     29  C   UNL     1       6.452   8.164  -5.959  1.00  0.00     0.074 A 
ATOM     30  C   UNL     1       8.342  10.892  -0.483  1.00  0.00     0.029 A 
ATOM     31  N   UNL     1       7.488   9.498  -1.995  1.00  0.00    -0.354 N 
ATOM     32  N   UNL     1       6.804   8.628  -4.782  1.00  0.00    -0.248 NA
ATOM     33  C   UNL     1       6.788   9.049  -7.080  1.00  0.00     0.031 C 
ATOM     34  C   UNL     1       8.486  11.463  -1.753  1.00  0.00     0.029 A 
ATOM     35  C   UNL     1       7.978  10.582  -2.698  1.00  0.00     0.049 A 
ATOM     36  H   UNL     1       7.054   8.712  -2.399  1.00  0.00     0.167 HD
ATOM     37  C   UNL     1       7.420   9.848  -5.019  1.00  0.00     0.074 A 
ATOM     38  C   UNL     1       7.403  10.046  -6.456  1.00  0.00     0.031 C 
ATOM     39  C   UNL     1       7.950  10.728  -4.133  1.00  0.00     0.037 A 
BRANCH  26  40
ATOM     40  C   UNL     1       7.554   9.036   1.824  1.00  0.00     0.064 A 
ATOM     41  C   UNL     1       8.460   8.281   2.585  1.00  0.00     0.173 A 
ATOM     42  C   UNL     1       6.838  10.051   2.476  1.00  0.00     0.173 A 
ATOM     43  F   UNL     1       9.147   7.278   2.017  1.00  0.00    -0.203 F 
ATOM     44  C   UNL     1       8.608   8.505   3.952  1.00  0.00     0.198 A 
ATOM     45  C   UNL     1       7.009  10.291   3.837  1.00  0.00     0.198 A 
ATOM     46  F   UNL     1       5.952  10.796   1.798  1.00  0.00    -0.203 F 
ATOM     47  F   UNL     1       9.424   7.723   4.673  1.00  0.00    -0.200 F 
ATOM     48  C   UNL     1       7.884   9.509   4.577  1.00  0.00     0.200 A 
ATOM     49  F   UNL     1       6.308  11.262   4.438  1.00  0.00    -0.200 F 
ATOM     50  F   UNL     1       8.013   9.711   5.895  1.00  0.00    -0.200 F 
ENDBRANCH  26  40
BRANCH  27  51
ATOM     51  C   UNL     1       5.423   6.499  -7.695  1.00  0.00     0.064 A 
ATOM     52  C   UNL     1       6.425   6.175  -8.619  1.00  0.00     0.173 A 
ATOM     53  C   UNL     1       4.090   6.433  -8.134  1.00  0.00     0.173 A 
ATOM     54  F   UNL     1       7.715   6.242  -8.258  1.00  0.00    -0.203 F 
ATOM     55  C   UNL     1       6.109   5.806  -9.927  1.00  0.00     0.198 A 
ATOM     56  C   UNL     1       3.774   6.037  -9.432  1.00  0.00     0.198 A 
ATOM     57  F   UNL     1       3.090   6.734  -7.292  1.00  0.00    -0.203 F 
ATOM     58  F   UNL     1       7.089   5.534 -10.799  1.00  0.00    -0.200 F 
ATOM     59  C   UNL     1       4.784   5.729 -10.329  1.00  0.00     0.200 A 
ATOM     60  F   UNL     1       2.491   5.950  -9.810  1.00  0.00    -0.200 F 
ATOM     61  F   UNL     1       4.481   5.363 -11.582  1.00  0.00    -0.200 F 
ENDBRANCH  27  51
BRANCH  39  62
ATOM     62  C   UNL     1       8.589  11.959  -4.700  1.00  0.00     0.064 A 
ATOM     63  C   UNL     1       7.823  13.022  -5.197  1.00  0.00     0.173 A 
ATOM     64  C   UNL     1       9.985  12.101  -4.676  1.00  0.00     0.173 A 
ATOM     65  F   UNL     1       6.486  12.923  -5.252  1.00  0.00    -0.203 F 
ATOM     66  C   UNL     1       8.434  14.181  -5.665  1.00  0.00     0.198 A 
ATOM     67  C   UNL     1      10.590  13.271  -5.120  1.00  0.00     0.198 A 
ATOM     68  F   UNL     1      10.757  11.111  -4.202  1.00  0.00    -0.203 F 
ATOM     69  F   UNL     1       7.687  15.174  -6.167  1.00  0.00    -0.200 F 
ATOM     70  C   UNL     1       9.815  14.308  -5.617  1.00  0.00     0.200 A 
ATOM     71  F   UNL     1      11.923  13.398  -5.060  1.00  0.00    -0.200 F 
ATOM     72  F   UNL     1      10.400  15.432  -6.053  1.00  0.00    -0.200 F 
ENDBRANCH  39  62
ENDBRANCH  13  14
ENDBRANCH   6   8
ENDBRANCH   5   6
ENDBRANCH   4   5
ENDBRANCH   3   4
ENDBRANCH   2   3
ENDBRANCH   1   2
BRANCH   1  73
ATOM     73  C   UNL     1       2.645  -2.378  -3.147  1.00  0.00     0.261 C 
BRANCH  73  74
ATOM     74  O   UNL     1       3.218  -3.650  -2.803  1.00  0.00    -0.460 OA
BRANCH  74  75
ATOM     75  C   UNL     1       4.507  -3.850  -3.163  1.00  0.00     0.339 C 
ATOM     76  O   UNL     1       5.163  -3.186  -3.950  1.00  0.00    -0.246 OA
BRANCH  75  77
ATOM     77  C   UNL     1       5.103  -4.839  -2.236  1.00  0.00     0.078 A 
ATOM     78  C   UNL     1       6.385  -4.540  -1.751  1.00  0.00     0.019 A 
ATOM     79  C   UNL     1       4.431  -5.957  -1.736  1.00  0.00     0.057 A 
ATOM     80  C   UNL     1       6.952  -5.299  -0.722  1.00  0.00     0.028 A 
ATOM     81  C   UNL     1       4.990  -6.687  -0.677  1.00  0.00     0.048 A 
ATOM     82  Cl  UNL     1       2.919  -6.518  -2.357  1.00  0.00    -0.083 Cl
ATOM     83  C   UNL     1       6.239  -6.348  -0.145  1.00  0.00     0.050 A 
BRANCH  83  84
ATOM     84  N   UNL     1       6.602  -6.973   1.083  1.00  0.00    -0.280 N 
ATOM     85  H   UNL     1       5.876  -7.374   1.614  1.00  0.00     0.180 HD
BRANCH  84  86
ATOM     86  S   UNL     1       8.153  -7.084   1.707  1.00  0.00     0.261 S 
ATOM     87  O   UNL     1       8.034  -7.862   2.921  1.00  0.00    -0.201 OA
ATOM     88  O   UNL     1       9.035  -7.483   0.631  1.00  0.00    -0.201 OA
BRANCH  86  89
ATOM     89  C   UNL     1       8.606  -5.436   2.199  1.00  0.00     0.088 A 
ATOM     90  C   UNL     1       9.976  -5.106   2.177  1.00  0.00     0.022 A 
ATOM     91  C   UNL     1       7.629  -4.458   2.414  1.00  0.00     0.026 A 
ATOM     92  C   UNL     1      10.386  -3.779   2.310  1.00  0.00     0.005 A 
ATOM     93  C   UNL     1       8.052  -3.141   2.484  1.00  0.00    -0.043 A 
ATOM     94  C   UNL     1       9.411  -2.805   2.419  1.00  0.00    -0.045 A 
ATOM     95  C   UNL     1       7.214  -1.907   2.579  1.00  0.00     0.036 C 
ATOM     96  C   UNL     1       9.591  -1.318   2.462  1.00  0.00     0.036 C 
ATOM     97  C   UNL     1       8.190  -0.853   2.038  1.00  0.00     0.010 C 
ENDBRANCH  86  89
ENDBRANCH  84  86
ENDBRANCH  83  84
ENDBRANCH  75  77
ENDBRANCH  74  75
ENDBRANCH  73  74
ENDBRANCH   1  73
TORSDOF 17
