REMARK SMILES O=C(OCCOCCOC(=O)[C@H]1[C@H]2CC[C@H](C2)[C@@H]1C(=O)Nc1sc2c(c1C(=O)NC1CCCCC1)CCCC2)c1ccc(-c2c3nc(c(-c4c(F)c(F)c(F)c(F)c4F)c4ccc([nH]4)c(-c4c(F)c(F)c(F)c(F)c4F)c4nc(c(-c5c(F)c(F)c(F)c(F)c5F)c5ccc2[nH]5)C=C4)C=C3)cc1
REMARK SMILES IDX 7 1 6 2 5 3 4 4 3 5 2 6 1 7 40 8 41 9 102 10 42 11 101 12
REMARK SMILES IDX 43 13 44 14 45 15 95 16 46 17 100 18 94 19 96 20 47 21 99 22
REMARK SMILES IDX 93 23 92 24 48 26 80 27 60 28 79 29 61 30 64 31 78 32 97 33
REMARK SMILES IDX 62 34 63 35 77 37 98 38 65 39 49 40 50 41 58 42 51 43 52 44
REMARK SMILES IDX 56 45 59 46 53 47 54 48 57 49 55 50 81 51 82 52 90 53 83 54
REMARK SMILES IDX 84 55 88 56 91 57 85 58 86 59 89 60 87 61 66 62 67 63 75 64
REMARK SMILES IDX 68 65 69 66 73 67 76 68 70 69 71 70 74 71 72 72 8 73 9 74
REMARK SMILES IDX 10 75 11 76 12 77 13 78 18 79 14 80 17 81 16 82 15 83 19 84
REMARK SMILES IDX 20 85 21 86 22 88 23 89 26 90 24 91 25 92 39 93 36 94 38 95
REMARK SMILES IDX 37 96 27 97 28 98 29 99 30 101 31 102 35 103 32 104 34 105
REMARK SMILES IDX 33 106
REMARK H PARENT 96 25 64 36 21 87 29 100
REMARK Flexibility Score: inf
ROOT
ATOM      1  C   UNL     1       3.102   2.164   6.115  1.00  0.00     0.202 C 
ENDROOT
BRANCH   1   2
ATOM      2  O   UNL     1       2.864   0.968   5.364  1.00  0.00    -0.374 OA
BRANCH   2   3
ATOM      3  C   UNL     1       2.221   1.022   4.086  1.00  0.00     0.202 C 
BRANCH   3   4
ATOM      4  C   UNL     1       0.873   1.744   3.914  1.00  0.00     0.261 C 
BRANCH   4   5
ATOM      5  O   UNL     1       0.758   2.939   4.699  1.00  0.00    -0.460 OA
BRANCH   5   6
ATOM      6  C   UNL     1      -0.073   3.099   5.762  1.00  0.00     0.338 C 
ATOM      7  O   UNL     1      -0.373   4.230   6.133  1.00  0.00    -0.246 OA
BRANCH   6   8
ATOM      8  C   UNL     1      -0.564   1.929   6.554  1.00  0.00     0.060 A 
ATOM      9  C   UNL     1       0.062   0.684   6.544  1.00  0.00     0.016 A 
ATOM     10  C   UNL     1      -1.635   2.111   7.437  1.00  0.00     0.016 A 
ATOM     11  C   UNL     1      -0.351  -0.365   7.326  1.00  0.00     0.010 A 
ATOM     12  C   UNL     1      -2.041   1.068   8.280  1.00  0.00     0.010 A 
ATOM     13  C   UNL     1      -1.384  -0.166   8.224  1.00  0.00    -0.014 A 
BRANCH  13  14
ATOM     14  C   UNL     1      -1.746  -1.332   9.032  1.00  0.00     0.031 A 
ATOM     15  C   UNL     1      -2.936  -2.127   8.621  1.00  0.00     0.074 A 
ATOM     16  C   UNL     1      -0.879  -1.755   9.970  1.00  0.00     0.049 A 
ATOM     17  N   UNL     1      -3.461  -3.173   9.192  1.00  0.00    -0.248 NA
ATOM     18  C   UNL     1      -3.615  -1.705   7.382  1.00  0.00     0.031 C 
ATOM     19  C   UNL     1       0.406  -1.115  10.283  1.00  0.00     0.029 A 
ATOM     20  N   UNL     1      -0.917  -2.839  10.800  1.00  0.00    -0.354 N 
ATOM     21  C   UNL     1      -4.558  -3.506   8.413  1.00  0.00     0.074 A 
ATOM     22  C   UNL     1      -4.613  -2.573   7.312  1.00  0.00     0.031 C 
ATOM     23  C   UNL     1       1.033  -1.828  11.231  1.00  0.00     0.029 A 
ATOM     24  C   UNL     1       0.159  -2.914  11.651  1.00  0.00     0.049 A 
ATOM     25  H   UNL     1      -1.645  -3.503  10.789  1.00  0.00     0.167 HD
ATOM     26  C   UNL     1      -5.445  -4.499   8.636  1.00  0.00     0.037 A 
ATOM     27  C   UNL     1       0.366  -3.738  12.693  1.00  0.00     0.037 A 
ATOM     28  C   UNL     1      -5.337  -5.407   9.743  1.00  0.00     0.049 A 
ATOM     29  C   UNL     1      -0.703  -4.758  12.983  1.00  0.00     0.074 A 
ATOM     30  C   UNL     1      -6.195  -6.421  10.119  1.00  0.00     0.029 A 
ATOM     31  N   UNL     1      -4.289  -5.401  10.657  1.00  0.00    -0.354 N 
ATOM     32  N   UNL     1      -1.792  -5.029  12.300  1.00  0.00    -0.248 NA
ATOM     33  C   UNL     1      -0.537  -5.564  14.196  1.00  0.00     0.031 C 
ATOM     34  C   UNL     1      -5.694  -6.993  11.293  1.00  0.00     0.029 A 
ATOM     35  C   UNL     1      -4.496  -6.372  11.618  1.00  0.00     0.049 A 
ATOM     36  H   UNL     1      -3.515  -4.794  10.625  1.00  0.00     0.167 HD
ATOM     37  C   UNL     1      -2.437  -6.040  12.993  1.00  0.00     0.074 A 
ATOM     38  C   UNL     1      -1.598  -6.357  14.133  1.00  0.00     0.031 C 
ATOM     39  C   UNL     1      -3.620  -6.647  12.730  1.00  0.00     0.037 A 
BRANCH  26  40
ATOM     40  C   UNL     1      -6.637  -4.574   7.735  1.00  0.00     0.064 A 
ATOM     41  C   UNL     1      -6.554  -5.038   6.415  1.00  0.00     0.173 A 
ATOM     42  C   UNL     1      -7.892  -4.162   8.210  1.00  0.00     0.173 A 
ATOM     43  F   UNL     1      -5.370  -5.407   5.902  1.00  0.00    -0.203 F 
ATOM     44  C   UNL     1      -7.683  -5.079   5.600  1.00  0.00     0.198 A 
ATOM     45  C   UNL     1      -9.022  -4.225   7.401  1.00  0.00     0.198 A 
ATOM     46  F   UNL     1      -8.020  -3.690   9.459  1.00  0.00    -0.203 F 
ATOM     47  F   UNL     1      -7.575  -5.485   4.327  1.00  0.00    -0.200 F 
ATOM     48  C   UNL     1      -8.917  -4.681   6.096  1.00  0.00     0.200 A 
ATOM     49  F   UNL     1     -10.211  -3.837   7.882  1.00  0.00    -0.200 F 
ATOM     50  F   UNL     1     -10.002  -4.722   5.311  1.00  0.00    -0.200 F 
ENDBRANCH  26  40
BRANCH  27  51
ATOM     51  C   UNL     1       1.547  -3.566  13.583  1.00  0.00     0.064 A 
ATOM     52  C   UNL     1       2.487  -4.589  13.763  1.00  0.00     0.173 A 
ATOM     53  C   UNL     1       1.730  -2.384  14.322  1.00  0.00     0.173 A 
ATOM     54  F   UNL     1       2.349  -5.748  13.101  1.00  0.00    -0.203 F 
ATOM     55  C   UNL     1       3.540  -4.452  14.667  1.00  0.00     0.198 A 
ATOM     56  C   UNL     1       2.804  -2.233  15.196  1.00  0.00     0.198 A 
ATOM     57  F   UNL     1       0.861  -1.370  14.200  1.00  0.00    -0.203 F 
ATOM     58  F   UNL     1       4.382  -5.474  14.870  1.00  0.00    -0.200 F 
ATOM     59  C   UNL     1       3.700  -3.273  15.380  1.00  0.00     0.200 A 
ATOM     60  F   UNL     1       2.959  -1.086  15.872  1.00  0.00    -0.200 F 
ATOM     61  F   UNL     1       4.706  -3.147  16.257  1.00  0.00    -0.200 F 
ENDBRANCH  27  51
BRANCH  39  62
ATOM     62  C   UNL     1      -4.051  -7.717  13.684  1.00  0.00     0.064 A 
ATOM     63  C   UNL     1      -4.515  -7.404  14.969  1.00  0.00     0.173 A 
ATOM     64  C   UNL     1      -4.048  -9.062  13.287  1.00  0.00     0.173 A 
ATOM     65  F   UNL     1      -4.518  -6.132  15.396  1.00  0.00    -0.203 F 
ATOM     66  C   UNL     1      -4.944  -8.406  15.833  1.00  0.00     0.198 A 
ATOM     67  C   UNL     1      -4.510 -10.056  14.141  1.00  0.00     0.198 A 
ATOM     68  F   UNL     1      -3.620  -9.405  12.063  1.00  0.00    -0.203 F 
ATOM     69  F   UNL     1      -5.342  -8.092  17.073  1.00  0.00    -0.200 F 
ATOM     70  C   UNL     1      -4.951  -9.729  15.415  1.00  0.00     0.200 A 
ATOM     71  F   UNL     1      -4.532 -11.331  13.730  1.00  0.00    -0.200 F 
ATOM     72  F   UNL     1      -5.379 -10.691  16.243  1.00  0.00    -0.200 F 
ENDBRANCH  39  62
ENDBRANCH  13  14
ENDBRANCH   6   8
ENDBRANCH   5   6
ENDBRANCH   4   5
ENDBRANCH   3   4
ENDBRANCH   2   3
ENDBRANCH   1   2
BRANCH   1  73
ATOM     73  C   UNL     1       4.343   1.982   7.004  1.00  0.00     0.261 C 
BRANCH  73  74
ATOM     74  O   UNL     1       5.532   2.013   6.207  1.00  0.00    -0.463 OA
BRANCH  74  75
ATOM     75  C   UNL     1       5.643   0.961   5.367  1.00  0.00     0.310 C 
ATOM     76  O   UNL     1       5.668  -0.206   5.739  1.00  0.00    -0.252 OA
BRANCH  75  77
ATOM     77  C   UNL     1       5.673   1.392   3.915  1.00  0.00     0.115 C 
ATOM     78  C   UNL     1       5.122   2.816   3.558  1.00  0.00     0.004 C 
ATOM     79  C   UNL     1       7.099   1.398   3.336  1.00  0.00     0.096 C 
ATOM     80  C   UNL     1       5.818   4.002   4.223  1.00  0.00     0.005 C 
ATOM     81  C   UNL     1       5.681   2.963   2.158  1.00  0.00     0.009 C 
ATOM     82  C   UNL     1       7.130   2.762   2.621  1.00  0.00     0.003 C 
ATOM     83  C   UNL     1       7.242   3.883   3.691  1.00  0.00     0.005 C 
BRANCH  79  84
ATOM     84  C   UNL     1       7.436   0.056   2.632  1.00  0.00     0.229 C 
ATOM     85  O   UNL     1       8.188  -0.725   3.236  1.00  0.00    -0.274 OA
ATOM     86  N   UNL     1       6.807  -0.450   1.530  1.00  0.00    -0.317 N 
ATOM     87  H   UNL     1       6.673  -1.425   1.553  1.00  0.00     0.170 HD
BRANCH  86  88
ATOM     88  C   UNL     1       6.325   0.159   0.391  1.00  0.00     0.108 A 
ATOM     89  S   UNL     1       7.208   1.458  -0.255  1.00  0.00    -0.122 S 
ATOM     90  C   UNL     1       5.322  -0.274  -0.494  1.00  0.00     0.078 A 
ATOM     91  C   UNL     1       5.860   1.902  -1.167  1.00  0.00     0.011 A 
ATOM     92  C   UNL     1       5.088   0.791  -1.475  1.00  0.00    -0.019 A 
ATOM     93  C   UNL     1       5.640   3.303  -1.633  1.00  0.00     0.047 C 
ATOM     94  C   UNL     1       4.130   0.886  -2.627  1.00  0.00     0.037 C 
ATOM     95  C   UNL     1       4.253   3.400  -2.273  1.00  0.00     0.006 C 
ATOM     96  C   UNL     1       4.094   2.273  -3.300  1.00  0.00     0.005 C 
BRANCH  90  97
ATOM     97  C   UNL     1       4.729  -1.605  -0.269  1.00  0.00     0.254 C 
ATOM     98  O   UNL     1       5.429  -2.510   0.201  1.00  0.00    -0.269 OA
ATOM     99  N   UNL     1       3.412  -1.944  -0.446  1.00  0.00    -0.349 N 
ATOM    100  H   UNL     1       3.211  -2.846  -0.107  1.00  0.00     0.164 HD
BRANCH  99 101
ATOM    101  C   UNL     1       2.241  -1.295  -1.012  1.00  0.00     0.082 C 
ATOM    102  C   UNL     1       1.037  -2.257  -1.057  1.00  0.00     0.025 C 
ATOM    103  C   UNL     1       1.807  -0.035  -0.253  1.00  0.00     0.025 C 
ATOM    104  C   UNL     1      -0.165  -1.613  -1.755  1.00  0.00     0.002 C 
ATOM    105  C   UNL     1       0.677   0.665  -1.013  1.00  0.00     0.002 C 
ATOM    106  C   UNL     1      -0.533  -0.248  -1.173  1.00  0.00     0.000 C 
ENDBRANCH  99 101
ENDBRANCH  90  97
ENDBRANCH  86  88
ENDBRANCH  79  84
ENDBRANCH  75  77
ENDBRANCH  74  75
ENDBRANCH  73  74
ENDBRANCH   1  73
TORSDOF 18
