REMARK SMILES NS(=O)(=O)c1ccc(-c2coc(=O)n2-c2ccc(C(=O)OCCOCCOC(=O)c3ccc(-c4c5nc(c(-c6c(F)c(F)c(F)c(F)c6F)c6ccc([nH]6)c(-c6c(F)c(F)c(F)c(F)c6F)c6nc(c(-c7c(F)c(F)c(F)c(F)c7F)c7ccc4[nH]7)C=C6)C=C5)cc3)cc2)cc1
REMARK SMILES IDX 23 1 22 2 21 3 19 4 20 5 18 6 15 7 16 8 94 9 17 10 93 11
REMARK SMILES IDX 14 12 9 13 10 14 11 15 12 16 13 17 8 18 5 19 6 20 96 21 7 22
REMARK SMILES IDX 95 23 2 24 3 25 4 26 1 27 24 30 25 31 26 32 27 33 28 34
REMARK SMILES IDX 29 35 30 36 31 37 92 38 32 39 91 40 33 41 34 42 35 43 85 44
REMARK SMILES IDX 36 45 90 46 84 47 86 48 37 49 89 50 83 51 82 52 38 54 70 55
REMARK SMILES IDX 50 56 69 57 51 58 54 59 68 60 87 61 52 62 53 63 67 65 88 66
REMARK SMILES IDX 55 67 39 68 40 69 48 70 41 71 42 72 46 73 49 74 43 75 44 76
REMARK SMILES IDX 47 77 45 78 71 79 72 80 80 81 73 82 74 83 78 84 81 85 75 86
REMARK SMILES IDX 76 87 79 88 77 89 56 90 57 91 65 92 58 93 59 94 63 95 66 96
REMARK SMILES IDX 60 97 61 98 64 99 62 100
REMARK H PARENT 1 28 1 29 86 53 54 64
REMARK Flexibility Score: inf
ROOT
ATOM      1  C   UNL     1      -4.369  -4.992  -9.356  1.00  0.00     0.202 C 
ENDROOT
BRANCH   1   2
ATOM      2  C   UNL     1      -3.710  -4.829  -7.986  1.00  0.00     0.261 C 
BRANCH   2   3
ATOM      3  O   UNL     1      -2.976  -3.602  -7.860  1.00  0.00    -0.460 OA
BRANCH   3   4
ATOM      4  C   UNL     1      -1.631  -3.764  -7.860  1.00  0.00     0.338 C 
ATOM      5  O   UNL     1      -1.014  -4.816  -7.914  1.00  0.00    -0.246 OA
BRANCH   4   6
ATOM      6  C   UNL     1      -0.958  -2.456  -7.963  1.00  0.00     0.060 A 
ATOM      7  C   UNL     1       0.620  -0.155  -7.966  1.00  0.00     0.053 A 
ATOM      8  C   UNL     1       0.914  -1.195  -8.851  1.00  0.00     0.028 A 
ATOM      9  C   UNL     1      -0.541  -0.228  -7.176  1.00  0.00     0.028 A 
ATOM     10  C   UNL     1       0.144  -2.357  -8.824  1.00  0.00     0.018 A 
ATOM     11  C   UNL     1      -1.343  -1.370  -7.182  1.00  0.00     0.018 A 
BRANCH   7  12
ATOM     12  N   UNL     1       1.565   0.871  -7.752  1.00  0.00    -0.242 N 
ATOM     13  C   UNL     1       2.028   1.337  -6.551  1.00  0.00     0.095 A 
ATOM     14  C   UNL     1       2.937   2.260  -6.836  1.00  0.00     0.228 A 
ATOM     15  O   UNL     1       3.138   2.464  -8.200  1.00  0.00    -0.415 OA
ATOM     16  C   UNL     1       2.265   1.531  -8.762  1.00  0.00     0.424 A 
ATOM     17  O   UNL     1       2.158   1.379  -9.972  1.00  0.00    -0.223 OA
BRANCH  13  18
ATOM     18  C   UNL     1       1.709   0.770  -5.243  1.00  0.00     0.002 A 
ATOM     19  C   UNL     1       0.921  -0.399  -2.829  1.00  0.00     0.082 A 
ATOM     20  C   UNL     1       1.585  -1.173  -3.779  1.00  0.00     0.022 A 
ATOM     21  C   UNL     1       0.666   0.957  -3.061  1.00  0.00     0.022 A 
ATOM     22  C   UNL     1       1.983  -0.585  -4.980  1.00  0.00     0.012 A 
ATOM     23  C   UNL     1       1.069   1.541  -4.265  1.00  0.00     0.012 A 
BRANCH  19  24
ATOM     24  S   UNL     1       0.386  -1.139  -1.315  1.00  0.00     0.238 S 
ATOM     25  O   UNL     1       1.047  -2.420  -1.152  1.00  0.00    -0.207 OA
ATOM     26  O   UNL     1      -1.037  -0.976  -1.204  1.00  0.00    -0.207 OA
BRANCH  24  27
ATOM     27  N   UNL     1       1.079  -0.139  -0.157  1.00  0.00    -0.225 NA
ATOM     28  H   UNL     1       0.834  -0.476   0.774  1.00  0.00     0.137 HD
ATOM     29  H   UNL     1       0.732   0.812  -0.278  1.00  0.00     0.137 HD
ENDBRANCH  24  27
ENDBRANCH  19  24
ENDBRANCH  13  18
ENDBRANCH   7  12
ENDBRANCH   4   6
ENDBRANCH   3   4
ENDBRANCH   2   3
ENDBRANCH   1   2
BRANCH   1  30
ATOM     30  O   UNL     1      -3.552  -5.047 -10.524  1.00  0.00    -0.374 OA
BRANCH  30  31
ATOM     31  C   UNL     1      -2.797  -3.916 -10.942  1.00  0.00     0.202 C 
BRANCH  31  32
ATOM     32  C   UNL     1      -3.530  -2.701 -11.491  1.00  0.00     0.261 C 
BRANCH  32  33
ATOM     33  O   UNL     1      -4.493  -2.208 -10.578  1.00  0.00    -0.460 OA
BRANCH  33  34
ATOM     34  C   UNL     1      -5.754  -2.609 -10.851  1.00  0.00     0.338 C 
ATOM     35  O   UNL     1      -6.108  -3.466 -11.642  1.00  0.00    -0.246 OA
BRANCH  34  36
ATOM     36  C   UNL     1      -6.682  -1.720 -10.148  1.00  0.00     0.060 A 
ATOM     37  C   UNL     1      -8.031  -1.905 -10.454  1.00  0.00     0.016 A 
ATOM     38  C   UNL     1      -6.187  -0.523  -9.611  1.00  0.00     0.016 A 
ATOM     39  C   UNL     1      -8.818  -0.785 -10.544  1.00  0.00     0.010 A 
ATOM     40  C   UNL     1      -6.968   0.594  -9.718  1.00  0.00     0.010 A 
ATOM     41  C   UNL     1      -8.227   0.457 -10.295  1.00  0.00    -0.014 A 
BRANCH  41  42
ATOM     42  C   UNL     1      -9.002   1.646 -10.548  1.00  0.00     0.031 A 
ATOM     43  C   UNL     1      -9.986   1.869  -9.472  1.00  0.00     0.074 A 
ATOM     44  C   UNL     1      -8.746   2.462 -11.588  1.00  0.00     0.049 A 
ATOM     45  N   UNL     1     -11.260   1.679  -9.531  1.00  0.00    -0.248 NA
ATOM     46  C   UNL     1      -9.468   2.062  -8.107  1.00  0.00     0.031 C 
ATOM     47  C   UNL     1      -7.631   2.416 -12.537  1.00  0.00     0.029 A 
ATOM     48  N   UNL     1      -9.415   3.588 -11.956  1.00  0.00    -0.354 N 
ATOM     49  C   UNL     1     -11.726   1.963  -8.254  1.00  0.00     0.074 A 
ATOM     50  C   UNL     1     -10.581   1.912  -7.390  1.00  0.00     0.031 C 
ATOM     51  C   UNL     1      -7.572   3.587 -13.215  1.00  0.00     0.029 A 
ATOM     52  C   UNL     1      -8.713   4.402 -12.844  1.00  0.00     0.049 A 
ATOM     53  H   UNL     1     -10.316   3.809 -11.625  1.00  0.00     0.167 HD
ATOM     54  C   UNL     1     -12.937   2.558  -8.088  1.00  0.00     0.037 A 
ATOM     55  C   UNL     1      -9.039   5.689 -13.136  1.00  0.00     0.037 A 
ATOM     56  C   UNL     1     -13.742   2.393  -9.277  1.00  0.00     0.049 A 
ATOM     57  C   UNL     1     -10.472   5.865 -12.763  1.00  0.00     0.074 A 
ATOM     58  C   UNL     1     -14.246   1.307  -9.966  1.00  0.00     0.029 A 
ATOM     59  N   UNL     1     -13.797   3.452 -10.151  1.00  0.00    -0.354 N 
ATOM     60  N   UNL     1     -11.450   5.253 -13.374  1.00  0.00    -0.248 NA
ATOM     61  C   UNL     1     -10.755   6.291 -11.398  1.00  0.00     0.031 C 
ATOM     62  C   UNL     1     -14.143   1.661 -11.344  1.00  0.00     0.029 A 
ATOM     63  C   UNL     1     -13.662   2.968 -11.424  1.00  0.00     0.049 A 
ATOM     64  H   UNL     1     -13.913   4.398  -9.904  1.00  0.00     0.167 HD
ATOM     65  C   UNL     1     -12.296   4.835 -12.355  1.00  0.00     0.074 A 
ATOM     66  C   UNL     1     -11.838   5.545 -11.162  1.00  0.00     0.031 C 
ATOM     67  C   UNL     1     -13.083   3.730 -12.505  1.00  0.00     0.037 A 
BRANCH  54  68
ATOM     68  C   UNL     1     -13.197   3.669  -7.090  1.00  0.00     0.064 A 
ATOM     69  C   UNL     1     -14.489   4.230  -7.056  1.00  0.00     0.173 A 
ATOM     70  C   UNL     1     -12.200   4.417  -6.422  1.00  0.00     0.173 A 
ATOM     71  F   UNL     1     -15.524   3.602  -7.634  1.00  0.00    -0.203 F 
ATOM     72  C   UNL     1     -14.730   5.499  -6.526  1.00  0.00     0.198 A 
ATOM     73  C   UNL     1     -12.455   5.663  -5.854  1.00  0.00     0.198 A 
ATOM     74  F   UNL     1     -10.919   4.046  -6.363  1.00  0.00    -0.203 F 
ATOM     75  F   UNL     1     -15.944   6.051  -6.654  1.00  0.00    -0.200 F 
ATOM     76  C   UNL     1     -13.708   6.223  -5.943  1.00  0.00     0.200 A 
ATOM     77  F   UNL     1     -11.445   6.348  -5.298  1.00  0.00    -0.200 F 
ATOM     78  F   UNL     1     -13.916   7.471  -5.506  1.00  0.00    -0.200 F 
ENDBRANCH  54  68
BRANCH  55  79
ATOM     79  C   UNL     1      -8.116   6.838 -13.320  1.00  0.00     0.064 A 
ATOM     80  C   UNL     1      -8.553   8.048 -13.887  1.00  0.00     0.173 A 
ATOM     81  C   UNL     1      -6.856   6.868 -12.689  1.00  0.00     0.173 A 
ATOM     82  F   UNL     1      -9.766   8.126 -14.454  1.00  0.00    -0.203 F 
ATOM     83  C   UNL     1      -7.780   9.215 -13.818  1.00  0.00     0.198 A 
ATOM     84  C   UNL     1      -6.085   8.031 -12.624  1.00  0.00     0.198 A 
ATOM     85  F   UNL     1      -6.390   5.795 -12.035  1.00  0.00    -0.203 F 
ATOM     86  F   UNL     1      -8.254  10.364 -14.323  1.00  0.00    -0.200 F 
ATOM     87  C   UNL     1      -6.551   9.207 -13.180  1.00  0.00     0.200 A 
ATOM     88  F   UNL     1      -4.919   8.018 -11.963  1.00  0.00    -0.200 F 
ATOM     89  F   UNL     1      -5.837  10.335 -13.063  1.00  0.00    -0.200 F 
ENDBRANCH  55  79
BRANCH  67  90
ATOM     90  C   UNL     1     -13.198   3.125 -13.876  1.00  0.00     0.064 A 
ATOM     91  C   UNL     1     -12.137   2.493 -14.548  1.00  0.00     0.173 A 
ATOM     92  C   UNL     1     -14.477   3.015 -14.435  1.00  0.00     0.173 A 
ATOM     93  F   UNL     1     -10.903   2.478 -14.027  1.00  0.00    -0.203 F 
ATOM     94  C   UNL     1     -12.352   1.799 -15.740  1.00  0.00     0.198 A 
ATOM     95  C   UNL     1     -14.693   2.294 -15.604  1.00  0.00     0.198 A 
ATOM     96  F   UNL     1     -15.531   3.556 -13.805  1.00  0.00    -0.203 F 
ATOM     97  F   UNL     1     -11.327   1.197 -16.362  1.00  0.00    -0.200 F 
ATOM     98  C   UNL     1     -13.632   1.691 -16.259  1.00  0.00     0.200 A 
ATOM     99  F   UNL     1     -15.940   2.150 -16.074  1.00  0.00    -0.200 F 
ATOM    100  F   UNL     1     -13.848   0.979 -17.374  1.00  0.00    -0.200 F 
ENDBRANCH  67  90
ENDBRANCH  41  42
ENDBRANCH  34  36
ENDBRANCH  33  34
ENDBRANCH  32  33
ENDBRANCH  31  32
ENDBRANCH  30  31
ENDBRANCH   1  30
TORSDOF 18
