REMARK SMILES Cc1[nH]c2ccccc2c1[C@H](C(=O)OCCOCCOC(=O)c1ccc(-c2c3nc(c(-c4c(F)c(F)c(F)c(F)c4F)c4ccc([nH]4)c(-c4c(F)c(F)c(F)c(F)c4F)c4nc(c(-c5c(F)c(F)c(F)c(F)c5F)c5ccc2[nH]5)C=C4)C=C3)cc1)[NH+]1CCN(C(=O)c2ccco2)CC1
REMARK SMILES IDX 17 1 16 2 15 3 14 4 12 5 13 6 11 7 10 8 1 9 2 10 3 11 4 12
REMARK SMILES IDX 9 14 5 15 8 16 6 17 7 18 86 19 87 20 98 21 88 23 97 24 89 25
REMARK SMILES IDX 90 26 91 27 92 28 93 29 96 30 94 31 95 32 18 33 19 34 20 35
REMARK SMILES IDX 21 36 22 37 23 38 24 39 85 40 25 41 84 42 26 43 27 44 28 45
REMARK SMILES IDX 78 46 29 47 83 48 77 49 79 50 30 51 82 52 76 53 75 54 31 56
REMARK SMILES IDX 63 57 43 58 62 59 44 60 47 61 61 62 80 63 45 64 46 65 60 67
REMARK SMILES IDX 81 68 48 69 32 70 33 71 41 72 34 73 35 74 39 75 42 76 36 77
REMARK SMILES IDX 37 78 40 79 38 80 64 81 65 82 73 83 66 84 67 85 71 86 74 87
REMARK SMILES IDX 68 88 69 89 72 90 70 91 49 92 50 93 58 94 51 95 52 96 56 97
REMARK SMILES IDX 59 98 53 99 54 100 57 101 55 102
REMARK H PARENT 3 13 86 22 79 55 47 66
REMARK Flexibility Score: inf
ROOT
ATOM      1  O   UNL     1      -0.303   1.792  -1.155  1.00  0.00    -0.374 OA
ENDROOT
BRANCH   1   2
ATOM      2  C   UNL     1       0.831   0.930  -1.085  1.00  0.00     0.202 C 
BRANCH   2   3
ATOM      3  C   UNL     1       0.864   0.055   0.167  1.00  0.00     0.261 C 
BRANCH   3   4
ATOM      4  O   UNL     1       0.333  -1.270  -0.081  1.00  0.00    -0.459 OA
BRANCH   4   5
ATOM      5  C   UNL     1      -0.971  -1.478   0.242  1.00  0.00     0.370 C 
ATOM      6  O   UNL     1      -1.733  -0.580   0.595  1.00  0.00    -0.245 OA
BRANCH   5   7
ATOM      7  C   UNL     1      -1.391  -2.954   0.264  1.00  0.00     0.328 C 
BRANCH   7   8
ATOM      8  C   UNL     1      -1.033  -3.852  -0.929  1.00  0.00     0.049 A 
ATOM      9  C   UNL     1      -0.065  -2.272  -2.800  1.00  0.00     0.065 C 
ATOM     10  C   UNL     1      -0.474  -3.538  -2.165  1.00  0.00     0.022 A 
ATOM     11  N   UNL     1      -0.351  -4.688  -2.900  1.00  0.00    -0.358 N 
ATOM     12  C   UNL     1      -0.994  -5.723  -2.285  1.00  0.00     0.046 A 
ATOM     13  H   UNL     1       0.135  -4.758  -3.753  1.00  0.00     0.166 HD
ATOM     14  C   UNL     1      -1.423  -5.250  -1.047  1.00  0.00     0.009 A 
ATOM     15  C   UNL     1      -1.236  -7.019  -2.751  1.00  0.00     0.027 A 
ATOM     16  C   UNL     1      -2.141  -6.146  -0.226  1.00  0.00     0.011 A 
ATOM     17  C   UNL     1      -1.960  -7.875  -1.922  1.00  0.00     0.002 A 
ATOM     18  C   UNL     1      -2.406  -7.447  -0.675  1.00  0.00     0.001 A 
ENDBRANCH   7   8
BRANCH   7  19
ATOM     19  N   UNL     1      -1.075  -3.627   1.554  1.00  0.00    -0.316 N 
ATOM     20  C   UNL     1       0.334  -3.856   1.874  1.00  0.00     0.285 C 
ATOM     21  C   UNL     1      -1.784  -3.093   2.720  1.00  0.00     0.285 C 
ATOM     22  H   UNL     1      -1.449  -4.553   1.345  1.00  0.00     0.349 HD
ATOM     23  C   UNL     1       1.083  -2.716   2.582  1.00  0.00     0.181 C 
ATOM     24  C   UNL     1      -1.141  -1.893   3.441  1.00  0.00     0.181 C 
ATOM     25  N   UNL     1       0.321  -1.920   3.547  1.00  0.00    -0.325 N 
ATOM     26  C   UNL     1       1.047  -0.885   4.179  1.00  0.00     0.289 C 
ATOM     27  O   UNL     1       2.228  -0.698   3.875  1.00  0.00    -0.265 OA
BRANCH  26  28
ATOM     28  C   UNL     1       0.385  -0.052   5.169  1.00  0.00     0.191 A 
ATOM     29  C   UNL     1      -0.475  -0.322   6.220  1.00  0.00     0.056 A 
ATOM     30  O   UNL     1       0.690   1.286   5.183  1.00  0.00    -0.459 OA
ATOM     31  C   UNL     1      -0.723   0.906   6.881  1.00  0.00     0.043 A 
ATOM     32  C   UNL     1       0.011   1.853   6.211  1.00  0.00     0.196 A 
ENDBRANCH  26  28
ENDBRANCH   7  19
ENDBRANCH   5   7
ENDBRANCH   4   5
ENDBRANCH   3   4
ENDBRANCH   2   3
ENDBRANCH   1   2
BRANCH   1  33
ATOM     33  C   UNL     1      -1.408   1.320  -1.926  1.00  0.00     0.202 C 
BRANCH  33  34
ATOM     34  C   UNL     1      -1.276   1.593  -3.431  1.00  0.00     0.261 C 
BRANCH  34  35
ATOM     35  O   UNL     1      -0.335   0.691  -4.049  1.00  0.00    -0.460 OA
BRANCH  35  36
ATOM     36  C   UNL     1       0.865   1.220  -4.392  1.00  0.00     0.338 C 
ATOM     37  O   UNL     1       1.203   2.389  -4.339  1.00  0.00    -0.246 OA
BRANCH  36  38
ATOM     38  C   UNL     1       1.815   0.115  -4.657  1.00  0.00     0.060 A 
ATOM     39  C   UNL     1       3.066   0.159  -4.029  1.00  0.00     0.016 A 
ATOM     40  C   UNL     1       1.481  -0.964  -5.480  1.00  0.00     0.016 A 
ATOM     41  C   UNL     1       3.992  -0.867  -4.234  1.00  0.00     0.010 A 
ATOM     42  C   UNL     1       2.404  -1.999  -5.673  1.00  0.00     0.010 A 
ATOM     43  C   UNL     1       3.677  -1.942  -5.076  1.00  0.00    -0.014 A 
BRANCH  43  44
ATOM     44  C   UNL     1       4.737  -2.893  -5.500  1.00  0.00     0.031 A 
ATOM     45  C   UNL     1       5.348  -2.711  -6.863  1.00  0.00     0.074 A 
ATOM     46  C   UNL     1       5.166  -3.890  -4.705  1.00  0.00     0.049 A 
ATOM     47  N   UNL     1       6.236  -3.444  -7.485  1.00  0.00    -0.248 NA
ATOM     48  C   UNL     1       4.884  -1.546  -7.634  1.00  0.00     0.031 C 
ATOM     49  C   UNL     1       4.689  -4.165  -3.352  1.00  0.00     0.029 A 
ATOM     50  N   UNL     1       6.106  -4.867  -4.936  1.00  0.00    -0.354 N 
ATOM     51  C   UNL     1       6.425  -2.837  -8.719  1.00  0.00     0.074 A 
ATOM     52  C   UNL     1       5.535  -1.698  -8.776  1.00  0.00     0.031 C 
ATOM     53  C   UNL     1       5.336  -5.245  -2.874  1.00  0.00     0.029 A 
ATOM     54  C   UNL     1       6.250  -5.754  -3.897  1.00  0.00     0.049 A 
ATOM     55  H   UNL     1       6.627  -4.926  -5.769  1.00  0.00     0.167 HD
ATOM     56  C   UNL     1       7.274  -3.184  -9.713  1.00  0.00     0.037 A 
ATOM     57  C   UNL     1       7.016  -6.859  -3.794  1.00  0.00     0.037 A 
ATOM     58  C   UNL     1       8.182  -4.295  -9.659  1.00  0.00     0.049 A 
ATOM     59  C   UNL     1       7.905  -7.266  -4.946  1.00  0.00     0.074 A 
ATOM     60  C   UNL     1       9.115  -4.692 -10.600  1.00  0.00     0.029 A 
ATOM     61  N   UNL     1       8.270  -5.189  -8.604  1.00  0.00    -0.354 N 
ATOM     62  N   UNL     1       8.102  -6.666  -6.094  1.00  0.00    -0.248 NA
ATOM     63  C   UNL     1       8.672  -8.512  -4.786  1.00  0.00     0.031 C 
ATOM     64  C   UNL     1       9.735  -5.857 -10.136  1.00  0.00     0.029 A 
ATOM     65  C   UNL     1       9.218  -6.159  -8.887  1.00  0.00     0.049 A 
ATOM     66  H   UNL     1       7.737  -5.143  -7.777  1.00  0.00     0.167 HD
ATOM     67  C   UNL     1       9.027  -7.445  -6.780  1.00  0.00     0.074 A 
ATOM     68  C   UNL     1       9.364  -8.555  -5.916  1.00  0.00     0.031 C 
ATOM     69  C   UNL     1       9.549  -7.256  -8.017  1.00  0.00     0.037 A 
BRANCH  56  70
ATOM     70  C   UNL     1       7.248  -2.353 -10.959  1.00  0.00     0.064 A 
ATOM     71  C   UNL     1       7.788  -1.059 -10.991  1.00  0.00     0.173 A 
ATOM     72  C   UNL     1       6.695  -2.869 -12.140  1.00  0.00     0.173 A 
ATOM     73  F   UNL     1       8.309  -0.518  -9.880  1.00  0.00    -0.203 F 
ATOM     74  C   UNL     1       7.753  -0.301 -12.158  1.00  0.00     0.198 A 
ATOM     75  C   UNL     1       6.687  -2.118 -13.312  1.00  0.00     0.198 A 
ATOM     76  F   UNL     1       6.167  -4.102 -12.158  1.00  0.00    -0.203 F 
ATOM     77  F   UNL     1       8.233   0.950 -12.156  1.00  0.00    -0.200 F 
ATOM     78  C   UNL     1       7.209  -0.833 -13.318  1.00  0.00     0.200 A 
ATOM     79  F   UNL     1       6.167  -2.635 -14.433  1.00  0.00    -0.200 F 
ATOM     80  F   UNL     1       7.180  -0.103 -14.441  1.00  0.00    -0.200 F 
ENDBRANCH  56  70
BRANCH  57  81
ATOM     81  C   UNL     1       6.971  -7.690  -2.562  1.00  0.00     0.064 A 
ATOM     82  C   UNL     1       8.075  -7.768  -1.702  1.00  0.00     0.173 A 
ATOM     83  C   UNL     1       5.845  -8.465  -2.251  1.00  0.00     0.173 A 
ATOM     84  F   UNL     1       9.189  -7.073  -1.978  1.00  0.00    -0.203 F 
ATOM     85  C   UNL     1       8.062  -8.604  -0.587  1.00  0.00     0.198 A 
ATOM     86  C   UNL     1       5.823  -9.282  -1.122  1.00  0.00     0.198 A 
ATOM     87  F   UNL     1       4.768  -8.436  -3.050  1.00  0.00    -0.203 F 
ATOM     88  F   UNL     1       9.150  -8.702   0.189  1.00  0.00    -0.200 F 
ATOM     89  C   UNL     1       6.934  -9.357  -0.296  1.00  0.00     0.200 A 
ATOM     90  F   UNL     1       4.731 -10.007  -0.844  1.00  0.00    -0.200 F 
ATOM     91  F   UNL     1       6.924 -10.168   0.771  1.00  0.00    -0.200 F 
ENDBRANCH  57  81
BRANCH  69  92
ATOM     92  C   UNL     1      10.553  -8.255  -8.513  1.00  0.00     0.064 A 
ATOM     93  C   UNL     1      10.164  -9.534  -8.937  1.00  0.00     0.173 A 
ATOM     94  C   UNL     1      11.906  -7.904  -8.639  1.00  0.00     0.173 A 
ATOM     95  F   UNL     1       8.884  -9.921  -8.826  1.00  0.00    -0.203 F 
ATOM     96  C   UNL     1      11.095 -10.428  -9.459  1.00  0.00     0.198 A 
ATOM     97  C   UNL     1      12.829  -8.792  -9.184  1.00  0.00     0.198 A 
ATOM     98  F   UNL     1      12.328  -6.690  -8.255  1.00  0.00    -0.203 F 
ATOM     99  F   UNL     1      10.706 -11.656  -9.832  1.00  0.00    -0.200 F 
ATOM    100  C   UNL     1      12.424 -10.054  -9.591  1.00  0.00     0.200 A 
ATOM    101  F   UNL     1      14.110  -8.423  -9.324  1.00  0.00    -0.200 F 
ATOM    102  F   UNL     1      13.315 -10.911 -10.109  1.00  0.00    -0.200 F 
ENDBRANCH  69  92
ENDBRANCH  43  44
ENDBRANCH  36  38
ENDBRANCH  35  36
ENDBRANCH  34  35
ENDBRANCH  33  34
ENDBRANCH   1  33
TORSDOF 17
