REMARK SMILES C/C=C(\C)[C@H]1C(C)=C[C@H]2CC[C@@H](OS(=O)(=O)[O-])[C@@H](C)[C@H]2[C@H]1/C=C/C=C/C(=O)OCCOCCOC(=O)c1ccc(-c2c3nc(c(-c4c(F)c(F)c(F)c(F)c4F)c4ccc([nH]4)c(-c4c(F)c(F)c(F)c(F)c4F)c4nc(c(-c5c(F)c(F)c(F)c(F)c5F)c5ccc2[nH]5)C=C4)C=C3)cc1
REMARK SMILES IDX 30 1 29 2 28 3 26 4 27 5 25 6 24 7 23 8 22 9 21 10 5 11 6 12
REMARK SMILES IDX 7 13 8 14 20 15 9 16 18 17 10 18 12 19 19 20 11 21 3 22 1 23
REMARK SMILES IDX 2 24 4 25 13 26 14 27 15 28 16 29 17 30 31 31 32 32 33 33
REMARK SMILES IDX 34 34 35 35 36 36 37 37 38 38 99 39 39 40 98 41 40 42 41 43
REMARK SMILES IDX 42 44 92 45 43 46 97 47 91 48 93 49 44 50 96 51 90 52 89 53
REMARK SMILES IDX 45 55 77 56 57 57 76 58 58 59 61 60 75 61 94 62 59 63 60 64
REMARK SMILES IDX 74 66 95 67 62 68 46 69 47 70 55 71 48 72 49 73 53 74 56 75
REMARK SMILES IDX 50 76 51 77 54 78 52 79 78 80 79 81 87 82 80 83 81 84 85 85
REMARK SMILES IDX 88 86 82 87 83 88 86 89 84 90 63 91 64 92 72 93 65 94 66 95
REMARK SMILES IDX 70 96 73 97 67 98 68 99 71 100 69 101
REMARK H PARENT 93 54 61 65
REMARK Flexibility Score: inf
ROOT
ATOM      1  C   UNL     1       4.009  -5.336  -3.408  1.00  0.00     0.202 C 
ENDROOT
BRANCH   1   2
ATOM      2  C   UNL     1       3.215  -4.043  -3.604  1.00  0.00     0.261 C 
BRANCH   2   3
ATOM      3  O   UNL     1       2.924  -3.442  -2.333  1.00  0.00    -0.460 OA
BRANCH   3   4
ATOM      4  C   UNL     1       1.611  -3.399  -2.025  1.00  0.00     0.330 C 
ATOM      5  O   UNL     1       0.672  -3.644  -2.768  1.00  0.00    -0.247 OA
BRANCH   4   6
ATOM      6  C   UNL     1       1.414  -3.263  -0.576  1.00  0.00     0.093 C 
ATOM      7  C   UNL     1       2.227  -2.752   0.367  1.00  0.00     0.007 C 
BRANCH   7   8
ATOM      8  C   UNL     1       1.741  -2.845   1.728  1.00  0.00    -0.004 C 
ATOM      9  C   UNL     1       1.526  -1.809   2.551  1.00  0.00    -0.022 C 
BRANCH   9  10
ATOM     10  C   UNL     1       0.423  -1.675   3.624  1.00  0.00     0.027 C 
ATOM     11  C   UNL     1      -0.692  -0.542   3.265  1.00  0.00     0.047 C 
ATOM     12  C   UNL     1      -2.139  -0.974   3.509  1.00  0.00    -0.069 C 
ATOM     13  C   UNL     1      -3.289  -0.454   2.690  1.00  0.00     0.040 C 
ATOM     14  C   UNL     1      -2.418  -1.833   4.509  1.00  0.00    -0.024 C 
ATOM     15  C   UNL     1      -0.193  -2.965   4.334  1.00  0.00     0.009 C 
ATOM     16  C   UNL     1      -1.347  -2.544   5.288  1.00  0.00     0.016 C 
ATOM     17  C   UNL     1      -0.615  -4.184   3.448  1.00  0.00     0.021 C 
ATOM     18  C   UNL     1      -1.921  -3.751   6.056  1.00  0.00     0.011 C 
ATOM     19  C   UNL     1      -1.267  -5.343   4.238  1.00  0.00     0.141 C 
ATOM     20  C   UNL     1      -1.431  -3.815   2.207  1.00  0.00     0.011 C 
ATOM     21  C   UNL     1      -2.397  -4.887   5.149  1.00  0.00     0.034 C 
BRANCH  11  22
ATOM     22  C   UNL     1      -0.477   0.335   1.999  1.00  0.00    -0.070 C 
ATOM     23  C   UNL     1       0.328   0.506  -0.440  1.00  0.00     0.035 C 
ATOM     24  C   UNL     1      -0.180  -0.180   0.787  1.00  0.00    -0.031 C 
ATOM     25  C   UNL     1      -0.573   1.823   2.240  1.00  0.00     0.040 C 
ENDBRANCH  11  22
BRANCH  19  26
ATOM     26  O   UNL     1      -1.526  -6.434   3.355  1.00  0.00    -0.276 OA
BRANCH  26  27
ATOM     27  S   UNL     1      -3.005  -6.884   2.867  1.00  0.00     0.217 S 
ATOM     28  O   UNL     1      -3.689  -7.524   3.967  1.00  0.00    -0.213 OA
ATOM     29  O   UNL     1      -3.612  -5.824   2.101  1.00  0.00    -0.213 OA
ATOM     30  O   UNL     1      -2.666  -8.020   1.777  1.00  0.00    -0.726 OA
ENDBRANCH  26  27
ENDBRANCH  19  26
ENDBRANCH   9  10
ENDBRANCH   7   8
ENDBRANCH   4   6
ENDBRANCH   3   4
ENDBRANCH   2   3
ENDBRANCH   1   2
BRANCH   1  31
ATOM     31  O   UNL     1       3.320  -6.463  -2.870  1.00  0.00    -0.374 OA
BRANCH  31  32
ATOM     32  C   UNL     1       2.994  -6.470  -1.482  1.00  0.00     0.202 C 
BRANCH  32  33
ATOM     33  C   UNL     1       4.132  -6.660  -0.468  1.00  0.00     0.261 C 
BRANCH  33  34
ATOM     34  O   UNL     1       5.133  -5.629  -0.526  1.00  0.00    -0.460 OA
BRANCH  34  35
ATOM     35  C   UNL     1       6.316  -6.030  -1.053  1.00  0.00     0.338 C 
ATOM     36  O   UNL     1       6.623  -7.151  -1.421  1.00  0.00    -0.246 OA
BRANCH  35  37
ATOM     37  C   UNL     1       7.174  -4.861  -1.322  1.00  0.00     0.060 A 
ATOM     38  C   UNL     1       7.588  -4.660  -2.644  1.00  0.00     0.016 A 
ATOM     39  C   UNL     1       7.637  -4.034  -0.298  1.00  0.00     0.016 A 
ATOM     40  C   UNL     1       8.499  -3.652  -2.943  1.00  0.00     0.010 A 
ATOM     41  C   UNL     1       8.560  -3.025  -0.600  1.00  0.00     0.010 A 
ATOM     42  C   UNL     1       9.018  -2.848  -1.919  1.00  0.00    -0.014 A 
BRANCH  42  43
ATOM     43  C   UNL     1      10.115  -1.900  -2.237  1.00  0.00     0.031 A 
ATOM     44  C   UNL     1      11.530  -2.244  -1.859  1.00  0.00     0.074 A 
ATOM     45  C   UNL     1       9.855  -0.773  -2.925  1.00  0.00     0.049 A 
ATOM     46  N   UNL     1      12.633  -1.568  -2.066  1.00  0.00    -0.248 NA
ATOM     47  C   UNL     1      11.732  -3.520  -1.155  1.00  0.00     0.031 C 
ATOM     48  C   UNL     1       8.530  -0.347  -3.373  1.00  0.00     0.029 A 
ATOM     49  N   UNL     1      10.695   0.217  -3.370  1.00  0.00    -0.354 N 
ATOM     50  C   UNL     1      13.656  -2.337  -1.528  1.00  0.00     0.074 A 
ATOM     51  C   UNL     1      13.041  -3.510  -0.944  1.00  0.00     0.031 C 
ATOM     52  C   UNL     1       8.645   0.820  -4.029  1.00  0.00     0.029 A 
ATOM     53  C   UNL     1      10.045   1.239  -4.017  1.00  0.00     0.049 A 
ATOM     54  H   UNL     1      11.670   0.197  -3.238  1.00  0.00     0.167 HD
ATOM     55  C   UNL     1      14.989  -2.096  -1.536  1.00  0.00     0.037 A 
ATOM     56  C   UNL     1      10.524   2.392  -4.522  1.00  0.00     0.037 A 
ATOM     57  C   UNL     1      15.600  -0.925  -2.114  1.00  0.00     0.049 A 
ATOM     58  C   UNL     1      12.004   2.667  -4.451  1.00  0.00     0.074 A 
ATOM     59  C   UNL     1      16.942  -0.591  -2.173  1.00  0.00     0.029 A 
ATOM     60  N   UNL     1      14.906   0.107  -2.729  1.00  0.00    -0.354 N 
ATOM     61  N   UNL     1      12.966   1.920  -3.965  1.00  0.00    -0.248 NA
ATOM     62  C   UNL     1      12.466   3.945  -5.011  1.00  0.00     0.031 C 
ATOM     63  C   UNL     1      17.056   0.667  -2.773  1.00  0.00     0.029 A 
ATOM     64  C   UNL     1      15.791   1.089  -3.148  1.00  0.00     0.049 A 
ATOM     65  H   UNL     1      13.929   0.138  -2.850  1.00  0.00     0.167 HD
ATOM     66  C   UNL     1      14.145   2.623  -4.185  1.00  0.00     0.074 A 
ATOM     67  C   UNL     1      13.780   3.840  -4.878  1.00  0.00     0.031 C 
ATOM     68  C   UNL     1      15.415   2.296  -3.839  1.00  0.00     0.037 A 
BRANCH  55  69
ATOM     69  C   UNL     1      15.890  -3.113  -0.895  1.00  0.00     0.064 A 
ATOM     70  C   UNL     1      16.115  -4.369  -1.480  1.00  0.00     0.173 A 
ATOM     71  C   UNL     1      16.593  -2.803   0.280  1.00  0.00     0.173 A 
ATOM     72  F   UNL     1      15.460  -4.720  -2.597  1.00  0.00    -0.203 F 
ATOM     73  C   UNL     1      16.997  -5.280  -0.905  1.00  0.00     0.198 A 
ATOM     74  C   UNL     1      17.497  -3.705   0.834  1.00  0.00     0.198 A 
ATOM     75  F   UNL     1      16.420  -1.615   0.877  1.00  0.00    -0.203 F 
ATOM     76  F   UNL     1      17.169  -6.487  -1.462  1.00  0.00    -0.200 F 
ATOM     77  C   UNL     1      17.695  -4.944   0.245  1.00  0.00     0.200 A 
ATOM     78  F   UNL     1      18.183  -3.371   1.936  1.00  0.00    -0.200 F 
ATOM     79  F   UNL     1      18.559  -5.814   0.786  1.00  0.00    -0.200 F 
ENDBRANCH  55  69
BRANCH  56  80
ATOM     80  C   UNL     1       9.597   3.394  -5.117  1.00  0.00     0.064 A 
ATOM     81  C   UNL     1       9.668   3.741  -6.473  1.00  0.00     0.173 A 
ATOM     82  C   UNL     1       8.655   4.066  -4.323  1.00  0.00     0.173 A 
ATOM     83  F   UNL     1      10.566   3.144  -7.271  1.00  0.00    -0.203 F 
ATOM     84  C   UNL     1       8.863   4.748  -7.003  1.00  0.00     0.198 A 
ATOM     85  C   UNL     1       7.823   5.045  -4.862  1.00  0.00     0.198 A 
ATOM     86  F   UNL     1       8.542   3.774  -3.019  1.00  0.00    -0.203 F 
ATOM     87  F   UNL     1       9.005   5.110  -8.285  1.00  0.00    -0.200 F 
ATOM     88  C   UNL     1       7.938   5.396  -6.198  1.00  0.00     0.200 A 
ATOM     89  F   UNL     1       6.920   5.656  -4.084  1.00  0.00    -0.200 F 
ATOM     90  F   UNL     1       7.169   6.368  -6.706  1.00  0.00    -0.200 F 
ENDBRANCH  56  80
BRANCH  68  91
ATOM     91  C   UNL     1      16.503   3.255  -4.237  1.00  0.00     0.064 A 
ATOM     92  C   UNL     1      16.612   4.530  -3.660  1.00  0.00     0.173 A 
ATOM     93  C   UNL     1      17.450   2.894  -5.208  1.00  0.00     0.173 A 
ATOM     94  F   UNL     1      15.726   4.931  -2.736  1.00  0.00    -0.203 F 
ATOM     95  C   UNL     1      17.597   5.423  -4.075  1.00  0.00     0.198 A 
ATOM     96  C   UNL     1      18.457   3.775  -5.592  1.00  0.00     0.198 A 
ATOM     97  F   UNL     1      17.401   1.684  -5.785  1.00  0.00    -0.203 F 
ATOM     98  F   UNL     1      17.634   6.661  -3.563  1.00  0.00    -0.200 F 
ATOM     99  C   UNL     1      18.521   5.044  -5.037  1.00  0.00     0.200 A 
ATOM    100  F   UNL     1      19.361   3.400  -6.508  1.00  0.00    -0.200 F 
ATOM    101  F   UNL     1      19.466   5.906  -5.437  1.00  0.00    -0.200 F 
ENDBRANCH  68  91
ENDBRANCH  42  43
ENDBRANCH  35  37
ENDBRANCH  34  35
ENDBRANCH  33  34
ENDBRANCH  32  33
ENDBRANCH  31  32
ENDBRANCH   1  31
TORSDOF 19
