REMARK SMILES O=C(OCCOCCOC(=O)c1oc2cccc3c2c1CCC3)c1ccc(-c2c3nc(c(-c4c(F)c(F)c(F)c(F)c4F)c4ccc([nH]4)c(-c4c(F)c(F)c(F)c(F)c4F)c4nc(c(-c5c(F)c(F)c(F)c(F)c5F)c5ccc2[nH]5)C=C4)C=C3)cc1
REMARK SMILES IDX 5 1 4 2 3 3 2 4 1 5 24 6 25 7 86 8 26 9 85 10 27 11 28 12
REMARK SMILES IDX 29 13 79 14 30 15 84 16 78 17 80 18 31 19 83 20 77 21 76 22
REMARK SMILES IDX 32 24 64 25 44 26 63 27 45 28 48 29 62 30 81 31 46 32 47 33
REMARK SMILES IDX 61 35 82 36 49 37 33 38 34 39 42 40 35 41 36 42 40 43 43 44
REMARK SMILES IDX 37 45 38 46 41 47 39 48 65 49 66 50 74 51 67 52 68 53 72 54
REMARK SMILES IDX 75 55 69 56 70 57 73 58 71 59 50 60 51 61 59 62 52 63 53 64
REMARK SMILES IDX 57 65 60 66 54 67 55 68 58 69 56 70 6 71 7 72 8 73 9 74
REMARK SMILES IDX 10 75 11 76 12 77 13 78 20 79 14 80 19 81 21 82 15 83 18 84
REMARK SMILES IDX 22 85 16 86 17 87 23 88
REMARK H PARENT 80 23 48 34
REMARK Flexibility Score: inf
ROOT
ATOM      1  C   UNL     1       4.808  -1.001   0.376  1.00  0.00     0.202 C 
ENDROOT
BRANCH   1   2
ATOM      2  C   UNL     1       4.594   0.088   1.423  1.00  0.00     0.261 C 
BRANCH   2   3
ATOM      3  O   UNL     1       3.211   0.339   1.748  1.00  0.00    -0.460 OA
BRANCH   3   4
ATOM      4  C   UNL     1       2.244   0.574   0.831  1.00  0.00     0.338 C 
ATOM      5  O   UNL     1       1.184  -0.044   0.854  1.00  0.00    -0.246 OA
BRANCH   4   6
ATOM      6  C   UNL     1       2.354   1.817   0.027  1.00  0.00     0.060 A 
ATOM      7  C   UNL     1       3.556   2.461  -0.245  1.00  0.00     0.016 A 
ATOM      8  C   UNL     1       1.146   2.425  -0.355  1.00  0.00     0.016 A 
ATOM      9  C   UNL     1       3.549   3.785  -0.623  1.00  0.00     0.010 A 
ATOM     10  C   UNL     1       1.133   3.737  -0.804  1.00  0.00     0.010 A 
ATOM     11  C   UNL     1       2.333   4.433  -0.839  1.00  0.00    -0.014 A 
BRANCH  11  12
ATOM     12  C   UNL     1       2.430   5.845  -1.151  1.00  0.00     0.031 A 
ATOM     13  C   UNL     1       3.194   6.149  -2.385  1.00  0.00     0.074 A 
ATOM     14  C   UNL     1       1.943   6.808  -0.351  1.00  0.00     0.049 A 
ATOM     15  N   UNL     1       4.336   6.746  -2.483  1.00  0.00    -0.248 NA
ATOM     16  C   UNL     1       2.684   5.597  -3.646  1.00  0.00     0.031 C 
ATOM     17  C   UNL     1       0.997   6.694   0.757  1.00  0.00     0.029 A 
ATOM     18  N   UNL     1       2.179   8.144  -0.430  1.00  0.00    -0.354 N 
ATOM     19  C   UNL     1       4.632   6.780  -3.842  1.00  0.00     0.074 A 
ATOM     20  C   UNL     1       3.646   5.959  -4.495  1.00  0.00     0.031 C 
ATOM     21  C   UNL     1       0.579   7.933   1.107  1.00  0.00     0.029 A 
ATOM     22  C   UNL     1       1.334   8.916   0.346  1.00  0.00     0.049 A 
ATOM     23  H   UNL     1       2.890   8.530  -0.991  1.00  0.00     0.167 HD
ATOM     24  C   UNL     1       5.555   7.645  -4.341  1.00  0.00     0.037 A 
ATOM     25  C   UNL     1       1.224  10.265   0.292  1.00  0.00     0.037 A 
ATOM     26  C   UNL     1       6.494   8.052  -3.327  1.00  0.00     0.049 A 
ATOM     27  C   UNL     1       2.483  10.794  -0.292  1.00  0.00     0.074 A 
ATOM     28  C   UNL     1       7.415   7.387  -2.538  1.00  0.00     0.029 A 
ATOM     29  N   UNL     1       6.354   9.291  -2.755  1.00  0.00    -0.354 N 
ATOM     30  N   UNL     1       3.638  10.768   0.314  1.00  0.00    -0.248 NA
ATOM     31  C   UNL     1       2.542  10.978  -1.736  1.00  0.00     0.031 C 
ATOM     32  C   UNL     1       7.397   8.070  -1.287  1.00  0.00     0.029 A 
ATOM     33  C   UNL     1       6.494   9.127  -1.402  1.00  0.00     0.049 A 
ATOM     34  H   UNL     1       6.185  10.138  -3.228  1.00  0.00     0.167 HD
ATOM     35  C   UNL     1       4.559  10.511  -0.690  1.00  0.00     0.074 A 
ATOM     36  C   UNL     1       3.841  10.746  -1.938  1.00  0.00     0.031 C 
ATOM     37  C   UNL     1       5.733   9.867  -0.425  1.00  0.00     0.037 A 
BRANCH  24  38
ATOM     38  C   UNL     1       5.377   8.398  -5.639  1.00  0.00     0.064 A 
ATOM     39  C   UNL     1       6.397   9.271  -6.068  1.00  0.00     0.173 A 
ATOM     40  C   UNL     1       4.138   8.544  -6.303  1.00  0.00     0.173 A 
ATOM     41  F   UNL     1       7.618   9.225  -5.513  1.00  0.00    -0.203 F 
ATOM     42  C   UNL     1       6.160  10.283  -7.003  1.00  0.00     0.198 A 
ATOM     43  C   UNL     1       3.921   9.522  -7.271  1.00  0.00     0.198 A 
ATOM     44  F   UNL     1       3.057   7.829  -5.975  1.00  0.00    -0.203 F 
ATOM     45  F   UNL     1       7.121  11.177  -7.271  1.00  0.00    -0.200 F 
ATOM     46  C   UNL     1       4.918  10.416  -7.592  1.00  0.00     0.200 A 
ATOM     47  F   UNL     1       2.705   9.640  -7.823  1.00  0.00    -0.200 F 
ATOM     48  F   UNL     1       4.665  11.430  -8.430  1.00  0.00    -0.200 F 
ENDBRANCH  24  38
BRANCH  25  49
ATOM     49  C   UNL     1      -0.018  11.068   0.373  1.00  0.00     0.064 A 
ATOM     50  C   UNL     1       0.037  12.461   0.534  1.00  0.00     0.173 A 
ATOM     51  C   UNL     1      -1.268  10.528   0.009  1.00  0.00     0.173 A 
ATOM     52  F   UNL     1       1.198  13.060   0.836  1.00  0.00    -0.203 F 
ATOM     53  C   UNL     1      -1.082  13.269   0.310  1.00  0.00     0.198 A 
ATOM     54  C   UNL     1      -2.386  11.334  -0.204  1.00  0.00     0.198 A 
ATOM     55  F   UNL     1      -1.408   9.220  -0.246  1.00  0.00    -0.203 F 
ATOM     56  F   UNL     1      -0.974  14.602   0.403  1.00  0.00    -0.200 F 
ATOM     57  C   UNL     1      -2.289  12.705  -0.070  1.00  0.00     0.200 A 
ATOM     58  F   UNL     1      -3.538  10.777  -0.606  1.00  0.00    -0.200 F 
ATOM     59  F   UNL     1      -3.344  13.483  -0.348  1.00  0.00    -0.200 F 
ENDBRANCH  25  49
BRANCH  37  60
ATOM     60  C   UNL     1       6.125   9.685   1.013  1.00  0.00     0.064 A 
ATOM     61  C   UNL     1       5.393   8.906   1.926  1.00  0.00     0.173 A 
ATOM     62  C   UNL     1       7.365  10.183   1.435  1.00  0.00     0.173 A 
ATOM     63  F   UNL     1       4.248   8.312   1.563  1.00  0.00    -0.203 F 
ATOM     64  C   UNL     1       5.868   8.671   3.215  1.00  0.00     0.198 A 
ATOM     65  C   UNL     1       7.853   9.916   2.711  1.00  0.00     0.198 A 
ATOM     66  F   UNL     1       8.132  10.885   0.585  1.00  0.00    -0.203 F 
ATOM     67  F   UNL     1       5.151   7.928   4.071  1.00  0.00    -0.200 F 
ATOM     68  C   UNL     1       7.101   9.169   3.603  1.00  0.00     0.200 A 
ATOM     69  F   UNL     1       9.068  10.357   3.064  1.00  0.00    -0.200 F 
ATOM     70  F   UNL     1       7.580   8.902   4.826  1.00  0.00    -0.200 F 
ENDBRANCH  37  60
ENDBRANCH  11  12
ENDBRANCH   4   6
ENDBRANCH   3   4
ENDBRANCH   2   3
ENDBRANCH   1   2
BRANCH   1  71
ATOM     71  O   UNL     1       4.336  -0.738  -0.944  1.00  0.00    -0.374 OA
BRANCH  71  72
ATOM     72  C   UNL     1       3.185  -1.486  -1.366  1.00  0.00     0.202 C 
BRANCH  72  73
ATOM     73  C   UNL     1       3.311  -3.003  -1.595  1.00  0.00     0.261 C 
BRANCH  73  74
ATOM     74  O   UNL     1       3.604  -3.734  -0.392  1.00  0.00    -0.457 OA
BRANCH  74  75
ATOM     75  C   UNL     1       4.927  -3.999  -0.189  1.00  0.00     0.374 C 
ATOM     76  O   UNL     1       5.809  -3.803  -1.021  1.00  0.00    -0.242 OA
BRANCH  75  77
ATOM     77  C   UNL     1       5.149  -4.365   1.187  1.00  0.00     0.216 A 
ATOM     78  O   UNL     1       6.258  -3.818   1.818  1.00  0.00    -0.449 OA
ATOM     79  C   UNL     1       4.465  -5.160   2.086  1.00  0.00     0.014 A 
ATOM     80  C   UNL     1       6.320  -4.344   3.076  1.00  0.00     0.135 A 
ATOM     81  C   UNL     1       5.270  -5.210   3.239  1.00  0.00     0.028 A 
ATOM     82  C   UNL     1       3.229  -5.987   2.054  1.00  0.00     0.041 C 
ATOM     83  C   UNL     1       7.268  -4.124   4.064  1.00  0.00     0.048 A 
ATOM     84  C   UNL     1       5.125  -6.016   4.367  1.00  0.00    -0.037 A 
ATOM     85  C   UNL     1       3.441  -7.261   2.926  1.00  0.00     0.010 C 
ATOM     86  C   UNL     1       7.116  -4.900   5.231  1.00  0.00     0.004 A 
ATOM     87  C   UNL     1       6.074  -5.838   5.380  1.00  0.00     0.004 A 
ATOM     88  C   UNL     1       3.976  -6.988   4.373  1.00  0.00     0.036 C 
ENDBRANCH  75  77
ENDBRANCH  74  75
ENDBRANCH  73  74
ENDBRANCH  72  73
ENDBRANCH  71  72
ENDBRANCH   1  71
TORSDOF 14
