REMARK SMILES Cc1oc2c(C)c3oc(=O)c(CCC(=O)N[C@H](Cc4ccc(Cl)cc4)C(=O)OCCOCCOC(=O)c4ccc(-c5c6nc(c(-c7c(F)c(F)c(F)c(F)c7F)c7ccc([nH]7)c(-c7c(F)c(F)c(F)c(F)c7F)c7nc(c(-c8c(F)c(F)c(F)c(F)c8F)c8ccc5[nH]8)C=C7)C=C6)cc4)c(C)c3cc2c1C
REMARK SMILES IDX 30 1 29 2 28 3 26 4 27 5 17 6 16 7 14 8 15 9 13 11 12 12
REMARK SMILES IDX 11 13 1 14 2 15 3 16 105 17 4 18 104 19 106 20 5 21 103 22
REMARK SMILES IDX 6 23 7 24 102 25 8 26 100 27 9 28 101 29 10 30 18 31 19 32
REMARK SMILES IDX 20 33 25 34 21 35 24 36 22 37 23 38 31 39 32 40 33 41 34 42
REMARK SMILES IDX 35 43 36 44 37 45 38 46 99 47 39 48 98 49 40 50 41 51 42 52
REMARK SMILES IDX 92 53 43 54 97 55 91 56 93 57 44 58 96 59 90 60 89 61 45 63
REMARK SMILES IDX 77 64 57 65 76 66 58 67 61 68 75 69 94 70 59 71 60 72 74 74
REMARK SMILES IDX 95 75 62 76 46 77 47 78 55 79 48 80 49 81 53 82 56 83 50 84
REMARK SMILES IDX 51 85 54 86 52 87 78 88 79 89 87 90 80 91 81 92 85 93 88 94
REMARK SMILES IDX 82 95 83 96 86 97 84 98 63 99 64 100 72 101 65 102 66 103
REMARK SMILES IDX 70 104 73 105 67 106 68 107 71 108 69 109
REMARK H PARENT 16 10 93 62 61 73
REMARK Flexibility Score: inf
ROOT
ATOM      1  C   UNL     1       1.224  -0.025   6.908  1.00  0.00     0.202 C 
ENDROOT
BRANCH   1   2
ATOM      2  C   UNL     1       0.803  -0.286   5.467  1.00  0.00     0.261 C 
BRANCH   2   3
ATOM      3  O   UNL     1      -0.529  -0.805   5.475  1.00  0.00    -0.462 OA
BRANCH   3   4
ATOM      4  C   UNL     1      -0.581  -2.137   5.250  1.00  0.00     0.329 C 
ATOM      5  O   UNL     1       0.307  -2.756   4.676  1.00  0.00    -0.250 OA
BRANCH   4   6
ATOM      6  C   UNL     1      -1.867  -2.802   5.748  1.00  0.00     0.196 C 
BRANCH   6   7
ATOM      7  N   UNL     1      -2.301  -3.575   4.575  1.00  0.00    -0.342 N 
ATOM      8  C   UNL     1      -2.652  -4.871   4.431  1.00  0.00     0.221 C 
ATOM      9  O   UNL     1      -2.761  -5.322   3.291  1.00  0.00    -0.275 OA
ATOM     10  H   UNL     1      -2.344  -3.051   3.742  1.00  0.00     0.164 HD
BRANCH   8  11
ATOM     11  C   UNL     1      -2.906  -5.723   5.646  1.00  0.00     0.105 C 
BRANCH  11  12
ATOM     12  C   UNL     1      -1.765  -6.713   5.906  1.00  0.00     0.053 C 
BRANCH  12  13
ATOM     13  C   UNL     1      -0.518  -6.081   6.504  1.00  0.00     0.042 A 
ATOM     14  C   UNL     1       5.659  -0.518   7.512  1.00  0.00     0.088 C 
ATOM     15  C   UNL     1       4.790  -1.683   7.242  1.00  0.00     0.105 A 
ATOM     16  O   UNL     1       4.250  -2.301   8.328  1.00  0.00    -0.461 OA
ATOM     17  C   UNL     1       4.321  -2.255   6.074  1.00  0.00    -0.002 A 
ATOM     18  C   UNL     1       3.384  -3.252   7.867  1.00  0.00     0.141 A 
ATOM     19  C   UNL     1       3.460  -3.320   6.484  1.00  0.00     0.025 A 
ATOM     20  C   UNL     1       4.541  -1.763   4.693  1.00  0.00     0.049 C 
ATOM     21  C   UNL     1       2.477  -3.977   8.648  1.00  0.00     0.036 A 
ATOM     22  C   UNL     1       2.642  -4.245   5.807  1.00  0.00     0.024 A 
ATOM     23  C   UNL     1       2.339  -3.734  10.118  1.00  0.00     0.052 C 
ATOM     24  C   UNL     1       1.587  -4.786   7.899  1.00  0.00     0.145 A 
ATOM     25  C   UNL     1       1.646  -4.947   6.510  1.00  0.00     0.022 A 
ATOM     26  O   UNL     1       0.520  -5.372   8.616  1.00  0.00    -0.422 OA
ATOM     27  C   UNL     1       0.575  -5.699   5.807  1.00  0.00    -0.030 A 
ATOM     28  C   UNL     1      -0.592  -5.889   7.980  1.00  0.00     0.339 A 
ATOM     29  C   UNL     1       0.722  -5.881   4.313  1.00  0.00     0.046 C 
ATOM     30  O   UNL     1      -1.608  -6.161   8.612  1.00  0.00    -0.246 OA
ENDBRANCH  12  13
ENDBRANCH  11  12
ENDBRANCH   8  11
ENDBRANCH   6   7
BRANCH   6  31
ATOM     31  C   UNL     1      -2.935  -1.852   6.357  1.00  0.00     0.072 C 
BRANCH  31  32
ATOM     32  C   UNL     1      -4.134  -1.687   5.471  1.00  0.00    -0.045 A 
ATOM     33  C   UNL     1      -3.980  -1.053   4.231  1.00  0.00     0.005 A 
ATOM     34  C   UNL     1      -5.333  -2.330   5.794  1.00  0.00     0.005 A 
ATOM     35  C   UNL     1      -4.958  -1.208   3.257  1.00  0.00     0.021 A 
ATOM     36  C   UNL     1      -6.324  -2.455   4.827  1.00  0.00     0.021 A 
ATOM     37  C   UNL     1      -6.112  -1.932   3.551  1.00  0.00     0.041 A 
ATOM     38  Cl  UNL     1      -7.266  -2.224   2.311  1.00  0.00    -0.084 Cl
ENDBRANCH  31  32
ENDBRANCH   6  31
ENDBRANCH   4   6
ENDBRANCH   3   4
ENDBRANCH   2   3
ENDBRANCH   1   2
BRANCH   1  39
ATOM     39  O   UNL     1       1.119  -1.164   7.769  1.00  0.00    -0.374 OA
BRANCH  39  40
ATOM     40  C   UNL     1      -0.124  -1.355   8.442  1.00  0.00     0.202 C 
BRANCH  40  41
ATOM     41  C   UNL     1      -0.354  -0.586   9.743  1.00  0.00     0.261 C 
BRANCH  41  42
ATOM     42  O   UNL     1       0.131   0.748   9.649  1.00  0.00    -0.460 OA
BRANCH  42  43
ATOM     43  C   UNL     1       1.445   0.805   9.975  1.00  0.00     0.338 C 
ATOM     44  O   UNL     1       2.132  -0.071  10.457  1.00  0.00    -0.246 OA
BRANCH  43  45
ATOM     45  C   UNL     1       2.013   2.084   9.557  1.00  0.00     0.060 A 
ATOM     46  C   UNL     1       3.278   2.039   8.964  1.00  0.00     0.016 A 
ATOM     47  C   UNL     1       1.405   3.282   9.902  1.00  0.00     0.016 A 
ATOM     48  C   UNL     1       4.014   3.199   8.821  1.00  0.00     0.010 A 
ATOM     49  C   UNL     1       2.159   4.438   9.798  1.00  0.00     0.010 A 
ATOM     50  C   UNL     1       3.474   4.393   9.293  1.00  0.00    -0.014 A 
BRANCH  50  51
ATOM     51  C   UNL     1       4.325   5.594   9.243  1.00  0.00     0.031 A 
ATOM     52  C   UNL     1       3.622   6.760   8.637  1.00  0.00     0.074 A 
ATOM     53  C   UNL     1       5.291   5.777  10.172  1.00  0.00     0.049 A 
ATOM     54  N   UNL     1       2.722   7.401   9.322  1.00  0.00    -0.248 NA
ATOM     55  C   UNL     1       3.553   7.016   7.200  1.00  0.00     0.031 C 
ATOM     56  C   UNL     1       5.314   5.100  11.478  1.00  0.00     0.029 A 
ATOM     57  N   UNL     1       6.312   6.697  10.258  1.00  0.00    -0.354 N 
ATOM     58  C   UNL     1       1.893   8.037   8.428  1.00  0.00     0.074 A 
ATOM     59  C   UNL     1       2.483   7.829   7.123  1.00  0.00     0.031 C 
ATOM     60  C   UNL     1       6.170   5.748  12.291  1.00  0.00     0.029 A 
ATOM     61  C   UNL     1       6.858   6.799  11.543  1.00  0.00     0.049 A 
ATOM     62  H   UNL     1       6.628   7.230   9.492  1.00  0.00     0.167 HD
ATOM     63  C   UNL     1       0.744   8.635   8.837  1.00  0.00     0.037 A 
ATOM     64  C   UNL     1       7.212   7.991  12.107  1.00  0.00     0.037 A 
ATOM     65  C   UNL     1       0.410   8.461  10.223  1.00  0.00     0.049 A 
ATOM     66  C   UNL     1       5.867   8.674  12.243  1.00  0.00     0.074 A 
ATOM     67  C   UNL     1      -0.466   7.703  10.970  1.00  0.00     0.029 A 
ATOM     68  N   UNL     1       1.141   9.162  11.153  1.00  0.00    -0.354 N 
ATOM     69  N   UNL     1       4.958   8.424  13.151  1.00  0.00    -0.248 NA
ATOM     70  C   UNL     1       5.379   9.428  11.088  1.00  0.00     0.031 C 
ATOM     71  C   UNL     1       0.106   7.642  12.282  1.00  0.00     0.029 A 
ATOM     72  C   UNL     1       1.308   8.348  12.244  1.00  0.00     0.049 A 
ATOM     73  H   UNL     1       1.483  10.080  11.053  1.00  0.00     0.167 HD
ATOM     74  C   UNL     1       3.737   8.754  12.555  1.00  0.00     0.074 A 
ATOM     75  C   UNL     1       4.073   9.396  11.303  1.00  0.00     0.031 C 
ATOM     76  C   UNL     1       2.526   8.330  13.022  1.00  0.00     0.037 A 
BRANCH  63  77
ATOM     77  C   UNL     1      -0.037   9.584   8.033  1.00  0.00     0.064 A 
ATOM     78  C   UNL     1       0.192  10.944   8.297  1.00  0.00     0.173 A 
ATOM     79  C   UNL     1      -1.118   9.234   7.225  1.00  0.00     0.173 A 
ATOM     80  F   UNL     1       1.217  11.307   9.087  1.00  0.00    -0.203 F 
ATOM     81  C   UNL     1      -0.660  11.923   7.811  1.00  0.00     0.198 A 
ATOM     82  C   UNL     1      -1.966  10.223   6.724  1.00  0.00     0.198 A 
ATOM     83  F   UNL     1      -1.384   7.946   6.963  1.00  0.00    -0.203 F 
ATOM     84  F   UNL     1      -0.448  13.206   8.134  1.00  0.00    -0.200 F 
ATOM     85  C   UNL     1      -1.745  11.562   7.032  1.00  0.00     0.200 A 
ATOM     86  F   UNL     1      -3.021   9.883   5.971  1.00  0.00    -0.200 F 
ATOM     87  F   UNL     1      -2.588  12.505   6.589  1.00  0.00    -0.200 F 
ENDBRANCH  63  77
BRANCH  64  88
ATOM     88  C   UNL     1       8.418   8.645  11.499  1.00  0.00     0.064 A 
ATOM     89  C   UNL     1       9.568   7.857  11.272  1.00  0.00     0.173 A 
ATOM     90  C   UNL     1       8.512   9.989  11.109  1.00  0.00     0.173 A 
ATOM     91  F   UNL     1       9.623   6.596  11.727  1.00  0.00    -0.203 F 
ATOM     92  C   UNL     1      10.666   8.337  10.559  1.00  0.00     0.198 A 
ATOM     93  C   UNL     1       9.598  10.462  10.367  1.00  0.00     0.198 A 
ATOM     94  F   UNL     1       7.551  10.869  11.416  1.00  0.00    -0.203 F 
ATOM     95  F   UNL     1      11.710   7.532  10.319  1.00  0.00    -0.200 F 
ATOM     96  C   UNL     1      10.663   9.630  10.071  1.00  0.00     0.200 A 
ATOM     97  F   UNL     1       9.593  11.723   9.913  1.00  0.00    -0.200 F 
ATOM     98  F   UNL     1      11.681  10.073   9.322  1.00  0.00    -0.200 F 
ENDBRANCH  64  88
BRANCH  76  99
ATOM     99  C   UNL     1       2.547   7.638  14.341  1.00  0.00     0.064 A 
ATOM    100  C   UNL     1       2.806   8.371  15.506  1.00  0.00     0.173 A 
ATOM    101  C   UNL     1       2.243   6.274  14.472  1.00  0.00     0.173 A 
ATOM    102  F   UNL     1       3.087   9.682  15.432  1.00  0.00    -0.203 F 
ATOM    103  C   UNL     1       2.735   7.770  16.758  1.00  0.00     0.198 A 
ATOM    104  C   UNL     1       2.147   5.683  15.729  1.00  0.00     0.198 A 
ATOM    105  F   UNL     1       2.001   5.516  13.390  1.00  0.00    -0.203 F 
ATOM    106  F   UNL     1       2.970   8.495  17.861  1.00  0.00    -0.200 F 
ATOM    107  C   UNL     1       2.390   6.432  16.870  1.00  0.00     0.200 A 
ATOM    108  F   UNL     1       1.790   4.395  15.839  1.00  0.00    -0.200 F 
ATOM    109  F   UNL     1       2.271   5.869  18.081  1.00  0.00    -0.200 F 
ENDBRANCH  76  99
ENDBRANCH  50  51
ENDBRANCH  43  45
ENDBRANCH  42  43
ENDBRANCH  41  42
ENDBRANCH  40  41
ENDBRANCH  39  40
ENDBRANCH   1  39
TORSDOF 20
