REMARK SMILES O=C(OCCOCCOC(=O)c1ccc2nc(Cl)sc2c1)c1ccc(-c2c3nc(c(-c4c(F)c(F)c(F)c(F)c4F)c4ccc([nH]4)c(-c4c(F)c(F)c(F)c(F)c4F)c4nc(c(-c5c(F)c(F)c(F)c(F)c5F)c5ccc2[nH]5)C=C4)C=C3)cc1
REMARK SMILES IDX 5 1 4 2 3 3 2 4 1 5 22 6 23 7 84 8 24 9 83 10 25 11 26 12
REMARK SMILES IDX 27 13 77 14 28 15 82 16 76 17 78 18 29 19 81 20 75 21 74 22
REMARK SMILES IDX 30 24 62 25 42 26 61 27 43 28 46 29 60 30 79 31 44 32 45 33
REMARK SMILES IDX 59 35 80 36 47 37 31 38 32 39 40 40 33 41 34 42 38 43 41 44
REMARK SMILES IDX 35 45 36 46 39 47 37 48 63 49 64 50 72 51 65 52 66 53 70 54
REMARK SMILES IDX 73 55 67 56 68 57 71 58 69 59 48 60 49 61 57 62 50 63 51 64
REMARK SMILES IDX 55 65 58 66 52 67 53 68 56 69 54 70 6 71 7 72 8 73 9 74
REMARK SMILES IDX 10 75 11 76 12 77 13 78 21 79 14 80 20 81 15 82 19 83 16 84
REMARK SMILES IDX 17 85 18 86
REMARK H PARENT 78 23 46 34
REMARK Flexibility Score: inf
ROOT
ATOM      1  C   UNL     1       4.527   0.984   0.169  1.00  0.00     0.202 C 
ENDROOT
BRANCH   1   2
ATOM      2  C   UNL     1       4.204  -0.326  -0.562  1.00  0.00     0.261 C 
BRANCH   2   3
ATOM      3  O   UNL     1       2.812  -0.672  -0.438  1.00  0.00    -0.460 OA
BRANCH   3   4
ATOM      4  C   UNL     1       2.395  -1.829   0.142  1.00  0.00     0.338 C 
ATOM      5  O   UNL     1       1.571  -2.552  -0.404  1.00  0.00    -0.246 OA
BRANCH   4   6
ATOM      6  C   UNL     1       2.686  -2.007   1.593  1.00  0.00     0.060 A 
ATOM      7  C   UNL     1       1.637  -2.405   2.436  1.00  0.00     0.016 A 
ATOM      8  C   UNL     1       3.931  -1.772   2.160  1.00  0.00     0.016 A 
ATOM      9  C   UNL     1       1.829  -2.491   3.823  1.00  0.00     0.010 A 
ATOM     10  C   UNL     1       4.098  -1.774   3.538  1.00  0.00     0.010 A 
ATOM     11  C   UNL     1       3.062  -2.143   4.395  1.00  0.00    -0.014 A 
BRANCH  11  12
ATOM     12  C   UNL     1       3.328  -2.323   5.845  1.00  0.00     0.031 A 
ATOM     13  C   UNL     1       4.777  -2.196   6.262  1.00  0.00     0.074 A 
ATOM     14  C   UNL     1       2.412  -1.963   6.766  1.00  0.00     0.049 A 
ATOM     15  N   UNL     1       5.390  -1.079   6.544  1.00  0.00    -0.248 NA
ATOM     16  C   UNL     1       5.689  -3.328   6.062  1.00  0.00     0.031 C 
ATOM     17  C   UNL     1       1.761  -0.652   6.804  1.00  0.00     0.029 A 
ATOM     18  N   UNL     1       2.127  -2.536   7.986  1.00  0.00    -0.354 N 
ATOM     19  C   UNL     1       6.755  -1.338   6.502  1.00  0.00     0.074 A 
ATOM     20  C   UNL     1       6.888  -2.745   6.197  1.00  0.00     0.031 C 
ATOM     21  C   UNL     1       1.283  -0.451   8.048  1.00  0.00     0.029 A 
ATOM     22  C   UNL     1       1.518  -1.645   8.861  1.00  0.00     0.049 A 
ATOM     23  H   UNL     1       2.332  -3.472   8.212  1.00  0.00     0.167 HD
ATOM     24  C   UNL     1       7.723  -0.401   6.698  1.00  0.00     0.037 A 
ATOM     25  C   UNL     1       1.700  -1.663  10.210  1.00  0.00     0.037 A 
ATOM     26  C   UNL     1       7.277   0.912   7.037  1.00  0.00     0.049 A 
ATOM     27  C   UNL     1       2.974  -0.865  10.333  1.00  0.00     0.074 A 
ATOM     28  C   UNL     1       7.068   2.118   6.404  1.00  0.00     0.029 A 
ATOM     29  N   UNL     1       6.924   1.142   8.346  1.00  0.00    -0.354 N 
ATOM     30  N   UNL     1       3.085   0.437  10.293  1.00  0.00    -0.248 NA
ATOM     31  C   UNL     1       4.232  -1.590  10.132  1.00  0.00     0.031 C 
ATOM     32  C   UNL     1       6.169   2.840   7.253  1.00  0.00     0.029 A 
ATOM     33  C   UNL     1       5.857   1.999   8.319  1.00  0.00     0.049 A 
ATOM     34  H   UNL     1       7.355   0.764   9.146  1.00  0.00     0.167 HD
ATOM     35  C   UNL     1       4.365   0.679   9.785  1.00  0.00     0.074 A 
ATOM     36  C   UNL     1       5.038  -0.602   9.770  1.00  0.00     0.031 C 
ATOM     37  C   UNL     1       4.730   1.860   9.209  1.00  0.00     0.037 A 
BRANCH  24  38
ATOM     38  C   UNL     1       9.170  -0.692   6.776  1.00  0.00     0.064 A 
ATOM     39  C   UNL     1       9.753  -0.791   8.048  1.00  0.00     0.173 A 
ATOM     40  C   UNL     1      10.016  -0.657   5.663  1.00  0.00     0.173 A 
ATOM     41  F   UNL     1       8.972  -0.814   9.141  1.00  0.00    -0.203 F 
ATOM     42  C   UNL     1      11.133  -0.813   8.209  1.00  0.00     0.198 A 
ATOM     43  C   UNL     1      11.402  -0.690   5.826  1.00  0.00     0.198 A 
ATOM     44  F   UNL     1       9.507  -0.551   4.427  1.00  0.00    -0.203 F 
ATOM     45  F   UNL     1      11.659  -0.861   9.441  1.00  0.00    -0.200 F 
ATOM     46  C   UNL     1      11.958  -0.753   7.098  1.00  0.00     0.200 A 
ATOM     47  F   UNL     1      12.205  -0.630   4.754  1.00  0.00    -0.200 F 
ATOM     48  F   UNL     1      13.289  -0.744   7.255  1.00  0.00    -0.200 F 
ENDBRANCH  24  38
BRANCH  25  49
ATOM     49  C   UNL     1       1.450  -2.972  10.893  1.00  0.00     0.064 A 
ATOM     50  C   UNL     1       0.222  -3.624  10.643  1.00  0.00     0.173 A 
ATOM     51  C   UNL     1       2.328  -3.633  11.764  1.00  0.00     0.173 A 
ATOM     52  F   UNL     1      -0.727  -3.016   9.914  1.00  0.00    -0.203 F 
ATOM     53  C   UNL     1      -0.048  -4.907  11.120  1.00  0.00     0.198 A 
ATOM     54  C   UNL     1       2.069  -4.928  12.222  1.00  0.00     0.198 A 
ATOM     55  F   UNL     1       3.461  -3.053  12.180  1.00  0.00    -0.203 F 
ATOM     56  F   UNL     1      -1.210  -5.502  10.817  1.00  0.00    -0.200 F 
ATOM     57  C   UNL     1       0.892  -5.572  11.883  1.00  0.00     0.200 A 
ATOM     58  F   UNL     1       2.981  -5.561  12.974  1.00  0.00    -0.200 F 
ATOM     59  F   UNL     1       0.665  -6.827  12.294  1.00  0.00    -0.200 F 
ENDBRANCH  25  49
BRANCH  37  60
ATOM     60  C   UNL     1       3.732   2.956   9.305  1.00  0.00     0.064 A 
ATOM     61  C   UNL     1       3.524   3.613  10.523  1.00  0.00     0.173 A 
ATOM     62  C   UNL     1       3.006   3.386   8.184  1.00  0.00     0.173 A 
ATOM     63  F   UNL     1       4.201   3.237  11.620  1.00  0.00    -0.203 F 
ATOM     64  C   UNL     1       2.638   4.680  10.610  1.00  0.00     0.198 A 
ATOM     65  C   UNL     1       2.142   4.471   8.269  1.00  0.00     0.198 A 
ATOM     66  F   UNL     1       3.145   2.774   6.997  1.00  0.00    -0.203 F 
ATOM     67  F   UNL     1       2.455   5.303  11.783  1.00  0.00    -0.200 F 
ATOM     68  C   UNL     1       1.959   5.118   9.482  1.00  0.00     0.200 A 
ATOM     69  F   UNL     1       1.499   4.902   7.174  1.00  0.00    -0.200 F 
ATOM     70  F   UNL     1       1.135   6.172   9.560  1.00  0.00    -0.200 F 
ENDBRANCH  37  60
ENDBRANCH  11  12
ENDBRANCH   4   6
ENDBRANCH   3   4
ENDBRANCH   2   3
ENDBRANCH   1   2
BRANCH   1  71
ATOM     71  O   UNL     1       4.203   0.982   1.559  1.00  0.00    -0.374 OA
BRANCH  71  72
ATOM     72  C   UNL     1       2.876   1.423   1.869  1.00  0.00     0.202 C 
BRANCH  72  73
ATOM     73  C   UNL     1       2.849   2.856   2.401  1.00  0.00     0.261 C 
BRANCH  73  74
ATOM     74  O   UNL     1       3.252   3.780   1.378  1.00  0.00    -0.460 OA
BRANCH  74  75
ATOM     75  C   UNL     1       4.570   4.089   1.365  1.00  0.00     0.338 C 
ATOM     76  O   UNL     1       5.433   3.756   2.157  1.00  0.00    -0.246 OA
BRANCH  75  77
ATOM     77  C   UNL     1       4.858   4.777   0.095  1.00  0.00     0.061 A 
ATOM     78  C   UNL     1       4.101   5.876  -0.308  1.00  0.00     0.018 A 
ATOM     79  C   UNL     1       5.901   4.275  -0.695  1.00  0.00     0.037 A 
ATOM     80  C   UNL     1       4.378   6.502  -1.528  1.00  0.00     0.031 A 
ATOM     81  C   UNL     1       6.145   4.897  -1.927  1.00  0.00     0.057 A 
ATOM     82  C   UNL     1       5.407   6.006  -2.357  1.00  0.00     0.083 A 
ATOM     83  S   UNL     1       7.311   4.497  -3.134  1.00  0.00    -0.102 S 
ATOM     84  N   UNL     1       5.773   6.519  -3.589  1.00  0.00    -0.225 NA
ATOM     85  C   UNL     1       6.757   5.801  -4.065  1.00  0.00     0.184 A 
ATOM     86  Cl  UNL     1       7.489   6.139  -5.580  1.00  0.00    -0.050 Cl
ENDBRANCH  75  77
ENDBRANCH  74  75
ENDBRANCH  73  74
ENDBRANCH  72  73
ENDBRANCH  71  72
ENDBRANCH   1  71
TORSDOF 14
