REMARK SMILES C[C@]([NH3+])(Cc1ccccc1Br)C(=O)OCCOCCOC(=O)c1ccc(-c2c3nc(c(-c4c(F)c(F)c(F)c(F)c4F)c4ccc([nH]4)c(-c4c(F)c(F)c(F)c(F)c4F)c4nc(c(-c5c(F)c(F)c(F)c(F)c5F)c5ccc2[nH]5)C=C4)C=C3)cc1
REMARK SMILES IDX 17 1 16 2 15 3 14 4 12 5 13 6 2 7 1 8 4 9 5 10 6 11 10 12
REMARK SMILES IDX 7 13 9 14 11 15 8 16 3 17 18 21 19 22 20 23 21 24 22 25
REMARK SMILES IDX 23 26 24 27 85 28 25 29 84 30 26 31 27 32 28 33 78 34 29 35
REMARK SMILES IDX 83 36 77 37 79 38 30 39 82 40 76 41 75 42 31 44 63 45 43 46
REMARK SMILES IDX 62 47 44 48 47 49 61 50 80 51 45 52 46 53 60 55 81 56 48 57
REMARK SMILES IDX 32 58 33 59 41 60 34 61 35 62 39 63 42 64 36 65 37 66 40 67
REMARK SMILES IDX 38 68 64 69 65 70 73 71 66 72 67 73 71 74 74 75 68 76 69 77
REMARK SMILES IDX 72 78 70 79 49 80 50 81 58 82 51 83 52 84 56 85 59 86 53 87
REMARK SMILES IDX 54 88 57 89 55 90
REMARK H PARENT 3 18 3 19 3 20 79 43 47 54
REMARK Flexibility Score: inf
ROOT
ATOM      1  O   UNL     1       2.363  -4.460   1.193  1.00  0.00    -0.374 OA
ENDROOT
BRANCH   1   2
ATOM      2  C   UNL     1       2.079  -4.529   2.585  1.00  0.00     0.202 C 
BRANCH   2   3
ATOM      3  C   UNL     1       1.817  -3.212   3.332  1.00  0.00     0.261 C 
BRANCH   3   4
ATOM      4  O   UNL     1       0.915  -2.288   2.695  1.00  0.00    -0.459 OA
BRANCH   4   5
ATOM      5  C   UNL     1       1.542  -1.263   2.056  1.00  0.00     0.368 C 
ATOM      6  O   UNL     1       2.767  -1.161   1.964  1.00  0.00    -0.245 OA
BRANCH   5   7
ATOM      7  C   UNL     1       0.606  -0.158   1.484  1.00  0.00     0.194 C 
ATOM      8  C   UNL     1       0.910   1.085   2.354  1.00  0.00     0.092 C 
BRANCH   7   9
ATOM      9  C   UNL     1      -0.936  -0.395   1.558  1.00  0.00     0.117 C 
BRANCH   9  10
ATOM     10  C   UNL     1      -1.664  -1.081   0.412  1.00  0.00    -0.027 A 
ATOM     11  C   UNL     1      -2.203  -2.358   0.643  1.00  0.00     0.005 A 
ATOM     12  C   UNL     1      -1.925  -0.488  -0.839  1.00  0.00     0.021 A 
ATOM     13  C   UNL     1      -2.903  -3.051  -0.350  1.00  0.00     0.000 A 
ATOM     14  C   UNL     1      -2.585  -1.203  -1.850  1.00  0.00     0.016 A 
ATOM     15  Br  UNL     1      -1.554   1.340  -1.223  1.00  0.00    -0.051 Br
ATOM     16  C   UNL     1      -3.066  -2.486  -1.608  1.00  0.00     0.001 A 
ENDBRANCH   9  10
ENDBRANCH   7   9
BRANCH   7  17
ATOM     17  N   UNL     1       1.093   0.121   0.111  1.00  0.00    -0.343 N 
ATOM     18  H   UNL     1       0.905  -0.685  -0.486  1.00  0.00     0.345 HD
ATOM     19  H   UNL     1       2.097   0.299   0.136  1.00  0.00     0.345 HD
ATOM     20  H   UNL     1       0.611   0.939  -0.260  1.00  0.00     0.345 HD
ENDBRANCH   7  17
ENDBRANCH   5   7
ENDBRANCH   4   5
ENDBRANCH   3   4
ENDBRANCH   2   3
ENDBRANCH   1   2
BRANCH   1  21
ATOM     21  C   UNL     1       1.282  -4.160   0.304  1.00  0.00     0.202 C 
BRANCH  21  22
ATOM     22  C   UNL     1       0.072  -5.093   0.386  1.00  0.00     0.261 C 
BRANCH  22  23
ATOM     23  O   UNL     1      -0.576  -4.942   1.661  1.00  0.00    -0.460 OA
BRANCH  23  24
ATOM     24  C   UNL     1      -1.633  -5.750   1.863  1.00  0.00     0.338 C 
ATOM     25  O   UNL     1      -2.245  -6.402   1.034  1.00  0.00    -0.246 OA
BRANCH  24  26
ATOM     26  C   UNL     1      -1.882  -5.819   3.311  1.00  0.00     0.060 A 
ATOM     27  C   UNL     1      -1.114  -6.706   4.072  1.00  0.00     0.016 A 
ATOM     28  C   UNL     1      -2.940  -5.114   3.888  1.00  0.00     0.016 A 
ATOM     29  C   UNL     1      -1.455  -6.948   5.404  1.00  0.00     0.010 A 
ATOM     30  C   UNL     1      -3.264  -5.341   5.231  1.00  0.00     0.010 A 
ATOM     31  C   UNL     1      -2.558  -6.300   5.981  1.00  0.00    -0.014 A 
BRANCH  31  32
ATOM     32  C   UNL     1      -3.059  -6.760   7.303  1.00  0.00     0.031 A 
ATOM     33  C   UNL     1      -4.254  -7.677   7.361  1.00  0.00     0.074 A 
ATOM     34  C   UNL     1      -2.428  -6.419   8.441  1.00  0.00     0.049 A 
ATOM     35  N   UNL     1      -4.801  -8.264   8.396  1.00  0.00    -0.248 NA
ATOM     36  C   UNL     1      -4.923  -7.969   6.083  1.00  0.00     0.031 C 
ATOM     37  C   UNL     1      -1.266  -5.539   8.534  1.00  0.00     0.029 A 
ATOM     38  N   UNL     1      -2.681  -6.784   9.742  1.00  0.00    -0.354 N 
ATOM     39  C   UNL     1      -5.871  -8.994   7.895  1.00  0.00     0.074 A 
ATOM     40  C   UNL     1      -5.924  -8.746   6.471  1.00  0.00     0.031 C 
ATOM     41  C   UNL     1      -0.902  -5.433   9.824  1.00  0.00     0.029 A 
ATOM     42  C   UNL     1      -1.809  -6.233  10.648  1.00  0.00     0.049 A 
ATOM     43  H   UNL     1      -3.418  -7.383  10.000  1.00  0.00     0.167 HD
ATOM     44  C   UNL     1      -6.724  -9.813   8.556  1.00  0.00     0.037 A 
ATOM     45  C   UNL     1      -1.745  -6.363  11.987  1.00  0.00     0.037 A 
ATOM     46  C   UNL     1      -6.675 -10.081   9.968  1.00  0.00     0.049 A 
ATOM     47  C   UNL     1      -2.712  -7.274  12.700  1.00  0.00     0.074 A 
ATOM     48  C   UNL     1      -7.478 -10.928  10.714  1.00  0.00     0.029 A 
ATOM     49  N   UNL     1      -5.776  -9.504  10.849  1.00  0.00    -0.354 N 
ATOM     50  N   UNL     1      -3.676  -8.009  12.205  1.00  0.00    -0.248 NA
ATOM     51  C   UNL     1      -2.565  -7.384  14.159  1.00  0.00     0.031 C 
ATOM     52  C   UNL     1      -7.087 -10.835  12.054  1.00  0.00     0.029 A 
ATOM     53  C   UNL     1      -6.015  -9.962  12.135  1.00  0.00     0.049 A 
ATOM     54  H   UNL     1      -5.072  -8.863  10.599  1.00  0.00     0.167 HD
ATOM     55  C   UNL     1      -4.229  -8.690  13.283  1.00  0.00     0.074 A 
ATOM     56  C   UNL     1      -3.485  -8.290  14.458  1.00  0.00     0.031 C 
ATOM     57  C   UNL     1      -5.261  -9.569  13.296  1.00  0.00     0.037 A 
BRANCH  44  58
ATOM     58  C   UNL     1      -7.795 -10.488   7.753  1.00  0.00     0.064 A 
ATOM     59  C   UNL     1      -7.503 -11.566   6.904  1.00  0.00     0.173 A 
ATOM     60  C   UNL     1      -9.133 -10.087   7.873  1.00  0.00     0.173 A 
ATOM     61  F   UNL     1      -6.236 -11.977   6.747  1.00  0.00    -0.203 F 
ATOM     62  C   UNL     1      -8.512 -12.208   6.191  1.00  0.00     0.198 A 
ATOM     63  C   UNL     1     -10.143 -10.745   7.176  1.00  0.00     0.198 A 
ATOM     64  F   UNL     1      -9.463  -9.063   8.676  1.00  0.00    -0.203 F 
ATOM     65  F   UNL     1      -8.208 -13.215   5.361  1.00  0.00    -0.200 F 
ATOM     66  C   UNL     1      -9.831 -11.802   6.334  1.00  0.00     0.200 A 
ATOM     67  F   UNL     1     -11.418 -10.359   7.322  1.00  0.00    -0.200 F 
ATOM     68  F   UNL     1     -10.803 -12.428   5.655  1.00  0.00    -0.200 F 
ENDBRANCH  44  58
BRANCH  45  69
ATOM     69  C   UNL     1      -0.709  -5.626  12.754  1.00  0.00     0.064 A 
ATOM     70  C   UNL     1       0.368  -6.298  13.346  1.00  0.00     0.173 A 
ATOM     71  C   UNL     1      -0.794  -4.238  12.934  1.00  0.00     0.173 A 
ATOM     72  F   UNL     1       0.476  -7.629  13.223  1.00  0.00    -0.203 F 
ATOM     73  C   UNL     1       1.311  -5.612  14.109  1.00  0.00     0.198 A 
ATOM     74  C   UNL     1       0.162  -3.550  13.676  1.00  0.00     0.198 A 
ATOM     75  F   UNL     1      -1.809  -3.552  12.388  1.00  0.00    -0.203 F 
ATOM     76  F   UNL     1       2.305  -6.285  14.704  1.00  0.00    -0.200 F 
ATOM     77  C   UNL     1       1.210  -4.239  14.270  1.00  0.00     0.200 A 
ATOM     78  F   UNL     1       0.065  -2.222  13.823  1.00  0.00    -0.200 F 
ATOM     79  F   UNL     1       2.115  -3.580  15.005  1.00  0.00    -0.200 F 
ENDBRANCH  45  69
BRANCH  57  80
ATOM     80  C   UNL     1      -5.625 -10.188  14.614  1.00  0.00     0.064 A 
ATOM     81  C   UNL     1      -6.280  -9.455  15.614  1.00  0.00     0.173 A 
ATOM     82  C   UNL     1      -5.343 -11.539  14.866  1.00  0.00     0.173 A 
ATOM     83  F   UNL     1      -6.560  -8.157  15.426  1.00  0.00    -0.203 F 
ATOM     84  C   UNL     1      -6.615 -10.046  16.830  1.00  0.00     0.198 A 
ATOM     85  C   UNL     1      -5.701 -12.133  16.073  1.00  0.00     0.198 A 
ATOM     86  F   UNL     1      -4.724 -12.285  13.939  1.00  0.00    -0.203 F 
ATOM     87  F   UNL     1      -7.199  -9.315  17.790  1.00  0.00    -0.200 F 
ATOM     88  C   UNL     1      -6.330 -11.384  17.057  1.00  0.00     0.200 A 
ATOM     89  F   UNL     1      -5.434 -13.429  16.287  1.00  0.00    -0.200 F 
ATOM     90  F   UNL     1      -6.654 -11.951  18.227  1.00  0.00    -0.200 F 
ENDBRANCH  57  80
ENDBRANCH  31  32
ENDBRANCH  24  26
ENDBRANCH  23  24
ENDBRANCH  22  23
ENDBRANCH  21  22
ENDBRANCH   1  21
TORSDOF 17
