REMARK SMILES O=C(OCCOCCOC(=O)[C@@H]1[C@H](C(=O)Nc2ccc(Cn3cncn3)cc2)[C@@H]2C=C[C@H]1CC2)c1ccc(-c2c3nc(c(-c4c(F)c(F)c(F)c(F)c4F)c4ccc([nH]4)c(-c4c(F)c(F)c(F)c(F)c4F)c4nc(c(-c5c(F)c(F)c(F)c(F)c5F)c5ccc2[nH]5)C=C4)C=C3)cc1
REMARK SMILES IDX 7 1 6 2 5 3 4 4 3 5 2 6 1 7 35 8 36 9 97 10 37 11 96 12
REMARK SMILES IDX 38 13 39 14 40 15 90 16 41 17 95 18 89 19 91 20 42 21 94 22
REMARK SMILES IDX 88 23 87 24 43 26 75 27 55 28 74 29 56 30 59 31 73 32 92 33
REMARK SMILES IDX 57 34 58 35 72 37 93 38 60 39 44 40 45 41 53 42 46 43 47 44
REMARK SMILES IDX 51 45 54 46 48 47 49 48 52 49 50 50 76 51 77 52 85 53 78 54
REMARK SMILES IDX 79 55 83 56 86 57 80 58 81 59 84 60 82 61 61 62 62 63 70 64
REMARK SMILES IDX 63 65 64 66 68 67 71 68 65 69 66 70 69 71 67 72 8 73 9 74
REMARK SMILES IDX 10 75 11 76 12 77 13 78 32 79 29 80 31 81 33 82 30 83 34 84
REMARK SMILES IDX 14 85 15 86 16 87 17 89 18 90 28 91 19 92 27 93 20 94 21 95
REMARK SMILES IDX 22 96 23 97 26 98 24 99 25 100
REMARK H PARENT 91 25 59 36 16 88
REMARK Flexibility Score: inf
ROOT
ATOM      1  C   UNL     1       3.821   0.233  -2.140  1.00  0.00     0.202 C 
ENDROOT
BRANCH   1   2
ATOM      2  O   UNL     1       4.630   0.478  -0.973  1.00  0.00    -0.374 OA
BRANCH   2   3
ATOM      3  C   UNL     1       5.045  -0.689  -0.268  1.00  0.00     0.202 C 
BRANCH   3   4
ATOM      4  C   UNL     1       4.704  -0.706   1.218  1.00  0.00     0.261 C 
BRANCH   4   5
ATOM      5  O   UNL     1       3.290  -0.853   1.453  1.00  0.00    -0.460 OA
BRANCH   5   6
ATOM      6  C   UNL     1       2.416  -0.077   0.756  1.00  0.00     0.338 C 
ATOM      7  O   UNL     1       1.578  -0.502   0.002  1.00  0.00    -0.246 OA
BRANCH   6   8
ATOM      8  C   UNL     1       2.296   1.282   1.285  1.00  0.00     0.060 A 
ATOM      9  C   UNL     1       3.402   2.075   1.565  1.00  0.00     0.016 A 
ATOM     10  C   UNL     1       0.991   1.722   1.535  1.00  0.00     0.016 A 
ATOM     11  C   UNL     1       3.225   3.218   2.298  1.00  0.00     0.010 A 
ATOM     12  C   UNL     1       0.803   2.914   2.199  1.00  0.00     0.010 A 
ATOM     13  C   UNL     1       1.928   3.607   2.639  1.00  0.00    -0.014 A 
BRANCH  13  14
ATOM     14  C   UNL     1       1.825   4.843   3.379  1.00  0.00     0.031 A 
ATOM     15  C   UNL     1       2.381   6.025   2.673  1.00  0.00     0.074 A 
ATOM     16  C   UNL     1       1.232   4.904   4.581  1.00  0.00     0.049 A 
ATOM     17  N   UNL     1       3.300   6.838   3.076  1.00  0.00    -0.248 NA
ATOM     18  C   UNL     1       1.935   6.252   1.288  1.00  0.00     0.031 C 
ATOM     19  C   UNL     1       0.429   3.876   5.245  1.00  0.00     0.029 A 
ATOM     20  N   UNL     1       1.131   5.972   5.411  1.00  0.00    -0.354 N 
ATOM     21  C   UNL     1       3.434   7.783   2.064  1.00  0.00     0.074 A 
ATOM     22  C   UNL     1       2.675   7.303   0.941  1.00  0.00     0.031 C 
ATOM     23  C   UNL     1      -0.269   4.451   6.247  1.00  0.00     0.029 A 
ATOM     24  C   UNL     1       0.134   5.844   6.359  1.00  0.00     0.049 A 
ATOM     25  H   UNL     1       1.714   6.763   5.345  1.00  0.00     0.167 HD
ATOM     26  C   UNL     1       3.964   9.009   2.314  1.00  0.00     0.037 A 
ATOM     27  C   UNL     1      -0.391   6.848   7.098  1.00  0.00     0.037 A 
ATOM     28  C   UNL     1       4.850   8.979   3.450  1.00  0.00     0.049 A 
ATOM     29  C   UNL     1       0.571   7.981   7.076  1.00  0.00     0.074 A 
ATOM     30  C   UNL     1       5.994   8.268   3.761  1.00  0.00     0.029 A 
ATOM     31  N   UNL     1       4.431   9.528   4.636  1.00  0.00    -0.354 N 
ATOM     32  N   UNL     1       1.728   7.975   7.678  1.00  0.00    -0.248 NA
ATOM     33  C   UNL     1       0.421   8.985   6.031  1.00  0.00     0.031 C 
ATOM     34  C   UNL     1       5.915   8.026   5.164  1.00  0.00     0.029 A 
ATOM     35  C   UNL     1       4.747   8.632   5.625  1.00  0.00     0.049 A 
ATOM     36  H   UNL     1       3.988  10.399   4.755  1.00  0.00     0.167 HD
ATOM     37  C   UNL     1       2.576   8.665   6.822  1.00  0.00     0.074 A 
ATOM     38  C   UNL     1       1.695   9.357   5.888  1.00  0.00     0.031 C 
ATOM     39  C   UNL     1       3.912   8.387   6.775  1.00  0.00     0.037 A 
BRANCH  26  40
ATOM     40  C   UNL     1       3.354  10.282   1.774  1.00  0.00     0.064 A 
ATOM     41  C   UNL     1       3.991  11.509   2.039  1.00  0.00     0.173 A 
ATOM     42  C   UNL     1       2.026  10.377   1.297  1.00  0.00     0.173 A 
ATOM     43  F   UNL     1       5.249  11.541   2.504  1.00  0.00    -0.203 F 
ATOM     44  C   UNL     1       3.314  12.727   1.937  1.00  0.00     0.198 A 
ATOM     45  C   UNL     1       1.373  11.598   1.146  1.00  0.00     0.198 A 
ATOM     46  F   UNL     1       1.266   9.302   1.064  1.00  0.00    -0.203 F 
ATOM     47  F   UNL     1       3.915  13.856   2.338  1.00  0.00    -0.200 F 
ATOM     48  C   UNL     1       2.002  12.769   1.503  1.00  0.00     0.200 A 
ATOM     49  F   UNL     1       0.097  11.613   0.735  1.00  0.00    -0.200 F 
ATOM     50  F   UNL     1       1.328  13.926   1.477  1.00  0.00    -0.200 F 
ENDBRANCH  26  40
BRANCH  27  51
ATOM     51  C   UNL     1      -1.788   6.984   7.562  1.00  0.00     0.064 A 
ATOM     52  C   UNL     1      -2.122   7.896   8.573  1.00  0.00     0.173 A 
ATOM     53  C   UNL     1      -2.864   6.399   6.863  1.00  0.00     0.173 A 
ATOM     54  F   UNL     1      -1.157   8.534   9.251  1.00  0.00    -0.203 F 
ATOM     55  C   UNL     1      -3.453   8.214   8.860  1.00  0.00     0.198 A 
ATOM     56  C   UNL     1      -4.191   6.703   7.162  1.00  0.00     0.198 A 
ATOM     57  F   UNL     1      -2.653   5.592   5.814  1.00  0.00    -0.203 F 
ATOM     58  F   UNL     1      -3.732   9.136   9.791  1.00  0.00    -0.200 F 
ATOM     59  C   UNL     1      -4.485   7.620   8.152  1.00  0.00     0.200 A 
ATOM     60  F   UNL     1      -5.178   6.145   6.446  1.00  0.00    -0.200 F 
ATOM     61  F   UNL     1      -5.758   7.962   8.393  1.00  0.00    -0.200 F 
ENDBRANCH  27  51
BRANCH  39  62
ATOM     62  C   UNL     1       4.488   7.536   7.868  1.00  0.00     0.064 A 
ATOM     63  C   UNL     1       4.097   6.208   8.113  1.00  0.00     0.173 A 
ATOM     64  C   UNL     1       5.561   8.042   8.614  1.00  0.00     0.173 A 
ATOM     65  F   UNL     1       3.159   5.615   7.363  1.00  0.00    -0.203 F 
ATOM     66  C   UNL     1       4.712   5.447   9.104  1.00  0.00     0.198 A 
ATOM     67  C   UNL     1       6.199   7.265   9.577  1.00  0.00     0.198 A 
ATOM     68  F   UNL     1       6.019   9.281   8.379  1.00  0.00    -0.203 F 
ATOM     69  F   UNL     1       4.307   4.189   9.334  1.00  0.00    -0.200 F 
ATOM     70  C   UNL     1       5.765   5.974   9.832  1.00  0.00     0.200 A 
ATOM     71  F   UNL     1       7.252   7.761  10.242  1.00  0.00    -0.200 F 
ATOM     72  F   UNL     1       6.381   5.230  10.762  1.00  0.00    -0.200 F 
ENDBRANCH  39  62
ENDBRANCH  13  14
ENDBRANCH   6   8
ENDBRANCH   5   6
ENDBRANCH   4   5
ENDBRANCH   3   4
ENDBRANCH   2   3
ENDBRANCH   1   2
BRANCH   1  73
ATOM     73  C   UNL     1       4.460  -0.579  -3.275  1.00  0.00     0.261 C 
BRANCH  73  74
ATOM     74  O   UNL     1       4.385  -2.000  -3.008  1.00  0.00    -0.463 OA
BRANCH  74  75
ATOM     75  C   UNL     1       5.502  -2.616  -2.572  1.00  0.00     0.310 C 
ATOM     76  O   UNL     1       6.584  -2.051  -2.438  1.00  0.00    -0.252 OA
BRANCH  75  77
ATOM     77  C   UNL     1       5.310  -4.066  -2.164  1.00  0.00     0.119 C 
ATOM     78  C   UNL     1       4.609  -5.019  -3.136  1.00  0.00     0.100 C 
ATOM     79  C   UNL     1       4.966  -4.457  -0.679  1.00  0.00     0.026 C 
ATOM     80  C   UNL     1       4.227  -6.314  -2.362  1.00  0.00     0.025 C 
ATOM     81  C   UNL     1       3.565  -5.017  -0.476  1.00  0.00    -0.027 C 
ATOM     82  C   UNL     1       5.798  -5.731  -0.390  1.00  0.00     0.009 C 
ATOM     83  C   UNL     1       3.185  -5.974  -1.340  1.00  0.00    -0.027 C 
ATOM     84  C   UNL     1       5.464  -6.782  -1.504  1.00  0.00     0.009 C 
BRANCH  78  85
ATOM     85  C   UNL     1       3.623  -4.470  -4.189  1.00  0.00     0.228 C 
ATOM     86  O   UNL     1       4.050  -4.383  -5.355  1.00  0.00    -0.274 OA
ATOM     87  N   UNL     1       2.308  -4.153  -4.053  1.00  0.00    -0.326 N 
ATOM     88  H   UNL     1       1.855  -4.105  -4.925  1.00  0.00     0.169 HD
BRANCH  87  89
ATOM     89  C   UNL     1       1.426  -3.876  -2.998  1.00  0.00     0.041 A 
ATOM     90  C   UNL     1       0.080  -4.227  -3.155  1.00  0.00     0.026 A 
ATOM     91  C   UNL     1       1.782  -3.236  -1.829  1.00  0.00     0.026 A 
ATOM     92  C   UNL     1      -0.832  -4.103  -2.090  1.00  0.00     0.008 A 
ATOM     93  C   UNL     1       0.891  -3.142  -0.756  1.00  0.00     0.008 A 
ATOM     94  C   UNL     1      -0.417  -3.597  -0.856  1.00  0.00    -0.026 A 
BRANCH  94  95
ATOM     95  C   UNL     1      -1.301  -3.539   0.362  1.00  0.00     0.181 C 
BRANCH  95  96
ATOM     96  N   UNL     1      -2.064  -2.308   0.451  1.00  0.00    -0.249 N 
ATOM     97  C   UNL     1      -3.104  -1.926  -0.339  1.00  0.00     0.220 A 
ATOM     98  N   UNL     1      -1.928  -1.468   1.501  1.00  0.00    -0.160 NA
ATOM     99  N   UNL     1      -3.641  -0.826   0.136  1.00  0.00    -0.224 NA
ATOM    100  C   UNL     1      -2.891  -0.578   1.250  1.00  0.00     0.246 A 
ENDBRANCH  95  96
ENDBRANCH  94  95
ENDBRANCH  87  89
ENDBRANCH  78  85
ENDBRANCH  75  77
ENDBRANCH  74  75
ENDBRANCH  73  74
ENDBRANCH   1  73
TORSDOF 18
