REMARK SMILES Cc1ccc(S(=O)(=O)n2cc(C(=O)C(=O)N[C@H](Cc3c[nH]c4ccccc34)C(=O)NCC(=O)OCCOCCOC(=O)c3ccc(-c4c5nc(c(-c6c(F)c(F)c(F)c(F)c6F)c6ccc([nH]6)c(-c6c(F)c(F)c(F)c(F)c6F)c6nc(c(-c7c(F)c(F)c(F)c(F)c7F)c7ccc4[nH]7)C=C6)C=C5)cc3)c3ccccc32)cc1
REMARK SMILES IDX 35 1 34 2 32 3 33 4 31 5 30 6 28 7 29 8 17 10 16 11 14 12
REMARK SMILES IDX 15 13 12 15 13 16 11 17 9 18 10 19 111 20 106 21 110 22
REMARK SMILES IDX 107 23 109 24 108 25 6 26 7 27 8 28 5 29 1 30 2 31 3 32
REMARK SMILES IDX 113 33 4 34 112 35 18 36 19 37 20 38 27 39 21 40 22 41 26 42
REMARK SMILES IDX 23 44 25 45 24 46 36 47 37 48 38 49 39 50 40 51 41 52 42 53
REMARK SMILES IDX 43 54 44 55 105 56 45 57 104 58 46 59 47 60 48 61 98 62
REMARK SMILES IDX 49 63 103 64 97 65 99 66 50 67 102 68 96 69 95 70 51 72
REMARK SMILES IDX 83 73 63 74 82 75 64 76 67 77 81 78 100 79 65 80 66 81 80 83
REMARK SMILES IDX 101 84 68 85 52 86 53 87 61 88 54 89 55 90 59 91 62 92 56 93
REMARK SMILES IDX 57 94 60 95 58 96 84 97 85 98 93 99 86 100 87 101 91 102
REMARK SMILES IDX 94 103 88 104 89 105 92 106 90 107 69 108 70 109 78 110
REMARK SMILES IDX 71 111 72 112 76 113 79 114 73 115 74 116 77 117 75 118
REMARK H PARENT 30 9 16 14 21 43 99 71 67 82
REMARK Flexibility Score: inf
ROOT
ATOM      1  C   UNL     1     -11.719   4.861  -1.998  1.00  0.00     0.261 C 
ENDROOT
BRANCH   1   2
ATOM      2  O   UNL     1     -12.401   3.659  -1.644  1.00  0.00    -0.462 OA
BRANCH   2   3
ATOM      3  C   UNL     1     -13.711   3.777  -1.286  1.00  0.00     0.325 C 
ATOM      4  O   UNL     1     -14.362   4.789  -1.235  1.00  0.00    -0.250 OA
BRANCH   3   5
ATOM      5  C   UNL     1     -14.248   2.433  -0.829  1.00  0.00     0.238 C 
BRANCH   5   6
ATOM      6  N   UNL     1     -13.502   1.331  -1.387  1.00  0.00    -0.343 N 
ATOM      7  C   UNL     1     -12.325   0.763  -1.053  1.00  0.00     0.243 C 
ATOM      8  O   UNL     1     -11.936  -0.081  -1.870  1.00  0.00    -0.273 OA
ATOM      9  H   UNL     1     -13.938   0.912  -2.164  1.00  0.00     0.164 HD
BRANCH   7  10
ATOM     10  C   UNL     1     -11.464   1.117   0.196  1.00  0.00     0.176 C 
BRANCH  10  11
ATOM     11  N   UNL     1     -12.169   1.416   1.509  1.00  0.00    -0.337 N 
ATOM     12  C   UNL     1     -12.697   2.465   2.258  1.00  0.00     0.293 C 
ATOM     13  O   UNL     1     -13.242   2.191   3.326  1.00  0.00    -0.265 OA
ATOM     14  H   UNL     1     -12.298   0.574   2.003  1.00  0.00     0.164 HD
BRANCH  12  15
ATOM     15  C   UNL     1     -12.654   3.929   1.834  1.00  0.00     0.252 C 
ATOM     16  O   UNL     1     -11.841   4.171   0.941  1.00  0.00    -0.283 OA
BRANCH  15  17
ATOM     17  C   UNL     1     -13.384   5.064   2.475  1.00  0.00     0.054 A 
ATOM     18  N   UNL     1     -13.548   6.667   4.072  1.00  0.00    -0.240 N 
ATOM     19  C   UNL     1     -13.859   5.299   3.783  1.00  0.00     0.117 A 
ATOM     20  C   UNL     1     -12.756   6.995   3.005  1.00  0.00     0.065 A 
ATOM     21  C   UNL     1     -13.396   6.379   1.941  1.00  0.00     0.012 A 
ATOM     22  C   UNL     1     -11.635   7.729   2.817  1.00  0.00     0.028 A 
ATOM     23  C   UNL     1     -13.422   7.045   0.715  1.00  0.00     0.011 A 
ATOM     24  C   UNL     1     -11.692   8.408   1.612  1.00  0.00     0.002 A 
ATOM     25  C   UNL     1     -12.668   8.201   0.631  1.00  0.00     0.001 A 
BRANCH  18  26
ATOM     26  S   UNL     1     -14.829   7.922   4.414  1.00  0.00     0.268 S 
ATOM     27  O   UNL     1     -15.948   7.151   4.916  1.00  0.00    -0.201 OA
ATOM     28  O   UNL     1     -14.940   8.713   3.196  1.00  0.00    -0.201 OA
BRANCH  26  29
ATOM     29  C   UNL     1     -14.357   9.106   5.706  1.00  0.00     0.088 A 
ATOM     30  C   UNL     1     -14.502  13.115   7.357  1.00  0.00     0.044 C 
ATOM     31  C   UNL     1     -14.293  11.652   7.047  1.00  0.00    -0.051 A 
ATOM     32  C   UNL     1     -13.295  11.301   6.162  1.00  0.00     0.005 A 
ATOM     33  C   UNL     1     -15.228  10.664   7.375  1.00  0.00     0.005 A 
ATOM     34  C   UNL     1     -13.460  10.115   5.411  1.00  0.00     0.022 A 
ATOM     35  C   UNL     1     -15.229   9.387   6.750  1.00  0.00     0.022 A 
ENDBRANCH  26  29
ENDBRANCH  18  26
ENDBRANCH  15  17
ENDBRANCH  12  15
ENDBRANCH  10  11
BRANCH  10  36
ATOM     36  C   UNL     1     -10.089   1.798  -0.085  1.00  0.00     0.072 C 
BRANCH  36  37
ATOM     37  C   UNL     1      -9.381   1.517  -1.412  1.00  0.00    -0.020 A 
ATOM     38  C   UNL     1      -8.987   2.496  -2.311  1.00  0.00     0.087 A 
ATOM     39  C   UNL     1      -8.902   0.273  -1.980  1.00  0.00     0.003 A 
ATOM     40  N   UNL     1      -8.442   1.911  -3.419  1.00  0.00    -0.361 N 
ATOM     41  C   UNL     1      -8.365   0.555  -3.242  1.00  0.00     0.046 A 
ATOM     42  C   UNL     1      -8.881  -1.077  -1.564  1.00  0.00     0.010 A 
ATOM     43  H   UNL     1      -8.149   2.393  -4.226  1.00  0.00     0.166 HD
ATOM     44  C   UNL     1      -7.854  -0.420  -4.110  1.00  0.00     0.026 A 
ATOM     45  C   UNL     1      -8.363  -2.068  -2.416  1.00  0.00     0.001 A 
ATOM     46  C   UNL     1      -7.865  -1.743  -3.675  1.00  0.00     0.002 A 
ENDBRANCH  36  37
ENDBRANCH  10  36
ENDBRANCH   7  10
ENDBRANCH   5   6
ENDBRANCH   3   5
ENDBRANCH   2   3
ENDBRANCH   1   2
BRANCH   1  47
ATOM     47  C   UNL     1     -11.895   5.069  -3.484  1.00  0.00     0.202 C 
BRANCH  47  48
ATOM     48  O   UNL     1     -13.089   5.822  -3.651  1.00  0.00    -0.374 OA
BRANCH  48  49
ATOM     49  C   UNL     1     -14.082   5.262  -4.499  1.00  0.00     0.202 C 
BRANCH  49  50
ATOM     50  C   UNL     1     -13.664   5.233  -5.975  1.00  0.00     0.261 C 
BRANCH  50  51
ATOM     51  O   UNL     1     -13.315   6.564  -6.404  1.00  0.00    -0.460 OA
BRANCH  51  52
ATOM     52  C   UNL     1     -11.992   6.755  -6.655  1.00  0.00     0.338 C 
ATOM     53  O   UNL     1     -11.284   6.016  -7.322  1.00  0.00    -0.246 OA
BRANCH  52  54
ATOM     54  C   UNL     1     -11.446   7.794  -5.738  1.00  0.00     0.060 A 
ATOM     55  C   UNL     1     -10.051   7.959  -5.644  1.00  0.00     0.016 A 
ATOM     56  C   UNL     1     -12.269   8.255  -4.718  1.00  0.00     0.016 A 
ATOM     57  C   UNL     1      -9.473   8.407  -4.454  1.00  0.00     0.010 A 
ATOM     58  C   UNL     1     -11.687   8.500  -3.496  1.00  0.00     0.010 A 
ATOM     59  C   UNL     1     -10.288   8.575  -3.346  1.00  0.00    -0.014 A 
BRANCH  59  60
ATOM     60  C   UNL     1      -9.824   8.797  -1.962  1.00  0.00     0.031 A 
ATOM     61  C   UNL     1     -10.389  10.047  -1.310  1.00  0.00     0.074 A 
ATOM     62  C   UNL     1      -9.433   7.639  -1.363  1.00  0.00     0.049 A 
ATOM     63  N   UNL     1     -10.186  10.503  -0.116  1.00  0.00    -0.248 NA
ATOM     64  C   UNL     1     -11.268  10.950  -2.074  1.00  0.00     0.031 C 
ATOM     65  C   UNL     1      -9.804   7.051  -0.093  1.00  0.00     0.029 A 
ATOM     66  N   UNL     1      -8.438   6.744  -1.788  1.00  0.00    -0.354 N 
ATOM     67  C   UNL     1     -11.167  11.468   0.137  1.00  0.00     0.074 A 
ATOM     68  C   UNL     1     -11.805  11.707  -1.125  1.00  0.00     0.031 C 
ATOM     69  C   UNL     1      -8.883   6.205   0.372  1.00  0.00     0.029 A 
ATOM     70  C   UNL     1      -7.840   6.222  -0.598  1.00  0.00     0.049 A 
ATOM     71  H   UNL     1      -8.201   6.520  -2.716  1.00  0.00     0.167 HD
ATOM     72  C   UNL     1     -11.488  11.882   1.401  1.00  0.00     0.037 A 
ATOM     73  C   UNL     1      -6.534   6.412  -0.290  1.00  0.00     0.037 A 
ATOM     74  C   UNL     1     -10.543  11.312   2.410  1.00  0.00     0.049 A 
ATOM     75  C   UNL     1      -6.387   7.315   0.920  1.00  0.00     0.074 A 
ATOM     76  C   UNL     1     -10.669  10.510   3.527  1.00  0.00     0.029 A 
ATOM     77  N   UNL     1      -9.149  11.236   2.149  1.00  0.00    -0.354 N 
ATOM     78  N   UNL     1      -7.113   8.373   1.208  1.00  0.00    -0.248 NA
ATOM     79  C   UNL     1      -5.423   6.970   1.961  1.00  0.00     0.031 C 
ATOM     80  C   UNL     1      -9.469   9.856   3.851  1.00  0.00     0.029 A 
ATOM     81  C   UNL     1      -8.530  10.286   2.950  1.00  0.00     0.049 A 
ATOM     82  H   UNL     1      -8.680  11.789   1.482  1.00  0.00     0.167 HD
ATOM     83  C   UNL     1      -6.655   8.891   2.410  1.00  0.00     0.074 A 
ATOM     84  C   UNL     1      -5.636   7.950   2.849  1.00  0.00     0.031 C 
ATOM     85  C   UNL     1      -7.113  10.022   3.039  1.00  0.00     0.037 A 
BRANCH  72  86
ATOM     86  C   UNL     1     -12.925  12.481   1.603  1.00  0.00     0.064 A 
ATOM     87  C   UNL     1     -13.705  12.181   2.715  1.00  0.00     0.173 A 
ATOM     88  C   UNL     1     -13.613  13.356   0.749  1.00  0.00     0.173 A 
ATOM     89  F   UNL     1     -13.045  12.183   3.864  1.00  0.00    -0.203 F 
ATOM     90  C   UNL     1     -15.111  12.321   2.801  1.00  0.00     0.198 A 
ATOM     91  C   UNL     1     -15.001  13.626   0.853  1.00  0.00     0.198 A 
ATOM     92  F   UNL     1     -12.933  14.067  -0.161  1.00  0.00    -0.203 F 
ATOM     93  F   UNL     1     -15.784  11.900   3.883  1.00  0.00    -0.200 F 
ATOM     94  C   UNL     1     -15.771  13.032   1.832  1.00  0.00     0.200 A 
ATOM     95  F   UNL     1     -15.570  14.511   0.022  1.00  0.00    -0.200 F 
ATOM     96  F   UNL     1     -17.085  13.286   1.933  1.00  0.00    -0.200 F 
ENDBRANCH  72  86
BRANCH  73  97
ATOM     97  C   UNL     1      -5.732   6.392  -1.549  1.00  0.00     0.064 A 
ATOM     98  C   UNL     1      -5.829   5.181  -2.284  1.00  0.00     0.173 A 
ATOM     99  C   UNL     1      -5.593   7.584  -2.266  1.00  0.00     0.173 A 
ATOM    100  F   UNL     1      -5.957   4.013  -1.632  1.00  0.00    -0.203 F 
ATOM    101  C   UNL     1      -6.096   5.204  -3.650  1.00  0.00     0.198 A 
ATOM    102  C   UNL     1      -5.829   7.594  -3.641  1.00  0.00     0.198 A 
ATOM    103  F   UNL     1      -5.465   8.749  -1.617  1.00  0.00    -0.203 F 
ATOM    104  F   UNL     1      -6.474   4.080  -4.279  1.00  0.00    -0.200 F 
ATOM    105  C   UNL     1      -6.148   6.418  -4.314  1.00  0.00     0.200 A 
ATOM    106  F   UNL     1      -5.908   8.763  -4.291  1.00  0.00    -0.200 F 
ATOM    107  F   UNL     1      -6.599   6.467  -5.576  1.00  0.00    -0.200 F 
ENDBRANCH  73  97
BRANCH  85 108
ATOM    108  C   UNL     1      -6.380  10.778   4.143  1.00  0.00     0.064 A 
ATOM    109  C   UNL     1      -4.987  10.752   4.292  1.00  0.00     0.173 A 
ATOM    110  C   UNL     1      -7.058  11.681   5.012  1.00  0.00     0.173 A 
ATOM    111  F   UNL     1      -4.210  10.049   3.458  1.00  0.00    -0.203 F 
ATOM    112  C   UNL     1      -4.337  11.495   5.280  1.00  0.00     0.198 A 
ATOM    113  C   UNL     1      -6.405  12.434   5.980  1.00  0.00     0.198 A 
ATOM    114  F   UNL     1      -8.375  11.914   4.939  1.00  0.00    -0.203 F 
ATOM    115  F   UNL     1      -3.005  11.408   5.397  1.00  0.00    -0.200 F 
ATOM    116  C   UNL     1      -5.043  12.334   6.122  1.00  0.00     0.200 A 
ATOM    117  F   UNL     1      -7.110  13.273   6.753  1.00  0.00    -0.200 F 
ATOM    118  F   UNL     1      -4.409  13.068   7.044  1.00  0.00    -0.200 F 
ENDBRANCH  85 108
ENDBRANCH  59  60
ENDBRANCH  52  54
ENDBRANCH  51  52
ENDBRANCH  50  51
ENDBRANCH  49  50
ENDBRANCH  48  49
ENDBRANCH  47  48
ENDBRANCH   1  47
TORSDOF 23
