REMARK SMILES O=C(Nc1ccc2nc(N3CCCCCC3)cc(C(=O)OCCOCCOC(=O)c3ccc(-c4c5nc(c(-c6c(F)c(F)c(F)c(F)c6F)c6ccc([nH]6)c(-c6c(F)c(F)c(F)c(F)c6F)c6nc(c(-c7c(F)c(F)c(F)c(F)c7F)c7ccc4[nH]7)C=C6)C=C5)cc3)c2c1)c1ccc(F)cc1
REMARK SMILES IDX 23 1 22 2 21 3 19 4 20 5 18 6 4 7 5 8 94 9 6 10 93 11 7 12
REMARK SMILES IDX 8 13 17 14 9 15 3 16 1 17 2 18 95 20 96 21 101 22 97 23
REMARK SMILES IDX 100 24 98 25 99 26 10 27 11 28 12 29 13 30 16 32 15 33 14 34
REMARK SMILES IDX 24 36 25 37 26 38 27 39 28 40 29 41 30 42 31 43 92 44 32 45
REMARK SMILES IDX 91 46 33 47 34 48 35 49 85 50 36 51 90 52 84 53 86 54 37 55
REMARK SMILES IDX 89 56 83 57 82 58 38 60 70 61 50 62 69 63 51 64 54 65 68 66
REMARK SMILES IDX 87 67 52 68 53 69 67 71 88 72 55 73 39 74 40 75 48 76 41 77
REMARK SMILES IDX 42 78 46 79 49 80 43 81 44 82 47 83 45 84 71 85 72 86 80 87
REMARK SMILES IDX 73 88 74 89 78 90 81 91 75 92 76 93 79 94 77 95 56 96 57 97
REMARK SMILES IDX 65 98 58 99 59 100 63 101 66 102 60 103 61 104 64 105 62 106
REMARK H PARENT 3 19 86 59 54 70
REMARK Flexibility Score: 90.00
ROOT
ATOM      1  C   UNL     1       5.261  -6.731   1.445  1.00  0.00     0.202 C 
ENDROOT
BRANCH   1   2
ATOM      2  C   UNL     1       5.371  -5.866   2.700  1.00  0.00     0.261 C 
BRANCH   2   3
ATOM      3  O   UNL     1       5.727  -4.522   2.330  1.00  0.00    -0.460 OA
BRANCH   3   4
ATOM      4  C   UNL     1       6.790  -4.011   2.987  1.00  0.00     0.339 C 
ATOM      5  O   UNL     1       7.346  -4.502   3.959  1.00  0.00    -0.246 OA
BRANCH   4   6
ATOM      6  C   UNL     1       7.350  -2.847   2.269  1.00  0.00     0.073 A 
ATOM      7  C   UNL     1       4.575  -0.507   1.191  1.00  0.00     0.042 A 
ATOM      8  C   UNL     1       5.362   0.591   0.871  1.00  0.00     0.028 A 
ATOM      9  C   UNL     1       5.194  -1.632   1.744  1.00  0.00     0.037 A 
ATOM     10  C   UNL     1       6.752   0.494   0.919  1.00  0.00     0.031 A 
ATOM     11  C   UNL     1       6.612  -1.742   1.794  1.00  0.00     0.017 A 
ATOM     12  C   UNL     1       7.388  -0.668   1.315  1.00  0.00     0.074 A 
ATOM     13  N   UNL     1       8.725  -0.697   1.216  1.00  0.00    -0.231 NA
ATOM     14  C   UNL     1       8.737  -2.889   2.116  1.00  0.00     0.063 A 
ATOM     15  C   UNL     1       9.390  -1.809   1.563  1.00  0.00     0.130 A 
BRANCH   7  16
ATOM     16  N   UNL     1       3.188  -0.559   0.969  1.00  0.00    -0.322 N 
ATOM     17  O   UNL     1       1.165   0.087   0.189  1.00  0.00    -0.269 OA
ATOM     18  C   UNL     1       2.389   0.149   0.094  1.00  0.00     0.255 C 
ATOM     19  H   UNL     1       2.706  -1.209   1.531  1.00  0.00     0.170 HD
BRANCH  18  20
ATOM     20  C   UNL     1       2.972   0.925  -1.026  1.00  0.00     0.040 A 
ATOM     21  C   UNL     1       3.931   0.357  -1.880  1.00  0.00     0.017 A 
ATOM     22  C   UNL     1       2.547   2.244  -1.224  1.00  0.00     0.017 A 
ATOM     23  C   UNL     1       4.527   1.140  -2.870  1.00  0.00     0.040 A 
ATOM     24  C   UNL     1       3.138   3.018  -2.224  1.00  0.00     0.040 A 
ATOM     25  C   UNL     1       4.131   2.465  -3.026  1.00  0.00     0.123 A 
ATOM     26  F   UNL     1       4.720   3.220  -3.963  1.00  0.00    -0.207 F 
ENDBRANCH  18  20
ENDBRANCH   7  16
BRANCH  15  27
ATOM     27  N   UNL     1      10.761  -1.854   1.420  1.00  0.00    -0.357 N 
BRANCH  27  28
ATOM     28  C   UNL     1      11.321  -2.509   0.251  1.00  0.00     0.118 C 
BRANCH  28  29
ATOM     29  C   UNL     1      11.934  -3.847   0.657  1.00  0.00     0.021 C 
BRANCH  29  30
ATOM     30  C   UNL     1      13.165  -3.739   1.561  1.00  0.00     0.002 CG0
ATOM     31  G   UNL     1      13.013  -2.854   2.804  1.00  0.00     0.000 G0
ENDBRANCH  29  30
ENDBRANCH  28  29
ENDBRANCH  27  28
BRANCH  27  32
ATOM     32  C   UNL     1      11.523  -0.858   2.146  1.00  0.00     0.118 C 
BRANCH  32  33
ATOM     33  C   UNL     1      12.933  -1.359   2.471  1.00  0.00     0.021 C 
BRANCH  33  34
ATOM     34  C   UNL     1      13.013  -2.854   2.804  1.00  0.00     0.002 CG0
ATOM     35  G   UNL     1      13.165  -3.739   1.561  1.00  0.00     0.000 G0
ENDBRANCH  33  34
ENDBRANCH  32  33
ENDBRANCH  27  32
ENDBRANCH  15  27
ENDBRANCH   4   6
ENDBRANCH   3   4
ENDBRANCH   2   3
ENDBRANCH   1   2
BRANCH   1  36
ATOM     36  O   UNL     1       6.492  -6.965   0.758  1.00  0.00    -0.374 OA
BRANCH  36  37
ATOM     37  C   UNL     1       6.992  -5.912  -0.068  1.00  0.00     0.202 C 
BRANCH  37  38
ATOM     38  C   UNL     1       6.354  -5.792  -1.456  1.00  0.00     0.261 C 
BRANCH  38  39
ATOM     39  O   UNL     1       4.973  -5.391  -1.387  1.00  0.00    -0.460 OA
BRANCH  39  40
ATOM     40  C   UNL     1       4.084  -6.361  -1.703  1.00  0.00     0.338 C 
ATOM     41  O   UNL     1       4.330  -7.493  -2.099  1.00  0.00    -0.246 OA
BRANCH  40  42
ATOM     42  C   UNL     1       2.719  -5.937  -1.344  1.00  0.00     0.060 A 
ATOM     43  C   UNL     1       1.957  -6.810  -0.556  1.00  0.00     0.016 A 
ATOM     44  C   UNL     1       2.163  -4.750  -1.828  1.00  0.00     0.016 A 
ATOM     45  C   UNL     1       0.619  -6.525  -0.292  1.00  0.00     0.010 A 
ATOM     46  C   UNL     1       0.817  -4.469  -1.568  1.00  0.00     0.010 A 
ATOM     47  C   UNL     1       0.031  -5.373  -0.830  1.00  0.00    -0.014 A 
BRANCH  47  48
ATOM     48  C   UNL     1      -1.438  -5.191  -0.735  1.00  0.00     0.031 A 
ATOM     49  C   UNL     1      -2.299  -5.564  -1.911  1.00  0.00     0.074 A 
ATOM     50  C   UNL     1      -2.001  -4.727   0.394  1.00  0.00     0.049 A 
ATOM     51  N   UNL     1      -3.596  -5.464  -2.058  1.00  0.00    -0.248 NA
ATOM     52  C   UNL     1      -1.604  -6.130  -3.079  1.00  0.00     0.031 C 
ATOM     53  C   UNL     1      -1.278  -4.369   1.612  1.00  0.00     0.029 A 
ATOM     54  N   UNL     1      -3.316  -4.473   0.695  1.00  0.00    -0.354 N 
ATOM     55  C   UNL     1      -3.870  -5.941  -3.332  1.00  0.00     0.074 A 
ATOM     56  C   UNL     1      -2.605  -6.313  -3.928  1.00  0.00     0.031 C 
ATOM     57  C   UNL     1      -2.158  -3.927   2.527  1.00  0.00     0.029 A 
ATOM     58  C   UNL     1      -3.500  -3.944   1.948  1.00  0.00     0.049 A 
ATOM     59  H   UNL     1      -4.057  -4.652   0.071  1.00  0.00     0.167 HD
ATOM     60  C   UNL     1      -5.071  -6.064  -3.947  1.00  0.00     0.037 A 
ATOM     61  C   UNL     1      -4.623  -3.503   2.548  1.00  0.00     0.037 A 
ATOM     62  C   UNL     1      -6.330  -5.704  -3.350  1.00  0.00     0.049 A 
ATOM     63  C   UNL     1      -5.937  -3.589   1.813  1.00  0.00     0.074 A 
ATOM     64  C   UNL     1      -7.602  -5.825  -3.880  1.00  0.00     0.029 A 
ATOM     65  N   UNL     1      -6.473  -5.143  -2.090  1.00  0.00    -0.354 N 
ATOM     66  N   UNL     1      -6.193  -4.079   0.625  1.00  0.00    -0.248 NA
ATOM     67  C   UNL     1      -7.120  -3.061   2.509  1.00  0.00     0.031 C 
ATOM     68  C   UNL     1      -8.512  -5.292  -2.961  1.00  0.00     0.029 A 
ATOM     69  C   UNL     1      -7.811  -4.886  -1.837  1.00  0.00     0.049 A 
ATOM     70  H   UNL     1      -5.734  -4.955  -1.467  1.00  0.00     0.167 HD
ATOM     71  C   UNL     1      -7.564  -3.949   0.444  1.00  0.00     0.074 A 
ATOM     72  C   UNL     1      -8.089  -3.345   1.650  1.00  0.00     0.031 C 
ATOM     73  C   UNL     1      -8.321  -4.300  -0.624  1.00  0.00     0.037 A 
BRANCH  60  74
ATOM     74  C   UNL     1      -5.085  -6.593  -5.351  1.00  0.00     0.064 A 
ATOM     75  C   UNL     1      -4.848  -7.946  -5.631  1.00  0.00     0.173 A 
ATOM     76  C   UNL     1      -5.398  -5.743  -6.423  1.00  0.00     0.173 A 
ATOM     77  F   UNL     1      -4.534  -8.796  -4.643  1.00  0.00    -0.203 F 
ATOM     78  C   UNL     1      -4.908  -8.426  -6.937  1.00  0.00     0.198 A 
ATOM     79  C   UNL     1      -5.481  -6.232  -7.723  1.00  0.00     0.198 A 
ATOM     80  F   UNL     1      -5.637  -4.441  -6.206  1.00  0.00    -0.203 F 
ATOM     81  F   UNL     1      -4.644  -9.716  -7.188  1.00  0.00    -0.200 F 
ATOM     82  C   UNL     1      -5.232  -7.571  -7.980  1.00  0.00     0.200 A 
ATOM     83  F   UNL     1      -5.806  -5.407  -8.728  1.00  0.00    -0.200 F 
ATOM     84  F   UNL     1      -5.301  -8.038  -9.235  1.00  0.00    -0.200 F 
ENDBRANCH  60  74
BRANCH  61  85
ATOM     85  C   UNL     1      -4.563  -2.928   3.917  1.00  0.00     0.064 A 
ATOM     86  C   UNL     1      -5.158  -3.584   5.003  1.00  0.00     0.173 A 
ATOM     87  C   UNL     1      -3.942  -1.694   4.161  1.00  0.00     0.173 A 
ATOM     88  F   UNL     1      -5.787  -4.754   4.816  1.00  0.00    -0.203 F 
ATOM     89  C   UNL     1      -5.154  -3.018   6.276  1.00  0.00     0.198 A 
ATOM     90  C   UNL     1      -3.914  -1.142   5.440  1.00  0.00     0.198 A 
ATOM     91  F   UNL     1      -3.362  -1.023   3.155  1.00  0.00    -0.203 F 
ATOM     92  F   UNL     1      -5.777  -3.641   7.286  1.00  0.00    -0.200 F 
ATOM     93  C   UNL     1      -4.529  -1.800   6.494  1.00  0.00     0.200 A 
ATOM     94  F   UNL     1      -3.300   0.030   5.648  1.00  0.00    -0.200 F 
ATOM     95  F   UNL     1      -4.528  -1.254   7.718  1.00  0.00    -0.200 F 
ENDBRANCH  61  85
BRANCH  73  96
ATOM     96  C   UNL     1      -9.803  -4.085  -0.523  1.00  0.00     0.064 A 
ATOM     97  C   UNL     1     -10.367  -2.802  -0.574  1.00  0.00     0.173 A 
ATOM     98  C   UNL     1     -10.672  -5.181  -0.414  1.00  0.00     0.173 A 
ATOM     99  F   UNL     1      -9.578  -1.720  -0.663  1.00  0.00    -0.203 F 
ATOM    100  C   UNL     1     -11.746  -2.623  -0.496  1.00  0.00     0.198 A 
ATOM    101  C   UNL     1     -12.051  -5.001  -0.367  1.00  0.00     0.198 A 
ATOM    102  F   UNL     1     -10.184  -6.430  -0.369  1.00  0.00    -0.203 F 
ATOM    103  F   UNL     1     -12.261  -1.386  -0.501  1.00  0.00    -0.200 F 
ATOM    104  C   UNL     1     -12.587  -3.723  -0.401  1.00  0.00     0.200 A 
ATOM    105  F   UNL     1     -12.863  -6.065  -0.288  1.00  0.00    -0.200 F 
ATOM    106  F   UNL     1     -13.914  -3.549  -0.334  1.00  0.00    -0.200 F 
ENDBRANCH  73  96
ENDBRANCH  47  48
ENDBRANCH  40  42
ENDBRANCH  39  40
ENDBRANCH  38  39
ENDBRANCH  37  38
ENDBRANCH  36  37
ENDBRANCH   1  36
TORSDOF 17
