REMARK SMILES O=C(OCCOCCOC(=O)[C@@H]1C=C[C@@H](Nc2ccc3ccccc3n2)C1)c1ccc(-c2c3nc(c(-c4c(F)c(F)c(F)c(F)c4F)c4ccc([nH]4)c(-c4c(F)c(F)c(F)c(F)c4F)c4nc(c(-c5c(F)c(F)c(F)c(F)c5F)c5ccc2[nH]5)C=C4)C=C3)cc1
REMARK SMILES IDX 6 1 5 2 4 3 3 4 2 5 1 6 28 7 29 8 90 9 30 10 89 11 31 12
REMARK SMILES IDX 32 13 33 14 83 15 34 16 88 17 82 18 84 19 35 20 87 21 81 22
REMARK SMILES IDX 80 23 36 25 68 26 48 27 67 28 49 29 52 30 66 31 85 32 50 33
REMARK SMILES IDX 51 34 65 36 86 37 53 38 37 39 38 40 46 41 39 42 40 43 44 44
REMARK SMILES IDX 47 45 41 46 42 47 45 48 43 49 69 50 70 51 78 52 71 53 72 54
REMARK SMILES IDX 76 55 79 56 73 57 74 58 77 59 75 60 54 61 55 62 63 63 56 64
REMARK SMILES IDX 57 65 61 66 64 67 58 68 59 69 62 70 60 71 7 72 8 73 9 74
REMARK SMILES IDX 10 75 11 76 12 77 13 78 27 79 14 80 15 81 16 82 17 84 18 85
REMARK SMILES IDX 26 86 19 87 25 88 20 89 24 90 21 91 23 92 22 93
REMARK H PARENT 84 24 52 35 16 83
REMARK Flexibility Score: inf
ROOT
ATOM      1  O   UNL     1       4.896   2.212  -1.903  1.00  0.00    -0.374 OA
ENDROOT
BRANCH   1   2
ATOM      2  C   UNL     1       5.437   1.693  -0.683  1.00  0.00     0.202 C 
BRANCH   2   3
ATOM      3  C   UNL     1       5.941   0.248  -0.740  1.00  0.00     0.261 C 
BRANCH   3   4
ATOM      4  O   UNL     1       6.960   0.112  -1.745  1.00  0.00    -0.460 OA
BRANCH   4   5
ATOM      5  C   UNL     1       6.862  -0.434  -2.980  1.00  0.00     0.338 C 
ATOM      6  O   UNL     1       7.878  -0.520  -3.667  1.00  0.00    -0.246 OA
BRANCH   5   7
ATOM      7  C   UNL     1       5.582  -0.940  -3.560  1.00  0.00     0.060 A 
ATOM      8  C   UNL     1       4.312  -0.514  -3.175  1.00  0.00     0.016 A 
ATOM      9  C   UNL     1       5.672  -1.850  -4.629  1.00  0.00     0.016 A 
ATOM     10  C   UNL     1       3.167  -1.025  -3.758  1.00  0.00     0.010 A 
ATOM     11  C   UNL     1       4.523  -2.327  -5.269  1.00  0.00     0.010 A 
ATOM     12  C   UNL     1       3.264  -1.924  -4.817  1.00  0.00    -0.014 A 
BRANCH  12  13
ATOM     13  C   UNL     1       1.998  -2.445  -5.358  1.00  0.00     0.031 A 
ATOM     14  C   UNL     1       1.556  -3.816  -4.956  1.00  0.00     0.074 A 
ATOM     15  C   UNL     1       1.185  -1.601  -6.019  1.00  0.00     0.049 A 
ATOM     16  N   UNL     1       0.441  -4.437  -5.230  1.00  0.00    -0.248 NA
ATOM     17  C   UNL     1       2.483  -4.582  -4.106  1.00  0.00     0.031 C 
ATOM     18  C   UNL     1       1.506  -0.206  -6.340  1.00  0.00     0.029 A 
ATOM     19  N   UNL     1      -0.091  -1.764  -6.484  1.00  0.00    -0.354 N 
ATOM     20  C   UNL     1       0.532  -5.664  -4.590  1.00  0.00     0.074 A 
ATOM     21  C   UNL     1       1.815  -5.712  -3.927  1.00  0.00     0.031 C 
ATOM     22  C   UNL     1       0.438   0.370  -6.911  1.00  0.00     0.029 A 
ATOM     23  C   UNL     1      -0.615  -0.629  -7.055  1.00  0.00     0.049 A 
ATOM     24  H   UNL     1      -0.586  -2.612  -6.416  1.00  0.00     0.167 HD
ATOM     25  C   UNL     1      -0.385  -6.658  -4.566  1.00  0.00     0.037 A 
ATOM     26  C   UNL     1      -1.807  -0.436  -7.647  1.00  0.00     0.037 A 
ATOM     27  C   UNL     1      -1.645  -6.588  -5.253  1.00  0.00     0.049 A 
ATOM     28  C   UNL     1      -2.765  -1.596  -7.687  1.00  0.00     0.074 A 
ATOM     29  C   UNL     1      -2.611  -7.566  -5.400  1.00  0.00     0.029 A 
ATOM     30  N   UNL     1      -2.114  -5.456  -5.910  1.00  0.00    -0.354 N 
ATOM     31  N   UNL     1      -2.641  -2.789  -7.153  1.00  0.00    -0.248 NA
ATOM     32  C   UNL     1      -4.019  -1.393  -8.420  1.00  0.00     0.031 C 
ATOM     33  C   UNL     1      -3.649  -7.035  -6.176  1.00  0.00     0.029 A 
ATOM     34  C   UNL     1      -3.351  -5.714  -6.473  1.00  0.00     0.049 A 
ATOM     35  H   UNL     1      -1.635  -4.598  -5.965  1.00  0.00     0.167 HD
ATOM     36  C   UNL     1      -3.797  -3.478  -7.483  1.00  0.00     0.074 A 
ATOM     37  C   UNL     1      -4.629  -2.554  -8.230  1.00  0.00     0.031 C 
ATOM     38  C   UNL     1      -4.141  -4.761  -7.212  1.00  0.00     0.037 A 
BRANCH  25  39
ATOM     39  C   UNL     1      -0.014  -7.908  -3.829  1.00  0.00     0.064 A 
ATOM     40  C   UNL     1       0.015  -7.957  -2.427  1.00  0.00     0.173 A 
ATOM     41  C   UNL     1       0.346  -9.066  -4.534  1.00  0.00     0.173 A 
ATOM     42  F   UNL     1      -0.289  -6.867  -1.707  1.00  0.00    -0.203 F 
ATOM     43  C   UNL     1       0.413  -9.114  -1.759  1.00  0.00     0.198 A 
ATOM     44  C   UNL     1       0.722 -10.227  -3.863  1.00  0.00     0.198 A 
ATOM     45  F   UNL     1       0.346  -9.067  -5.875  1.00  0.00    -0.203 F 
ATOM     46  F   UNL     1       0.484  -9.122  -0.420  1.00  0.00    -0.200 F 
ATOM     47  C   UNL     1       0.762 -10.248  -2.477  1.00  0.00     0.200 A 
ATOM     48  F   UNL     1       1.059 -11.321  -4.559  1.00  0.00    -0.200 F 
ATOM     49  F   UNL     1       1.151 -11.357  -1.833  1.00  0.00    -0.200 F 
ENDBRANCH  25  39
BRANCH  26  50
ATOM     50  C   UNL     1      -2.129   0.866  -8.292  1.00  0.00     0.064 A 
ATOM     51  C   UNL     1      -3.192   1.665  -7.849  1.00  0.00     0.173 A 
ATOM     52  C   UNL     1      -1.391   1.325  -9.395  1.00  0.00     0.173 A 
ATOM     53  F   UNL     1      -3.945   1.266  -6.814  1.00  0.00    -0.203 F 
ATOM     54  C   UNL     1      -3.517   2.857  -8.498  1.00  0.00     0.198 A 
ATOM     55  C   UNL     1      -1.694   2.532 -10.021  1.00  0.00     0.198 A 
ATOM     56  F   UNL     1      -0.365   0.600  -9.867  1.00  0.00    -0.203 F 
ATOM     57  F   UNL     1      -4.575   3.571  -8.090  1.00  0.00    -0.200 F 
ATOM     58  C   UNL     1      -2.765   3.291  -9.579  1.00  0.00     0.200 A 
ATOM     59  F   UNL     1      -0.955   2.951 -11.056  1.00  0.00    -0.200 F 
ATOM     60  F   UNL     1      -3.081   4.434 -10.204  1.00  0.00    -0.200 F 
ENDBRANCH  26  50
BRANCH  38  61
ATOM     61  C   UNL     1      -5.471  -5.220  -7.726  1.00  0.00     0.064 A 
ATOM     62  C   UNL     1      -5.683  -5.459  -9.091  1.00  0.00     0.173 A 
ATOM     63  C   UNL     1      -6.535  -5.444  -6.841  1.00  0.00     0.173 A 
ATOM     64  F   UNL     1      -4.697  -5.241  -9.976  1.00  0.00    -0.203 F 
ATOM     65  C   UNL     1      -6.924  -5.878  -9.557  1.00  0.00     0.198 A 
ATOM     66  C   UNL     1      -7.766  -5.893  -7.307  1.00  0.00     0.198 A 
ATOM     67  F   UNL     1      -6.377  -5.235  -5.525  1.00  0.00    -0.203 F 
ATOM     68  F   UNL     1      -7.121  -6.051 -10.871  1.00  0.00    -0.200 F 
ATOM     69  C   UNL     1      -7.963  -6.101  -8.664  1.00  0.00     0.200 A 
ATOM     70  F   UNL     1      -8.766  -6.118  -6.443  1.00  0.00    -0.200 F 
ATOM     71  F   UNL     1      -9.157  -6.507  -9.114  1.00  0.00    -0.200 F 
ENDBRANCH  38  61
ENDBRANCH  12  13
ENDBRANCH   5   7
ENDBRANCH   4   5
ENDBRANCH   3   4
ENDBRANCH   2   3
ENDBRANCH   1   2
BRANCH   1  72
ATOM     72  C   UNL     1       5.854   2.739  -2.835  1.00  0.00     0.202 C 
BRANCH  72  73
ATOM     73  C   UNL     1       5.423   4.141  -3.280  1.00  0.00     0.261 C 
BRANCH  73  74
ATOM     74  O   UNL     1       5.419   4.981  -2.119  1.00  0.00    -0.463 OA
BRANCH  74  75
ATOM     75  C   UNL     1       4.238   5.022  -1.442  1.00  0.00     0.312 C 
ATOM     76  O   UNL     1       3.130   4.973  -1.966  1.00  0.00    -0.252 OA
BRANCH  75  77
ATOM     77  C   UNL     1       4.463   5.035   0.068  1.00  0.00     0.124 C 
ATOM     78  C   UNL     1       4.046   6.329   0.700  1.00  0.00    -0.014 C 
ATOM     79  C   UNL     1       5.931   4.942   0.502  1.00  0.00     0.048 C 
ATOM     80  C   UNL     1       5.113   7.062   1.049  1.00  0.00    -0.006 C 
ATOM     81  C   UNL     1       6.385   6.393   0.644  1.00  0.00     0.104 C 
BRANCH  81  82
ATOM     82  N   UNL     1       7.393   6.464   1.664  1.00  0.00    -0.364 N 
ATOM     83  H   UNL     1       7.314   5.928   2.486  1.00  0.00     0.162 HD
BRANCH  82  84
ATOM     84  C   UNL     1       8.475   7.297   1.470  1.00  0.00     0.127 A 
ATOM     85  C   UNL     1       9.697   6.958   2.034  1.00  0.00     0.047 A 
ATOM     86  N   UNL     1       8.336   8.373   0.672  1.00  0.00    -0.231 NA
ATOM     87  C   UNL     1      10.813   7.743   1.760  1.00  0.00     0.014 A 
ATOM     88  C   UNL     1       9.399   9.155   0.432  1.00  0.00     0.073 A 
ATOM     89  C   UNL     1      10.677   8.873   0.949  1.00  0.00     0.000 A 
ATOM     90  C   UNL     1       9.240  10.285  -0.357  1.00  0.00     0.029 A 
ATOM     91  C   UNL     1      11.762   9.713   0.649  1.00  0.00     0.010 A 
ATOM     92  C   UNL     1      10.311  11.133  -0.646  1.00  0.00     0.002 A 
ATOM     93  C   UNL     1      11.576  10.843  -0.146  1.00  0.00     0.001 A 
ENDBRANCH  82  84
ENDBRANCH  81  82
ENDBRANCH  75  77
ENDBRANCH  74  75
ENDBRANCH  73  74
ENDBRANCH  72  73
ENDBRANCH   1  72
TORSDOF 16
