REMARK SMILES NC(=O)c1ccccc1N[C@@H]1CCCCC[C@@H]1C(=O)OCCOCCOC(=O)c1ccc(-c2c3nc(c(-c4c(F)c(F)c(F)c(F)c4F)c4ccc([nH]4)c(-c4c(F)c(F)c(F)c(F)c4F)c4nc(c(-c5c(F)c(F)c(F)c(F)c5F)c5ccc2[nH]5)C=C4)C=C3)cc1
REMARK SMILES IDX 22 1 21 2 20 3 18 4 19 5 17 6 11 7 10 8 9 10 4 11 5 12 6 13
REMARK SMILES IDX 8 14 7 15 2 16 1 17 3 20 12 21 13 22 14 23 16 25 15 26 23 28
REMARK SMILES IDX 24 29 25 30 26 31 27 32 28 33 29 34 30 35 91 36 31 37 90 38
REMARK SMILES IDX 32 39 33 40 34 41 84 42 35 43 89 44 83 45 85 46 36 47 88 48
REMARK SMILES IDX 82 49 81 50 37 52 69 53 49 54 68 55 50 56 53 57 67 58 86 59
REMARK SMILES IDX 51 60 52 61 66 63 87 64 54 65 38 66 39 67 47 68 40 69 41 70
REMARK SMILES IDX 45 71 48 72 42 73 43 74 46 75 44 76 70 77 71 78 79 79 72 80
REMARK SMILES IDX 73 81 77 82 80 83 74 84 75 85 78 86 76 87 55 88 56 89 64 90
REMARK SMILES IDX 57 91 58 92 62 93 65 94 59 95 60 96 63 97 61 98
REMARK H PARENT 10 9 1 18 1 19 85 51 53 62
REMARK Flexibility Score: 100.00
ROOT
ATOM      1  C   UNL     1      -0.921  -5.471   0.724  1.00  0.00     0.202 C 
ENDROOT
BRANCH   1   2
ATOM      2  C   UNL     1      -0.429  -4.715  -0.516  1.00  0.00     0.261 C 
BRANCH   2   3
ATOM      3  O   UNL     1       0.978  -4.904  -0.750  1.00  0.00    -0.463 OA
BRANCH   3   4
ATOM      4  C   UNL     1       1.770  -3.974  -0.162  1.00  0.00     0.311 C 
ATOM      5  O   UNL     1       1.353  -3.083   0.573  1.00  0.00    -0.252 OA
BRANCH   4   6
ATOM      6  C   UNL     1       3.262  -4.218  -0.365  1.00  0.00     0.121 C 
BRANCH   6   7
ATOM      7  C   UNL     1       3.967  -2.840  -0.374  1.00  0.00     0.093 C 
BRANCH   7   8
ATOM      8  N   UNL     1       3.171  -1.735  -0.960  1.00  0.00    -0.381 N 
ATOM      9  H   UNL     1       3.112  -0.902  -0.438  1.00  0.00     0.160 HD
BRANCH   8  10
ATOM     10  C   UNL     1       2.496  -1.764  -2.184  1.00  0.00     0.047 A 
ATOM     11  C   UNL     1       1.194  -1.212  -2.328  1.00  0.00     0.062 A 
ATOM     12  C   UNL     1       0.468  -1.380  -3.520  1.00  0.00     0.016 A 
ATOM     13  C   UNL     1       1.032  -2.044  -4.603  1.00  0.00     0.001 A 
ATOM     14  C   UNL     1       3.056  -2.360  -3.319  1.00  0.00     0.026 A 
ATOM     15  C   UNL     1       2.333  -2.518  -4.507  1.00  0.00     0.002 A 
BRANCH  11  16
ATOM     16  C   UNL     1       0.473  -0.488  -1.240  1.00  0.00     0.250 C 
ATOM     17  N   UNL     1       1.222   0.298  -0.409  1.00  0.00    -0.366 N 
ATOM     18  H   UNL     1       0.788   0.794   0.322  1.00  0.00     0.159 HD
ATOM     19  H   UNL     1       2.195   0.369  -0.543  1.00  0.00     0.159 HD
ATOM     20  O   UNL     1      -0.745  -0.548  -1.125  1.00  0.00    -0.269 OA
ENDBRANCH  11  16
ENDBRANCH   8  10
ENDBRANCH   7   8
BRANCH   7  21
ATOM     21  C   UNL     1       5.435  -2.748  -0.788  1.00  0.00     0.026 C 
BRANCH  21  22
ATOM     22  C   UNL     1       6.299  -3.921  -0.333  1.00  0.00     0.002 C 
BRANCH  22  23
ATOM     23  C   UNL     1       6.235  -5.100  -1.298  1.00  0.00     0.000 CG0
ATOM     24  G   UNL     1       4.974  -5.948  -1.181  1.00  0.00     0.000 G0
ENDBRANCH  22  23
ENDBRANCH  21  22
ENDBRANCH   7  21
ENDBRANCH   6   7
BRANCH   6  25
ATOM     25  C   UNL     1       3.657  -5.216  -1.466  1.00  0.00     0.017 C 
BRANCH  25  26
ATOM     26  C   UNL     1       4.974  -5.948  -1.181  1.00  0.00     0.001 CG0
ATOM     27  G   UNL     1       6.235  -5.100  -1.298  1.00  0.00     0.000 G0
ENDBRANCH  25  26
ENDBRANCH   6  25
ENDBRANCH   4   6
ENDBRANCH   3   4
ENDBRANCH   2   3
ENDBRANCH   1   2
BRANCH   1  28
ATOM     28  O   UNL     1      -0.500  -4.976   1.995  1.00  0.00    -0.374 OA
BRANCH  28  29
ATOM     29  C   UNL     1       0.783  -5.389   2.465  1.00  0.00     0.202 C 
BRANCH  29  30
ATOM     30  C   UNL     1       0.814  -6.724   3.208  1.00  0.00     0.261 C 
BRANCH  30  31
ATOM     31  O   UNL     1       0.552  -7.807   2.299  1.00  0.00    -0.460 OA
BRANCH  31  32
ATOM     32  C   UNL     1      -0.678  -8.352   2.420  1.00  0.00     0.338 C 
ATOM     33  O   UNL     1      -1.505  -8.137   3.296  1.00  0.00    -0.246 OA
BRANCH  32  34
ATOM     34  C   UNL     1      -0.992  -9.144   1.218  1.00  0.00     0.060 A 
ATOM     35  C   UNL     1      -2.245  -8.937   0.626  1.00  0.00     0.016 A 
ATOM     36  C   UNL     1      -0.114 -10.105   0.711  1.00  0.00     0.016 A 
ATOM     37  C   UNL     1      -2.658  -9.742  -0.428  1.00  0.00     0.010 A 
ATOM     38  C   UNL     1      -0.534 -10.921  -0.342  1.00  0.00     0.010 A 
ATOM     39  C   UNL     1      -1.825 -10.773  -0.879  1.00  0.00    -0.014 A 
BRANCH  39  40
ATOM     40  C   UNL     1      -2.389 -11.813  -1.769  1.00  0.00     0.031 A 
ATOM     41  C   UNL     1      -2.884 -13.091  -1.152  1.00  0.00     0.074 A 
ATOM     42  C   UNL     1      -2.497 -11.608  -3.091  1.00  0.00     0.049 A 
ATOM     43  N   UNL     1      -3.392 -14.151  -1.725  1.00  0.00    -0.248 NA
ATOM     44  C   UNL     1      -2.790 -13.186   0.314  1.00  0.00     0.031 C 
ATOM     45  C   UNL     1      -2.089 -10.393  -3.791  1.00  0.00     0.029 A 
ATOM     46  N   UNL     1      -2.979 -12.426  -4.080  1.00  0.00    -0.354 N 
ATOM     47  C   UNL     1      -3.679 -15.035  -0.693  1.00  0.00     0.074 A 
ATOM     48  C   UNL     1      -3.253 -14.406   0.538  1.00  0.00     0.031 C 
ATOM     49  C   UNL     1      -2.320 -10.552  -5.106  1.00  0.00     0.029 A 
ATOM     50  C   UNL     1      -2.867 -11.889  -5.337  1.00  0.00     0.049 A 
ATOM     51  H   UNL     1      -3.368 -13.314  -3.905  1.00  0.00     0.167 HD
ATOM     52  C   UNL     1      -4.257 -16.257  -0.765  1.00  0.00     0.037 A 
ATOM     53  C   UNL     1      -3.153 -12.428  -6.537  1.00  0.00     0.037 A 
ATOM     54  C   UNL     1      -4.671 -16.881  -1.993  1.00  0.00     0.049 A 
ATOM     55  C   UNL     1      -3.733 -13.817  -6.601  1.00  0.00     0.074 A 
ATOM     56  C   UNL     1      -5.268 -18.115  -2.179  1.00  0.00     0.029 A 
ATOM     57  N   UNL     1      -4.519 -16.316  -3.252  1.00  0.00    -0.354 N 
ATOM     58  N   UNL     1      -4.017 -14.642  -5.622  1.00  0.00    -0.248 NA
ATOM     59  C   UNL     1      -4.038 -14.347  -7.937  1.00  0.00     0.031 C 
ATOM     60  C   UNL     1      -5.436 -18.316  -3.553  1.00  0.00     0.029 A 
ATOM     61  C   UNL     1      -4.990 -17.186  -4.221  1.00  0.00     0.049 A 
ATOM     62  H   UNL     1      -4.133 -15.428  -3.429  1.00  0.00     0.167 HD
ATOM     63  C   UNL     1      -4.552 -15.776  -6.218  1.00  0.00     0.074 A 
ATOM     64  C   UNL     1      -4.567 -15.527  -7.645  1.00  0.00     0.031 C 
ATOM     65  C   UNL     1      -4.994 -16.919  -5.638  1.00  0.00     0.037 A 
BRANCH  52  66
ATOM     66  C   UNL     1      -4.448 -17.003   0.523  1.00  0.00     0.064 A 
ATOM     67  C   UNL     1      -5.395 -16.597   1.476  1.00  0.00     0.173 A 
ATOM     68  C   UNL     1      -3.677 -18.140   0.807  1.00  0.00     0.173 A 
ATOM     69  F   UNL     1      -6.145 -15.506   1.261  1.00  0.00    -0.203 F 
ATOM     70  C   UNL     1      -5.540 -17.284   2.679  1.00  0.00     0.198 A 
ATOM     71  C   UNL     1      -3.845 -18.841   1.998  1.00  0.00     0.198 A 
ATOM     72  F   UNL     1      -2.758 -18.570  -0.071  1.00  0.00    -0.203 F 
ATOM     73  F   UNL     1      -6.411 -16.845   3.598  1.00  0.00    -0.200 F 
ATOM     74  C   UNL     1      -4.769 -18.407   2.937  1.00  0.00     0.200 A 
ATOM     75  F   UNL     1      -3.106 -19.932   2.241  1.00  0.00    -0.200 F 
ATOM     76  F   UNL     1      -4.909 -19.067   4.095  1.00  0.00    -0.200 F 
ENDBRANCH  52  66
BRANCH  53  77
ATOM     77  C   UNL     1      -2.879 -11.653  -7.774  1.00  0.00     0.064 A 
ATOM     78  C   UNL     1      -3.921 -11.150  -8.563  1.00  0.00     0.173 A 
ATOM     79  C   UNL     1      -1.563 -11.393  -8.185  1.00  0.00     0.173 A 
ATOM     80  F   UNL     1      -5.195 -11.393  -8.224  1.00  0.00    -0.203 F 
ATOM     81  C   UNL     1      -3.657 -10.424  -9.724  1.00  0.00     0.198 A 
ATOM     82  C   UNL     1      -1.300 -10.645  -9.330  1.00  0.00     0.198 A 
ATOM     83  F   UNL     1      -0.530 -11.853  -7.463  1.00  0.00    -0.203 F 
ATOM     84  F   UNL     1      -4.671  -9.985 -10.481  1.00  0.00    -0.200 F 
ATOM     85  C   UNL     1      -2.348 -10.166 -10.102  1.00  0.00     0.200 A 
ATOM     86  F   UNL     1      -0.034 -10.388  -9.685  1.00  0.00    -0.200 F 
ATOM     87  F   UNL     1      -2.095  -9.461 -11.213  1.00  0.00    -0.200 F 
ENDBRANCH  53  77
BRANCH  65  88
ATOM     88  C   UNL     1      -5.552 -17.979  -6.543  1.00  0.00     0.064 A 
ATOM     89  C   UNL     1      -4.723 -18.749  -7.372  1.00  0.00     0.173 A 
ATOM     90  C   UNL     1      -6.927 -18.259  -6.545  1.00  0.00     0.173 A 
ATOM     91  F   UNL     1      -3.404 -18.511  -7.415  1.00  0.00    -0.203 F 
ATOM     92  C   UNL     1      -5.254 -19.744  -8.188  1.00  0.00     0.198 A 
ATOM     93  C   UNL     1      -7.451 -19.273  -7.341  1.00  0.00     0.198 A 
ATOM     94  F   UNL     1      -7.761 -17.556  -5.764  1.00  0.00    -0.203 F 
ATOM     95  F   UNL     1      -4.450 -20.437  -9.005  1.00  0.00    -0.200 F 
ATOM     96  C   UNL     1      -6.615 -20.010  -8.166  1.00  0.00     0.200 A 
ATOM     97  F   UNL     1      -8.764 -19.538  -7.308  1.00  0.00    -0.200 F 
ATOM     98  F   UNL     1      -7.123 -20.974  -8.947  1.00  0.00    -0.200 F 
ENDBRANCH  65  88
ENDBRANCH  39  40
ENDBRANCH  32  34
ENDBRANCH  31  32
ENDBRANCH  30  31
ENDBRANCH  29  30
ENDBRANCH  28  29
ENDBRANCH   1  28
TORSDOF 17
