REMARK SMILES [NH3+][C@H](CS[C@@H]1CC(=O)N(c2ccc3ccccc3c2)C1=O)C(=O)OCCOCCOC(=O)c1ccc(-c2c3nc(c(-c4c(F)c(F)c(F)c(F)c4F)c4ccc([nH]4)c(-c4c(F)c(F)c(F)c(F)c4F)c4nc(c(-c5c(F)c(F)c(F)c(F)c5F)c5ccc2[nH]5)C=C4)C=C3)cc1
REMARK SMILES IDX 26 1 25 2 24 3 22 4 23 5 2 6 1 7 3 11 4 12 5 13 6 14 20 15
REMARK SMILES IDX 7 16 9 17 21 18 8 19 10 20 11 21 19 22 12 23 18 24 13 25
REMARK SMILES IDX 17 26 14 27 16 28 15 29 27 30 28 31 29 32 30 33 31 34 32 35
REMARK SMILES IDX 33 36 34 37 95 38 35 39 94 40 36 41 37 42 38 43 88 44 39 45
REMARK SMILES IDX 93 46 87 47 89 48 40 49 92 50 86 51 85 52 41 54 73 55 53 56
REMARK SMILES IDX 72 57 54 58 57 59 71 60 90 61 55 62 56 63 70 65 91 66 58 67
REMARK SMILES IDX 42 68 43 69 51 70 44 71 45 72 49 73 52 74 46 75 47 76 50 77
REMARK SMILES IDX 48 78 74 79 75 80 83 81 76 82 77 83 81 84 84 85 78 86 79 87
REMARK SMILES IDX 82 88 80 89 59 90 60 91 68 92 61 93 62 94 66 95 69 96 63 97
REMARK SMILES IDX 64 98 67 99 65 100
REMARK H PARENT 1 8 1 9 1 10 89 53 57 64
REMARK Flexibility Score: inf
ROOT
ATOM      1  C   UNL     1      -3.829  -0.537  -1.300  1.00  0.00     0.202 C 
ENDROOT
BRANCH   1   2
ATOM      2  C   UNL     1      -3.332  -2.052  -1.626  1.00  0.00     0.261 C 
BRANCH   2   3
ATOM      3  O   UNL     1      -2.034  -2.420  -1.070  1.00  0.00    -0.459 OA
BRANCH   3   4
ATOM      4  C   UNL     1      -1.032  -2.851  -1.870  1.00  0.00     0.365 C 
ATOM      5  O   UNL     1      -1.237  -3.397  -2.948  1.00  0.00    -0.245 OA
BRANCH   4   6
ATOM      6  C   UNL     1       0.387  -2.389  -1.393  1.00  0.00     0.301 C 
BRANCH   6   7
ATOM      7  N   UNL     1       1.348  -3.519  -1.399  1.00  0.00    -0.345 N 
ATOM      8  H   UNL     1       1.177  -4.107  -2.215  1.00  0.00     0.345 HD
ATOM      9  H   UNL     1       1.228  -4.072  -0.551  1.00  0.00     0.345 HD
ATOM     10  H   UNL     1       2.300  -3.156  -1.436  1.00  0.00     0.345 HD
ENDBRANCH   6   7
BRANCH   6  11
ATOM     11  C   UNL     1       0.635  -1.481  -0.152  1.00  0.00     0.147 C 
BRANCH  11  12
ATOM     12  S   UNL     1      -0.635  -1.004   1.078  1.00  0.00    -0.141 SA
BRANCH  12  13
ATOM     13  C   UNL     1      -1.940  -0.179   0.005  1.00  0.00     0.146 C 
ATOM     14  C   UNL     1      -1.279   0.176  -1.912  1.00  0.00     0.125 C 
ATOM     15  C   UNL     1      -3.162   1.448   0.365  1.00  0.00     0.247 C 
ATOM     16  C   UNL     1      -2.035   1.942  -2.426  1.00  0.00     0.235 C 
ATOM     17  N   UNL     1      -2.963   2.534  -1.056  1.00  0.00    -0.250 N 
ATOM     18  O   UNL     1      -3.966   1.699   1.244  1.00  0.00    -0.273 OA
ATOM     19  O   UNL     1      -1.781   2.562  -3.449  1.00  0.00    -0.274 OA
BRANCH  17  20
ATOM     20  C   UNL     1      -3.094   3.959  -0.943  1.00  0.00     0.052 A 
ATOM     21  C   UNL     1      -4.232   4.647  -1.341  1.00  0.00     0.027 A 
ATOM     22  C   UNL     1      -1.963   4.714  -0.578  1.00  0.00     0.035 A 
ATOM     23  C   UNL     1      -4.232   6.061  -1.329  1.00  0.00     0.011 A 
ATOM     24  C   UNL     1      -1.949   6.109  -0.534  1.00  0.00    -0.016 A 
ATOM     25  C   UNL     1      -3.100   6.809  -0.918  1.00  0.00    -0.018 A 
ATOM     26  C   UNL     1      -0.791   6.790  -0.120  1.00  0.00     0.009 A 
ATOM     27  C   UNL     1      -3.051   8.218  -0.876  1.00  0.00     0.009 A 
ATOM     28  C   UNL     1      -0.764   8.178  -0.075  1.00  0.00     0.001 A 
ATOM     29  C   UNL     1      -1.895   8.893  -0.454  1.00  0.00     0.001 A 
ENDBRANCH  17  20
ENDBRANCH  12  13
ENDBRANCH  11  12
ENDBRANCH   6  11
ENDBRANCH   4   6
ENDBRANCH   3   4
ENDBRANCH   2   3
ENDBRANCH   1   2
BRANCH   1  30
ATOM     30  O   UNL     1      -2.845   0.715  -1.263  1.00  0.00    -0.374 OA
BRANCH  30  31
ATOM     31  C   UNL     1      -1.248   1.587  -0.345  1.00  0.00     0.202 C 
BRANCH  31  32
ATOM     32  C   UNL     1      -1.145   2.162   1.331  1.00  0.00     0.261 C 
BRANCH  32  33
ATOM     33  O   UNL     1      -1.529   1.165   2.316  1.00  0.00    -0.460 OA
BRANCH  33  34
ATOM     34  C   UNL     1      -2.304   1.446   3.385  1.00  0.00     0.338 C 
ATOM     35  O   UNL     1      -2.517   2.546   3.859  1.00  0.00    -0.246 OA
BRANCH  34  36
ATOM     36  C   UNL     1      -2.933   0.179   3.872  1.00  0.00     0.060 A 
ATOM     37  C   UNL     1      -4.200  -0.224   3.411  1.00  0.00     0.016 A 
ATOM     38  C   UNL     1      -2.337  -0.535   4.910  1.00  0.00     0.016 A 
ATOM     39  C   UNL     1      -4.909  -1.255   4.029  1.00  0.00     0.010 A 
ATOM     40  C   UNL     1      -3.052  -1.561   5.548  1.00  0.00     0.010 A 
ATOM     41  C   UNL     1      -4.369  -1.869   5.157  1.00  0.00    -0.014 A 
BRANCH  41  42
ATOM     42  C   UNL     1      -5.275  -2.566   6.106  1.00  0.00     0.031 A 
ATOM     43  C   UNL     1      -5.788  -1.774   7.282  1.00  0.00     0.074 A 
ATOM     44  C   UNL     1      -5.653  -3.843   5.929  1.00  0.00     0.049 A 
ATOM     45  N   UNL     1      -6.456  -2.171   8.335  1.00  0.00    -0.248 NA
ATOM     46  C   UNL     1      -5.494  -0.330   7.270  1.00  0.00     0.031 C 
ATOM     47  C   UNL     1      -5.303  -4.678   4.784  1.00  0.00     0.029 A 
ATOM     48  N   UNL     1      -6.406  -4.665   6.731  1.00  0.00    -0.354 N 
ATOM     49  C   UNL     1      -6.622  -1.037   9.124  1.00  0.00     0.074 A 
ATOM     50  C   UNL     1      -5.984   0.061   8.435  1.00  0.00     0.031 C 
ATOM     51  C   UNL     1      -5.816  -5.907   4.969  1.00  0.00     0.029 A 
ATOM     52  C   UNL     1      -6.492  -5.954   6.265  1.00  0.00     0.049 A 
ATOM     53  H   UNL     1      -6.842  -4.359   7.559  1.00  0.00     0.167 HD
ATOM     54  C   UNL     1      -7.245  -0.928  10.322  1.00  0.00     0.037 A 
ATOM     55  C   UNL     1      -7.025  -7.048   6.844  1.00  0.00     0.037 A 
ATOM     56  C   UNL     1      -7.886  -2.030  10.990  1.00  0.00     0.049 A 
ATOM     57  C   UNL     1      -7.663  -6.917   8.204  1.00  0.00     0.074 A 
ATOM     58  C   UNL     1      -8.548  -2.041  12.204  1.00  0.00     0.029 A 
ATOM     59  N   UNL     1      -7.941  -3.324  10.491  1.00  0.00    -0.354 N 
ATOM     60  N   UNL     1      -7.796  -5.853   8.961  1.00  0.00    -0.248 NA
ATOM     61  C   UNL     1      -8.229  -8.140   8.791  1.00  0.00     0.031 C 
ATOM     62  C   UNL     1      -8.958  -3.353  12.464  1.00  0.00     0.029 A 
ATOM     63  C   UNL     1      -8.610  -4.146  11.382  1.00  0.00     0.049 A 
ATOM     64  H   UNL     1      -7.561  -3.615   9.630  1.00  0.00     0.167 HD
ATOM     65  C   UNL     1      -8.489  -6.268  10.091  1.00  0.00     0.074 A 
ATOM     66  C   UNL     1      -8.758  -7.681   9.916  1.00  0.00     0.031 C 
ATOM     67  C   UNL     1      -8.874  -5.548  11.176  1.00  0.00     0.037 A 
BRANCH  54  68
ATOM     68  C   UNL     1      -7.212   0.411  11.005  1.00  0.00     0.064 A 
ATOM     69  C   UNL     1      -7.925   1.518  10.519  1.00  0.00     0.173 A 
ATOM     70  C   UNL     1      -6.458   0.585  12.177  1.00  0.00     0.173 A 
ATOM     71  F   UNL     1      -8.649   1.414   9.395  1.00  0.00    -0.203 F 
ATOM     72  C   UNL     1      -7.860   2.753  11.162  1.00  0.00     0.198 A 
ATOM     73  C   UNL     1      -6.423   1.812  12.836  1.00  0.00     0.198 A 
ATOM     74  F   UNL     1      -5.758  -0.439  12.690  1.00  0.00    -0.203 F 
ATOM     75  F   UNL     1      -8.507   3.809  10.649  1.00  0.00    -0.200 F 
ATOM     76  C   UNL     1      -7.115   2.897  12.323  1.00  0.00     0.200 A 
ATOM     77  F   UNL     1      -5.713   1.944  13.965  1.00  0.00    -0.200 F 
ATOM     78  F   UNL     1      -7.059   4.083  12.944  1.00  0.00    -0.200 F 
ENDBRANCH  54  68
BRANCH  55  79
ATOM     79  C   UNL     1      -6.969  -8.363   6.147  1.00  0.00     0.064 A 
ATOM     80  C   UNL     1      -8.136  -8.985   5.682  1.00  0.00     0.173 A 
ATOM     81  C   UNL     1      -5.751  -9.027   5.934  1.00  0.00     0.173 A 
ATOM     82  F   UNL     1      -9.329  -8.407   5.887  1.00  0.00    -0.203 F 
ATOM     83  C   UNL     1      -8.090 -10.222   5.042  1.00  0.00     0.198 A 
ATOM     84  C   UNL     1      -5.703 -10.249   5.265  1.00  0.00     0.198 A 
ATOM     85  F   UNL     1      -4.604  -8.482   6.363  1.00  0.00    -0.203 F 
ATOM     86  F   UNL     1      -9.226 -10.812   4.646  1.00  0.00    -0.200 F 
ATOM     87  C   UNL     1      -6.872 -10.849   4.825  1.00  0.00     0.200 A 
ATOM     88  F   UNL     1      -4.522 -10.845   5.047  1.00  0.00    -0.200 F 
ATOM     89  F   UNL     1      -6.827 -12.033   4.199  1.00  0.00    -0.200 F 
ENDBRANCH  55  79
BRANCH  67  90
ATOM     90  C   UNL     1      -9.677  -6.266  12.223  1.00  0.00     0.064 A 
ATOM     91  C   UNL     1      -9.107  -7.234  13.062  1.00  0.00     0.173 A 
ATOM     92  C   UNL     1     -11.036  -5.962  12.399  1.00  0.00     0.173 A 
ATOM     93  F   UNL     1      -7.815  -7.569  12.927  1.00  0.00    -0.203 F 
ATOM     94  C   UNL     1      -9.878  -7.901  14.011  1.00  0.00     0.198 A 
ATOM     95  C   UNL     1     -11.795  -6.605  13.372  1.00  0.00     0.198 A 
ATOM     96  F   UNL     1     -11.627  -5.035  11.630  1.00  0.00    -0.203 F 
ATOM     97  F   UNL     1      -9.328  -8.867  14.759  1.00  0.00    -0.200 F 
ATOM     98  C   UNL     1     -11.219  -7.582  14.169  1.00  0.00     0.200 A 
ATOM     99  F   UNL     1     -13.086  -6.284  13.533  1.00  0.00    -0.200 F 
ATOM    100  F   UNL     1     -11.959  -8.225  15.082  1.00  0.00    -0.200 F 
ENDBRANCH  67  90
ENDBRANCH  41  42
ENDBRANCH  34  36
ENDBRANCH  33  34
ENDBRANCH  32  33
ENDBRANCH  31  32
ENDBRANCH  30  31
ENDBRANCH   1  30
TORSDOF 19
