REMARK SMILES CCOC(=O)c1cccc(Nc2c(-c3ccc(C(=O)OCCOCCOC(=O)c4ccc(-c5c6nc(c(-c7c(F)c(F)c(F)c(F)c7F)c7ccc([nH]7)c(-c7c(F)c(F)c(F)c(F)c7F)c7nc(c(-c8c(F)c(F)c(F)c(F)c8F)c8ccc5[nH]8)C=C7)C=C6)cc4)cc3)nc3cnccn23)c1
REMARK SMILES IDX 21 1 20 2 18 3 19 4 17 5 14 6 15 7 93 8 16 9 92 10 13 11
REMARK SMILES IDX 12 12 100 13 94 14 95 15 99 16 96 17 98 18 97 19 11 20 10 22
REMARK SMILES IDX 6 23 7 24 101 25 8 26 9 27 4 28 5 29 3 30 2 31 1 32 22 33
REMARK SMILES IDX 23 34 24 35 25 36 26 37 27 38 28 39 29 40 30 41 91 42 31 43
REMARK SMILES IDX 90 44 32 45 33 46 34 47 84 48 35 49 89 50 83 51 85 52 36 53
REMARK SMILES IDX 88 54 82 55 81 56 37 58 69 59 49 60 68 61 50 62 53 63 67 64
REMARK SMILES IDX 86 65 51 66 52 67 66 69 87 70 54 71 38 72 39 73 47 74 40 75
REMARK SMILES IDX 41 76 45 77 48 78 42 79 43 80 46 81 44 82 70 83 71 84 79 85
REMARK SMILES IDX 72 86 73 87 77 88 80 89 74 90 75 91 78 92 76 93 55 94 56 95
REMARK SMILES IDX 64 96 57 97 58 98 62 99 65 100 59 101 60 102 63 103 61 104
REMARK H PARENT 11 21 85 57 53 68
REMARK Flexibility Score: inf
ROOT
ATOM      1  C   UNL     1       4.207  11.654  -5.309  1.00  0.00     0.261 C 
ENDROOT
BRANCH   1   2
ATOM      2  O   UNL     1       3.939  10.547  -6.186  1.00  0.00    -0.460 OA
BRANCH   2   3
ATOM      3  C   UNL     1       4.866   9.560  -6.152  1.00  0.00     0.338 C 
ATOM      4  O   UNL     1       5.948   9.594  -5.586  1.00  0.00    -0.246 OA
BRANCH   3   5
ATOM      5  C   UNL     1       4.336   8.329  -6.780  1.00  0.00     0.060 A 
ATOM      6  C   UNL     1       3.519   5.910  -7.941  1.00  0.00     0.004 A 
ATOM      7  C   UNL     1       4.337   5.907  -6.804  1.00  0.00     0.011 A 
ATOM      8  C   UNL     1       3.086   7.133  -8.474  1.00  0.00     0.011 A 
ATOM      9  C   UNL     1       4.748   7.109  -6.232  1.00  0.00     0.016 A 
ATOM     10  C   UNL     1       3.480   8.344  -7.888  1.00  0.00     0.016 A 
BRANCH   6  11
ATOM     11  C   UNL     1       3.236   4.664  -8.628  1.00  0.00     0.114 A 
ATOM     12  C   UNL     1       2.792   3.482  -8.042  1.00  0.00     0.143 A 
ATOM     13  N   UNL     1       2.822   2.562  -9.075  1.00  0.00    -0.283 N 
ATOM     14  N   UNL     1       3.539   4.493  -9.961  1.00  0.00    -0.225 NA
ATOM     15  C   UNL     1       3.314   3.218 -10.175  1.00  0.00     0.157 A 
ATOM     16  C   UNL     1       2.477   1.223  -9.176  1.00  0.00     0.115 A 
ATOM     17  C   UNL     1       3.525   2.472 -11.384  1.00  0.00     0.158 A 
ATOM     18  C   UNL     1       2.689   0.595 -10.347  1.00  0.00     0.129 A 
ATOM     19  N   UNL     1       3.229   1.202 -11.470  1.00  0.00    -0.259 NA
BRANCH  12  20
ATOM     20  N   UNL     1       2.360   3.206  -6.779  1.00  0.00    -0.339 N 
ATOM     21  H   UNL     1       1.541   3.664  -6.480  1.00  0.00     0.168 HD
BRANCH  20  22
ATOM     22  C   UNL     1       2.973   2.323  -5.854  1.00  0.00     0.040 A 
ATOM     23  C   UNL     1       3.042   1.406  -3.595  1.00  0.00     0.062 A 
ATOM     24  C   UNL     1       4.171   0.651  -3.920  1.00  0.00     0.016 A 
ATOM     25  C   UNL     1       2.429   2.217  -4.562  1.00  0.00     0.041 A 
ATOM     26  C   UNL     1       4.683   0.703  -5.212  1.00  0.00     0.003 A 
ATOM     27  C   UNL     1       4.092   1.537  -6.166  1.00  0.00     0.026 A 
BRANCH  23  28
ATOM     28  C   UNL     1       2.585   1.404  -2.191  1.00  0.00     0.338 C 
ATOM     29  O   UNL     1       3.356   1.441  -1.245  1.00  0.00    -0.246 OA
BRANCH  28  30
ATOM     30  O   UNL     1       1.235   1.321  -2.138  1.00  0.00    -0.462 OA
BRANCH  30  31
ATOM     31  C   UNL     1       0.675   1.330  -0.814  1.00  0.00     0.230 C 
ATOM     32  C   UNL     1       0.864  -0.002  -0.106  1.00  0.00     0.049 C 
ENDBRANCH  30  31
ENDBRANCH  28  30
ENDBRANCH  23  28
ENDBRANCH  20  22
ENDBRANCH  12  20
ENDBRANCH   6  11
ENDBRANCH   3   5
ENDBRANCH   2   3
ENDBRANCH   1   2
BRANCH   1  33
ATOM     33  C   UNL     1       3.183  11.707  -4.172  1.00  0.00     0.202 C 
BRANCH  33  34
ATOM     34  O   UNL     1       3.197  10.585  -3.289  1.00  0.00    -0.374 OA
BRANCH  34  35
ATOM     35  C   UNL     1       2.423   9.451  -3.691  1.00  0.00     0.202 C 
BRANCH  35  36
ATOM     36  C   UNL     1       0.925   9.546  -3.378  1.00  0.00     0.261 C 
BRANCH  36  37
ATOM     37  O   UNL     1       0.275  10.497  -4.244  1.00  0.00    -0.460 OA
BRANCH  37  38
ATOM     38  C   UNL     1      -0.216  11.599  -3.633  1.00  0.00     0.338 C 
ATOM     39  O   UNL     1      -0.276  11.821  -2.431  1.00  0.00    -0.246 OA
BRANCH  38  40
ATOM     40  C   UNL     1      -0.520  12.626  -4.646  1.00  0.00     0.060 A 
ATOM     41  C   UNL     1       0.055  13.893  -4.483  1.00  0.00     0.016 A 
ATOM     42  C   UNL     1      -1.370  12.367  -5.724  1.00  0.00     0.016 A 
ATOM     43  C   UNL     1      -0.233  14.913  -5.389  1.00  0.00     0.010 A 
ATOM     44  C   UNL     1      -1.669  13.395  -6.623  1.00  0.00     0.010 A 
ATOM     45  C   UNL     1      -1.115  14.677  -6.451  1.00  0.00    -0.014 A 
BRANCH  45  46
ATOM     46  C   UNL     1      -1.525  15.788  -7.341  1.00  0.00     0.031 A 
ATOM     47  C   UNL     1      -2.827  16.493  -7.090  1.00  0.00     0.074 A 
ATOM     48  C   UNL     1      -0.743  16.158  -8.370  1.00  0.00     0.049 A 
ATOM     49  N   UNL     1      -3.411  17.430  -7.792  1.00  0.00    -0.248 NA
ATOM     50  C   UNL     1      -3.570  16.086  -5.888  1.00  0.00     0.031 C 
ATOM     51  C   UNL     1       0.559  15.577  -8.690  1.00  0.00     0.029 A 
ATOM     52  N   UNL     1      -0.942  17.101  -9.348  1.00  0.00    -0.354 N 
ATOM     53  C   UNL     1      -4.589  17.725  -7.120  1.00  0.00     0.074 A 
ATOM     54  C   UNL     1      -4.650  16.851  -5.967  1.00  0.00     0.031 C 
ATOM     55  C   UNL     1       1.035  16.162  -9.802  1.00  0.00     0.029 A 
ATOM     56  C   UNL     1       0.055  17.130 -10.291  1.00  0.00     0.049 A 
ATOM     57  H   UNL     1      -1.724  17.699  -9.370  1.00  0.00     0.167 HD
ATOM     58  C   UNL     1      -5.530  18.646  -7.434  1.00  0.00     0.037 A 
ATOM     59  C   UNL     1       0.147  17.833 -11.436  1.00  0.00     0.037 A 
ATOM     60  C   UNL     1      -5.468  19.512  -8.582  1.00  0.00     0.049 A 
ATOM     61  C   UNL     1      -0.963  18.776 -11.818  1.00  0.00     0.074 A 
ATOM     62  C   UNL     1      -6.349  20.510  -8.960  1.00  0.00     0.029 A 
ATOM     63  N   UNL     1      -4.472  19.472  -9.546  1.00  0.00    -0.354 N 
ATOM     64  N   UNL     1      -2.057  19.075 -11.161  1.00  0.00    -0.248 NA
ATOM     65  C   UNL     1      -0.831  19.471 -13.107  1.00  0.00     0.031 C 
ATOM     66  C   UNL     1      -5.915  21.037 -10.181  1.00  0.00     0.029 A 
ATOM     67  C   UNL     1      -4.739  20.398 -10.541  1.00  0.00     0.049 A 
ATOM     68  H   UNL     1      -3.690  18.874  -9.526  1.00  0.00     0.167 HD
ATOM     69  C   UNL     1      -2.736  19.998 -11.945  1.00  0.00     0.074 A 
ATOM     70  C   UNL     1      -1.922  20.225 -13.122  1.00  0.00     0.031 C 
ATOM     71  C   UNL     1      -3.926  20.602 -11.713  1.00  0.00     0.037 A 
BRANCH  58  72
ATOM     72  C   UNL     1      -6.726  18.751  -6.536  1.00  0.00     0.064 A 
ATOM     73  C   UNL     1      -6.640  19.332  -5.263  1.00  0.00     0.173 A 
ATOM     74  C   UNL     1      -7.982  18.303  -6.972  1.00  0.00     0.173 A 
ATOM     75  F   UNL     1      -5.459  19.765  -4.796  1.00  0.00    -0.203 F 
ATOM     76  C   UNL     1      -7.766  19.444  -4.450  1.00  0.00     0.198 A 
ATOM     77  C   UNL     1      -9.109  18.438  -6.167  1.00  0.00     0.198 A 
ATOM     78  F   UNL     1      -8.116  17.744  -8.184  1.00  0.00    -0.203 F 
ATOM     79  F   UNL     1      -7.655  19.969  -3.222  1.00  0.00    -0.200 F 
ATOM     80  C   UNL     1      -9.000  19.003  -4.905  1.00  0.00     0.200 A 
ATOM     81  F   UNL     1     -10.302  18.020  -6.612  1.00  0.00    -0.200 F 
ATOM     82  F   UNL     1     -10.083  19.117  -4.125  1.00  0.00    -0.200 F 
ENDBRANCH  58  72
BRANCH  59  83
ATOM     83  C   UNL     1       1.320  17.643 -12.328  1.00  0.00     0.064 A 
ATOM     84  C   UNL     1       2.270  18.658 -12.498  1.00  0.00     0.173 A 
ATOM     85  C   UNL     1       1.506  16.446 -13.036  1.00  0.00     0.173 A 
ATOM     86  F   UNL     1       2.119  19.830 -11.865  1.00  0.00    -0.203 F 
ATOM     87  C   UNL     1       3.359  18.486 -13.351  1.00  0.00     0.198 A 
ATOM     88  C   UNL     1       2.609  16.267 -13.868  1.00  0.00     0.198 A 
ATOM     89  F   UNL     1       0.621  15.447 -12.911  1.00  0.00    -0.203 F 
ATOM     90  F   UNL     1       4.233  19.487 -13.527  1.00  0.00    -0.200 F 
ATOM     91  C   UNL     1       3.531  17.289 -14.030  1.00  0.00     0.200 A 
ATOM     92  F   UNL     1       2.775  15.105 -14.515  1.00  0.00    -0.200 F 
ATOM     93  F   UNL     1       4.581  17.123 -14.846  1.00  0.00    -0.200 F 
ENDBRANCH  59  83
BRANCH  71  94
ATOM     94  C   UNL     1      -4.424  21.567 -12.748  1.00  0.00     0.064 A 
ATOM     95  C   UNL     1      -4.946  21.119 -13.970  1.00  0.00     0.173 A 
ATOM     96  C   UNL     1      -4.430  22.947 -12.496  1.00  0.00     0.173 A 
ATOM     97  F   UNL     1      -4.947  19.810 -14.264  1.00  0.00    -0.203 F 
ATOM     98  C   UNL     1      -5.444  22.019 -14.908  1.00  0.00     0.198 A 
ATOM     99  C   UNL     1      -4.951  23.843 -13.426  1.00  0.00     0.198 A 
ATOM    100  F   UNL     1      -3.945  23.425 -11.340  1.00  0.00    -0.203 F 
ATOM    101  F   UNL     1      -5.907  21.572 -16.084  1.00  0.00    -0.200 F 
ATOM    102  C   UNL     1      -5.454  23.379 -14.632  1.00  0.00     0.200 A 
ATOM    103  F   UNL     1      -4.970  25.155 -13.153  1.00  0.00    -0.200 F 
ATOM    104  F   UNL     1      -5.943  24.243 -15.532  1.00  0.00    -0.200 F 
ENDBRANCH  71  94
ENDBRANCH  45  46
ENDBRANCH  38  40
ENDBRANCH  37  38
ENDBRANCH  36  37
ENDBRANCH  35  36
ENDBRANCH  34  35
ENDBRANCH  33  34
ENDBRANCH   1  33
TORSDOF 20
