REMARK SMILES O=C(C[C@@H]1C(=O)NC(=S)N1c1ccccc1)OCCOCCOC(=O)c1ccc(-c2c3nc(c(-c4c(F)c(F)c(F)c(F)c4F)c4ccc([nH]4)c(-c4c(F)c(F)c(F)c(F)c4F)c4nc(c(-c5c(F)c(F)c(F)c(F)c5F)c5ccc2[nH]5)C=C4)C=C3)cc1
REMARK SMILES IDX 20 1 19 2 18 3 17 4 2 5 1 6 3 7 4 8 5 9 10 10 6 11 7 12 8 13
REMARK SMILES IDX 9 15 11 16 12 17 16 18 13 19 15 20 14 21 21 22 22 23 23 24
REMARK SMILES IDX 24 25 25 26 26 27 27 28 88 29 28 30 87 31 29 32 30 33 31 34
REMARK SMILES IDX 81 35 32 36 86 37 80 38 82 39 33 40 85 41 79 42 78 43 34 45
REMARK SMILES IDX 66 46 46 47 65 48 47 49 50 50 64 51 83 52 48 53 49 54 63 56
REMARK SMILES IDX 84 57 51 58 35 59 36 60 44 61 37 62 38 63 42 64 45 65 39 66
REMARK SMILES IDX 40 67 43 68 41 69 67 70 68 71 76 72 69 73 70 74 74 75 77 76
REMARK SMILES IDX 71 77 72 78 75 79 73 80 52 81 53 82 61 83 54 84 55 85 59 86
REMARK SMILES IDX 62 87 56 88 57 89 60 90 58 91
REMARK H PARENT 7 14 82 44 50 55
REMARK Flexibility Score: inf
ROOT
ATOM      1  O   UNL     1       4.248   0.648   1.437  1.00  0.00    -0.374 OA
ENDROOT
BRANCH   1   2
ATOM      2  C   UNL     1       4.855   0.940   0.186  1.00  0.00     0.202 C 
BRANCH   2   3
ATOM      3  C   UNL     1       4.332   0.200  -1.040  1.00  0.00     0.261 C 
BRANCH   3   4
ATOM      4  O   UNL     1       2.903   0.138  -1.126  1.00  0.00    -0.463 OA
BRANCH   4   5
ATOM      5  C   UNL     1       2.111  -0.854  -0.670  1.00  0.00     0.308 C 
ATOM      6  O   UNL     1       0.934  -0.890  -1.030  1.00  0.00    -0.252 OA
BRANCH   5   7
ATOM      7  C   UNL     1       2.570  -1.782   0.433  1.00  0.00     0.158 C 
BRANCH   7   8
ATOM      8  C   UNL     1       3.801  -2.634   0.212  1.00  0.00     0.190 C 
ATOM      9  C   UNL     1       3.725  -3.314  -1.154  1.00  0.00     0.249 C 
ATOM     10  N   UNL     1       3.925  -3.808   1.081  1.00  0.00    -0.306 N 
ATOM     11  O   UNL     1       3.678  -2.750  -2.236  1.00  0.00    -0.272 OA
ATOM     12  N   UNL     1       3.707  -4.657  -0.981  1.00  0.00    -0.301 N 
ATOM     13  C   UNL     1       3.844  -4.990   0.331  1.00  0.00     0.180 C 
ATOM     14  H   UNL     1       3.607  -5.309  -1.712  1.00  0.00     0.172 HD
ATOM     15  S   UNL     1       3.845  -6.575   0.822  1.00  0.00    -0.040 S 
BRANCH  10  16
ATOM     16  C   UNL     1       4.398  -3.687   2.414  1.00  0.00     0.044 A 
ATOM     17  C   UNL     1       5.546  -4.375   2.826  1.00  0.00     0.026 A 
ATOM     18  C   UNL     1       3.738  -2.875   3.342  1.00  0.00     0.026 A 
ATOM     19  C   UNL     1       6.005  -4.279   4.144  1.00  0.00     0.002 A 
ATOM     20  C   UNL     1       4.189  -2.788   4.663  1.00  0.00     0.002 A 
ATOM     21  C   UNL     1       5.319  -3.494   5.065  1.00  0.00     0.000 A 
ENDBRANCH  10  16
ENDBRANCH   7   8
ENDBRANCH   5   7
ENDBRANCH   4   5
ENDBRANCH   3   4
ENDBRANCH   2   3
ENDBRANCH   1   2
BRANCH   1  22
ATOM     22  C   UNL     1       3.044   1.365   1.751  1.00  0.00     0.202 C 
BRANCH  22  23
ATOM     23  C   UNL     1       3.183   2.836   2.164  1.00  0.00     0.261 C 
BRANCH  23  24
ATOM     24  O   UNL     1       3.476   3.674   1.035  1.00  0.00    -0.460 OA
BRANCH  24  25
ATOM     25  C   UNL     1       4.751   4.119   0.950  1.00  0.00     0.338 C 
ATOM     26  O   UNL     1       5.650   3.961   1.760  1.00  0.00    -0.246 OA
BRANCH  25  27
ATOM     27  C   UNL     1       4.971   4.617  -0.420  1.00  0.00     0.060 A 
ATOM     28  C   UNL     1       6.091   4.150  -1.126  1.00  0.00     0.016 A 
ATOM     29  C   UNL     1       4.082   5.520  -1.003  1.00  0.00     0.016 A 
ATOM     30  C   UNL     1       6.355   4.625  -2.408  1.00  0.00     0.010 A 
ATOM     31  C   UNL     1       4.353   6.004  -2.278  1.00  0.00     0.010 A 
ATOM     32  C   UNL     1       5.509   5.589  -2.965  1.00  0.00    -0.014 A 
BRANCH  32  33
ATOM     33  C   UNL     1       5.912   6.339  -4.172  1.00  0.00     0.031 A 
ATOM     34  C   UNL     1       6.461   7.721  -3.982  1.00  0.00     0.074 A 
ATOM     35  C   UNL     1       5.716   5.833  -5.399  1.00  0.00     0.049 A 
ATOM     36  N   UNL     1       6.681   8.660  -4.862  1.00  0.00    -0.248 NA
ATOM     37  C   UNL     1       6.778   8.102  -2.596  1.00  0.00     0.031 C 
ATOM     38  C   UNL     1       5.218   4.492  -5.689  1.00  0.00     0.029 A 
ATOM     39  N   UNL     1       5.870   6.417  -6.630  1.00  0.00    -0.354 N 
ATOM     40  C   UNL     1       7.127   9.754  -4.134  1.00  0.00     0.074 A 
ATOM     41  C   UNL     1       7.123   9.371  -2.740  1.00  0.00     0.031 C 
ATOM     42  C   UNL     1       5.063   4.367  -7.017  1.00  0.00     0.029 A 
ATOM     43  C   UNL     1       5.405   5.636  -7.658  1.00  0.00     0.049 A 
ATOM     44  H   UNL     1       6.273   7.305  -6.763  1.00  0.00     0.167 HD
ATOM     45  C   UNL     1       7.499  10.971  -4.594  1.00  0.00     0.037 A 
ATOM     46  C   UNL     1       5.228   5.938  -8.959  1.00  0.00     0.037 A 
ATOM     47  C   UNL     1       7.488  11.330  -5.987  1.00  0.00     0.049 A 
ATOM     48  C   UNL     1       5.600   7.312  -9.450  1.00  0.00     0.074 A 
ATOM     49  C   UNL     1       7.884  12.516  -6.577  1.00  0.00     0.029 A 
ATOM     50  N   UNL     1       7.036  10.504  -7.008  1.00  0.00    -0.354 N 
ATOM     51  N   UNL     1       6.054   8.338  -8.771  1.00  0.00    -0.248 NA
ATOM     52  C   UNL     1       5.440   7.569 -10.887  1.00  0.00     0.031 C 
ATOM     53  C   UNL     1       7.606  12.433  -7.945  1.00  0.00     0.029 A 
ATOM     54  C   UNL     1       7.111  11.167  -8.221  1.00  0.00     0.049 A 
ATOM     55  H   UNL     1       6.710   9.583  -6.887  1.00  0.00     0.167 HD
ATOM     56  C   UNL     1       6.264   9.352  -9.697  1.00  0.00     0.074 A 
ATOM     57  C   UNL     1       5.886   8.815 -10.989  1.00  0.00     0.031 C 
ATOM     58  C   UNL     1       6.736  10.608  -9.498  1.00  0.00     0.037 A 
BRANCH  45  59
ATOM     59  C   UNL     1       7.889  12.005  -3.576  1.00  0.00     0.064 A 
ATOM     60  C   UNL     1       9.036  11.873  -2.777  1.00  0.00     0.173 A 
ATOM     61  C   UNL     1       7.088  13.141  -3.383  1.00  0.00     0.173 A 
ATOM     62  F   UNL     1       9.831  10.800  -2.908  1.00  0.00    -0.203 F 
ATOM     63  C   UNL     1       9.336  12.810  -1.791  1.00  0.00     0.198 A 
ATOM     64  C   UNL     1       7.413  14.097  -2.424  1.00  0.00     0.198 A 
ATOM     65  F   UNL     1       5.981  13.323  -4.119  1.00  0.00    -0.203 F 
ATOM     66  F   UNL     1      10.393  12.620  -0.989  1.00  0.00    -0.200 F 
ATOM     67  C   UNL     1       8.528  13.923  -1.619  1.00  0.00     0.200 A 
ATOM     68  F   UNL     1       6.638  15.179  -2.269  1.00  0.00    -0.200 F 
ATOM     69  F   UNL     1       8.816  14.822  -0.667  1.00  0.00    -0.200 F 
ENDBRANCH  45  59
BRANCH  46  70
ATOM     70  C   UNL     1       4.650   4.915  -9.868  1.00  0.00     0.064 A 
ATOM     71  C   UNL     1       5.438   4.285 -10.840  1.00  0.00     0.173 A 
ATOM     72  C   UNL     1       3.311   4.511  -9.749  1.00  0.00     0.173 A 
ATOM     73  F   UNL     1       6.717   4.651 -11.005  1.00  0.00    -0.203 F 
ATOM     74  C   UNL     1       4.908   3.291 -11.661  1.00  0.00     0.198 A 
ATOM     75  C   UNL     1       2.791   3.498 -10.551  1.00  0.00     0.198 A 
ATOM     76  F   UNL     1       2.517   5.081  -8.831  1.00  0.00    -0.203 F 
ATOM     77  F   UNL     1       5.676   2.723 -12.601  1.00  0.00    -0.200 F 
ATOM     78  C   UNL     1       3.589   2.891 -11.509  1.00  0.00     0.200 A 
ATOM     79  F   UNL     1       1.520   3.104 -10.389  1.00  0.00    -0.200 F 
ATOM     80  F   UNL     1       3.087   1.921 -12.285  1.00  0.00    -0.200 F 
ENDBRANCH  46  70
BRANCH  58  81
ATOM     81  C   UNL     1       6.925  11.481 -10.706  1.00  0.00     0.064 A 
ATOM     82  C   UNL     1       5.841  12.033 -11.402  1.00  0.00     0.173 A 
ATOM     83  C   UNL     1       8.220  11.834 -11.120  1.00  0.00     0.173 A 
ATOM     84  F   UNL     1       4.584  11.718 -11.055  1.00  0.00    -0.203 F 
ATOM     85  C   UNL     1       6.046  12.896 -12.477  1.00  0.00     0.198 A 
ATOM     86  C   UNL     1       8.421  12.722 -12.172  1.00  0.00     0.198 A 
ATOM     87  F   UNL     1       9.292  11.340 -10.482  1.00  0.00    -0.203 F 
ATOM     88  F   UNL     1       4.996  13.384 -13.152  1.00  0.00    -0.200 F 
ATOM     89  C   UNL     1       7.334  13.248 -12.853  1.00  0.00     0.200 A 
ATOM     90  F   UNL     1       9.665  13.076 -12.520  1.00  0.00    -0.200 F 
ATOM     91  F   UNL     1       7.528  14.095 -13.873  1.00  0.00    -0.200 F 
ENDBRANCH  58  81
ENDBRANCH  32  33
ENDBRANCH  25  27
ENDBRANCH  24  25
ENDBRANCH  23  24
ENDBRANCH  22  23
ENDBRANCH   1  22
TORSDOF 16
