REMARK SMILES CC(C)[NH2+][C@]1(C(=O)OCCOCCOC(=O)c2ccc(-c3c4nc(c(-c5c(F)c(F)c(F)c(F)c5F)c5ccc([nH]5)c(-c5c(F)c(F)c(F)c(F)c5F)c5nc(c(-c6c(F)c(F)c(F)c(F)c6F)c6ccc3[nH]6)C=C5)C=C4)cc2)CCC[C@@H](Sc2ccc(Cl)cc2)C1
REMARK SMILES IDX 11 1 10 2 9 3 8 4 6 5 7 6 5 7 80 8 92 9 81 10 83 11 82 12
REMARK SMILES IDX 4 13 2 16 1 17 3 18 84 19 85 20 86 21 91 22 87 23 90 24
REMARK SMILES IDX 88 25 89 26 12 27 13 28 14 29 15 30 16 31 17 32 18 33 79 34
REMARK SMILES IDX 19 35 78 36 20 37 21 38 22 39 72 40 23 41 77 42 71 43 73 44
REMARK SMILES IDX 24 45 76 46 70 47 69 48 25 50 57 51 37 52 56 53 38 54 41 55
REMARK SMILES IDX 55 56 74 57 39 58 40 59 54 61 75 62 42 63 26 64 27 65 35 66
REMARK SMILES IDX 28 67 29 68 33 69 36 70 30 71 31 72 34 73 32 74 58 75 59 76
REMARK SMILES IDX 67 77 60 78 61 79 65 80 68 81 62 82 63 83 66 84 64 85 43 86
REMARK SMILES IDX 44 87 52 88 45 89 46 90 50 91 53 92 47 93 48 94 51 95 49 96
REMARK H PARENT 4 14 4 15 73 49 41 60
REMARK Flexibility Score: inf
ROOT
ATOM      1  O   UNL     1       0.998   1.177  -0.892  1.00  0.00    -0.374 OA
ENDROOT
BRANCH   1   2
ATOM      2  C   UNL     1       0.784   0.543   0.368  1.00  0.00     0.202 C 
BRANCH   2   3
ATOM      3  C   UNL     1      -0.604  -0.048   0.611  1.00  0.00     0.261 C 
BRANCH   3   4
ATOM      4  O   UNL     1      -0.799  -1.251  -0.157  1.00  0.00    -0.459 OA
BRANCH   4   5
ATOM      5  C   UNL     1      -1.796  -1.209  -1.088  1.00  0.00     0.368 C 
ATOM      6  O   UNL     1      -2.500  -0.224  -1.290  1.00  0.00    -0.245 OA
BRANCH   5   7
ATOM      7  C   UNL     1      -1.924  -2.549  -1.903  1.00  0.00     0.195 C 
ATOM      8  C   UNL     1      -1.253  -3.718  -1.132  1.00  0.00     0.081 C 
ATOM      9  C   UNL     1      -3.453  -2.771  -1.926  1.00  0.00     0.096 C 
ATOM     10  C   UNL     1      -1.703  -5.112  -1.564  1.00  0.00     0.008 C 
ATOM     11  C   UNL     1      -3.917  -4.157  -2.350  1.00  0.00     0.058 C 
ATOM     12  C   UNL     1      -3.226  -5.266  -1.556  1.00  0.00     0.015 C 
BRANCH   7  13
ATOM     13  N   UNL     1      -1.229  -2.324  -3.190  1.00  0.00    -0.330 N 
ATOM     14  H   UNL     1      -0.978  -1.335  -3.202  1.00  0.00     0.347 HD
ATOM     15  H   UNL     1      -0.504  -3.040  -3.153  1.00  0.00     0.347 HD
BRANCH  13  16
ATOM     16  C   UNL     1      -1.831  -2.597  -4.486  1.00  0.00     0.176 C 
ATOM     17  C   UNL     1      -1.338  -1.533  -5.475  1.00  0.00     0.075 C 
ATOM     18  C   UNL     1      -1.417  -3.968  -5.027  1.00  0.00     0.075 C 
ENDBRANCH  13  16
ENDBRANCH   7  13
BRANCH  11  19
ATOM     19  S   UNL     1      -5.765  -4.264  -2.355  1.00  0.00    -0.122 SA
BRANCH  19  20
ATOM     20  C   UNL     1      -6.185  -4.304  -0.624  1.00  0.00     0.008 A 
ATOM     21  C   UNL     1      -6.713  -5.487  -0.097  1.00  0.00     0.016 A 
ATOM     22  C   UNL     1      -6.068  -3.184   0.205  1.00  0.00     0.016 A 
ATOM     23  C   UNL     1      -7.059  -5.568   1.254  1.00  0.00     0.021 A 
ATOM     24  C   UNL     1      -6.384  -3.269   1.564  1.00  0.00     0.021 A 
ATOM     25  C   UNL     1      -6.875  -4.464   2.083  1.00  0.00     0.041 A 
ATOM     26  Cl  UNL     1      -7.270  -4.572   3.753  1.00  0.00    -0.084 Cl
ENDBRANCH  19  20
ENDBRANCH  11  19
ENDBRANCH   5   7
ENDBRANCH   4   5
ENDBRANCH   3   4
ENDBRANCH   2   3
ENDBRANCH   1   2
BRANCH   1  27
ATOM     27  C   UNL     1       1.057   0.350  -2.052  1.00  0.00     0.202 C 
BRANCH  27  28
ATOM     28  C   UNL     1       2.383  -0.375  -2.308  1.00  0.00     0.261 C 
BRANCH  28  29
ATOM     29  O   UNL     1       2.713  -1.315  -1.271  1.00  0.00    -0.460 OA
BRANCH  29  30
ATOM     30  C   UNL     1       3.693  -0.905  -0.432  1.00  0.00     0.338 C 
ATOM     31  O   UNL     1       4.339   0.136  -0.494  1.00  0.00    -0.246 OA
BRANCH  30  32
ATOM     32  C   UNL     1       3.811  -1.829   0.708  1.00  0.00     0.060 A 
ATOM     33  C   UNL     1       3.820  -1.280   1.998  1.00  0.00     0.016 A 
ATOM     34  C   UNL     1       4.011  -3.196   0.517  1.00  0.00     0.016 A 
ATOM     35  C   UNL     1       4.088  -2.087   3.102  1.00  0.00     0.010 A 
ATOM     36  C   UNL     1       4.290  -4.005   1.622  1.00  0.00     0.010 A 
ATOM     37  C   UNL     1       4.371  -3.446   2.911  1.00  0.00    -0.014 A 
BRANCH  37  38
ATOM     38  C   UNL     1       4.944  -4.250   4.016  1.00  0.00     0.031 A 
ATOM     39  C   UNL     1       6.432  -4.466   4.043  1.00  0.00     0.074 A 
ATOM     40  C   UNL     1       4.162  -4.785   4.969  1.00  0.00     0.049 A 
ATOM     41  N   UNL     1       7.147  -5.250   4.809  1.00  0.00    -0.248 NA
ATOM     42  C   UNL     1       7.219  -3.697   3.065  1.00  0.00     0.031 C 
ATOM     43  C   UNL     1       2.719  -4.589   5.086  1.00  0.00     0.029 A 
ATOM     44  N   UNL     1       4.477  -5.622   6.010  1.00  0.00    -0.354 N 
ATOM     45  C   UNL     1       8.462  -5.081   4.394  1.00  0.00     0.074 A 
ATOM     46  C   UNL     1       8.446  -4.138   3.297  1.00  0.00     0.031 C 
ATOM     47  C   UNL     1       2.267  -5.307   6.129  1.00  0.00     0.029 A 
ATOM     48  C   UNL     1       3.382  -6.045   6.721  1.00  0.00     0.049 A 
ATOM     49  H   UNL     1       5.399  -5.892   6.226  1.00  0.00     0.167 HD
ATOM     50  C   UNL     1       9.582  -5.659   4.888  1.00  0.00     0.037 A 
ATOM     51  C   UNL     1       3.292  -6.954   7.712  1.00  0.00     0.037 A 
ATOM     52  C   UNL     1       9.589  -6.594   5.981  1.00  0.00     0.049 A 
ATOM     53  C   UNL     1       4.542  -7.651   8.189  1.00  0.00     0.074 A 
ATOM     54  C   UNL     1      10.666  -7.247   6.553  1.00  0.00     0.029 A 
ATOM     55  N   UNL     1       8.457  -7.008   6.668  1.00  0.00    -0.354 N 
ATOM     56  N   UNL     1       5.781  -7.498   7.787  1.00  0.00    -0.248 NA
ATOM     57  C   UNL     1       4.380  -8.651   9.254  1.00  0.00     0.031 C 
ATOM     58  C   UNL     1      10.182  -8.090   7.558  1.00  0.00     0.029 A 
ATOM     59  C   UNL     1       8.809  -7.919   7.649  1.00  0.00     0.049 A 
ATOM     60  H   UNL     1       7.540  -6.700   6.485  1.00  0.00     0.167 HD
ATOM     61  C   UNL     1       6.548  -8.344   8.579  1.00  0.00     0.074 A 
ATOM     62  C   UNL     1       5.635  -9.013   9.481  1.00  0.00     0.031 C 
ATOM     63  C   UNL     1       7.888  -8.546   8.563  1.00  0.00     0.037 A 
BRANCH  50  64
ATOM     64  C   UNL     1      10.887  -5.319   4.232  1.00  0.00     0.064 A 
ATOM     65  C   UNL     1      11.481  -4.057   4.381  1.00  0.00     0.173 A 
ATOM     66  C   UNL     1      11.569  -6.279   3.469  1.00  0.00     0.173 A 
ATOM     67  F   UNL     1      10.862  -3.099   5.088  1.00  0.00    -0.203 F 
ATOM     68  C   UNL     1      12.698  -3.761   3.771  1.00  0.00     0.198 A 
ATOM     69  C   UNL     1      12.799  -5.989   2.885  1.00  0.00     0.198 A 
ATOM     70  F   UNL     1      11.046  -7.502   3.296  1.00  0.00    -0.203 F 
ATOM     71  F   UNL     1      13.224  -2.534   3.890  1.00  0.00    -0.200 F 
ATOM     72  C   UNL     1      13.359  -4.729   3.030  1.00  0.00     0.200 A 
ATOM     73  F   UNL     1      13.442  -6.930   2.179  1.00  0.00    -0.200 F 
ATOM     74  F   UNL     1      14.533  -4.446   2.450  1.00  0.00    -0.200 F 
ENDBRANCH  50  64
BRANCH  51  75
ATOM     75  C   UNL     1       1.970  -7.276   8.312  1.00  0.00     0.064 A 
ATOM     76  C   UNL     1       1.679  -6.937   9.640  1.00  0.00     0.173 A 
ATOM     77  C   UNL     1       0.983  -7.954   7.581  1.00  0.00     0.173 A 
ATOM     78  F   UNL     1       2.600  -6.312  10.388  1.00  0.00    -0.203 F 
ATOM     79  C   UNL     1       0.459  -7.280  10.220  1.00  0.00     0.198 A 
ATOM     80  C   UNL     1      -0.247  -8.271   8.153  1.00  0.00     0.198 A 
ATOM     81  F   UNL     1       1.212  -8.305   6.307  1.00  0.00    -0.203 F 
ATOM     82  F   UNL     1       0.227  -6.988  11.508  1.00  0.00    -0.200 F 
ATOM     83  C   UNL     1      -0.505  -7.942   9.475  1.00  0.00     0.200 A 
ATOM     84  F   UNL     1      -1.179  -8.901   7.426  1.00  0.00    -0.200 F 
ATOM     85  F   UNL     1      -1.677  -8.273  10.034  1.00  0.00    -0.200 F 
ENDBRANCH  51  75
BRANCH  63  86
ATOM     86  C   UNL     1       8.468  -9.467   9.596  1.00  0.00     0.064 A 
ATOM     87  C   UNL     1       8.320 -10.858   9.516  1.00  0.00     0.173 A 
ATOM     88  C   UNL     1       9.248  -8.945  10.641  1.00  0.00     0.173 A 
ATOM     89  F   UNL     1       7.574 -11.403   8.544  1.00  0.00    -0.203 F 
ATOM     90  C   UNL     1       8.920 -11.694  10.454  1.00  0.00     0.198 A 
ATOM     91  C   UNL     1       9.869  -9.786  11.559  1.00  0.00     0.198 A 
ATOM     92  F   UNL     1       9.426  -7.621  10.756  1.00  0.00    -0.203 F 
ATOM     93  F   UNL     1       8.739 -13.020  10.379  1.00  0.00    -0.200 F 
ATOM     94  C   UNL     1       9.702 -11.159  11.467  1.00  0.00     0.200 A 
ATOM     95  F   UNL     1      10.636  -9.267  12.528  1.00  0.00    -0.200 F 
ATOM     96  F   UNL     1      10.293 -11.967  12.358  1.00  0.00    -0.200 F 
ENDBRANCH  63  86
ENDBRANCH  37  38
ENDBRANCH  30  32
ENDBRANCH  29  30
ENDBRANCH  28  29
ENDBRANCH  27  28
ENDBRANCH   1  27
TORSDOF 18
