REMARK SMILES Cc1ccc([C@H]2NC(=O)N(C)C3=C2C(=O)N(c2cccc(C(=O)OCCOCCOC(=O)c4ccc(-c5c6nc(c(-c7c(F)c(F)c(F)c(F)c7F)c7ccc([nH]7)c(-c7c(F)c(F)c(F)c(F)c7F)c7nc(c(-c8c(F)c(F)c(F)c(F)c8F)c8ccc5[nH]8)C=C7)C=C6)cc4)c2)C3)cc1
REMARK SMILES IDX 27 1 26 2 25 3 24 4 22 5 23 6 21 7 17 8 18 9 96 10 19 11
REMARK SMILES IDX 20 12 16 13 6 14 7 15 13 16 8 17 12 19 14 20 9 21 10 22
REMARK SMILES IDX 97 23 15 24 11 25 5 26 1 27 2 28 3 29 99 30 4 31 98 32 28 33
REMARK SMILES IDX 29 34 30 35 31 36 32 37 33 38 34 39 95 40 35 41 94 42 36 43
REMARK SMILES IDX 37 44 38 45 88 46 39 47 93 48 87 49 89 50 40 51 92 52 86 53
REMARK SMILES IDX 85 54 41 56 73 57 53 58 72 59 54 60 57 61 71 62 90 63 55 64
REMARK SMILES IDX 56 65 70 67 91 68 58 69 42 70 43 71 51 72 44 73 45 74 49 75
REMARK SMILES IDX 52 76 46 77 47 78 50 79 48 80 74 81 75 82 83 83 76 84 77 85
REMARK SMILES IDX 81 86 84 87 78 88 79 89 82 90 80 91 59 92 60 93 68 94 61 95
REMARK SMILES IDX 62 96 66 97 69 98 63 99 64 100 67 101 65 102
REMARK H PARENT 7 18 89 55 57 66
REMARK Flexibility Score: inf
ROOT
ATOM      1  O   UNL     1      -7.924   3.021   7.530  1.00  0.00    -0.374 OA
ENDROOT
BRANCH   1   2
ATOM      2  C   UNL     1      -7.173   3.241   8.713  1.00  0.00     0.202 C 
BRANCH   2   3
ATOM      3  C   UNL     1      -6.783   1.881   9.217  1.00  0.00     0.261 C 
BRANCH   3   4
ATOM      4  O   UNL     1      -5.705   1.331   8.446  1.00  0.00    -0.460 OA
BRANCH   4   5
ATOM      5  C   UNL     1      -5.968   0.857   7.195  1.00  0.00     0.338 C 
ATOM      6  O   UNL     1      -7.027   0.576   6.705  1.00  0.00    -0.246 OA
BRANCH   5   7
ATOM      7  C   UNL     1      -4.681   0.832   6.478  1.00  0.00     0.062 A 
ATOM      8  C   UNL     1      -3.553   1.077   4.375  1.00  0.00     0.045 A 
ATOM      9  C   UNL     1      -2.322   1.004   5.037  1.00  0.00     0.026 A 
ATOM     10  C   UNL     1      -4.737   0.984   5.097  1.00  0.00     0.042 A 
ATOM     11  C   UNL     1      -2.273   0.851   6.422  1.00  0.00     0.003 A 
ATOM     12  C   UNL     1      -3.455   0.748   7.145  1.00  0.00     0.016 A 
BRANCH   8  13
ATOM     13  N   UNL     1      -3.609   1.221   2.987  1.00  0.00    -0.303 N 
ATOM     14  C   UNL     1      -3.275  -0.083  -0.441  1.00  0.00     0.152 C 
ATOM     15  N   UNL     1      -3.753   0.726  -1.556  1.00  0.00    -0.327 N 
ATOM     16  C   UNL     1      -3.453   0.705   0.784  1.00  0.00     0.066 C 
ATOM     17  C   UNL     1      -4.606   1.796  -1.484  1.00  0.00     0.322 C 
ATOM     18  H   UNL     1      -3.431   0.478  -2.453  1.00  0.00     0.166 HD
ATOM     19  C   UNL     1      -4.286   1.737   0.902  1.00  0.00     0.053 C 
ATOM     20  C   UNL     1      -2.911   0.407   2.105  1.00  0.00     0.258 C 
ATOM     21  O   UNL     1      -5.034   2.293  -2.522  1.00  0.00    -0.248 OA
ATOM     22  N   UNL     1      -4.901   2.272  -0.207  1.00  0.00    -0.299 N 
ATOM     23  C   UNL     1      -4.513   2.127   2.317  1.00  0.00     0.180 C 
ATOM     24  O   UNL     1      -2.074  -0.447   2.328  1.00  0.00    -0.269 OA
ATOM     25  C   UNL     1      -5.809   3.400  -0.064  1.00  0.00     0.155 C 
BRANCH  14  26
ATOM     26  C   UNL     1      -3.990  -1.436  -0.435  1.00  0.00    -0.021 A 
ATOM     27  C   UNL     1      -5.913  -5.324  -0.537  1.00  0.00     0.044 C 
ATOM     28  C   UNL     1      -5.255  -3.977  -0.498  1.00  0.00    -0.051 A 
ATOM     29  C   UNL     1      -4.309  -3.626  -1.466  1.00  0.00     0.004 A 
ATOM     30  C   UNL     1      -5.576  -3.052   0.496  1.00  0.00     0.004 A 
ATOM     31  C   UNL     1      -3.682  -2.375  -1.433  1.00  0.00     0.006 A 
ATOM     32  C   UNL     1      -4.960  -1.796   0.521  1.00  0.00     0.006 A 
ENDBRANCH  14  26
ENDBRANCH   8  13
ENDBRANCH   5   7
ENDBRANCH   4   5
ENDBRANCH   3   4
ENDBRANCH   2   3
ENDBRANCH   1   2
BRANCH   1  33
ATOM     33  C   UNL     1      -8.342   4.183   6.843  1.00  0.00     0.202 C 
BRANCH  33  34
ATOM     34  C   UNL     1      -9.274   5.068   7.682  1.00  0.00     0.261 C 
BRANCH  34  35
ATOM     35  O   UNL     1     -10.475   4.339   8.014  1.00  0.00    -0.460 OA
BRANCH  35  36
ATOM     36  C   UNL     1     -10.515   3.792   9.262  1.00  0.00     0.338 C 
ATOM     37  O   UNL     1     -10.278   4.385  10.301  1.00  0.00    -0.246 OA
BRANCH  36  38
ATOM     38  C   UNL     1     -10.600   2.305   9.155  1.00  0.00     0.060 A 
ATOM     39  C   UNL     1     -10.347   1.498  10.283  1.00  0.00     0.016 A 
ATOM     40  C   UNL     1     -10.591   1.742   7.883  1.00  0.00     0.016 A 
ATOM     41  C   UNL     1      -9.949   0.160  10.120  1.00  0.00     0.010 A 
ATOM     42  C   UNL     1     -10.075   0.475   7.726  1.00  0.00     0.010 A 
ATOM     43  C   UNL     1      -9.746  -0.327   8.830  1.00  0.00    -0.014 A 
BRANCH  43  44
ATOM     44  C   UNL     1      -9.139  -1.610   8.471  1.00  0.00     0.031 A 
ATOM     45  C   UNL     1      -9.954  -2.590   7.716  1.00  0.00     0.074 A 
ATOM     46  C   UNL     1      -7.803  -1.810   8.570  1.00  0.00     0.049 A 
ATOM     47  N   UNL     1      -9.657  -3.841   7.621  1.00  0.00    -0.248 NA
ATOM     48  C   UNL     1     -11.199  -2.254   7.029  1.00  0.00     0.031 C 
ATOM     49  C   UNL     1      -6.980  -2.714   7.764  1.00  0.00     0.029 A 
ATOM     50  N   UNL     1      -6.873  -1.191   9.411  1.00  0.00    -0.354 N 
ATOM     51  C   UNL     1     -10.447  -4.381   6.635  1.00  0.00     0.074 A 
ATOM     52  C   UNL     1     -11.450  -3.382   6.361  1.00  0.00     0.031 C 
ATOM     53  C   UNL     1      -5.736  -2.762   8.269  1.00  0.00     0.029 A 
ATOM     54  C   UNL     1      -5.733  -2.002   9.506  1.00  0.00     0.049 A 
ATOM     55  H   UNL     1      -6.998  -0.326   9.864  1.00  0.00     0.167 HD
ATOM     56  C   UNL     1     -10.070  -5.553   6.051  1.00  0.00     0.037 A 
ATOM     57  C   UNL     1      -5.267  -2.409  10.718  1.00  0.00     0.037 A 
ATOM     58  C   UNL     1      -8.778  -6.001   6.583  1.00  0.00     0.049 A 
ATOM     59  C   UNL     1      -5.445  -3.893  10.846  1.00  0.00     0.074 A 
ATOM     60  C   UNL     1      -7.487  -5.902   6.086  1.00  0.00     0.029 A 
ATOM     61  N   UNL     1      -8.647  -6.307   7.938  1.00  0.00    -0.354 N 
ATOM     62  N   UNL     1      -6.239  -4.561  10.058  1.00  0.00    -0.248 NA
ATOM     63  C   UNL     1      -4.758  -4.748  11.804  1.00  0.00     0.031 C 
ATOM     64  C   UNL     1      -6.581  -6.130   7.154  1.00  0.00     0.029 A 
ATOM     65  C   UNL     1      -7.314  -6.391   8.301  1.00  0.00     0.049 A 
ATOM     66  H   UNL     1      -9.402  -6.445   8.554  1.00  0.00     0.167 HD
ATOM     67  C   UNL     1      -6.173  -5.884  10.348  1.00  0.00     0.074 A 
ATOM     68  C   UNL     1      -5.242  -5.957  11.460  1.00  0.00     0.031 C 
ATOM     69  C   UNL     1      -6.912  -6.789   9.647  1.00  0.00     0.037 A 
BRANCH  56  70
ATOM     70  C   UNL     1     -10.710  -6.108   4.794  1.00  0.00     0.064 A 
ATOM     71  C   UNL     1      -9.977  -6.911   3.894  1.00  0.00     0.173 A 
ATOM     72  C   UNL     1     -12.045  -5.870   4.408  1.00  0.00     0.173 A 
ATOM     73  F   UNL     1      -8.733  -7.319   4.173  1.00  0.00    -0.203 F 
ATOM     74  C   UNL     1     -10.498  -7.337   2.668  1.00  0.00     0.198 A 
ATOM     75  C   UNL     1     -12.547  -6.241   3.155  1.00  0.00     0.198 A 
ATOM     76  F   UNL     1     -12.929  -5.327   5.256  1.00  0.00    -0.203 F 
ATOM     77  F   UNL     1      -9.751  -8.101   1.859  1.00  0.00    -0.200 F 
ATOM     78  C   UNL     1     -11.770  -6.970   2.281  1.00  0.00     0.200 A 
ATOM     79  F   UNL     1     -13.796  -5.895   2.809  1.00  0.00    -0.200 F 
ATOM     80  F   UNL     1     -12.255  -7.347   1.090  1.00  0.00    -0.200 F 
ENDBRANCH  56  70
BRANCH  57  81
ATOM     81  C   UNL     1      -5.432  -1.368  11.771  1.00  0.00     0.064 A 
ATOM     82  C   UNL     1      -4.565  -0.256  11.717  1.00  0.00     0.173 A 
ATOM     83  C   UNL     1      -6.645  -1.204  12.458  1.00  0.00     0.173 A 
ATOM     84  F   UNL     1      -3.416  -0.335  11.026  1.00  0.00    -0.203 F 
ATOM     85  C   UNL     1      -4.938   0.986  12.233  1.00  0.00     0.198 A 
ATOM     86  C   UNL     1      -7.027   0.050  12.948  1.00  0.00     0.198 A 
ATOM     87  F   UNL     1      -7.525  -2.212  12.522  1.00  0.00    -0.203 F 
ATOM     88  F   UNL     1      -4.157   2.057  12.030  1.00  0.00    -0.200 F 
ATOM     89  C   UNL     1      -6.186   1.145  12.815  1.00  0.00     0.200 A 
ATOM     90  F   UNL     1      -8.259   0.225  13.448  1.00  0.00    -0.200 F 
ATOM     91  F   UNL     1      -6.614   2.371  13.150  1.00  0.00    -0.200 F 
ENDBRANCH  57  81
BRANCH  69  92
ATOM     92  C   UNL     1      -7.240  -8.168  10.135  1.00  0.00     0.064 A 
ATOM     93  C   UNL     1      -7.290  -8.508  11.497  1.00  0.00     0.173 A 
ATOM     94  C   UNL     1      -7.696  -9.157   9.234  1.00  0.00     0.173 A 
ATOM     95  F   UNL     1      -7.010  -7.614  12.455  1.00  0.00    -0.203 F 
ATOM     96  C   UNL     1      -7.697  -9.770  11.923  1.00  0.00     0.198 A 
ATOM     97  C   UNL     1      -8.173 -10.389   9.669  1.00  0.00     0.198 A 
ATOM     98  F   UNL     1      -7.728  -8.947   7.910  1.00  0.00    -0.203 F 
ATOM     99  F   UNL     1      -7.677 -10.063  13.230  1.00  0.00    -0.200 F 
ATOM    100  C   UNL     1      -8.153 -10.703  11.012  1.00  0.00     0.200 A 
ATOM    101  F   UNL     1      -8.675 -11.257   8.781  1.00  0.00    -0.200 F 
ATOM    102  F   UNL     1      -8.594 -11.896  11.431  1.00  0.00    -0.200 F 
ENDBRANCH  69  92
ENDBRANCH  43  44
ENDBRANCH  36  38
ENDBRANCH  35  36
ENDBRANCH  34  35
ENDBRANCH  33  34
ENDBRANCH   1  33
TORSDOF 16
