REMARK SMILES O=C(C[N@@H+](Cc1nc(-c2ccco2)no1)CC(F)(F)F)OCCOCCOC(=O)c1ccc(-c2c3nc(c(-c4c(F)c(F)c(F)c(F)c4F)c4ccc([nH]4)c(-c4c(F)c(F)c(F)c(F)c4F)c4nc(c(-c5c(F)c(F)c(F)c(F)c5F)c5ccc2[nH]5)C=C4)C=C3)cc1
REMARK SMILES IDX 23 1 22 2 21 3 2 4 1 5 3 6 4 7 5 9 6 10 7 11 15 12 8 13
REMARK SMILES IDX 14 14 9 15 10 16 13 17 11 18 12 19 16 20 17 21 18 22 19 23
REMARK SMILES IDX 20 24 24 25 25 26 26 27 27 28 28 29 29 30 30 31 31 32 92 33
REMARK SMILES IDX 32 34 91 35 33 36 34 37 35 38 85 39 36 40 90 41 84 42 86 43
REMARK SMILES IDX 37 44 89 45 83 46 82 47 38 49 70 50 50 51 69 52 51 53 54 54
REMARK SMILES IDX 68 55 87 56 52 57 53 58 67 60 88 61 55 62 39 63 40 64 48 65
REMARK SMILES IDX 41 66 42 67 46 68 49 69 43 70 44 71 47 72 45 73 71 74 72 75
REMARK SMILES IDX 80 76 73 77 74 78 78 79 81 80 75 81 76 82 79 83 77 84 56 85
REMARK SMILES IDX 57 86 65 87 58 88 59 89 63 90 66 91 60 92 61 93 64 94 62 95
REMARK H PARENT 4 8 86 48 54 59
REMARK Flexibility Score: inf
ROOT
ATOM      1  C   UNL     1       4.812  -0.485   1.124  1.00  0.00     0.202 C 
ENDROOT
BRANCH   1   2
ATOM      2  C   UNL     1       4.474   0.784   0.350  1.00  0.00     0.261 C 
BRANCH   2   3
ATOM      3  O   UNL     1       3.061   1.058   0.351  1.00  0.00    -0.459 OA
BRANCH   3   4
ATOM      4  C   UNL     1       2.206   0.659  -0.620  1.00  0.00     0.361 C 
ATOM      5  O   UNL     1       1.014   0.949  -0.548  1.00  0.00    -0.245 OA
BRANCH   4   6
ATOM      6  C   UNL     1       2.746  -0.163  -1.780  1.00  0.00     0.387 C 
BRANCH   6   7
ATOM      7  N   UNL     1       3.710   0.586  -2.606  1.00  0.00    -0.310 N 
ATOM      8  H   UNL     1       4.372   1.035  -1.973  1.00  0.00     0.349 HD
BRANCH   7   9
ATOM      9  C   UNL     1       4.559  -0.307  -3.423  1.00  0.00     0.364 C 
BRANCH   9  10
ATOM     10  C   UNL     1       3.806  -1.210  -4.328  1.00  0.00     0.282 A 
ATOM     11  N   UNL     1       3.248  -0.910  -5.471  1.00  0.00    -0.183 NA
ATOM     12  O   UNL     1       3.397  -2.408  -3.817  1.00  0.00    -0.333 OA
ATOM     13  C   UNL     1       2.293  -1.890  -5.582  1.00  0.00     0.238 A 
ATOM     14  N   UNL     1       2.374  -2.857  -4.657  1.00  0.00    -0.053 NA
BRANCH  13  15
ATOM     15  C   UNL     1       1.166  -1.731  -6.536  1.00  0.00     0.174 A 
ATOM     16  C   UNL     1       1.084  -0.725  -7.481  1.00  0.00     0.054 A 
ATOM     17  O   UNL     1       0.014  -2.464  -6.549  1.00  0.00    -0.461 OA
ATOM     18  C   UNL     1      -0.197  -0.821  -8.069  1.00  0.00     0.043 A 
ATOM     19  C   UNL     1      -0.814  -1.886  -7.457  1.00  0.00     0.196 A 
ENDBRANCH  13  15
ENDBRANCH   9  10
ENDBRANCH   7   9
BRANCH   7  20
ATOM     20  C   UNL     1       3.112   1.754  -3.302  1.00  0.00     0.380 C 
BRANCH  20  21
ATOM     21  C   UNL     1       1.890   1.679  -4.252  1.00  0.00     0.438 C 
ATOM     22  F   UNL     1       1.087   0.627  -4.004  1.00  0.00    -0.165 F 
ATOM     23  F   UNL     1       1.135   2.798  -4.119  1.00  0.00    -0.165 F 
ATOM     24  F   UNL     1       2.279   1.622  -5.544  1.00  0.00    -0.165 F 
ENDBRANCH  20  21
ENDBRANCH   7  20
ENDBRANCH   6   7
ENDBRANCH   4   6
ENDBRANCH   3   4
ENDBRANCH   2   3
ENDBRANCH   1   2
BRANCH   1  25
ATOM     25  O   UNL     1       4.326  -1.702   0.560  1.00  0.00    -0.374 OA
BRANCH  25  26
ATOM     26  C   UNL     1       3.034  -2.134   1.011  1.00  0.00     0.202 C 
BRANCH  26  27
ATOM     27  C   UNL     1       3.023  -2.940   2.312  1.00  0.00     0.261 C 
BRANCH  27  28
ATOM     28  O   UNL     1       3.395  -2.115   3.425  1.00  0.00    -0.460 OA
BRANCH  28  29
ATOM     29  C   UNL     1       4.694  -2.212   3.780  1.00  0.00     0.338 C 
ATOM     30  O   UNL     1       5.520  -3.014   3.363  1.00  0.00    -0.246 OA
BRANCH  29  31
ATOM     31  C   UNL     1       5.065  -1.055   4.615  1.00  0.00     0.060 A 
ATOM     32  C   UNL     1       6.325  -0.485   4.391  1.00  0.00     0.016 A 
ATOM     33  C   UNL     1       4.223  -0.558   5.615  1.00  0.00     0.016 A 
ATOM     34  C   UNL     1       6.799   0.503   5.240  1.00  0.00     0.010 A 
ATOM     35  C   UNL     1       4.700   0.434   6.472  1.00  0.00     0.010 A 
ATOM     36  C   UNL     1       6.016   0.908   6.328  1.00  0.00    -0.014 A 
BRANCH  36  37
ATOM     37  C   UNL     1       6.683   1.605   7.447  1.00  0.00     0.031 A 
ATOM     38  C   UNL     1       7.124   0.779   8.625  1.00  0.00     0.074 A 
ATOM     39  C   UNL     1       6.960   2.916   7.376  1.00  0.00     0.049 A 
ATOM     40  N   UNL     1       7.753   1.144   9.712  1.00  0.00    -0.248 NA
ATOM     41  C   UNL     1       6.809  -0.660   8.570  1.00  0.00     0.031 C 
ATOM     42  C   UNL     1       6.619   3.792   6.258  1.00  0.00     0.029 A 
ATOM     43  N   UNL     1       7.602   3.735   8.267  1.00  0.00    -0.354 N 
ATOM     44  C   UNL     1       7.894  -0.013  10.470  1.00  0.00     0.074 A 
ATOM     45  C   UNL     1       7.257  -1.085   9.741  1.00  0.00     0.031 C 
ATOM     46  C   UNL     1       7.059   5.032   6.528  1.00  0.00     0.029 A 
ATOM     47  C   UNL     1       7.687   5.038   7.848  1.00  0.00     0.049 A 
ATOM     48  H   UNL     1       7.967   3.419   9.125  1.00  0.00     0.167 HD
ATOM     49  C   UNL     1       8.512  -0.165  11.664  1.00  0.00     0.037 A 
ATOM     50  C   UNL     1       8.207   6.110   8.474  1.00  0.00     0.037 A 
ATOM     51  C   UNL     1       9.152   0.910  12.372  1.00  0.00     0.049 A 
ATOM     52  C   UNL     1       8.844   5.922   9.827  1.00  0.00     0.074 A 
ATOM     53  C   UNL     1       9.828   0.870  13.578  1.00  0.00     0.029 A 
ATOM     54  N   UNL     1       9.189   2.226  11.934  1.00  0.00    -0.354 N 
ATOM     55  N   UNL     1       8.999   4.824  10.528  1.00  0.00    -0.248 NA
ATOM     56  C   UNL     1       9.388   7.125  10.471  1.00  0.00     0.031 C 
ATOM     57  C   UNL     1      10.223   2.173  13.897  1.00  0.00     0.029 A 
ATOM     58  C   UNL     1       9.853   3.014  12.858  1.00  0.00     0.049 A 
ATOM     59  H   UNL     1       8.800   2.552  11.090  1.00  0.00     0.167 HD
ATOM     60  C   UNL     1       9.691   5.194  11.674  1.00  0.00     0.074 A 
ATOM     61  C   UNL     1       9.934   6.618  11.567  1.00  0.00     0.031 C 
ATOM     62  C   UNL     1      10.092   4.429  12.720  1.00  0.00     0.037 A 
BRANCH  49  63
ATOM     63  C   UNL     1       8.488  -1.531  12.290  1.00  0.00     0.064 A 
ATOM     64  C   UNL     1       9.209  -2.609  11.754  1.00  0.00     0.173 A 
ATOM     65  C   UNL     1       7.738  -1.759  13.454  1.00  0.00     0.173 A 
ATOM     66  F   UNL     1       9.926  -2.451  10.631  1.00  0.00    -0.203 F 
ATOM     67  C   UNL     1       9.156  -3.871  12.343  1.00  0.00     0.198 A 
ATOM     68  C   UNL     1       7.714  -3.013  14.059  1.00  0.00     0.198 A 
ATOM     69  F   UNL     1       7.028  -0.765  14.007  1.00  0.00    -0.203 F 
ATOM     70  F   UNL     1       9.808  -4.899  11.782  1.00  0.00    -0.200 F 
ATOM     71  C   UNL     1       8.416  -4.070  13.499  1.00  0.00     0.200 A 
ATOM     72  F   UNL     1       7.007  -3.200  15.181  1.00  0.00    -0.200 F 
ATOM     73  F   UNL     1       8.371  -5.282  14.068  1.00  0.00    -0.200 F 
ENDBRANCH  49  63
BRANCH  50  74
ATOM     74  C   UNL     1       8.161   7.446   7.826  1.00  0.00     0.064 A 
ATOM     75  C   UNL     1       9.334   8.085   7.399  1.00  0.00     0.173 A 
ATOM     76  C   UNL     1       6.946   8.118   7.629  1.00  0.00     0.173 A 
ATOM     77  F   UNL     1      10.523   7.492   7.583  1.00  0.00    -0.203 F 
ATOM     78  C   UNL     1       9.295   9.352   6.822  1.00  0.00     0.198 A 
ATOM     79  C   UNL     1       6.905   9.373   7.024  1.00  0.00     0.198 A 
ATOM     80  F   UNL     1       5.794   7.551   8.017  1.00  0.00    -0.203 F 
ATOM     81  F   UNL     1      10.436   9.959   6.467  1.00  0.00    -0.200 F 
ATOM     82  C   UNL     1       8.080   9.992   6.629  1.00  0.00     0.200 A 
ATOM     83  F   UNL     1       5.728   9.981   6.826  1.00  0.00    -0.200 F 
ATOM     84  F   UNL     1       8.043  11.210   6.070  1.00  0.00    -0.200 F 
ENDBRANCH  50  74
BRANCH  62  85
ATOM     85  C   UNL     1      10.884   5.107  13.801  1.00  0.00     0.064 A 
ATOM     86  C   UNL     1      10.302   6.034  14.677  1.00  0.00     0.173 A 
ATOM     87  C   UNL     1      12.244   4.804  13.974  1.00  0.00     0.173 A 
ATOM     88  F   UNL     1       9.008   6.367  14.546  1.00  0.00    -0.203 F 
ATOM     89  C   UNL     1      11.060   6.662  15.661  1.00  0.00     0.198 A 
ATOM     90  C   UNL     1      12.990   5.406  14.982  1.00  0.00     0.198 A 
ATOM     91  F   UNL     1      12.848   3.916  13.170  1.00  0.00    -0.203 F 
ATOM     92  F   UNL     1      10.498   7.592  16.446  1.00  0.00    -0.200 F 
ATOM     93  C   UNL     1      12.401   6.343  15.817  1.00  0.00     0.200 A 
ATOM     94  F   UNL     1      14.281   5.083  15.143  1.00  0.00    -0.200 F 
ATOM     95  F   UNL     1      13.129   6.947  16.766  1.00  0.00    -0.200 F 
ENDBRANCH  62  85
ENDBRANCH  36  37
ENDBRANCH  29  31
ENDBRANCH  28  29
ENDBRANCH  27  28
ENDBRANCH  26  27
ENDBRANCH  25  26
ENDBRANCH   1  25
TORSDOF 20
