REMARK SMILES CCOC(=O)c1sc(NC(=O)CCC(=O)OCCOCCOC(=O)c2ccc(-c3c4nc(c(-c5c(F)c(F)c(F)c(F)c5F)c5ccc([nH]5)c(-c5c(F)c(F)c(F)c(F)c5F)c5nc(c(-c6c(F)c(F)c(F)c(F)c6F)c6ccc3[nH]6)C=C5)C=C4)cc2)c(C#N)c1C
REMARK SMILES IDX 17 1 16 2 14 3 15 4 13 5 12 6 10 7 9 8 11 10 8 11 6 12 7 13
REMARK SMILES IDX 91 14 88 15 92 16 4 17 5 18 3 19 2 20 1 21 89 22 90 23 18 24
REMARK SMILES IDX 19 25 20 26 21 27 22 28 23 29 24 30 25 31 26 32 87 33 27 34
REMARK SMILES IDX 86 35 28 36 29 37 30 38 80 39 31 40 85 41 79 42 81 43 32 44
REMARK SMILES IDX 84 45 78 46 77 47 33 49 65 50 45 51 64 52 46 53 49 54 63 55
REMARK SMILES IDX 82 56 47 57 48 58 62 60 83 61 50 62 34 63 35 64 43 65 36 66
REMARK SMILES IDX 37 67 41 68 44 69 38 70 39 71 42 72 40 73 66 74 67 75 75 76
REMARK SMILES IDX 68 77 69 78 73 79 76 80 70 81 71 82 74 83 72 84 51 85 52 86
REMARK SMILES IDX 60 87 53 88 54 89 58 90 61 91 55 92 56 93 59 94 57 95
REMARK H PARENT 9 9 81 48 49 59
REMARK Flexibility Score: inf
ROOT
ATOM      1  C   UNL     1       5.542   4.800  -1.252  1.00  0.00     0.261 C 
ENDROOT
BRANCH   1   2
ATOM      2  O   UNL     1       6.397   4.847  -2.385  1.00  0.00    -0.463 OA
BRANCH   2   3
ATOM      3  C   UNL     1       7.306   3.852  -2.325  1.00  0.00     0.306 C 
ATOM      4  O   UNL     1       7.811   3.446  -1.284  1.00  0.00    -0.252 OA
BRANCH   3   5
ATOM      5  C   UNL     1       7.547   3.242  -3.675  1.00  0.00     0.132 C 
BRANCH   5   6
ATOM      6  C   UNL     1       6.470   3.417  -4.770  1.00  0.00     0.112 C 
BRANCH   6   7
ATOM      7  C   UNL     1       6.127   4.839  -5.265  1.00  0.00     0.225 C 
ATOM      8  N   UNL     1       4.989   5.607  -5.052  1.00  0.00    -0.317 N 
ATOM      9  H   UNL     1       5.039   6.482  -5.500  1.00  0.00     0.170 HD
ATOM     10  O   UNL     1       6.979   5.369  -6.003  1.00  0.00    -0.275 OA
BRANCH   8  11
ATOM     11  C   UNL     1       3.786   5.437  -4.354  1.00  0.00     0.114 A 
ATOM     12  C   UNL     1       2.034   4.214  -2.876  1.00  0.00     0.118 A 
ATOM     13  S   UNL     1       3.471   3.983  -3.724  1.00  0.00    -0.109 S 
ATOM     14  C   UNL     1       1.653   5.511  -3.181  1.00  0.00    -0.006 A 
ATOM     15  C   UNL     1       2.683   6.218  -4.040  1.00  0.00     0.091 A 
ATOM     16  C   UNL     1       0.428   6.123  -2.610  1.00  0.00     0.048 C 
BRANCH  12  17
ATOM     17  C   UNL     1       1.598   3.118  -1.948  1.00  0.00     0.348 C 
ATOM     18  O   UNL     1       2.379   2.416  -1.317  1.00  0.00    -0.245 OA
BRANCH  17  19
ATOM     19  O   UNL     1       0.266   2.896  -1.749  1.00  0.00    -0.462 OA
BRANCH  19  20
ATOM     20  C   UNL     1       0.008   2.023  -0.590  1.00  0.00     0.230 C 
ATOM     21  C   UNL     1       0.545   0.569  -0.566  1.00  0.00     0.049 C 
ENDBRANCH  19  20
ENDBRANCH  17  19
ENDBRANCH  12  17
BRANCH  15  22
ATOM     22  C   UNL     1       2.614   7.580  -4.444  1.00  0.00     0.103 C 
ATOM     23  N   UNL     1       2.610   8.701  -4.779  1.00  0.00    -0.192 NA
ENDBRANCH  15  22
ENDBRANCH   8  11
ENDBRANCH   6   7
ENDBRANCH   5   6
ENDBRANCH   3   5
ENDBRANCH   2   3
ENDBRANCH   1   2
BRANCH   1  24
ATOM     24  C   UNL     1       4.797   3.413  -1.127  1.00  0.00     0.202 C 
BRANCH  24  25
ATOM     25  O   UNL     1       5.027   2.539  -2.282  1.00  0.00    -0.374 OA
BRANCH  25  26
ATOM     26  C   UNL     1       4.372   1.288  -2.661  1.00  0.00     0.202 C 
BRANCH  26  27
ATOM     27  C   UNL     1       3.155   1.018  -3.808  1.00  0.00     0.261 C 
BRANCH  27  28
ATOM     28  O   UNL     1       3.032   1.757  -5.094  1.00  0.00    -0.460 OA
BRANCH  28  29
ATOM     29  C   UNL     1       1.806   2.322  -5.447  1.00  0.00     0.338 C 
ATOM     30  O   UNL     1       0.754   2.150  -4.846  1.00  0.00    -0.246 OA
BRANCH  29  31
ATOM     31  C   UNL     1       1.884   3.316  -6.591  1.00  0.00     0.060 A 
ATOM     32  C   UNL     1       0.782   4.137  -6.931  1.00  0.00     0.016 A 
ATOM     33  C   UNL     1       3.042   3.418  -7.363  1.00  0.00     0.016 A 
ATOM     34  C   UNL     1       0.744   4.790  -8.171  1.00  0.00     0.010 A 
ATOM     35  C   UNL     1       3.012   4.078  -8.586  1.00  0.00     0.010 A 
ATOM     36  C   UNL     1       1.813   4.616  -9.049  1.00  0.00    -0.014 A 
BRANCH  36  37
ATOM     37  C   UNL     1       1.665   4.894 -10.482  1.00  0.00     0.031 A 
ATOM     38  C   UNL     1       1.829   6.320 -10.872  1.00  0.00     0.074 A 
ATOM     39  C   UNL     1       1.497   3.876 -11.368  1.00  0.00     0.049 A 
ATOM     40  N   UNL     1       0.928   7.102 -11.370  1.00  0.00    -0.248 NA
ATOM     41  C   UNL     1       3.093   7.005 -10.556  1.00  0.00     0.031 C 
ATOM     42  C   UNL     1       1.514   2.431 -11.101  1.00  0.00     0.029 A 
ATOM     43  N   UNL     1       1.337   3.911 -12.733  1.00  0.00    -0.354 N 
ATOM     44  C   UNL     1       1.568   8.313 -11.628  1.00  0.00     0.074 A 
ATOM     45  C   UNL     1       2.828   8.256 -10.938  1.00  0.00     0.031 C 
ATOM     46  C   UNL     1       1.613   1.741 -12.262  1.00  0.00     0.029 A 
ATOM     47  C   UNL     1       1.529   2.670 -13.371  1.00  0.00     0.049 A 
ATOM     48  H   UNL     1       1.106   4.733 -13.223  1.00  0.00     0.167 HD
ATOM     49  C   UNL     1       1.121   9.139 -12.617  1.00  0.00     0.037 A 
ATOM     50  C   UNL     1       1.643   2.456 -14.715  1.00  0.00     0.037 A 
ATOM     51  C   UNL     1      -0.243   8.830 -12.962  1.00  0.00     0.049 A 
ATOM     52  C   UNL     1       1.011   3.623 -15.389  1.00  0.00     0.074 A 
ATOM     53  C   UNL     1      -1.438   8.830 -12.269  1.00  0.00     0.029 A 
ATOM     54  N   UNL     1      -0.455   8.046 -14.069  1.00  0.00    -0.354 N 
ATOM     55  N   UNL     1      -0.268   3.874 -15.309  1.00  0.00    -0.248 NA
ATOM     56  C   UNL     1       1.874   4.771 -15.635  1.00  0.00     0.031 C 
ATOM     57  C   UNL     1      -2.110   7.650 -12.703  1.00  0.00     0.029 A 
ATOM     58  C   UNL     1      -1.356   7.072 -13.722  1.00  0.00     0.049 A 
ATOM     59  H   UNL     1      -0.036   8.163 -14.953  1.00  0.00     0.167 HD
ATOM     60  C   UNL     1      -0.331   5.230 -15.031  1.00  0.00     0.074 A 
ATOM     61  C   UNL     1       1.028   5.731 -15.250  1.00  0.00     0.031 C 
ATOM     62  C   UNL     1      -1.379   5.770 -14.344  1.00  0.00     0.037 A 
BRANCH  49  63
ATOM     63  C   UNL     1       2.024   9.920 -13.545  1.00  0.00     0.064 A 
ATOM     64  C   UNL     1       1.452  10.813 -14.475  1.00  0.00     0.173 A 
ATOM     65  C   UNL     1       3.380   9.599 -13.774  1.00  0.00     0.173 A 
ATOM     66  F   UNL     1       0.162  11.169 -14.376  1.00  0.00    -0.203 F 
ATOM     67  C   UNL     1       2.162  11.282 -15.585  1.00  0.00     0.198 A 
ATOM     68  C   UNL     1       4.099  10.109 -14.853  1.00  0.00     0.198 A 
ATOM     69  F   UNL     1       4.034   8.693 -13.040  1.00  0.00    -0.203 F 
ATOM     70  F   UNL     1       1.538  12.026 -16.510  1.00  0.00    -0.200 F 
ATOM     71  C   UNL     1       3.484  10.925 -15.776  1.00  0.00     0.200 A 
ATOM     72  F   UNL     1       5.372   9.727 -15.034  1.00  0.00    -0.200 F 
ATOM     73  F   UNL     1       4.148  11.322 -16.869  1.00  0.00    -0.200 F 
ENDBRANCH  49  63
BRANCH  50  74
ATOM     74  C   UNL     1       2.609   1.565 -15.428  1.00  0.00     0.064 A 
ATOM     75  C   UNL     1       2.496   1.270 -16.803  1.00  0.00     0.173 A 
ATOM     76  C   UNL     1       3.837   1.222 -14.830  1.00  0.00     0.173 A 
ATOM     77  F   UNL     1       1.390   1.611 -17.479  1.00  0.00    -0.203 F 
ATOM     78  C   UNL     1       3.548   0.678 -17.525  1.00  0.00     0.198 A 
ATOM     79  C   UNL     1       4.883   0.636 -15.550  1.00  0.00     0.198 A 
ATOM     80  F   UNL     1       4.085   1.537 -13.552  1.00  0.00    -0.203 F 
ATOM     81  F   UNL     1       3.421   0.455 -18.841  1.00  0.00    -0.200 F 
ATOM     82  C   UNL     1       4.744   0.372 -16.898  1.00  0.00     0.200 A 
ATOM     83  F   UNL     1       6.050   0.388 -14.937  1.00  0.00    -0.200 F 
ATOM     84  F   UNL     1       5.770  -0.137 -17.595  1.00  0.00    -0.200 F 
ENDBRANCH  50  74
BRANCH  62  85
ATOM     85  C   UNL     1      -2.572   4.903 -14.056  1.00  0.00     0.064 A 
ATOM     86  C   UNL     1      -2.548   3.756 -13.242  1.00  0.00     0.173 A 
ATOM     87  C   UNL     1      -3.825   5.355 -14.489  1.00  0.00     0.173 A 
ATOM     88  F   UNL     1      -1.404   3.317 -12.702  1.00  0.00    -0.203 F 
ATOM     89  C   UNL     1      -3.723   3.078 -12.912  1.00  0.00     0.198 A 
ATOM     90  C   UNL     1      -4.997   4.699 -14.131  1.00  0.00     0.198 A 
ATOM     91  F   UNL     1      -3.915   6.478 -15.218  1.00  0.00    -0.203 F 
ATOM     92  F   UNL     1      -3.677   1.986 -12.133  1.00  0.00    -0.200 F 
ATOM     93  C   UNL     1      -4.947   3.554 -13.352  1.00  0.00     0.200 A 
ATOM     94  F   UNL     1      -6.180   5.198 -14.513  1.00  0.00    -0.200 F 
ATOM     95  F   UNL     1      -6.080   2.929 -13.004  1.00  0.00    -0.200 F 
ENDBRANCH  62  85
ENDBRANCH  36  37
ENDBRANCH  29  31
ENDBRANCH  28  29
ENDBRANCH  27  28
ENDBRANCH  26  27
ENDBRANCH  25  26
ENDBRANCH  24  25
ENDBRANCH   1  24
TORSDOF 21
