REMARK SMILES C[NH2+][C@]1(C(=O)OCCOCCOC(=O)c2ccc(-c3c4nc(c(-c5c(F)c(F)c(F)c(F)c5F)c5ccc([nH]5)c(-c5c(F)c(F)c(F)c(F)c5F)c5nc(c(-c6c(F)c(F)c(F)c(F)c6F)c6ccc3[nH]6)C=C5)C=C4)cc2)CCCCC1(C)C
REMARK SMILES IDX 10 1 9 2 8 3 7 4 6 5 4 6 5 7 3 8 78 9 82 10 79 11 81 12
REMARK SMILES IDX 83 13 84 14 80 15 2 16 1 17 11 20 12 21 13 22 14 23 15 24
REMARK SMILES IDX 16 25 77 26 17 27 76 28 18 29 19 30 20 31 70 32 21 33 75 34
REMARK SMILES IDX 69 35 71 36 22 37 74 38 68 39 67 40 23 42 55 43 35 44 54 45
REMARK SMILES IDX 36 46 39 47 53 48 72 49 37 50 38 51 52 53 73 54 40 55 24 56
REMARK SMILES IDX 25 57 33 58 26 59 27 60 31 61 34 62 28 63 29 64 32 65 30 66
REMARK SMILES IDX 56 67 57 68 65 69 58 70 59 71 63 72 66 73 60 74 61 75 64 76
REMARK SMILES IDX 62 77 41 78 42 79 50 80 43 81 44 82 48 83 51 84 45 85 46 86
REMARK SMILES IDX 49 87 47 88
REMARK H PARENT 2 18 2 19 71 41 39 52
REMARK Flexibility Score: inf
ROOT
ATOM      1  C   UNL     1       2.384   0.401  -1.346  1.00  0.00     0.202 C 
ENDROOT
BRANCH   1   2
ATOM      2  O   UNL     1       3.458  -0.172  -0.602  1.00  0.00    -0.374 OA
BRANCH   2   3
ATOM      3  C   UNL     1       3.505  -1.595  -0.522  1.00  0.00     0.202 C 
BRANCH   3   4
ATOM      4  C   UNL     1       2.488  -2.267   0.404  1.00  0.00     0.261 C 
BRANCH   4   5
ATOM      5  O   UNL     1       1.135  -2.227  -0.099  1.00  0.00    -0.459 OA
BRANCH   5   6
ATOM      6  C   UNL     1       0.262  -1.486   0.640  1.00  0.00     0.368 C 
ATOM      7  O   UNL     1       0.625  -0.794   1.589  1.00  0.00    -0.245 OA
BRANCH   6   8
ATOM      8  C   UNL     1      -1.256  -1.666   0.231  1.00  0.00     0.199 C 
ATOM      9  C   UNL     1      -1.931  -0.327   0.712  1.00  0.00     0.082 C 
ATOM     10  C   UNL     1      -1.617  -1.875  -1.315  1.00  0.00     0.031 C 
ATOM     11  C   UNL     1      -1.531   0.889  -0.124  1.00  0.00     0.007 C 
ATOM     12  C   UNL     1      -1.292  -0.599  -2.144  1.00  0.00     0.013 C 
ATOM     13  C   UNL     1      -0.891  -3.038  -2.035  1.00  0.00     0.018 C 
ATOM     14  C   UNL     1      -3.140  -2.163  -1.489  1.00  0.00     0.018 C 
ATOM     15  C   UNL     1      -1.872   0.696  -1.589  1.00  0.00     0.001 C 
BRANCH   8  16
ATOM     16  N   UNL     1      -1.825  -2.690   1.159  1.00  0.00    -0.334 N 
ATOM     17  C   UNL     1      -1.383  -4.062   1.014  1.00  0.00     0.331 C 
ATOM     18  H   UNL     1      -1.598  -2.397   2.109  1.00  0.00     0.347 HD
ATOM     19  H   UNL     1      -2.818  -2.718   0.928  1.00  0.00     0.347 HD
ENDBRANCH   8  16
ENDBRANCH   6   8
ENDBRANCH   5   6
ENDBRANCH   4   5
ENDBRANCH   3   4
ENDBRANCH   2   3
ENDBRANCH   1   2
BRANCH   1  20
ATOM     20  C   UNL     1       2.525   0.311  -2.870  1.00  0.00     0.261 C 
BRANCH  20  21
ATOM     21  O   UNL     1       2.470  -1.057  -3.316  1.00  0.00    -0.460 OA
BRANCH  21  22
ATOM     22  C   UNL     1       3.469  -1.409  -4.156  1.00  0.00     0.338 C 
ATOM     23  O   UNL     1       4.263  -0.669  -4.718  1.00  0.00    -0.246 OA
BRANCH  22  24
ATOM     24  C   UNL     1       3.618  -2.873  -4.184  1.00  0.00     0.060 A 
ATOM     25  C   UNL     1       4.823  -3.403  -3.707  1.00  0.00     0.016 A 
ATOM     26  C   UNL     1       2.659  -3.701  -4.771  1.00  0.00     0.016 A 
ATOM     27  C   UNL     1       5.106  -4.756  -3.879  1.00  0.00     0.010 A 
ATOM     28  C   UNL     1       2.949  -5.060  -4.951  1.00  0.00     0.010 A 
ATOM     29  C   UNL     1       4.192  -5.582  -4.548  1.00  0.00    -0.014 A 
BRANCH  29  30
ATOM     30  C   UNL     1       4.634  -6.932  -4.979  1.00  0.00     0.031 A 
ATOM     31  C   UNL     1       5.167  -7.112  -6.376  1.00  0.00     0.074 A 
ATOM     32  C   UNL     1       4.634  -7.969  -4.123  1.00  0.00     0.049 A 
ATOM     33  N   UNL     1       5.654  -8.183  -6.950  1.00  0.00    -0.248 NA
ATOM     34  C   UNL     1       5.154  -5.920  -7.240  1.00  0.00     0.031 C 
ATOM     35  C   UNL     1       4.187  -7.916  -2.734  1.00  0.00     0.029 A 
ATOM     36  N   UNL     1       5.036  -9.270  -4.300  1.00  0.00    -0.354 N 
ATOM     37  C   UNL     1       6.008  -7.795  -8.235  1.00  0.00     0.074 A 
ATOM     38  C   UNL     1       5.652  -6.399  -8.371  1.00  0.00     0.031 C 
ATOM     39  C   UNL     1       4.339  -9.132  -2.182  1.00  0.00     0.029 A 
ATOM     40  C   UNL     1       4.874 -10.052  -3.184  1.00  0.00     0.049 A 
ATOM     41  H   UNL     1       5.405  -9.609  -5.148  1.00  0.00     0.167 HD
ATOM     42  C   UNL     1       6.589  -8.531  -9.212  1.00  0.00     0.037 A 
ATOM     43  C   UNL     1       5.123 -11.364  -2.999  1.00  0.00     0.037 A 
ATOM     44  C   UNL     1       6.951  -9.917  -9.082  1.00  0.00     0.049 A 
ATOM     45  C   UNL     1       5.704 -12.178  -4.126  1.00  0.00     0.074 A 
ATOM     46  C   UNL     1       7.567 -10.739 -10.009  1.00  0.00     0.029 A 
ATOM     47  N   UNL     1       6.721 -10.688  -7.953  1.00  0.00    -0.354 N 
ATOM     48  N   UNL     1       6.066 -11.794  -5.326  1.00  0.00    -0.248 NA
ATOM     49  C   UNL     1       5.912 -13.611  -3.869  1.00  0.00     0.031 C 
ATOM     50  C   UNL     1       7.669 -12.021  -9.458  1.00  0.00     0.029 A 
ATOM     51  C   UNL     1       7.157 -11.985  -8.171  1.00  0.00     0.049 A 
ATOM     52  H   UNL     1       6.310 -10.362  -7.120  1.00  0.00     0.167 HD
ATOM     53  C   UNL     1       6.568 -12.926  -5.955  1.00  0.00     0.074 A 
ATOM     54  C   UNL     1       6.474 -14.011  -5.002  1.00  0.00     0.031 C 
ATOM     55  C   UNL     1       7.064 -13.053  -7.210  1.00  0.00     0.037 A 
BRANCH  42  56
ATOM     56  C   UNL     1       6.854  -7.854 -10.523  1.00  0.00     0.064 A 
ATOM     57  C   UNL     1       7.893  -6.923 -10.674  1.00  0.00     0.173 A 
ATOM     58  C   UNL     1       6.083  -8.169 -11.652  1.00  0.00     0.173 A 
ATOM     59  F   UNL     1       8.648  -6.579  -9.620  1.00  0.00    -0.203 F 
ATOM     60  C   UNL     1       8.138  -6.319 -11.904  1.00  0.00     0.198 A 
ATOM     61  C   UNL     1       6.346  -7.580 -12.885  1.00  0.00     0.198 A 
ATOM     62  F   UNL     1       5.080  -9.055 -11.559  1.00  0.00    -0.203 F 
ATOM     63  F   UNL     1       9.112  -5.406 -12.018  1.00  0.00    -0.200 F 
ATOM     64  C   UNL     1       7.369  -6.652 -13.010  1.00  0.00     0.200 A 
ATOM     65  F   UNL     1       5.608  -7.910 -13.954  1.00  0.00    -0.200 F 
ATOM     66  F   UNL     1       7.610  -6.075 -14.194  1.00  0.00    -0.200 F 
ENDBRANCH  42  56
BRANCH  43  67
ATOM     67  C   UNL     1       4.822 -11.997  -1.690  1.00  0.00     0.064 A 
ATOM     68  C   UNL     1       5.849 -12.442  -0.846  1.00  0.00     0.173 A 
ATOM     69  C   UNL     1       3.498 -12.193  -1.268  1.00  0.00     0.173 A 
ATOM     70  F   UNL     1       7.129 -12.302  -1.219  1.00  0.00    -0.203 F 
ATOM     71  C   UNL     1       5.563 -13.072   0.364  1.00  0.00     0.198 A 
ATOM     72  C   UNL     1       3.215 -12.800  -0.047  1.00  0.00     0.198 A 
ATOM     73  F   UNL     1       2.480 -11.791  -2.042  1.00  0.00    -0.203 F 
ATOM     74  F   UNL     1       6.563 -13.527   1.132  1.00  0.00    -0.200 F 
ATOM     75  C   UNL     1       4.247 -13.246   0.765  1.00  0.00     0.200 A 
ATOM     76  F   UNL     1       1.942 -12.959   0.340  1.00  0.00    -0.200 F 
ATOM     77  F   UNL     1       3.973 -13.851   1.928  1.00  0.00    -0.200 F 
ENDBRANCH  43  67
BRANCH  55  78
ATOM     78  C   UNL     1       7.571 -14.405  -7.619  1.00  0.00     0.064 A 
ATOM     79  C   UNL     1       6.695 -15.463  -7.903  1.00  0.00     0.173 A 
ATOM     80  C   UNL     1       8.948 -14.632  -7.771  1.00  0.00     0.173 A 
ATOM     81  F   UNL     1       5.372 -15.300  -7.758  1.00  0.00    -0.203 F 
ATOM     82  C   UNL     1       7.180 -16.704  -8.305  1.00  0.00     0.198 A 
ATOM     83  C   UNL     1       9.428 -15.867  -8.199  1.00  0.00     0.198 A 
ATOM     84  F   UNL     1       9.827 -13.650  -7.519  1.00  0.00    -0.203 F 
ATOM     85  F   UNL     1       6.327 -17.713  -8.533  1.00  0.00    -0.200 F 
ATOM     86  C   UNL     1       8.544 -16.903  -8.460  1.00  0.00     0.200 A 
ATOM     87  F   UNL     1      10.745 -16.053  -8.359  1.00  0.00    -0.200 F 
ATOM     88  F   UNL     1       9.008 -18.097  -8.854  1.00  0.00    -0.200 F 
ENDBRANCH  55  78
ENDBRANCH  29  30
ENDBRANCH  22  24
ENDBRANCH  21  22
ENDBRANCH  20  21
ENDBRANCH   1  20
TORSDOF 15
