REMARK SMILES CC(C)NC(=O)CNC(=O)N1CCO[C@@H](CC(=O)OCCOCCOC(=O)c2ccc(-c3c4nc(c(-c5c(F)c(F)c(F)c(F)c5F)c5ccc([nH]5)c(-c5c(F)c(F)c(F)c(F)c5F)c5nc(c(-c6c(F)c(F)c(F)c(F)c6F)c6ccc3[nH]6)C=C5)C=C4)cc2)C1
REMARK SMILES IDX 20 1 19 2 17 3 18 4 16 5 15 6 11 7 12 8 91 9 13 10 14 11
REMARK SMILES IDX 9 12 8 13 10 15 7 16 5 17 4 18 6 20 2 21 1 22 3 23 21 24
REMARK SMILES IDX 22 25 23 26 24 27 25 28 26 29 27 30 28 31 29 32 90 33 30 34
REMARK SMILES IDX 89 35 31 36 32 37 33 38 83 39 34 40 88 41 82 42 84 43 35 44
REMARK SMILES IDX 87 45 81 46 80 47 36 49 68 50 48 51 67 52 49 53 52 54 66 55
REMARK SMILES IDX 85 56 50 57 51 58 65 60 86 61 53 62 37 63 38 64 46 65 39 66
REMARK SMILES IDX 40 67 44 68 47 69 41 70 42 71 45 72 43 73 69 74 70 75 78 76
REMARK SMILES IDX 71 77 72 78 76 79 79 80 73 81 74 82 77 83 75 84 54 85 55 86
REMARK SMILES IDX 63 87 56 88 57 89 61 90 64 91 58 92 59 93 62 94 60 95
REMARK H PARENT 8 14 4 19 84 48 52 59
REMARK Flexibility Score: inf
ROOT
ATOM      1  C   UNL     1       6.684  -1.765  -0.006  1.00  0.00     0.261 C 
ENDROOT
BRANCH   1   2
ATOM      2  O   UNL     1       5.595  -2.470  -0.641  1.00  0.00    -0.463 OA
BRANCH   2   3
ATOM      3  C   UNL     1       5.656  -3.821  -0.521  1.00  0.00     0.308 C 
ATOM      4  O   UNL     1       6.486  -4.418   0.158  1.00  0.00    -0.252 OA
BRANCH   3   5
ATOM      5  C   UNL     1       4.676  -4.575  -1.376  1.00  0.00     0.156 C 
BRANCH   5   6
ATOM      6  C   UNL     1       3.274  -4.038  -1.659  1.00  0.00     0.149 C 
ATOM      7  N   UNL     1       1.870  -2.666  -3.187  1.00  0.00    -0.320 N 
ATOM      8  C   UNL     1       1.317  -3.883  -3.765  1.00  0.00     0.150 C 
ATOM      9  C   UNL     1       3.234  -2.854  -2.660  1.00  0.00     0.154 C 
ATOM     10  C   UNL     1       1.268  -4.945  -2.677  1.00  0.00     0.182 C 
ATOM     11  O   UNL     1       2.587  -5.208  -2.194  1.00  0.00    -0.374 OA
BRANCH   7  12
ATOM     12  C   UNL     1       1.353  -1.417  -3.348  1.00  0.00     0.318 C 
ATOM     13  N   UNL     1       0.015  -1.216  -3.348  1.00  0.00    -0.329 N 
ATOM     14  H   UNL     1      -0.256  -0.314  -3.632  1.00  0.00     0.165 HD
ATOM     15  O   UNL     1       2.072  -0.424  -3.436  1.00  0.00    -0.249 OA
BRANCH  13  16
ATOM     16  C   UNL     1      -1.097  -2.091  -3.004  1.00  0.00     0.217 C 
BRANCH  16  17
ATOM     17  C   UNL     1      -2.101  -1.518  -2.002  1.00  0.00     0.239 C 
ATOM     18  N   UNL     1      -1.739  -1.348  -0.698  1.00  0.00    -0.352 N 
ATOM     19  H   UNL     1      -2.479  -1.170  -0.073  1.00  0.00     0.163 HD
ATOM     20  O   UNL     1      -3.268  -1.288  -2.323  1.00  0.00    -0.273 OA
BRANCH  18  21
ATOM     21  C   UNL     1      -0.414  -1.393  -0.100  1.00  0.00     0.075 C 
ATOM     22  C   UNL     1      -0.033   0.024   0.314  1.00  0.00     0.030 C 
ATOM     23  C   UNL     1      -0.406  -2.362   1.079  1.00  0.00     0.030 C 
ENDBRANCH  18  21
ENDBRANCH  16  17
ENDBRANCH  13  16
ENDBRANCH   7  12
ENDBRANCH   5   6
ENDBRANCH   3   5
ENDBRANCH   2   3
ENDBRANCH   1   2
BRANCH   1  24
ATOM     24  C   UNL     1       6.324  -0.924   1.228  1.00  0.00     0.202 C 
BRANCH  24  25
ATOM     25  O   UNL     1       5.572  -1.519   2.275  1.00  0.00    -0.374 OA
BRANCH  25  26
ATOM     26  C   UNL     1       4.285  -2.029   1.971  1.00  0.00     0.202 C 
BRANCH  26  27
ATOM     27  C   UNL     1       3.240  -1.086   1.373  1.00  0.00     0.261 C 
BRANCH  27  28
ATOM     28  O   UNL     1       3.669  -0.282   0.264  1.00  0.00    -0.460 OA
BRANCH  28  29
ATOM     29  C   UNL     1       3.646   1.056   0.478  1.00  0.00     0.338 C 
ATOM     30  O   UNL     1       3.372   1.646   1.513  1.00  0.00    -0.246 OA
BRANCH  29  31
ATOM     31  C   UNL     1       4.041   1.749  -0.753  1.00  0.00     0.060 A 
ATOM     32  C   UNL     1       5.265   2.421  -0.822  1.00  0.00     0.016 A 
ATOM     33  C   UNL     1       3.146   1.793  -1.819  1.00  0.00     0.016 A 
ATOM     34  C   UNL     1       5.593   3.138  -1.975  1.00  0.00     0.010 A 
ATOM     35  C   UNL     1       3.490   2.481  -2.981  1.00  0.00     0.010 A 
ATOM     36  C   UNL     1       4.703   3.180  -3.059  1.00  0.00    -0.014 A 
BRANCH  36  37
ATOM     37  C   UNL     1       4.975   4.021  -4.250  1.00  0.00     0.031 A 
ATOM     38  C   UNL     1       4.178   5.277  -4.458  1.00  0.00     0.074 A 
ATOM     39  C   UNL     1       5.892   3.638  -5.157  1.00  0.00     0.049 A 
ATOM     40  N   UNL     1       4.182   6.110  -5.469  1.00  0.00    -0.248 NA
ATOM     41  C   UNL     1       3.237   5.639  -3.386  1.00  0.00     0.031 C 
ATOM     42  C   UNL     1       6.722   2.439  -5.061  1.00  0.00     0.029 A 
ATOM     43  N   UNL     1       6.265   4.211  -6.347  1.00  0.00    -0.354 N 
ATOM     44  C   UNL     1       3.240   7.083  -5.159  1.00  0.00     0.074 A 
ATOM     45  C   UNL     1       2.656   6.719  -3.887  1.00  0.00     0.031 C 
ATOM     46  C   UNL     1       7.509   2.365  -6.147  1.00  0.00     0.029 A 
ATOM     47  C   UNL     1       7.209   3.487  -7.033  1.00  0.00     0.049 A 
ATOM     48  H   UNL     1       5.892   5.061  -6.677  1.00  0.00     0.167 HD
ATOM     49  C   UNL     1       2.905   8.188  -5.867  1.00  0.00     0.037 A 
ATOM     50  C   UNL     1       7.750   3.698  -8.248  1.00  0.00     0.037 A 
ATOM     51  C   UNL     1       3.491   8.540  -7.133  1.00  0.00     0.049 A 
ATOM     52  C   UNL     1       7.321   4.904  -9.043  1.00  0.00     0.074 A 
ATOM     53  C   UNL     1       3.240   9.647  -7.925  1.00  0.00     0.029 A 
ATOM     54  N   UNL     1       4.445   7.781  -7.797  1.00  0.00    -0.354 N 
ATOM     55  N   UNL     1       6.460   5.842  -8.726  1.00  0.00    -0.248 NA
ATOM     56  C   UNL     1       7.940   5.083 -10.364  1.00  0.00     0.031 C 
ATOM     57  C   UNL     1       4.007   9.534  -9.089  1.00  0.00     0.029 A 
ATOM     58  C   UNL     1       4.778   8.385  -8.998  1.00  0.00     0.049 A 
ATOM     59  H   UNL     1       4.827   6.937  -7.463  1.00  0.00     0.167 HD
ATOM     60  C   UNL     1       6.461   6.738  -9.786  1.00  0.00     0.074 A 
ATOM     61  C   UNL     1       7.410   6.234 -10.757  1.00  0.00     0.031 C 
ATOM     62  C   UNL     1       5.744   7.878  -9.940  1.00  0.00     0.037 A 
BRANCH  49  63
ATOM     63  C   UNL     1       1.844   9.084  -5.293  1.00  0.00     0.064 A 
ATOM     64  C   UNL     1       2.074   9.853  -4.142  1.00  0.00     0.173 A 
ATOM     65  C   UNL     1       0.590   9.192  -5.913  1.00  0.00     0.173 A 
ATOM     66  F   UNL     1       3.252   9.779  -3.504  1.00  0.00    -0.203 F 
ATOM     67  C   UNL     1       1.077  10.669  -3.613  1.00  0.00     0.198 A 
ATOM     68  C   UNL     1      -0.394  10.033  -5.399  1.00  0.00     0.198 A 
ATOM     69  F   UNL     1       0.318   8.485  -7.020  1.00  0.00    -0.203 F 
ATOM     70  F   UNL     1       1.302  11.351  -2.482  1.00  0.00    -0.200 F 
ATOM     71  C   UNL     1      -0.154  10.763  -4.245  1.00  0.00     0.200 A 
ATOM     72  F   UNL     1      -1.578  10.134  -6.020  1.00  0.00    -0.200 F 
ATOM     73  F   UNL     1      -1.111  11.552  -3.737  1.00  0.00    -0.200 F 
ENDBRANCH  49  63
BRANCH  50  74
ATOM     74  C   UNL     1       8.766   2.754  -8.783  1.00  0.00     0.064 A 
ATOM     75  C   UNL     1      10.104   3.144  -8.929  1.00  0.00     0.173 A 
ATOM     76  C   UNL     1       8.424   1.445  -9.156  1.00  0.00     0.173 A 
ATOM     77  F   UNL     1      10.477   4.391  -8.607  1.00  0.00    -0.203 F 
ATOM     78  C   UNL     1      11.059   2.267  -9.441  1.00  0.00     0.198 A 
ATOM     79  C   UNL     1       9.385   0.561  -9.642  1.00  0.00     0.198 A 
ATOM     80  F   UNL     1       7.158   1.021  -9.036  1.00  0.00    -0.203 F 
ATOM     81  F   UNL     1      12.323   2.680  -9.609  1.00  0.00    -0.200 F 
ATOM     82  C   UNL     1      10.700   0.975  -9.791  1.00  0.00     0.200 A 
ATOM     83  F   UNL     1       9.037  -0.692  -9.966  1.00  0.00    -0.200 F 
ATOM     84  F   UNL     1      11.620   0.130 -10.277  1.00  0.00    -0.200 F 
ENDBRANCH  50  74
BRANCH  62  85
ATOM     85  C   UNL     1       5.996   8.695 -11.173  1.00  0.00     0.064 A 
ATOM     86  C   UNL     1       5.536   8.291 -12.434  1.00  0.00     0.173 A 
ATOM     87  C   UNL     1       6.650   9.933 -11.076  1.00  0.00     0.173 A 
ATOM     88  F   UNL     1       4.918   7.109 -12.582  1.00  0.00    -0.203 F 
ATOM     89  C   UNL     1       5.735   9.091 -13.557  1.00  0.00     0.198 A 
ATOM     90  C   UNL     1       6.821  10.743 -12.194  1.00  0.00     0.198 A 
ATOM     91  F   UNL     1       7.103  10.367  -9.890  1.00  0.00    -0.203 F 
ATOM     92  F   UNL     1       5.319   8.671 -14.759  1.00  0.00    -0.200 F 
ATOM     93  C   UNL     1       6.367  10.320 -13.434  1.00  0.00     0.200 A 
ATOM     94  F   UNL     1       7.419  11.936 -12.071  1.00  0.00    -0.200 F 
ATOM     95  F   UNL     1       6.543  11.095 -14.513  1.00  0.00    -0.200 F 
ENDBRANCH  62  85
ENDBRANCH  36  37
ENDBRANCH  29  31
ENDBRANCH  28  29
ENDBRANCH  27  28
ENDBRANCH  26  27
ENDBRANCH  25  26
ENDBRANCH  24  25
ENDBRANCH   1  24
TORSDOF 19
