REMARK SMILES CC(C)(C)OC(=O)Nc1ccc(-c2cccc(Cl)c2C(=O)OCCOCCOC(=O)c2ccc(-c3c4nc(c(-c5c(F)c(F)c(F)c(F)c5F)c5ccc([nH]5)c(-c5c(F)c(F)c(F)c(F)c5F)c5nc(c(-c6c(F)c(F)c(F)c(F)c6F)c6ccc3[nH]6)C=C5)C=C4)cc2)cc1
REMARK SMILES IDX 24 1 23 2 22 3 20 4 21 5 19 6 13 7 14 8 15 9 17 10 16 11
REMARK SMILES IDX 18 12 12 13 9 14 10 15 95 16 11 17 94 18 8 19 6 20 7 21 5 23
REMARK SMILES IDX 2 24 1 25 3 26 4 27 25 28 26 29 27 30 28 31 29 32 30 33
REMARK SMILES IDX 31 34 32 35 93 36 33 37 92 38 34 39 35 40 36 41 86 42 37 43
REMARK SMILES IDX 91 44 85 45 87 46 38 47 90 48 84 49 83 50 39 52 71 53 51 54
REMARK SMILES IDX 70 55 52 56 55 57 69 58 88 59 53 60 54 61 68 63 89 64 56 65
REMARK SMILES IDX 40 66 41 67 49 68 42 69 43 70 47 71 50 72 44 73 45 74 48 75
REMARK SMILES IDX 46 76 72 77 73 78 81 79 74 80 75 81 79 82 82 83 76 84 77 85
REMARK SMILES IDX 80 86 78 87 57 88 58 89 66 90 59 91 60 92 64 93 67 94 61 95
REMARK SMILES IDX 62 96 65 97 63 98
REMARK H PARENT 8 22 87 51 55 62
REMARK Flexibility Score: inf
ROOT
ATOM      1  C   UNL     1       7.305   2.824  -4.732  1.00  0.00     0.202 C 
ENDROOT
BRANCH   1   2
ATOM      2  C   UNL     1       6.950   2.744  -3.249  1.00  0.00     0.261 C 
BRANCH   2   3
ATOM      3  O   UNL     1       6.351   3.973  -2.820  1.00  0.00    -0.460 OA
BRANCH   3   4
ATOM      4  C   UNL     1       6.756   4.436  -1.617  1.00  0.00     0.340 C 
ATOM      5  O   UNL     1       7.455   3.842  -0.814  1.00  0.00    -0.246 OA
BRANCH   4   6
ATOM      6  C   UNL     1       6.239   5.808  -1.382  1.00  0.00     0.086 A 
ATOM      7  C   UNL     1       4.857   6.117  -1.451  1.00  0.00    -0.002 A 
ATOM      8  C   UNL     1       4.438   7.381  -0.984  1.00  0.00     0.010 A 
ATOM      9  C   UNL     1       5.351   8.336  -0.545  1.00  0.00     0.002 A 
ATOM     10  C   UNL     1       7.158   6.801  -1.005  1.00  0.00     0.056 A 
ATOM     11  C   UNL     1       6.711   8.060  -0.594  1.00  0.00     0.021 A 
ATOM     12  Cl  UNL     1       8.872   6.583  -1.117  1.00  0.00    -0.083 Cl
BRANCH   7  13
ATOM     13  C   UNL     1       3.840   5.219  -2.021  1.00  0.00    -0.017 A 
ATOM     14  C   UNL     1       1.907   3.512  -3.166  1.00  0.00     0.044 A 
ATOM     15  C   UNL     1       2.013   4.827  -3.605  1.00  0.00     0.027 A 
ATOM     16  C   UNL     1       2.826   3.037  -2.229  1.00  0.00     0.027 A 
ATOM     17  C   UNL     1       2.975   5.669  -3.040  1.00  0.00     0.011 A 
ATOM     18  C   UNL     1       3.732   3.890  -1.615  1.00  0.00     0.011 A 
BRANCH  14  19
ATOM     19  N   UNL     1       0.853   2.724  -3.656  1.00  0.00    -0.291 N 
ATOM     20  C   UNL     1       0.298   1.621  -3.059  1.00  0.00     0.412 C 
ATOM     21  O   UNL     1      -0.594   0.983  -3.606  1.00  0.00    -0.224 OA
ATOM     22  H   UNL     1       0.471   2.993  -4.522  1.00  0.00     0.173 HD
BRANCH  20  23
ATOM     23  O   UNL     1       0.792   1.375  -1.827  1.00  0.00    -0.444 OA
BRANCH  23  24
ATOM     24  C   UNL     1       0.470   0.220  -1.026  1.00  0.00     0.106 C 
ATOM     25  C   UNL     1       1.090   0.510   0.346  1.00  0.00     0.056 C 
ATOM     26  C   UNL     1       1.156  -1.018  -1.609  1.00  0.00     0.056 C 
ATOM     27  C   UNL     1      -1.037   0.074  -0.855  1.00  0.00     0.056 C 
ENDBRANCH  23  24
ENDBRANCH  20  23
ENDBRANCH  14  19
ENDBRANCH   7  13
ENDBRANCH   4   6
ENDBRANCH   3   4
ENDBRANCH   2   3
ENDBRANCH   1   2
BRANCH   1  28
ATOM     28  O   UNL     1       8.153   3.894  -5.143  1.00  0.00    -0.374 OA
BRANCH  28  29
ATOM     29  C   UNL     1       7.669   5.230  -5.019  1.00  0.00     0.202 C 
BRANCH  29  30
ATOM     30  C   UNL     1       6.545   5.692  -5.961  1.00  0.00     0.261 C 
BRANCH  30  31
ATOM     31  O   UNL     1       5.376   4.853  -5.981  1.00  0.00    -0.460 OA
BRANCH  31  32
ATOM     32  C   UNL     1       5.269   4.073  -7.087  1.00  0.00     0.338 C 
ATOM     33  O   UNL     1       6.042   4.015  -8.029  1.00  0.00    -0.246 OA
BRANCH  32  34
ATOM     34  C   UNL     1       4.115   3.161  -6.980  1.00  0.00     0.060 A 
ATOM     35  C   UNL     1       4.359   1.782  -6.995  1.00  0.00     0.016 A 
ATOM     36  C   UNL     1       2.808   3.644  -7.036  1.00  0.00     0.016 A 
ATOM     37  C   UNL     1       3.299   0.879  -7.107  1.00  0.00     0.010 A 
ATOM     38  C   UNL     1       1.746   2.735  -7.146  1.00  0.00     0.010 A 
ATOM     39  C   UNL     1       1.983   1.346  -7.217  1.00  0.00    -0.014 A 
BRANCH  39  40
ATOM     40  C   UNL     1       0.870   0.415  -7.561  1.00  0.00     0.031 A 
ATOM     41  C   UNL     1       0.227   0.504  -8.919  1.00  0.00     0.074 A 
ATOM     42  C   UNL     1       0.440  -0.544  -6.719  1.00  0.00     0.049 A 
ATOM     43  N   UNL     1      -0.829  -0.119  -9.381  1.00  0.00    -0.248 NA
ATOM     44  C   UNL     1       0.878   1.389  -9.898  1.00  0.00     0.031 C 
ATOM     45  C   UNL     1       1.050  -0.889  -5.441  1.00  0.00     0.029 A 
ATOM     46  N   UNL     1      -0.644  -1.391  -6.809  1.00  0.00    -0.354 N 
ATOM     47  C   UNL     1      -0.954   0.276 -10.704  1.00  0.00     0.074 A 
ATOM     48  C   UNL     1       0.092   1.246 -10.955  1.00  0.00     0.031 C 
ATOM     49  C   UNL     1       0.290  -1.820  -4.837  1.00  0.00     0.029 A 
ATOM     50  C   UNL     1      -0.884  -2.083  -5.647  1.00  0.00     0.049 A 
ATOM     51  H   UNL     1      -1.190  -1.489  -7.623  1.00  0.00     0.167 HD
ATOM     52  C   UNL     1      -1.836  -0.160 -11.635  1.00  0.00     0.037 A 
ATOM     53  C   UNL     1      -1.946  -2.804  -5.245  1.00  0.00     0.037 A 
ATOM     54  C   UNL     1      -2.870  -1.134 -11.392  1.00  0.00     0.049 A 
ATOM     55  C   UNL     1      -3.051  -3.084  -6.208  1.00  0.00     0.074 A 
ATOM     56  C   UNL     1      -3.777  -1.670 -12.292  1.00  0.00     0.029 A 
ATOM     57  N   UNL     1      -3.150  -1.708 -10.161  1.00  0.00    -0.354 N 
ATOM     58  N   UNL     1      -3.172  -2.701  -7.452  1.00  0.00    -0.248 NA
ATOM     59  C   UNL     1      -4.133  -3.954  -5.728  1.00  0.00     0.031 C 
ATOM     60  C   UNL     1      -4.651  -2.508 -11.592  1.00  0.00     0.029 A 
ATOM     61  C   UNL     1      -4.245  -2.554 -10.270  1.00  0.00     0.049 A 
ATOM     62  H   UNL     1      -2.646  -1.540  -9.332  1.00  0.00     0.167 HD
ATOM     63  C   UNL     1      -4.306  -3.337  -7.928  1.00  0.00     0.074 A 
ATOM     64  C   UNL     1      -4.853  -4.106  -6.830  1.00  0.00     0.031 C 
ATOM     65  C   UNL     1      -4.811  -3.311  -9.183  1.00  0.00     0.037 A 
BRANCH  52  66
ATOM     66  C   UNL     1      -1.734   0.428 -13.011  1.00  0.00     0.064 A 
ATOM     67  C   UNL     1      -0.661   0.134 -13.866  1.00  0.00     0.173 A 
ATOM     68  C   UNL     1      -2.753   1.260 -13.499  1.00  0.00     0.173 A 
ATOM     69  F   UNL     1       0.345  -0.647 -13.445  1.00  0.00    -0.203 F 
ATOM     70  C   UNL     1      -0.600   0.673 -15.149  1.00  0.00     0.198 A 
ATOM     71  C   UNL     1      -2.705   1.770 -14.793  1.00  0.00     0.198 A 
ATOM     72  F   UNL     1      -3.804   1.569 -12.723  1.00  0.00    -0.203 F 
ATOM     73  F   UNL     1       0.458   0.418 -15.931  1.00  0.00    -0.200 F 
ATOM     74  C   UNL     1      -1.625   1.482 -15.614  1.00  0.00     0.200 A 
ATOM     75  F   UNL     1      -3.705   2.538 -15.245  1.00  0.00    -0.200 F 
ATOM     76  F   UNL     1      -1.571   1.990 -16.852  1.00  0.00    -0.200 F 
ENDBRANCH  52  66
BRANCH  53  77
ATOM     77  C   UNL     1      -2.054  -3.297  -3.850  1.00  0.00     0.064 A 
ATOM     78  C   UNL     1      -1.655  -4.589  -3.495  1.00  0.00     0.173 A 
ATOM     79  C   UNL     1      -2.645  -2.496  -2.864  1.00  0.00     0.173 A 
ATOM     80  F   UNL     1      -1.154  -5.413  -4.425  1.00  0.00    -0.203 F 
ATOM     81  C   UNL     1      -1.820  -5.055  -2.191  1.00  0.00     0.198 A 
ATOM     82  C   UNL     1      -2.794  -2.957  -1.557  1.00  0.00     0.198 A 
ATOM     83  F   UNL     1      -3.113  -1.281  -3.180  1.00  0.00    -0.203 F 
ATOM     84  F   UNL     1      -1.466  -6.310  -1.881  1.00  0.00    -0.200 F 
ATOM     85  C   UNL     1      -2.376  -4.235  -1.221  1.00  0.00     0.200 A 
ATOM     86  F   UNL     1      -3.351  -2.170  -0.627  1.00  0.00    -0.200 F 
ATOM     87  F   UNL     1      -2.530  -4.682   0.033  1.00  0.00    -0.200 F 
ENDBRANCH  53  77
BRANCH  65  88
ATOM     88  C   UNL     1      -5.984  -4.201  -9.457  1.00  0.00     0.064 A 
ATOM     89  C   UNL     1      -7.252  -3.950  -8.914  1.00  0.00     0.173 A 
ATOM     90  C   UNL     1      -5.828  -5.336 -10.268  1.00  0.00     0.173 A 
ATOM     91  F   UNL     1      -7.445  -2.896  -8.108  1.00  0.00    -0.203 F 
ATOM     92  C   UNL     1      -8.313  -4.821  -9.147  1.00  0.00     0.198 A 
ATOM     93  C   UNL     1      -6.900  -6.183 -10.529  1.00  0.00     0.198 A 
ATOM     94  F   UNL     1      -4.634  -5.625 -10.806  1.00  0.00    -0.203 F 
ATOM     95  F   UNL     1      -9.498  -4.600  -8.562  1.00  0.00    -0.200 F 
ATOM     96  C   UNL     1      -8.138  -5.931  -9.960  1.00  0.00     0.200 A 
ATOM     97  F   UNL     1      -6.730  -7.250 -11.323  1.00  0.00    -0.200 F 
ATOM     98  F   UNL     1      -9.161  -6.768 -10.183  1.00  0.00    -0.200 F 
ENDBRANCH  65  88
ENDBRANCH  39  40
ENDBRANCH  32  34
ENDBRANCH  31  32
ENDBRANCH  30  31
ENDBRANCH  29  30
ENDBRANCH  28  29
ENDBRANCH   1  28
TORSDOF 18
