REMARK SMILES CC[C@](C)(NC(=O)[C@](C)([NH3+])c1ccccc1)C(=O)OCCOCCOC(=O)c1ccc(-c2c3nc(c(-c4c(F)c(F)c(F)c(F)c4F)c4ccc([nH]4)c(-c4c(F)c(F)c(F)c(F)c4F)c4nc(c(-c5c(F)c(F)c(F)c(F)c5F)c5ccc2[nH]5)C=C4)C=C3)cc1
REMARK SMILES IDX 21 1 20 2 19 3 17 4 18 5 3 6 4 7 2 8 1 9 5 10 6 11 7 13 8 14
REMARK SMILES IDX 9 15 10 16 11 20 12 21 16 22 13 23 15 24 14 25 22 26 23 27
REMARK SMILES IDX 24 28 25 29 26 30 27 31 28 32 29 33 90 34 30 35 89 36 31 37
REMARK SMILES IDX 32 38 33 39 83 40 34 41 88 42 82 43 84 44 35 45 87 46 81 47
REMARK SMILES IDX 80 48 36 50 68 51 48 52 67 53 49 54 52 55 66 56 85 57 50 58
REMARK SMILES IDX 51 59 65 61 86 62 53 63 37 64 38 65 46 66 39 67 40 68 44 69
REMARK SMILES IDX 47 70 41 71 42 72 45 73 43 74 69 75 70 76 78 77 71 78 72 79
REMARK SMILES IDX 76 80 79 81 73 82 74 83 77 84 75 85 54 86 55 87 63 88 56 89
REMARK SMILES IDX 57 90 61 91 64 92 58 93 59 94 62 95 60 96
REMARK H PARENT 5 12 10 17 10 18 10 19 84 49 52 60
REMARK Flexibility Score: inf
ROOT
ATOM      1  C   UNL     1       0.868  -5.153  -3.317  1.00  0.00     0.202 C 
ENDROOT
BRANCH   1   2
ATOM      2  C   UNL     1      -0.106  -4.019  -3.643  1.00  0.00     0.261 C 
BRANCH   2   3
ATOM      3  O   UNL     1       0.507  -2.711  -3.535  1.00  0.00    -0.462 OA
BRANCH   3   4
ATOM      4  C   UNL     1       0.224  -2.050  -2.389  1.00  0.00     0.331 C 
ATOM      5  O   UNL     1      -0.526  -2.509  -1.529  1.00  0.00    -0.249 OA
BRANCH   4   6
ATOM      6  C   UNL     1       0.808  -0.595  -2.297  1.00  0.00     0.135 C 
ATOM      7  C   UNL     1       1.086  -0.351  -0.792  1.00  0.00     0.047 C 
BRANCH   6   8
ATOM      8  C   UNL     1      -0.384   0.295  -2.818  1.00  0.00     0.037 C 
ATOM      9  C   UNL     1      -1.792   0.030  -2.305  1.00  0.00     0.007 C 
ENDBRANCH   6   8
BRANCH   6  10
ATOM     10  N   UNL     1       1.953   0.030  -3.097  1.00  0.00    -0.335 N 
ATOM     11  C   UNL     1       3.257  -0.326  -3.375  1.00  0.00     0.286 C 
ATOM     12  H   UNL     1       1.700   0.886  -3.511  1.00  0.00     0.164 HD
ATOM     13  O   UNL     1       4.162   0.127  -2.678  1.00  0.00    -0.267 OA
BRANCH  11  14
ATOM     14  C   UNL     1       3.487  -1.142  -4.686  1.00  0.00     0.196 C 
ATOM     15  C   UNL     1       2.518  -0.662  -5.794  1.00  0.00     0.096 C 
BRANCH  14  16
ATOM     16  N   UNL     1       3.008  -2.492  -4.415  1.00  0.00    -0.341 N 
ATOM     17  H   UNL     1       3.136  -3.071  -5.245  1.00  0.00     0.345 HD
ATOM     18  H   UNL     1       2.018  -2.459  -4.172  1.00  0.00     0.345 HD
ATOM     19  H   UNL     1       3.536  -2.890  -3.638  1.00  0.00     0.345 HD
ENDBRANCH  14  16
BRANCH  14  20
ATOM     20  C   UNL     1       4.947  -1.213  -5.233  1.00  0.00     0.022 A 
ATOM     21  C   UNL     1       5.817  -2.287  -4.923  1.00  0.00     0.011 A 
ATOM     22  C   UNL     1       5.360  -0.364  -6.274  1.00  0.00     0.011 A 
ATOM     23  C   UNL     1       6.863  -2.652  -5.786  1.00  0.00     0.001 A 
ATOM     24  C   UNL     1       6.432  -0.703  -7.111  1.00  0.00     0.001 A 
ATOM     25  C   UNL     1       7.142  -1.880  -6.906  1.00  0.00     0.000 A 
ENDBRANCH  14  20
ENDBRANCH  11  14
ENDBRANCH   6  10
ENDBRANCH   4   6
ENDBRANCH   3   4
ENDBRANCH   2   3
ENDBRANCH   1   2
BRANCH   1  26
ATOM     26  O   UNL     1       1.413  -5.153  -2.003  1.00  0.00    -0.374 OA
BRANCH  26  27
ATOM     27  C   UNL     1       2.674  -4.508  -1.828  1.00  0.00     0.202 C 
BRANCH  27  28
ATOM     28  C   UNL     1       3.892  -5.157  -2.538  1.00  0.00     0.261 C 
BRANCH  28  29
ATOM     29  O   UNL     1       3.935  -4.950  -3.982  1.00  0.00    -0.460 OA
BRANCH  29  30
ATOM     30  C   UNL     1       3.696  -6.004  -4.818  1.00  0.00     0.338 C 
ATOM     31  O   UNL     1       3.486  -7.141  -4.443  1.00  0.00    -0.246 OA
BRANCH  30  32
ATOM     32  C   UNL     1       3.629  -5.619  -6.284  1.00  0.00     0.060 A 
ATOM     33  C   UNL     1       3.259  -6.569  -7.239  1.00  0.00     0.016 A 
ATOM     34  C   UNL     1       3.924  -4.347  -6.765  1.00  0.00     0.016 A 
ATOM     35  C   UNL     1       3.269  -6.260  -8.621  1.00  0.00     0.010 A 
ATOM     36  C   UNL     1       3.940  -4.019  -8.129  1.00  0.00     0.010 A 
ATOM     37  C   UNL     1       3.650  -4.989  -9.083  1.00  0.00    -0.014 A 
BRANCH  37  38
ATOM     38  C   UNL     1       3.765  -4.660 -10.532  1.00  0.00     0.031 A 
ATOM     39  C   UNL     1       5.081  -4.811 -11.255  1.00  0.00     0.074 A 
ATOM     40  C   UNL     1       2.729  -4.118 -11.201  1.00  0.00     0.049 A 
ATOM     41  N   UNL     1       5.336  -4.742 -12.540  1.00  0.00    -0.248 NA
ATOM     42  C   UNL     1       6.271  -5.032 -10.421  1.00  0.00     0.031 C 
ATOM     43  C   UNL     1       1.448  -3.746 -10.608  1.00  0.00     0.029 A 
ATOM     44  N   UNL     1       2.603  -3.765 -12.525  1.00  0.00    -0.354 N 
ATOM     45  C   UNL     1       6.703  -4.957 -12.674  1.00  0.00     0.074 A 
ATOM     46  C   UNL     1       7.236  -5.085 -11.333  1.00  0.00     0.031 C 
ATOM     47  C   UNL     1       0.661  -3.221 -11.564  1.00  0.00     0.029 A 
ATOM     48  C   UNL     1       1.373  -3.244 -12.843  1.00  0.00     0.049 A 
ATOM     49  H   UNL     1       3.327  -3.876 -13.182  1.00  0.00     0.167 HD
ATOM     50  C   UNL     1       7.437  -5.063 -13.811  1.00  0.00     0.037 A 
ATOM     51  C   UNL     1       0.862  -2.861 -14.031  1.00  0.00     0.037 A 
ATOM     52  C   UNL     1       6.907  -4.896 -15.144  1.00  0.00     0.049 A 
ATOM     53  C   UNL     1       1.672  -3.042 -15.291  1.00  0.00     0.074 A 
ATOM     54  C   UNL     1       7.536  -5.114 -16.360  1.00  0.00     0.029 A 
ATOM     55  N   UNL     1       5.634  -4.430 -15.437  1.00  0.00    -0.354 N 
ATOM     56  N   UNL     1       2.899  -3.478 -15.434  1.00  0.00    -0.248 NA
ATOM     57  C   UNL     1       1.007  -2.712 -16.561  1.00  0.00     0.031 C 
ATOM     58  C   UNL     1       6.668  -4.720 -17.384  1.00  0.00     0.029 A 
ATOM     59  C   UNL     1       5.473  -4.322 -16.811  1.00  0.00     0.049 A 
ATOM     60  H   UNL     1       4.946  -4.209 -14.769  1.00  0.00     0.167 HD
ATOM     61  C   UNL     1       3.139  -3.510 -16.803  1.00  0.00     0.074 A 
ATOM     62  C   UNL     1       1.924  -3.067 -17.450  1.00  0.00     0.031 C 
ATOM     63  C   UNL     1       4.266  -3.878 -17.461  1.00  0.00     0.037 A 
BRANCH  50  64
ATOM     64  C   UNL     1       8.895  -5.425 -13.693  1.00  0.00     0.064 A 
ATOM     65  C   UNL     1       9.291  -6.700 -13.258  1.00  0.00     0.173 A 
ATOM     66  C   UNL     1       9.897  -4.552 -14.147  1.00  0.00     0.173 A 
ATOM     67  F   UNL     1       8.376  -7.580 -12.824  1.00  0.00    -0.203 F 
ATOM     68  C   UNL     1      10.631  -7.081 -13.269  1.00  0.00     0.198 A 
ATOM     69  C   UNL     1      11.233  -4.948 -14.184  1.00  0.00     0.198 A 
ATOM     70  F   UNL     1       9.578  -3.328 -14.594  1.00  0.00    -0.203 F 
ATOM     71  F   UNL     1      10.982  -8.297 -12.829  1.00  0.00    -0.200 F 
ATOM     72  C   UNL     1      11.599  -6.210 -13.743  1.00  0.00     0.200 A 
ATOM     73  F   UNL     1      12.165  -4.114 -14.668  1.00  0.00    -0.200 F 
ATOM     74  F   UNL     1      12.884  -6.590 -13.780  1.00  0.00    -0.200 F 
ENDBRANCH  50  64
BRANCH  51  75
ATOM     75  C   UNL     1      -0.530  -2.344 -14.102  1.00  0.00     0.064 A 
ATOM     76  C   UNL     1      -1.550  -3.101 -14.698  1.00  0.00     0.173 A 
ATOM     77  C   UNL     1      -0.868  -1.084 -13.589  1.00  0.00     0.173 A 
ATOM     78  F   UNL     1      -1.272  -4.303 -15.222  1.00  0.00    -0.203 F 
ATOM     79  C   UNL     1      -2.848  -2.605 -14.804  1.00  0.00     0.198 A 
ATOM     80  C   UNL     1      -2.174  -0.603 -13.667  1.00  0.00     0.198 A 
ATOM     81  F   UNL     1       0.068  -0.324 -13.004  1.00  0.00    -0.203 F 
ATOM     82  F   UNL     1      -3.789  -3.326 -15.428  1.00  0.00    -0.200 F 
ATOM     83  C   UNL     1      -3.160  -1.359 -14.283  1.00  0.00     0.200 A 
ATOM     84  F   UNL     1      -2.476   0.595 -13.148  1.00  0.00    -0.200 F 
ATOM     85  F   UNL     1      -4.409  -0.884 -14.380  1.00  0.00    -0.200 F 
ENDBRANCH  51  75
BRANCH  63  86
ATOM     86  C   UNL     1       4.236  -3.849 -18.966  1.00  0.00     0.064 A 
ATOM     87  C   UNL     1       4.167  -2.644 -19.683  1.00  0.00     0.173 A 
ATOM     88  C   UNL     1       4.300  -5.043 -19.703  1.00  0.00     0.173 A 
ATOM     89  F   UNL     1       4.093  -1.474 -19.032  1.00  0.00    -0.203 F 
ATOM     90  C   UNL     1       4.126  -2.638 -21.076  1.00  0.00     0.198 A 
ATOM     91  C   UNL     1       4.293  -5.031 -21.096  1.00  0.00     0.198 A 
ATOM     92  F   UNL     1       4.375  -6.224 -19.072  1.00  0.00    -0.203 F 
ATOM     93  F   UNL     1       3.999  -1.478 -21.736  1.00  0.00    -0.200 F 
ATOM     94  C   UNL     1       4.195  -3.830 -21.781  1.00  0.00     0.200 A 
ATOM     95  F   UNL     1       4.377  -6.184 -21.774  1.00  0.00    -0.200 F 
ATOM     96  F   UNL     1       4.158  -3.822 -23.121  1.00  0.00    -0.200 F 
ENDBRANCH  63  86
ENDBRANCH  37  38
ENDBRANCH  30  32
ENDBRANCH  29  30
ENDBRANCH  28  29
ENDBRANCH  27  28
ENDBRANCH  26  27
ENDBRANCH   1  26
TORSDOF 19
