REMARK SMILES O=C(OCCOCCOC(=O)[C@@H](CCO)NC(=O)c1c(F)ccc([N+](=O)[O-])c1F)c1ccc(-c2c3nc(c(-c4c(F)c(F)c(F)c(F)c4F)c4ccc([nH]4)c(-c4c(F)c(F)c(F)c(F)c4F)c4nc(c(-c5c(F)c(F)c(F)c(F)c5F)c5ccc2[nH]5)C=C4)C=C3)cc1
REMARK SMILES IDX 7 1 6 2 5 3 4 4 3 5 2 6 1 7 30 8 31 9 92 10 32 11 91 12
REMARK SMILES IDX 33 13 34 14 35 15 85 16 36 17 90 18 84 19 86 20 37 21 89 22
REMARK SMILES IDX 83 23 82 24 38 26 70 27 50 28 69 29 51 30 54 31 68 32 87 33
REMARK SMILES IDX 52 34 53 35 67 37 88 38 55 39 39 40 40 41 48 42 41 43 42 44
REMARK SMILES IDX 46 45 49 46 43 47 44 48 47 49 45 50 71 51 72 52 80 53 73 54
REMARK SMILES IDX 74 55 78 56 81 57 75 58 76 59 79 60 77 61 56 62 57 63 65 64
REMARK SMILES IDX 58 65 59 66 63 67 66 68 60 69 61 70 64 71 62 72 8 73 9 74
REMARK SMILES IDX 10 75 11 76 12 77 13 78 14 79 15 80 16 82 17 83 18 85 19 86
REMARK SMILES IDX 20 87 28 88 21 89 22 90 24 91 29 92 23 93 25 94 26 95 27 96
REMARK H PARENT 86 25 54 36 15 81 16 84
REMARK Flexibility Score: inf
ROOT
ATOM      1  C   UNL     1       2.676   1.407   1.608  1.00  0.00     0.202 C 
ENDROOT
BRANCH   1   2
ATOM      2  O   UNL     1       4.047   1.215   1.232  1.00  0.00    -0.374 OA
BRANCH   2   3
ATOM      3  C   UNL     1       4.373   1.516  -0.127  1.00  0.00     0.202 C 
BRANCH   3   4
ATOM      4  C   UNL     1       4.064   0.429  -1.166  1.00  0.00     0.261 C 
BRANCH   4   5
ATOM      5  O   UNL     1       2.683   0.033  -1.104  1.00  0.00    -0.460 OA
BRANCH   5   6
ATOM      6  C   UNL     1       2.147  -1.064  -0.517  1.00  0.00     0.338 C 
ATOM      7  O   UNL     1       0.936  -1.258  -0.615  1.00  0.00    -0.246 OA
BRANCH   6   8
ATOM      8  C   UNL     1       2.955  -2.056   0.251  1.00  0.00     0.060 A 
ATOM      9  C   UNL     1       4.170  -1.767   0.866  1.00  0.00     0.016 A 
ATOM     10  C   UNL     1       2.421  -3.344   0.427  1.00  0.00     0.016 A 
ATOM     11  C   UNL     1       4.882  -2.723   1.557  1.00  0.00     0.010 A 
ATOM     12  C   UNL     1       3.105  -4.309   1.177  1.00  0.00     0.010 A 
ATOM     13  C   UNL     1       4.349  -3.995   1.729  1.00  0.00    -0.014 A 
BRANCH  13  14
ATOM     14  C   UNL     1       5.207  -4.952   2.441  1.00  0.00     0.031 A 
ATOM     15  C   UNL     1       6.005  -5.923   1.636  1.00  0.00     0.074 A 
ATOM     16  C   UNL     1       5.443  -4.742   3.749  1.00  0.00     0.049 A 
ATOM     17  N   UNL     1       6.925  -6.759   2.030  1.00  0.00    -0.248 NA
ATOM     18  C   UNL     1       5.763  -5.929   0.183  1.00  0.00     0.031 C 
ATOM     19  C   UNL     1       4.810  -3.692   4.552  1.00  0.00     0.029 A 
ATOM     20  N   UNL     1       6.333  -5.327   4.607  1.00  0.00    -0.354 N 
ATOM     21  C   UNL     1       7.351  -7.409   0.883  1.00  0.00     0.074 A 
ATOM     22  C   UNL     1       6.604  -6.866  -0.228  1.00  0.00     0.031 C 
ATOM     23  C   UNL     1       5.386  -3.659   5.762  1.00  0.00     0.029 A 
ATOM     24  C   UNL     1       6.367  -4.734   5.845  1.00  0.00     0.049 A 
ATOM     25  H   UNL     1       6.894  -6.098   4.361  1.00  0.00     0.167 HD
ATOM     26  C   UNL     1       8.278  -8.388   0.784  1.00  0.00     0.037 A 
ATOM     27  C   UNL     1       7.105  -5.043   6.928  1.00  0.00     0.037 A 
ATOM     28  C   UNL     1       8.999  -8.904   1.914  1.00  0.00     0.049 A 
ATOM     29  C   UNL     1       8.059  -6.198   6.815  1.00  0.00     0.074 A 
ATOM     30  C   UNL     1       9.882  -9.964   1.968  1.00  0.00     0.029 A 
ATOM     31  N   UNL     1       8.912  -8.380   3.199  1.00  0.00    -0.354 N 
ATOM     32  N   UNL     1       8.379  -6.896   5.750  1.00  0.00    -0.248 NA
ATOM     33  C   UNL     1       8.725  -6.636   8.046  1.00  0.00     0.031 C 
ATOM     34  C   UNL     1      10.300 -10.107   3.296  1.00  0.00     0.029 A 
ATOM     35  C   UNL     1       9.712  -9.108   4.060  1.00  0.00     0.049 A 
ATOM     36  H   UNL     1       8.363  -7.605   3.457  1.00  0.00     0.167 HD
ATOM     37  C   UNL     1       9.276  -7.861   6.180  1.00  0.00     0.074 A 
ATOM     38  C   UNL     1       9.470  -7.640   7.601  1.00  0.00     0.031 C 
ATOM     39  C   UNL     1       9.873  -8.849   5.470  1.00  0.00     0.037 A 
BRANCH  26  40
ATOM     40  C   UNL     1       8.471  -9.005  -0.566  1.00  0.00     0.064 A 
ATOM     41  C   UNL     1       7.918 -10.265  -0.843  1.00  0.00     0.173 A 
ATOM     42  C   UNL     1       9.152  -8.344  -1.598  1.00  0.00     0.173 A 
ATOM     43  F   UNL     1       7.245 -10.930   0.107  1.00  0.00    -0.203 F 
ATOM     44  C   UNL     1       8.039 -10.839  -2.105  1.00  0.00     0.198 A 
ATOM     45  C   UNL     1       9.252  -8.912  -2.866  1.00  0.00     0.198 A 
ATOM     46  F   UNL     1       9.666  -7.122  -1.393  1.00  0.00    -0.203 F 
ATOM     47  F   UNL     1       7.499 -12.042  -2.346  1.00  0.00    -0.200 F 
ATOM     48  C   UNL     1       8.698 -10.159  -3.118  1.00  0.00     0.200 A 
ATOM     49  F   UNL     1       9.857  -8.239  -3.854  1.00  0.00    -0.200 F 
ATOM     50  F   UNL     1       8.783 -10.697  -4.342  1.00  0.00    -0.200 F 
ENDBRANCH  26  40
BRANCH  27  51
ATOM     51  C   UNL     1       6.927  -4.274   8.187  1.00  0.00     0.064 A 
ATOM     52  C   UNL     1       5.706  -4.297   8.882  1.00  0.00     0.173 A 
ATOM     53  C   UNL     1       7.945  -3.457   8.695  1.00  0.00     0.173 A 
ATOM     54  F   UNL     1       4.698  -5.064   8.441  1.00  0.00    -0.203 F 
ATOM     55  C   UNL     1       5.498  -3.504  10.008  1.00  0.00     0.198 A 
ATOM     56  C   UNL     1       7.745  -2.685   9.840  1.00  0.00     0.198 A 
ATOM     57  F   UNL     1       9.138  -3.414   8.083  1.00  0.00    -0.203 F 
ATOM     58  F   UNL     1       4.304  -3.510  10.617  1.00  0.00    -0.200 F 
ATOM     59  C   UNL     1       6.518  -2.699  10.488  1.00  0.00     0.200 A 
ATOM     60  F   UNL     1       8.741  -1.925  10.316  1.00  0.00    -0.200 F 
ATOM     61  F   UNL     1       6.320  -1.939  11.573  1.00  0.00    -0.200 F 
ENDBRANCH  27  51
BRANCH  39  62
ATOM     62  C   UNL     1      10.787  -9.768   6.217  1.00  0.00     0.064 A 
ATOM     63  C   UNL     1      12.175  -9.683   6.040  1.00  0.00     0.173 A 
ATOM     64  C   UNL     1      10.278 -10.800   7.016  1.00  0.00     0.173 A 
ATOM     65  F   UNL     1      12.701  -8.715   5.275  1.00  0.00    -0.203 F 
ATOM     66  C   UNL     1      13.024 -10.618   6.622  1.00  0.00     0.198 A 
ATOM     67  C   UNL     1      11.132 -11.721   7.614  1.00  0.00     0.198 A 
ATOM     68  F   UNL     1       8.957 -10.909   7.218  1.00  0.00    -0.203 F 
ATOM     69  F   UNL     1      14.345 -10.545   6.411  1.00  0.00    -0.200 F 
ATOM     70  C   UNL     1      12.502 -11.636   7.407  1.00  0.00     0.200 A 
ATOM     71  F   UNL     1      10.630 -12.695   8.385  1.00  0.00    -0.200 F 
ATOM     72  F   UNL     1      13.320 -12.540   7.963  1.00  0.00    -0.200 F 
ENDBRANCH  39  62
ENDBRANCH  13  14
ENDBRANCH   6   8
ENDBRANCH   5   6
ENDBRANCH   4   5
ENDBRANCH   3   4
ENDBRANCH   2   3
ENDBRANCH   1   2
BRANCH   1  73
ATOM     73  C   UNL     1       2.541   2.598   2.555  1.00  0.00     0.261 C 
BRANCH  73  74
ATOM     74  O   UNL     1       2.898   3.779   1.816  1.00  0.00    -0.462 OA
BRANCH  74  75
ATOM     75  C   UNL     1       4.193   4.161   1.920  1.00  0.00     0.328 C 
ATOM     76  O   UNL     1       4.949   3.835   2.832  1.00  0.00    -0.250 OA
BRANCH  75  77
ATOM     77  C   UNL     1       4.636   5.095   0.786  1.00  0.00     0.194 C 
BRANCH  77  78
ATOM     78  C   UNL     1       3.964   5.074  -0.599  1.00  0.00     0.065 C 
BRANCH  78  79
ATOM     79  C   UNL     1       2.465   4.836  -0.707  1.00  0.00     0.159 C 
BRANCH  79  80
ATOM     80  O   UNL     1       1.754   5.679   0.178  1.00  0.00    -0.396 OA
ATOM     81  H   UNL     1       2.025   5.493   1.090  1.00  0.00     0.210 HD
ENDBRANCH  79  80
ENDBRANCH  78  79
ENDBRANCH  77  78
BRANCH  77  82
ATOM     82  N   UNL     1       4.753   6.454   1.309  1.00  0.00    -0.338 N 
ATOM     83  C   UNL     1       5.848   7.090   1.834  1.00  0.00     0.258 C 
ATOM     84  H   UNL     1       3.927   6.989   1.281  1.00  0.00     0.164 HD
ATOM     85  O   UNL     1       5.722   8.201   2.348  1.00  0.00    -0.269 OA
BRANCH  83  86
ATOM     86  C   UNL     1       7.187   6.486   1.776  1.00  0.00     0.118 A 
ATOM     87  C   UNL     1       7.750   6.107   0.555  1.00  0.00     0.139 A 
ATOM     88  C   UNL     1       7.947   6.395   2.945  1.00  0.00     0.216 A 
ATOM     89  F   UNL     1       7.060   6.224  -0.589  1.00  0.00    -0.206 F 
ATOM     90  C   UNL     1       9.040   5.587   0.492  1.00  0.00     0.047 A 
ATOM     91  C   UNL     1       9.252   5.896   2.884  1.00  0.00     0.305 A 
ATOM     92  F   UNL     1       7.410   6.790   4.108  1.00  0.00    -0.198 F 
ATOM     93  C   UNL     1       9.800   5.481   1.656  1.00  0.00     0.092 A 
BRANCH  91  94
ATOM     94  N   UNL     1      10.079   5.819   4.088  1.00  0.00     0.065 N 
ATOM     95  O   UNL     1       9.537   5.940   5.192  1.00  0.00    -0.258 OA
ATOM     96  O   UNL     1      11.291   5.617   3.924  1.00  0.00    -0.258 OA
ENDBRANCH  91  94
ENDBRANCH  83  86
ENDBRANCH  77  82
ENDBRANCH  75  77
ENDBRANCH  74  75
ENDBRANCH  73  74
ENDBRANCH   1  73
TORSDOF 20
