REMARK SMILES CC(C)=C1[C@H]2CC[C@@H]1[C@H](C(=O)NNC(=O)c1ccoc1C)[C@H]2C(=O)OCCOCCOC(=O)c1ccc(-c2c3nc(c(-c4c(F)c(F)c(F)c(F)c4F)c4ccc([nH]4)c(-c4c(F)c(F)c(F)c(F)c4F)c4nc(c(-c5c(F)c(F)c(F)c(F)c5F)c5ccc2[nH]5)C=C4)C=C3)cc1
REMARK SMILES IDX 27 1 26 2 25 3 23 4 24 5 22 6 1 7 2 8 3 9 4 10 5 11 8 12
REMARK SMILES IDX 6 13 7 14 9 15 10 16 11 17 12 18 13 20 14 21 15 23 16 24
REMARK SMILES IDX 17 25 20 26 18 27 19 28 21 29 28 30 29 31 30 32 31 33 32 34
REMARK SMILES IDX 33 35 34 36 35 37 96 38 36 39 95 40 37 41 38 42 39 43 89 44
REMARK SMILES IDX 40 45 94 46 88 47 90 48 41 49 93 50 87 51 86 52 42 54 74 55
REMARK SMILES IDX 54 56 73 57 55 58 58 59 72 60 91 61 56 62 57 63 71 65 92 66
REMARK SMILES IDX 59 67 43 68 44 69 52 70 45 71 46 72 50 73 53 74 47 75 48 76
REMARK SMILES IDX 51 77 49 78 75 79 76 80 84 81 77 82 78 83 82 84 85 85 79 86
REMARK SMILES IDX 80 87 83 88 81 89 60 90 61 91 69 92 62 93 63 94 67 95 70 96
REMARK SMILES IDX 64 97 65 98 68 99 66 100
REMARK H PARENT 12 19 13 22 90 53 58 64
REMARK Flexibility Score: inf
ROOT
ATOM      1  C   UNL     1       3.019   4.720   4.195  1.00  0.00     0.202 C 
ENDROOT
BRANCH   1   2
ATOM      2  C   UNL     1       3.412   3.544   3.292  1.00  0.00     0.261 C 
BRANCH   2   3
ATOM      3  O   UNL     1       2.533   2.417   3.417  1.00  0.00    -0.463 OA
BRANCH   3   4
ATOM      4  C   UNL     1       3.056   1.371   4.095  1.00  0.00     0.310 C 
ATOM      5  O   UNL     1       4.222   1.300   4.480  1.00  0.00    -0.252 OA
BRANCH   4   6
ATOM      6  C   UNL     1       2.076   0.258   4.428  1.00  0.00     0.119 C 
ATOM      7  C   UNL     1       1.216  -0.617  -0.053  1.00  0.00     0.039 C 
ATOM      8  C   UNL     1       0.813   0.142   1.176  1.00  0.00    -0.077 C 
ATOM      9  C   UNL     1       0.057   1.425   0.966  1.00  0.00     0.039 C 
ATOM     10  C   UNL     1       1.053  -0.315   2.415  1.00  0.00    -0.064 C 
ATOM     11  C   UNL     1       0.709   0.311   3.731  1.00  0.00     0.030 C 
ATOM     12  C   UNL     1       1.635  -1.604   2.944  1.00  0.00     0.029 C 
ATOM     13  C   UNL     1      -0.199  -0.794   4.298  1.00  0.00     0.009 C 
ATOM     14  C   UNL     1       0.371  -2.084   3.680  1.00  0.00     0.009 C 
ATOM     15  C   UNL     1       2.709  -1.068   3.934  1.00  0.00     0.102 C 
BRANCH  15  16
ATOM     16  C   UNL     1       3.089  -2.081   5.017  1.00  0.00     0.243 C 
ATOM     17  O   UNL     1       2.890  -3.289   4.850  1.00  0.00    -0.273 OA
ATOM     18  N   UNL     1       3.742  -1.716   6.166  1.00  0.00    -0.267 N 
ATOM     19  H   UNL     1       3.892  -2.426   6.831  1.00  0.00     0.191 HD
BRANCH  18  20
ATOM     20  N   UNL     1       4.217  -0.446   6.492  1.00  0.00    -0.263 N 
ATOM     21  C   UNL     1       4.334   0.035   7.784  1.00  0.00     0.273 C 
ATOM     22  H   UNL     1       4.486   0.148   5.754  1.00  0.00     0.191 HD
ATOM     23  O   UNL     1       4.213   1.237   8.005  1.00  0.00    -0.267 OA
BRANCH  21  24
ATOM     24  C   UNL     1       4.631  -0.901   8.855  1.00  0.00     0.082 A 
ATOM     25  C   UNL     1       4.202  -0.818  10.214  1.00  0.00     0.056 A 
ATOM     26  C   UNL     1       5.518  -1.968   8.818  1.00  0.00     0.113 A 
ATOM     27  C   UNL     1       4.796  -1.860  10.882  1.00  0.00     0.196 A 
ATOM     28  O   UNL     1       5.586  -2.570  10.039  1.00  0.00    -0.469 OA
ATOM     29  C   UNL     1       6.416  -2.532   7.786  1.00  0.00     0.088 C 
ENDBRANCH  21  24
ENDBRANCH  18  20
ENDBRANCH  15  16
ENDBRANCH   4   6
ENDBRANCH   3   4
ENDBRANCH   2   3
ENDBRANCH   1   2
BRANCH   1  30
ATOM     30  O   UNL     1       2.512   4.416   5.487  1.00  0.00    -0.374 OA
BRANCH  30  31
ATOM     31  C   UNL     1       1.208   3.840   5.593  1.00  0.00     0.202 C 
BRANCH  31  32
ATOM     32  C   UNL     1       0.045   4.566   4.907  1.00  0.00     0.261 C 
BRANCH  32  33
ATOM     33  O   UNL     1       0.140   4.509   3.469  1.00  0.00    -0.460 OA
BRANCH  33  34
ATOM     34  C   UNL     1      -0.009   5.701   2.844  1.00  0.00     0.338 C 
ATOM     35  O   UNL     1      -0.286   6.778   3.351  1.00  0.00    -0.246 OA
BRANCH  34  36
ATOM     36  C   UNL     1       0.381   5.587   1.430  1.00  0.00     0.060 A 
ATOM     37  C   UNL     1       1.491   6.319   0.990  1.00  0.00     0.016 A 
ATOM     38  C   UNL     1      -0.404   4.873   0.525  1.00  0.00     0.016 A 
ATOM     39  C   UNL     1       1.800   6.367  -0.369  1.00  0.00     0.010 A 
ATOM     40  C   UNL     1      -0.092   4.921  -0.838  1.00  0.00     0.010 A 
ATOM     41  C   UNL     1       0.987   5.699  -1.295  1.00  0.00    -0.014 A 
BRANCH  41  42
ATOM     42  C   UNL     1       1.158   5.957  -2.745  1.00  0.00     0.031 A 
ATOM     43  C   UNL     1       0.245   6.947  -3.416  1.00  0.00     0.074 A 
ATOM     44  C   UNL     1       2.120   5.340  -3.453  1.00  0.00     0.049 A 
ATOM     45  N   UNL     1       0.173   7.293  -4.676  1.00  0.00    -0.248 NA
ATOM     46  C   UNL     1      -0.719   7.641  -2.546  1.00  0.00     0.031 C 
ATOM     47  C   UNL     1       3.091   4.394  -2.912  1.00  0.00     0.029 A 
ATOM     48  N   UNL     1       2.429   5.418  -4.789  1.00  0.00    -0.354 N 
ATOM     49  C   UNL     1      -0.847   8.233  -4.751  1.00  0.00     0.074 A 
ATOM     50  C   UNL     1      -1.382   8.386  -3.416  1.00  0.00     0.031 C 
ATOM     51  C   UNL     1       3.885   3.968  -3.910  1.00  0.00     0.029 A 
ATOM     52  C   UNL     1       3.457   4.589  -5.163  1.00  0.00     0.049 A 
ATOM     53  H   UNL     1       1.959   6.012  -5.418  1.00  0.00     0.167 HD
ATOM     54  C   UNL     1      -1.291   8.913  -5.834  1.00  0.00     0.037 A 
ATOM     55  C   UNL     1       3.976   4.346  -6.383  1.00  0.00     0.037 A 
ATOM     56  C   UNL     1      -0.753   8.769  -7.160  1.00  0.00     0.049 A 
ATOM     57  C   UNL     1       3.423   5.069  -7.583  1.00  0.00     0.074 A 
ATOM     58  C   UNL     1      -1.125   9.429  -8.319  1.00  0.00     0.029 A 
ATOM     59  N   UNL     1       0.271   7.900  -7.504  1.00  0.00    -0.354 N 
ATOM     60  N   UNL     1       2.471   5.968  -7.643  1.00  0.00    -0.248 NA
ATOM     61  C   UNL     1       4.017   4.742  -8.888  1.00  0.00     0.031 C 
ATOM     62  C   UNL     1      -0.352   8.929  -9.373  1.00  0.00     0.029 A 
ATOM     63  C   UNL     1       0.530   7.990  -8.862  1.00  0.00     0.049 A 
ATOM     64  H   UNL     1       0.744   7.307  -6.876  1.00  0.00     0.167 HD
ATOM     65  C   UNL     1       2.371   6.333  -8.979  1.00  0.00     0.074 A 
ATOM     66  C   UNL     1       3.365   5.564  -9.698  1.00  0.00     0.031 C 
ATOM     67  C   UNL     1       1.532   7.226  -9.559  1.00  0.00     0.037 A 
BRANCH  54  68
ATOM     68  C   UNL     1      -2.433   9.862  -5.631  1.00  0.00     0.064 A 
ATOM     69  C   UNL     1      -2.262  11.090  -4.975  1.00  0.00     0.173 A 
ATOM     70  C   UNL     1      -3.709   9.552  -6.125  1.00  0.00     0.173 A 
ATOM     71  F   UNL     1      -1.065  11.425  -4.471  1.00  0.00    -0.203 F 
ATOM     72  C   UNL     1      -3.333  11.963  -4.801  1.00  0.00     0.198 A 
ATOM     73  C   UNL     1      -4.771  10.438  -5.971  1.00  0.00     0.198 A 
ATOM     74  F   UNL     1      -3.923   8.391  -6.762  1.00  0.00    -0.203 F 
ATOM     75  F   UNL     1      -3.157  13.112  -4.134  1.00  0.00    -0.200 F 
ATOM     76  C   UNL     1      -4.584  11.639  -5.304  1.00  0.00     0.200 A 
ATOM     77  F   UNL     1      -5.978  10.127  -6.466  1.00  0.00    -0.200 F 
ATOM     78  F   UNL     1      -5.613  12.482  -5.140  1.00  0.00    -0.200 F 
ENDBRANCH  54  68
BRANCH  55  79
ATOM     79  C   UNL     1       5.076   3.359  -6.537  1.00  0.00     0.064 A 
ATOM     80  C   UNL     1       6.373   3.769  -6.877  1.00  0.00     0.173 A 
ATOM     81  C   UNL     1       4.848   1.986  -6.367  1.00  0.00     0.173 A 
ATOM     82  F   UNL     1       6.632   5.070  -7.076  1.00  0.00    -0.203 F 
ATOM     83  C   UNL     1       7.397   2.841  -7.056  1.00  0.00     0.198 A 
ATOM     84  C   UNL     1       5.879   1.061  -6.522  1.00  0.00     0.198 A 
ATOM     85  F   UNL     1       3.624   1.543  -6.046  1.00  0.00    -0.203 F 
ATOM     86  F   UNL     1       8.617   3.256  -7.423  1.00  0.00    -0.200 F 
ATOM     87  C   UNL     1       7.150   1.489  -6.873  1.00  0.00     0.200 A 
ATOM     88  F   UNL     1       5.638  -0.244  -6.336  1.00  0.00    -0.200 F 
ATOM     89  F   UNL     1       8.136   0.597  -7.044  1.00  0.00    -0.200 F 
ENDBRANCH  55  79
BRANCH  67  90
ATOM     90  C   UNL     1       1.673   7.451 -11.036  1.00  0.00     0.064 A 
ATOM     91  C   UNL     1       1.222   6.506 -11.969  1.00  0.00     0.173 A 
ATOM     92  C   UNL     1       2.215   8.650 -11.522  1.00  0.00     0.173 A 
ATOM     93  F   UNL     1       0.709   5.338 -11.553  1.00  0.00    -0.203 F 
ATOM     94  C   UNL     1       1.325   6.747 -13.336  1.00  0.00     0.198 A 
ATOM     95  C   UNL     1       2.293   8.898 -12.889  1.00  0.00     0.198 A 
ATOM     96  F   UNL     1       2.653   9.588 -10.669  1.00  0.00    -0.203 F 
ATOM     97  F   UNL     1       0.922   5.815 -14.211  1.00  0.00    -0.200 F 
ATOM     98  C   UNL     1       1.853   7.945 -13.795  1.00  0.00     0.200 A 
ATOM     99  F   UNL     1       2.793  10.061 -13.330  1.00  0.00    -0.200 F 
ATOM    100  F   UNL     1       1.943   8.179 -15.111  1.00  0.00    -0.200 F 
ENDBRANCH  67  90
ENDBRANCH  41  42
ENDBRANCH  34  36
ENDBRANCH  33  34
ENDBRANCH  32  33
ENDBRANCH  31  32
ENDBRANCH  30  31
ENDBRANCH   1  30
TORSDOF 17
