REMARK SMILES O=C(OCCOCCOC(=O)[C@H]1CC=CC[C@@H]1C(=O)N[C@@H]1CCCN(c2ccccc2F)C1=O)c1ccc(-c2c3nc(c(-c4c(F)c(F)c(F)c(F)c4F)c4ccc([nH]4)c(-c4c(F)c(F)c(F)c(F)c4F)c4nc(c(-c5c(F)c(F)c(F)c(F)c5F)c5ccc2[nH]5)C=C4)C=C3)cc1
REMARK SMILES IDX 7 1 6 2 5 3 4 4 3 5 2 6 1 7 35 8 36 9 97 10 37 11 96 12
REMARK SMILES IDX 38 13 39 14 40 15 90 16 41 17 95 18 89 19 91 20 42 21 94 22
REMARK SMILES IDX 88 23 87 24 43 26 75 27 55 28 74 29 56 30 59 31 73 32 92 33
REMARK SMILES IDX 57 34 58 35 72 37 93 38 60 39 44 40 45 41 53 42 46 43 47 44
REMARK SMILES IDX 51 45 54 46 48 47 49 48 52 49 50 50 76 51 77 52 85 53 78 54
REMARK SMILES IDX 79 55 83 56 86 57 80 58 81 59 84 60 82 61 61 62 62 63 70 64
REMARK SMILES IDX 63 65 64 66 68 67 71 68 65 69 66 70 69 71 67 72 8 73 9 74
REMARK SMILES IDX 10 75 11 76 12 77 13 78 17 79 14 80 16 81 15 82 18 83 19 84
REMARK SMILES IDX 20 85 21 87 22 88 33 89 23 90 25 91 34 92 24 93 26 94 27 95
REMARK SMILES IDX 31 96 28 97 30 98 32 99 29 100
REMARK H PARENT 91 25 59 36 20 86
REMARK Flexibility Score: inf
ROOT
ATOM      1  C   UNL     1       3.809   0.411   0.432  1.00  0.00     0.202 C 
ENDROOT
BRANCH   1   2
ATOM      2  O   UNL     1       3.362   0.882   1.700  1.00  0.00    -0.374 OA
BRANCH   2   3
ATOM      3  C   UNL     1       4.332   1.201   2.682  1.00  0.00     0.202 C 
BRANCH   3   4
ATOM      4  C   UNL     1       4.657   0.035   3.604  1.00  0.00     0.261 C 
BRANCH   4   5
ATOM      5  O   UNL     1       4.933  -1.160   2.836  1.00  0.00    -0.460 OA
BRANCH   5   6
ATOM      6  C   UNL     1       3.989  -2.064   2.446  1.00  0.00     0.338 C 
ATOM      7  O   UNL     1       4.231  -2.943   1.629  1.00  0.00    -0.246 OA
BRANCH   6   8
ATOM      8  C   UNL     1       2.685  -2.030   3.135  1.00  0.00     0.060 A 
ATOM      9  C   UNL     1       1.838  -0.948   2.980  1.00  0.00     0.016 A 
ATOM     10  C   UNL     1       2.332  -3.040   4.019  1.00  0.00     0.016 A 
ATOM     11  C   UNL     1       0.944  -0.633   3.963  1.00  0.00     0.010 A 
ATOM     12  C   UNL     1       1.188  -2.875   4.802  1.00  0.00     0.010 A 
ATOM     13  C   UNL     1       0.529  -1.632   4.824  1.00  0.00    -0.014 A 
BRANCH  13  14
ATOM     14  C   UNL     1      -0.582  -1.310   5.738  1.00  0.00     0.031 A 
ATOM     15  C   UNL     1      -0.371  -1.500   7.205  1.00  0.00     0.074 A 
ATOM     16  C   UNL     1      -1.709  -0.750   5.245  1.00  0.00     0.049 A 
ATOM     17  N   UNL     1      -1.252  -1.495   8.164  1.00  0.00    -0.248 NA
ATOM     18  C   UNL     1       1.011  -1.750   7.657  1.00  0.00     0.031 C 
ATOM     19  C   UNL     1      -1.947  -0.399   3.835  1.00  0.00     0.029 A 
ATOM     20  N   UNL     1      -2.851  -0.329   5.869  1.00  0.00    -0.354 N 
ATOM     21  C   UNL     1      -0.547  -1.815   9.314  1.00  0.00     0.074 A 
ATOM     22  C   UNL     1       0.835  -2.004   8.945  1.00  0.00     0.031 C 
ATOM     23  C   UNL     1      -3.103   0.264   3.725  1.00  0.00     0.029 A 
ATOM     24  C   UNL     1      -3.773   0.224   5.011  1.00  0.00     0.049 A 
ATOM     25  H   UNL     1      -2.998  -0.412   6.839  1.00  0.00     0.167 HD
ATOM     26  C   UNL     1      -1.042  -1.945  10.563  1.00  0.00     0.037 A 
ATOM     27  C   UNL     1      -5.050   0.581   5.226  1.00  0.00     0.037 A 
ATOM     28  C   UNL     1      -2.421  -1.691  10.880  1.00  0.00     0.049 A 
ATOM     29  C   UNL     1      -5.593   0.338   6.603  1.00  0.00     0.074 A 
ATOM     30  C   UNL     1      -3.071  -1.835  12.088  1.00  0.00     0.029 A 
ATOM     31  N   UNL     1      -3.355  -1.213   9.967  1.00  0.00    -0.354 N 
ATOM     32  N   UNL     1      -4.963  -0.092   7.672  1.00  0.00    -0.248 NA
ATOM     33  C   UNL     1      -7.023   0.587   6.801  1.00  0.00     0.031 C 
ATOM     34  C   UNL     1      -4.411  -1.486  11.897  1.00  0.00     0.029 A 
ATOM     35  C   UNL     1      -4.583  -1.067  10.584  1.00  0.00     0.049 A 
ATOM     36  H   UNL     1      -3.170  -1.009   9.023  1.00  0.00     0.167 HD
ATOM     37  C   UNL     1      -5.915  -0.156   8.675  1.00  0.00     0.074 A 
ATOM     38  C   UNL     1      -7.158   0.313   8.091  1.00  0.00     0.031 C 
ATOM     39  C   UNL     1      -5.785  -0.578   9.956  1.00  0.00     0.037 A 
BRANCH  26  40
ATOM     40  C   UNL     1      -0.120  -2.424  11.640  1.00  0.00     0.064 A 
ATOM     41  C   UNL     1      -0.275  -3.715  12.170  1.00  0.00     0.173 A 
ATOM     42  C   UNL     1       0.889  -1.612  12.175  1.00  0.00     0.173 A 
ATOM     43  F   UNL     1      -1.214  -4.538  11.680  1.00  0.00    -0.203 F 
ATOM     44  C   UNL     1       0.528  -4.163  13.215  1.00  0.00     0.198 A 
ATOM     45  C   UNL     1       1.709  -2.074  13.203  1.00  0.00     0.198 A 
ATOM     46  F   UNL     1       1.103  -0.385  11.678  1.00  0.00    -0.203 F 
ATOM     47  F   UNL     1       0.340  -5.389  13.724  1.00  0.00    -0.200 F 
ATOM     48  C   UNL     1       1.519  -3.343  13.731  1.00  0.00     0.200 A 
ATOM     49  F   UNL     1       2.690  -1.294  13.678  1.00  0.00    -0.200 F 
ATOM     50  F   UNL     1       2.296  -3.778  14.732  1.00  0.00    -0.200 F 
ENDBRANCH  26  40
BRANCH  27  51
ATOM     51  C   UNL     1      -5.898   1.102   4.117  1.00  0.00     0.064 A 
ATOM     52  C   UNL     1      -6.177   0.333   2.974  1.00  0.00     0.173 A 
ATOM     53  C   UNL     1      -6.453   2.387   4.177  1.00  0.00     0.173 A 
ATOM     54  F   UNL     1      -5.676  -0.906   2.854  1.00  0.00    -0.203 F 
ATOM     55  C   UNL     1      -6.955   0.835   1.932  1.00  0.00     0.198 A 
ATOM     56  C   UNL     1      -7.266   2.873   3.153  1.00  0.00     0.198 A 
ATOM     57  F   UNL     1      -6.234   3.161   5.250  1.00  0.00    -0.203 F 
ATOM     58  F   UNL     1      -7.166   0.091   0.837  1.00  0.00    -0.200 F 
ATOM     59  C   UNL     1      -7.510   2.100   2.028  1.00  0.00     0.200 A 
ATOM     60  F   UNL     1      -7.825   4.085   3.264  1.00  0.00    -0.200 F 
ATOM     61  F   UNL     1      -8.285   2.571   1.042  1.00  0.00    -0.200 F 
ENDBRANCH  27  51
BRANCH  39  62
ATOM     62  C   UNL     1      -7.013  -0.514  10.809  1.00  0.00     0.064 A 
ATOM     63  C   UNL     1      -7.088   0.409  11.863  1.00  0.00     0.173 A 
ATOM     64  C   UNL     1      -8.077  -1.407  10.627  1.00  0.00     0.173 A 
ATOM     65  F   UNL     1      -6.087   1.275  12.078  1.00  0.00    -0.203 F 
ATOM     66  C   UNL     1      -8.183   0.421  12.718  1.00  0.00     0.198 A 
ATOM     67  C   UNL     1      -9.188  -1.364  11.461  1.00  0.00     0.198 A 
ATOM     68  F   UNL     1      -8.052  -2.293   9.620  1.00  0.00    -0.203 F 
ATOM     69  F   UNL     1      -8.216   1.280  13.746  1.00  0.00    -0.200 F 
ATOM     70  C   UNL     1      -9.234  -0.460  12.513  1.00  0.00     0.200 A 
ATOM     71  F   UNL     1     -10.217  -2.193  11.243  1.00  0.00    -0.200 F 
ATOM     72  F   UNL     1     -10.297  -0.435  13.328  1.00  0.00    -0.200 F 
ENDBRANCH  39  62
ENDBRANCH  13  14
ENDBRANCH   6   8
ENDBRANCH   5   6
ENDBRANCH   4   5
ENDBRANCH   3   4
ENDBRANCH   2   3
ENDBRANCH   1   2
BRANCH   1  73
ATOM     73  C   UNL     1       3.670   1.510  -0.613  1.00  0.00     0.261 C 
BRANCH  73  74
ATOM     74  O   UNL     1       4.448   2.641  -0.201  1.00  0.00    -0.463 OA
BRANCH  74  75
ATOM     75  C   UNL     1       3.847   3.398   0.760  1.00  0.00     0.310 C 
ATOM     76  O   UNL     1       2.705   3.253   1.156  1.00  0.00    -0.252 OA
BRANCH  75  77
ATOM     77  C   UNL     1       4.726   4.514   1.251  1.00  0.00     0.115 C 
ATOM     78  C   UNL     1       4.307   5.154   2.567  1.00  0.00     0.043 C 
ATOM     79  C   UNL     1       6.215   4.361   1.055  1.00  0.00     0.097 C 
ATOM     80  C   UNL     1       5.051   4.658   3.750  1.00  0.00    -0.030 C 
ATOM     81  C   UNL     1       6.928   3.811   2.325  1.00  0.00     0.041 C 
ATOM     82  C   UNL     1       6.229   4.039   3.640  1.00  0.00    -0.030 C 
BRANCH  79  83
ATOM     83  C   UNL     1       6.800   5.659   0.479  1.00  0.00     0.224 C 
ATOM     84  O   UNL     1       7.944   6.011   0.787  1.00  0.00    -0.275 OA
ATOM     85  N   UNL     1       6.215   6.352  -0.557  1.00  0.00    -0.344 N 
ATOM     86  H   UNL     1       6.862   6.519  -1.281  1.00  0.00     0.164 HD
BRANCH  85  87
ATOM     87  C   UNL     1       4.845   6.935  -0.900  1.00  0.00     0.172 C 
ATOM     88  C   UNL     1       4.657   8.228  -0.102  1.00  0.00     0.037 C 
ATOM     89  C   UNL     1       3.490   6.088  -1.123  1.00  0.00     0.249 C 
ATOM     90  C   UNL     1       3.232   8.733  -0.213  1.00  0.00     0.025 C 
ATOM     91  N   UNL     1       2.373   6.434  -0.314  1.00  0.00    -0.308 N 
ATOM     92  O   UNL     1       3.518   5.113  -1.877  1.00  0.00    -0.272 OA
ATOM     93  C   UNL     1       2.336   7.693   0.425  1.00  0.00     0.126 C 
BRANCH  91  94
ATOM     94  C   UNL     1       1.283   5.507  -0.051  1.00  0.00     0.080 A 
ATOM     95  C   UNL     1       0.784   4.652  -1.040  1.00  0.00     0.029 A 
ATOM     96  C   UNL     1       0.735   5.362   1.248  1.00  0.00     0.146 A 
ATOM     97  C   UNL     1      -0.169   3.663  -0.734  1.00  0.00     0.002 A 
ATOM     98  C   UNL     1      -0.167   4.341   1.569  1.00  0.00     0.041 A 
ATOM     99  F   UNL     1       1.160   6.126   2.268  1.00  0.00    -0.205 F 
ATOM    100  C   UNL     1      -0.615   3.481   0.575  1.00  0.00     0.003 A 
ENDBRANCH  91  94
ENDBRANCH  85  87
ENDBRANCH  79  83
ENDBRANCH  75  77
ENDBRANCH  74  75
ENDBRANCH  73  74
ENDBRANCH   1  73
TORSDOF 17
