REMARK SMILES Cc1cc(/C=C2\C(=O)N(Cc3ccco3)C(=O)N=C2OCCOCCOC(=O)c2ccc(-c3c4nc(c(-c5c(F)c(F)c(F)c(F)c5F)c5ccc([nH]5)c(-c5c(F)c(F)c(F)c(F)c5F)c5nc(c(-c6c(F)c(F)c(F)c(F)c6F)c6ccc3[nH]6)C=C5)C=C4)cc2)c(C)n1-c1ccc(Cl)c(C(=O)[O-])c1
REMARK SMILES IDX 23 1 22 2 21 3 20 4 19 5 5 6 6 7 7 8 8 9 9 10 18 11 16 12
REMARK SMILES IDX 17 13 4 14 1 15 2 16 3 17 94 18 92 19 93 20 95 21 96 22
REMARK SMILES IDX 104 23 97 24 100 25 98 26 99 27 101 28 102 29 103 30 10 31
REMARK SMILES IDX 11 32 12 33 15 34 13 35 14 36 24 37 25 38 26 39 27 40 28 41
REMARK SMILES IDX 29 42 30 43 91 44 31 45 90 46 32 47 33 48 34 49 84 50 35 51
REMARK SMILES IDX 89 52 83 53 85 54 36 55 88 56 82 57 81 58 37 60 69 61 49 62
REMARK SMILES IDX 68 63 50 64 53 65 67 66 86 67 51 68 52 69 66 71 87 72 54 73
REMARK SMILES IDX 38 74 39 75 47 76 40 77 41 78 45 79 48 80 42 81 43 82 46 83
REMARK SMILES IDX 44 84 70 85 71 86 79 87 72 88 73 89 77 90 80 91 74 92 75 93
REMARK SMILES IDX 78 94 76 95 55 96 56 97 64 98 57 99 58 100 62 101 65 102
REMARK SMILES IDX 59 103 60 104 63 105 61 106
REMARK H PARENT 85 59 53 70
REMARK Flexibility Score: inf
ROOT
ATOM      1  O   UNL     1      -0.873  -8.828   0.765  1.00  0.00    -0.374 OA
ENDROOT
BRANCH   1   2
ATOM      2  C   UNL     1       0.470  -9.314   0.774  1.00  0.00     0.202 C 
BRANCH   2   3
ATOM      3  C   UNL     1       1.291  -8.966  -0.481  1.00  0.00     0.260 C 
BRANCH   3   4
ATOM      4  O   UNL     1       1.251  -7.561  -0.818  1.00  0.00    -0.475 OA
BRANCH   4   5
ATOM      5  C   UNL     1       0.318  -7.184  -1.730  1.00  0.00     0.231 C 
ATOM      6  C   UNL     1       0.572  -4.828  -1.027  1.00  0.00     0.029 C 
ATOM      7  C   UNL     1       0.269  -5.736  -1.979  1.00  0.00     0.103 C 
ATOM      8  C   UNL     1      -0.335  -5.422  -3.291  1.00  0.00     0.267 C 
ATOM      9  O   UNL     1       0.055  -4.495  -3.993  1.00  0.00    -0.268 OA
ATOM     10  N   UNL     1      -1.383  -6.269  -3.592  1.00  0.00    -0.250 N 
ATOM     11  N   UNL     1      -0.450  -8.034  -2.314  1.00  0.00    -0.156 NA
ATOM     12  C   UNL     1      -1.458  -7.569  -3.114  1.00  0.00     0.354 C 
ATOM     13  O   UNL     1      -2.413  -8.292  -3.385  1.00  0.00    -0.245 OA
BRANCH   6  14
ATOM     14  C   UNL     1       0.358  -3.404  -0.982  1.00  0.00    -0.003 A 
ATOM     15  C   UNL     1       1.200   0.046   0.167  1.00  0.00     0.065 C 
ATOM     16  C   UNL     1       0.699  -1.218  -0.447  1.00  0.00     0.020 A 
ATOM     17  C   UNL     1       1.202  -2.498  -0.290  1.00  0.00     0.031 A 
ATOM     18  N   UNL     1      -0.446  -1.309  -1.219  1.00  0.00    -0.318 N 
ATOM     19  C   UNL     1      -0.715  -2.660  -1.460  1.00  0.00     0.027 A 
ATOM     20  C   UNL     1      -1.920  -3.084  -2.225  1.00  0.00     0.065 C 
BRANCH  18  21
ATOM     21  C   UNL     1      -1.190  -0.227  -1.766  1.00  0.00     0.046 A 
ATOM     22  C   UNL     1      -2.562  -0.135  -1.532  1.00  0.00     0.028 A 
ATOM     23  C   UNL     1      -0.572   0.637  -2.678  1.00  0.00     0.038 A 
ATOM     24  C   UNL     1      -3.332   0.755  -2.277  1.00  0.00     0.023 A 
ATOM     25  C   UNL     1      -1.342   1.558  -3.422  1.00  0.00     0.018 A 
ATOM     26  C   UNL     1      -2.734   1.588  -3.233  1.00  0.00     0.050 A 
ATOM     27  Cl  UNL     1      -3.818   2.588  -4.135  1.00  0.00    -0.084 Cl
BRANCH  25  28
ATOM     28  C   UNL     1      -0.668   2.444  -4.414  1.00  0.00     0.073 C 
ATOM     29  O   UNL     1      -1.174   3.228  -5.192  1.00  0.00    -0.545 OA
ATOM     30  O   UNL     1       0.673   2.321  -4.378  1.00  0.00    -0.545 OA
ENDBRANCH  25  28
ENDBRANCH  18  21
ENDBRANCH   6  14
BRANCH  10  31
ATOM     31  C   UNL     1      -2.481  -5.770  -4.399  1.00  0.00     0.206 C 
BRANCH  31  32
ATOM     32  C   UNL     1      -2.346  -6.144  -5.821  1.00  0.00     0.123 A 
ATOM     33  C   UNL     1      -2.608  -7.298  -6.527  1.00  0.00     0.047 A 
ATOM     34  O   UNL     1      -1.949  -5.154  -6.669  1.00  0.00    -0.467 OA
ATOM     35  C   UNL     1      -2.344  -6.998  -7.884  1.00  0.00     0.042 A 
ATOM     36  C   UNL     1      -1.946  -5.682  -7.917  1.00  0.00     0.195 A 
ENDBRANCH  31  32
ENDBRANCH  10  31
ENDBRANCH   4   5
ENDBRANCH   3   4
ENDBRANCH   2   3
ENDBRANCH   1   2
BRANCH   1  37
ATOM     37  C   UNL     1      -1.054  -7.527   1.349  1.00  0.00     0.202 C 
BRANCH  37  38
ATOM     38  C   UNL     1      -1.356  -7.552   2.866  1.00  0.00     0.261 C 
BRANCH  38  39
ATOM     39  O   UNL     1      -0.441  -6.749   3.696  1.00  0.00    -0.460 OA
BRANCH  39  40
ATOM     40  C   UNL     1       0.001  -7.340   4.850  1.00  0.00     0.338 C 
ATOM     41  O   UNL     1      -0.119  -8.533   5.099  1.00  0.00    -0.246 OA
BRANCH  40  42
ATOM     42  C   UNL     1       0.727  -6.436   5.831  1.00  0.00     0.060 A 
ATOM     43  C   UNL     1       2.076  -6.671   6.054  1.00  0.00     0.016 A 
ATOM     44  C   UNL     1       0.093  -5.584   6.760  1.00  0.00     0.016 A 
ATOM     45  C   UNL     1       2.755  -6.069   7.156  1.00  0.00     0.010 A 
ATOM     46  C   UNL     1       0.778  -5.033   7.930  1.00  0.00     0.010 A 
ATOM     47  C   UNL     1       2.135  -5.286   8.194  1.00  0.00    -0.014 A 
BRANCH  47  48
ATOM     48  C   UNL     1       2.901  -5.233   9.601  1.00  0.00     0.031 A 
ATOM     49  C   UNL     1       3.463  -6.608   9.757  1.00  0.00     0.074 A 
ATOM     50  C   UNL     1       3.158  -4.434  10.715  1.00  0.00     0.049 A 
ATOM     51  N   UNL     1       2.706  -7.671   9.712  1.00  0.00    -0.248 NA
ATOM     52  C   UNL     1       4.899  -6.863   9.611  1.00  0.00     0.031 C 
ATOM     53  C   UNL     1       2.678  -3.074  11.000  1.00  0.00     0.029 A 
ATOM     54  N   UNL     1       3.946  -4.665  11.892  1.00  0.00    -0.354 N 
ATOM     55  C   UNL     1       3.566  -8.730   9.847  1.00  0.00     0.074 A 
ATOM     56  C   UNL     1       4.880  -8.195   9.532  1.00  0.00     0.031 C 
ATOM     57  C   UNL     1       3.225  -2.576  12.149  1.00  0.00     0.029 A 
ATOM     58  C   UNL     1       4.088  -3.562  12.799  1.00  0.00     0.049 A 
ATOM     59  H   UNL     1       4.368  -5.537  12.069  1.00  0.00     0.167 HD
ATOM     60  C   UNL     1       3.236  -9.695  10.748  1.00  0.00     0.037 A 
ATOM     61  C   UNL     1       4.768  -3.443  14.005  1.00  0.00     0.037 A 
ATOM     62  C   UNL     1       4.120  -9.739  11.876  1.00  0.00     0.049 A 
ATOM     63  C   UNL     1       5.058  -4.785  14.536  1.00  0.00     0.074 A 
ATOM     64  C   UNL     1       5.486  -9.619  12.035  1.00  0.00     0.029 A 
ATOM     65  N   UNL     1       3.567  -9.452  13.107  1.00  0.00    -0.354 N 
ATOM     66  N   UNL     1       4.162  -5.453  15.194  1.00  0.00    -0.248 NA
ATOM     67  C   UNL     1       6.393  -5.378  14.536  1.00  0.00     0.031 C 
ATOM     68  C   UNL     1       5.638  -8.728  13.126  1.00  0.00     0.029 A 
ATOM     69  C   UNL     1       4.409  -8.583  13.761  1.00  0.00     0.049 A 
ATOM     70  H   UNL     1       2.718  -9.806  13.456  1.00  0.00     0.167 HD
ATOM     71  C   UNL     1       4.660  -6.712  15.210  1.00  0.00     0.074 A 
ATOM     72  C   UNL     1       6.095  -6.557  15.090  1.00  0.00     0.031 C 
ATOM     73  C   UNL     1       3.841  -7.670  14.717  1.00  0.00     0.037 A 
BRANCH  60  74
ATOM     74  C   UNL     1       1.774 -10.012  10.831  1.00  0.00     0.064 A 
ATOM     75  C   UNL     1       1.319 -11.257  10.390  1.00  0.00     0.173 A 
ATOM     76  C   UNL     1       0.810  -9.079  11.263  1.00  0.00     0.173 A 
ATOM     77  F   UNL     1       2.198 -12.210  10.045  1.00  0.00    -0.203 F 
ATOM     78  C   UNL     1      -0.045 -11.531  10.315  1.00  0.00     0.198 A 
ATOM     79  C   UNL     1      -0.549  -9.332  11.128  1.00  0.00     0.198 A 
ATOM     80  F   UNL     1       1.184  -7.930  11.849  1.00  0.00    -0.203 F 
ATOM     81  F   UNL     1      -0.460 -12.743   9.921  1.00  0.00    -0.200 F 
ATOM     82  C   UNL     1      -0.977 -10.557  10.647  1.00  0.00     0.200 A 
ATOM     83  F   UNL     1      -1.440  -8.395  11.481  1.00  0.00    -0.200 F 
ATOM     84  F   UNL     1      -2.288 -10.811  10.534  1.00  0.00    -0.200 F 
ENDBRANCH  60  74
BRANCH  61  85
ATOM     85  C   UNL     1       5.195  -2.420  15.081  1.00  0.00     0.064 A 
ATOM     86  C   UNL     1       5.121  -2.757  16.474  1.00  0.00     0.173 A 
ATOM     87  C   UNL     1       6.102  -1.392  14.793  1.00  0.00     0.173 A 
ATOM     88  F   UNL     1       4.246  -3.669  16.920  1.00  0.00    -0.203 F 
ATOM     89  C   UNL     1       5.986  -2.235  17.448  1.00  0.00     0.198 A 
ATOM     90  C   UNL     1       6.929  -0.819  15.790  1.00  0.00     0.198 A 
ATOM     91  F   UNL     1       6.281  -0.996  13.526  1.00  0.00    -0.203 F 
ATOM     92  F   UNL     1       5.970  -2.723  18.699  1.00  0.00    -0.200 F 
ATOM     93  C   UNL     1       6.904  -1.273  17.101  1.00  0.00     0.200 A 
ATOM     94  F   UNL     1       7.817   0.129  15.457  1.00  0.00    -0.200 F 
ATOM     95  F   UNL     1       7.775  -0.808  18.011  1.00  0.00    -0.200 F 
ENDBRANCH  61  85
BRANCH  73  96
ATOM     96  C   UNL     1       2.355  -7.503  15.024  1.00  0.00     0.064 A 
ATOM     97  C   UNL     1       1.572  -6.341  14.801  1.00  0.00     0.173 A 
ATOM     98  C   UNL     1       1.706  -8.556  15.680  1.00  0.00     0.173 A 
ATOM     99  F   UNL     1       2.017  -5.319  14.059  1.00  0.00    -0.203 F 
ATOM    100  C   UNL     1       0.281  -6.205  15.318  1.00  0.00     0.198 A 
ATOM    101  C   UNL     1       0.392  -8.442  16.138  1.00  0.00     0.198 A 
ATOM    102  F   UNL     1       2.346  -9.720  15.863  1.00  0.00    -0.203 F 
ATOM    103  F   UNL     1      -0.389  -5.053  15.163  1.00  0.00    -0.200 F 
ATOM    104  C   UNL     1      -0.308  -7.257  15.989  1.00  0.00     0.200 A 
ATOM    105  F   UNL     1      -0.195  -9.492  16.728  1.00  0.00    -0.200 F 
ATOM    106  F   UNL     1      -1.554  -7.141  16.469  1.00  0.00    -0.200 F 
ENDBRANCH  73  96
ENDBRANCH  47  48
ENDBRANCH  40  42
ENDBRANCH  39  40
ENDBRANCH  38  39
ENDBRANCH  37  38
ENDBRANCH   1  37
TORSDOF 18
