REMARK SMILES CC[N@H+]([C@@H]1CSCC(C)(C)C1)[C@@H]1COC[C@@H]1C(=O)OCCOCCOC(=O)c1ccc(-c2c3nc(c(-c4c(F)c(F)c(F)c(F)c4F)c4ccc([nH]4)c(-c4c(F)c(F)c(F)c(F)c4F)c4nc(c(-c5c(F)c(F)c(F)c(F)c5F)c5ccc2[nH]5)C=C4)C=C3)cc1
REMARK SMILES IDX 22 1 21 2 20 3 19 4 17 5 18 6 16 7 12 8 13 9 14 10 15 11
REMARK SMILES IDX 3 12 2 14 1 15 4 16 5 17 11 18 6 19 8 20 7 21 9 22 10 23
REMARK SMILES IDX 23 24 24 25 25 26 26 27 27 28 28 29 29 30 90 31 30 32 89 33
REMARK SMILES IDX 31 34 32 35 33 36 83 37 34 38 88 39 82 40 84 41 35 42 87 43
REMARK SMILES IDX 81 44 80 45 36 47 68 48 48 49 67 50 49 51 52 52 66 53 85 54
REMARK SMILES IDX 50 55 51 56 65 58 86 59 53 60 37 61 38 62 46 63 39 64 40 65
REMARK SMILES IDX 44 66 47 67 41 68 42 69 45 70 43 71 69 72 70 73 78 74 71 75
REMARK SMILES IDX 72 76 76 77 79 78 73 79 74 80 77 81 75 82 54 83 55 84 63 85
REMARK SMILES IDX 56 86 57 87 61 88 64 89 58 90 59 91 62 92 60 93
REMARK H PARENT 3 13 84 46 52 57
REMARK Flexibility Score: inf
ROOT
ATOM      1  O   UNL     1       0.290  -0.029   2.718  1.00  0.00    -0.374 OA
ENDROOT
BRANCH   1   2
ATOM      2  C   UNL     1       0.200   1.264   2.112  1.00  0.00     0.202 C 
BRANCH   2   3
ATOM      3  C   UNL     1       1.538   1.988   1.840  1.00  0.00     0.261 C 
BRANCH   3   4
ATOM      4  O   UNL     1       1.944   1.994   0.441  1.00  0.00    -0.463 OA
BRANCH   4   5
ATOM      5  C   UNL     1       2.988   1.198   0.076  1.00  0.00     0.317 C 
ATOM      6  O   UNL     1       3.533   0.436   0.866  1.00  0.00    -0.252 OA
BRANCH   5   7
ATOM      7  C   UNL     1       3.461   1.436  -1.376  1.00  0.00     0.185 C 
ATOM      8  C   UNL     1       2.778   0.733  -2.579  1.00  0.00     0.227 C 
ATOM      9  C   UNL     1       3.222  -0.712  -2.306  1.00  0.00     0.226 C 
ATOM     10  O   UNL     1       4.593  -0.616  -1.878  1.00  0.00    -0.374 OA
ATOM     11  C   UNL     1       4.835   0.754  -1.489  1.00  0.00     0.182 C 
BRANCH   8  12
ATOM     12  N   UNL     1       1.384   1.025  -2.923  1.00  0.00    -0.327 N 
ATOM     13  H   UNL     1       1.411   1.833  -2.301  1.00  0.00     0.348 HD
BRANCH  12  14
ATOM     14  C   UNL     1       0.394   0.049  -2.511  1.00  0.00     0.259 C 
ATOM     15  C   UNL     1       0.025   0.484  -1.143  1.00  0.00     0.071 C 
ENDBRANCH  12  14
BRANCH  12  16
ATOM     16  C   UNL     1       0.966   1.673  -4.182  1.00  0.00     0.194 C 
ATOM     17  C   UNL     1       1.987   2.396  -5.077  1.00  0.00     0.134 C 
ATOM     18  C   UNL     1      -0.259   2.608  -3.915  1.00  0.00     0.073 C 
ATOM     19  S   UNL     1       2.595   3.968  -4.407  1.00  0.00    -0.155 SA
ATOM     20  C   UNL     1       0.015   3.999  -3.279  1.00  0.00    -0.021 C 
ATOM     21  C   UNL     1       0.988   4.797  -4.162  1.00  0.00     0.076 C 
ATOM     22  C   UNL     1       0.539   3.954  -1.834  1.00  0.00     0.012 C 
ATOM     23  C   UNL     1      -1.338   4.737  -3.202  1.00  0.00     0.012 C 
ENDBRANCH  12  16
ENDBRANCH   8  12
ENDBRANCH   5   7
ENDBRANCH   4   5
ENDBRANCH   3   4
ENDBRANCH   2   3
ENDBRANCH   1   2
BRANCH   1  24
ATOM     24  C   UNL     1       0.517  -1.149   1.871  1.00  0.00     0.202 C 
BRANCH  24  25
ATOM     25  C   UNL     1      -0.743  -1.857   1.302  1.00  0.00     0.261 C 
BRANCH  25  26
ATOM     26  O   UNL     1      -1.637  -1.045   0.503  1.00  0.00    -0.460 OA
BRANCH  26  27
ATOM     27  C   UNL     1      -2.630  -0.385   1.142  1.00  0.00     0.338 C 
ATOM     28  O   UNL     1      -2.912  -0.518   2.325  1.00  0.00    -0.246 OA
BRANCH  27  29
ATOM     29  C   UNL     1      -3.297   0.663   0.289  1.00  0.00     0.060 A 
ATOM     30  C   UNL     1      -3.699   1.832   0.946  1.00  0.00     0.016 A 
ATOM     31  C   UNL     1      -3.582   0.548  -1.081  1.00  0.00     0.016 A 
ATOM     32  C   UNL     1      -4.450   2.821   0.291  1.00  0.00     0.010 A 
ATOM     33  C   UNL     1      -4.315   1.562  -1.750  1.00  0.00     0.010 A 
ATOM     34  C   UNL     1      -4.815   2.684  -1.055  1.00  0.00    -0.014 A 
BRANCH  34  35
ATOM     35  C   UNL     1      -5.862   3.607  -1.627  1.00  0.00     0.031 A 
ATOM     36  C   UNL     1      -7.260   3.078  -1.882  1.00  0.00     0.074 A 
ATOM     37  C   UNL     1      -5.659   4.930  -1.815  1.00  0.00     0.049 A 
ATOM     38  N   UNL     1      -8.338   3.715  -2.277  1.00  0.00    -0.248 NA
ATOM     39  C   UNL     1      -7.473   1.644  -1.642  1.00  0.00     0.031 C 
ATOM     40  C   UNL     1      -4.413   5.644  -1.560  1.00  0.00     0.029 A 
ATOM     41  N   UNL     1      -6.518   5.918  -2.259  1.00  0.00    -0.354 N 
ATOM     42  C   UNL     1      -9.352   2.766  -2.319  1.00  0.00     0.074 A 
ATOM     43  C   UNL     1      -8.749   1.498  -1.966  1.00  0.00     0.031 C 
ATOM     44  C   UNL     1      -4.576   6.943  -1.868  1.00  0.00     0.029 A 
ATOM     45  C   UNL     1      -5.942   7.165  -2.344  1.00  0.00     0.049 A 
ATOM     46  H   UNL     1      -7.458   5.745  -2.494  1.00  0.00     0.167 HD
ATOM     47  C   UNL     1     -10.672   2.922  -2.592  1.00  0.00     0.037 A 
ATOM     48  C   UNL     1      -6.443   8.353  -2.751  1.00  0.00     0.037 A 
ATOM     49  C   UNL     1     -11.316   4.165  -2.930  1.00  0.00     0.049 A 
ATOM     50  C   UNL     1      -7.893   8.483  -3.155  1.00  0.00     0.074 A 
ATOM     51  C   UNL     1     -12.660   4.394  -3.184  1.00  0.00     0.029 A 
ATOM     52  N   UNL     1     -10.674   5.383  -3.071  1.00  0.00    -0.354 N 
ATOM     53  N   UNL     1      -8.844   7.584  -3.139  1.00  0.00    -0.248 NA
ATOM     54  C   UNL     1      -8.342   9.809  -3.620  1.00  0.00     0.031 C 
ATOM     55  C   UNL     1     -12.820   5.736  -3.542  1.00  0.00     0.029 A 
ATOM     56  C   UNL     1     -11.588   6.358  -3.448  1.00  0.00     0.049 A 
ATOM     57  H   UNL     1      -9.713   5.535  -2.927  1.00  0.00     0.167 HD
ATOM     58  C   UNL     1     -10.002   8.240  -3.546  1.00  0.00     0.074 A 
ATOM     59  C   UNL     1      -9.641   9.616  -3.797  1.00  0.00     0.031 C 
ATOM     60  C   UNL     1     -11.252   7.737  -3.689  1.00  0.00     0.037 A 
BRANCH  47  61
ATOM     61  C   UNL     1     -11.533   1.692  -2.548  1.00  0.00     0.064 A 
ATOM     62  C   UNL     1     -11.864   1.067  -1.336  1.00  0.00     0.173 A 
ATOM     63  C   UNL     1     -12.075   1.164  -3.730  1.00  0.00     0.173 A 
ATOM     64  F   UNL     1     -11.365   1.530  -0.180  1.00  0.00    -0.203 F 
ATOM     65  C   UNL     1     -12.682  -0.059  -1.312  1.00  0.00     0.198 A 
ATOM     66  C   UNL     1     -12.918   0.058  -3.699  1.00  0.00     0.198 A 
ATOM     67  F   UNL     1     -11.799   1.732  -4.913  1.00  0.00    -0.203 F 
ATOM     68  F   UNL     1     -12.945  -0.669  -0.149  1.00  0.00    -0.200 F 
ATOM     69  C   UNL     1     -13.214  -0.558  -2.492  1.00  0.00     0.200 A 
ATOM     70  F   UNL     1     -13.445  -0.413  -4.838  1.00  0.00    -0.200 F 
ATOM     71  F   UNL     1     -14.007  -1.638  -2.467  1.00  0.00    -0.200 F 
ENDBRANCH  47  61
BRANCH  48  72
ATOM     72  C   UNL     1      -5.562   9.554  -2.811  1.00  0.00     0.064 A 
ATOM     73  C   UNL     1      -5.763  10.651  -1.961  1.00  0.00     0.173 A 
ATOM     74  C   UNL     1      -4.546   9.655  -3.773  1.00  0.00     0.173 A 
ATOM     75  F   UNL     1      -6.747  10.621  -1.050  1.00  0.00    -0.203 F 
ATOM     76  C   UNL     1      -5.000  11.812  -2.087  1.00  0.00     0.198 A 
ATOM     77  C   UNL     1      -3.764  10.803  -3.879  1.00  0.00     0.198 A 
ATOM     78  F   UNL     1      -4.320   8.640  -4.620  1.00  0.00    -0.203 F 
ATOM     79  F   UNL     1      -5.256  12.869  -1.305  1.00  0.00    -0.200 F 
ATOM     80  C   UNL     1      -3.999  11.885  -3.044  1.00  0.00     0.200 A 
ATOM     81  F   UNL     1      -2.795  10.868  -4.802  1.00  0.00    -0.200 F 
ATOM     82  F   UNL     1      -3.271  13.002  -3.171  1.00  0.00    -0.200 F 
ENDBRANCH  48  72
BRANCH  60  83
ATOM     83  C   UNL     1     -12.356   8.677  -4.098  1.00  0.00     0.064 A 
ATOM     84  C   UNL     1     -12.428   9.221  -5.389  1.00  0.00     0.173 A 
ATOM     85  C   UNL     1     -13.387   8.996  -3.199  1.00  0.00     0.173 A 
ATOM     86  F   UNL     1     -11.465   8.961  -6.286  1.00  0.00    -0.203 F 
ATOM     87  C   UNL     1     -13.475  10.065  -5.757  1.00  0.00     0.198 A 
ATOM     88  C   UNL     1     -14.449   9.815  -3.580  1.00  0.00     0.198 A 
ATOM     89  F   UNL     1     -13.377   8.499  -1.953  1.00  0.00    -0.203 F 
ATOM     90  F   UNL     1     -13.497  10.607  -6.983  1.00  0.00    -0.200 F 
ATOM     91  C   UNL     1     -14.488  10.354  -4.856  1.00  0.00     0.200 A 
ATOM     92  F   UNL     1     -15.435  10.079  -2.711  1.00  0.00    -0.200 F 
ATOM     93  F   UNL     1     -15.500  11.157  -5.215  1.00  0.00    -0.200 F 
ENDBRANCH  60  83
ENDBRANCH  34  35
ENDBRANCH  27  29
ENDBRANCH  26  27
ENDBRANCH  25  26
ENDBRANCH  24  25
ENDBRANCH   1  24
TORSDOF 17
