REMARK SMILES COC(=O)c1ccccc1-c1ccc(/C=C(\C#N)C(=O)OCCOCCOC(=O)c2ccc(-c3c4nc(c(-c5c(F)c(F)c(F)c(F)c5F)c5ccc([nH]5)c(-c5c(F)c(F)c(F)c(F)c5F)c5nc(c(-c6c(F)c(F)c(F)c(F)c6F)c6ccc3[nH]6)C=C5)C=C4)cc2)o1
REMARK SMILES IDX 23 1 22 2 21 3 19 4 20 5 16 6 15 7 14 8 11 9 12 10 93 11
REMARK SMILES IDX 13 12 10 13 5 14 6 15 7 16 9 17 8 18 3 19 4 20 2 21 1 22
REMARK SMILES IDX 17 23 18 24 24 25 25 26 26 27 27 28 28 29 29 30 30 31 31 32
REMARK SMILES IDX 92 33 32 34 91 35 33 36 34 37 35 38 85 39 36 40 90 41 84 42
REMARK SMILES IDX 86 43 37 44 89 45 83 46 82 47 38 49 70 50 50 51 69 52 51 53
REMARK SMILES IDX 54 54 68 55 87 56 52 57 53 58 67 60 88 61 55 62 39 63 40 64
REMARK SMILES IDX 48 65 41 66 42 67 46 68 49 69 43 70 44 71 47 72 45 73 71 74
REMARK SMILES IDX 72 75 80 76 73 77 74 78 78 79 81 80 75 81 76 82 79 83 77 84
REMARK SMILES IDX 56 85 57 86 65 87 58 88 59 89 63 90 66 91 60 92 61 93 64 94
REMARK SMILES IDX 62 95
REMARK H PARENT 86 48 54 59
REMARK Flexibility Score: inf
ROOT
ATOM      1  C   UNL     1      -5.074   3.553  -6.757  1.00  0.00     0.202 C 
ENDROOT
BRANCH   1   2
ATOM      2  C   UNL     1      -5.625   4.161  -5.465  1.00  0.00     0.261 C 
BRANCH   2   3
ATOM      3  O   UNL     1      -4.617   4.244  -4.444  1.00  0.00    -0.459 OA
BRANCH   3   4
ATOM      4  C   UNL     1      -4.838   3.419  -3.395  1.00  0.00     0.349 C 
ATOM      5  O   UNL     1      -5.848   2.752  -3.211  1.00  0.00    -0.245 OA
BRANCH   4   6
ATOM      6  C   UNL     1      -3.644   3.302  -2.536  1.00  0.00     0.141 C 
ATOM      7  C   UNL     1      -3.527   2.088  -1.954  1.00  0.00     0.074 C 
BRANCH   7   8
ATOM      8  C   UNL     1      -2.836   1.833  -0.732  1.00  0.00     0.129 A 
ATOM      9  C   UNL     1      -1.657   2.188   1.123  1.00  0.00     0.135 A 
ATOM     10  C   UNL     1      -2.107   0.892   1.205  1.00  0.00     0.051 A 
ATOM     11  O   UNL     1      -2.093   2.756  -0.033  1.00  0.00    -0.457 OA
ATOM     12  C   UNL     1      -2.847   0.662   0.021  1.00  0.00     0.051 A 
BRANCH   9  13
ATOM     13  C   UNL     1      -0.818   3.022   1.969  1.00  0.00     0.032 A 
ATOM     14  C   UNL     1       0.494   2.657   2.326  1.00  0.00     0.071 A 
ATOM     15  C   UNL     1       1.230   3.442   3.229  1.00  0.00     0.016 A 
ATOM     16  C   UNL     1       0.676   4.606   3.761  1.00  0.00     0.001 A 
ATOM     17  C   UNL     1      -1.353   4.206   2.504  1.00  0.00     0.013 A 
ATOM     18  C   UNL     1      -0.613   4.989   3.396  1.00  0.00     0.001 A 
BRANCH  14  19
ATOM     19  C   UNL     1       1.150   1.434   1.814  1.00  0.00     0.338 C 
ATOM     20  O   UNL     1       1.799   0.673   2.518  1.00  0.00    -0.246 OA
BRANCH  19  21
ATOM     21  O   UNL     1       0.955   1.323   0.480  1.00  0.00    -0.465 OA
ATOM     22  C   UNL     1       1.408   0.093  -0.082  1.00  0.00     0.282 C 
ENDBRANCH  19  21
ENDBRANCH  14  19
ENDBRANCH   9  13
ENDBRANCH   7   8
BRANCH   6  23
ATOM     23  C   UNL     1      -3.020   4.544  -1.921  1.00  0.00     0.107 C 
ATOM     24  N   UNL     1      -2.503   5.574  -1.410  1.00  0.00    -0.192 NA
ENDBRANCH   6  23
ENDBRANCH   4   6
ENDBRANCH   3   4
ENDBRANCH   2   3
ENDBRANCH   1   2
BRANCH   1  25
ATOM     25  O   UNL     1      -4.566   2.223  -6.707  1.00  0.00    -0.374 OA
BRANCH  25  26
ATOM     26  C   UNL     1      -3.348   1.968  -6.012  1.00  0.00     0.202 C 
BRANCH  26  27
ATOM     27  C   UNL     1      -2.040   2.547  -6.564  1.00  0.00     0.261 C 
BRANCH  27  28
ATOM     28  O   UNL     1      -2.055   3.978  -6.684  1.00  0.00    -0.460 OA
BRANCH  28  29
ATOM     29  C   UNL     1      -2.002   4.433  -7.959  1.00  0.00     0.338 C 
ATOM     30  O   UNL     1      -1.894   3.770  -8.982  1.00  0.00    -0.246 OA
BRANCH  29  31
ATOM     31  C   UNL     1      -2.287   5.876  -7.993  1.00  0.00     0.060 A 
ATOM     32  C   UNL     1      -3.389   6.303  -8.746  1.00  0.00     0.016 A 
ATOM     33  C   UNL     1      -1.446   6.800  -7.372  1.00  0.00     0.016 A 
ATOM     34  C   UNL     1      -3.639   7.663  -8.905  1.00  0.00     0.010 A 
ATOM     35  C   UNL     1      -1.686   8.165  -7.550  1.00  0.00     0.010 A 
ATOM     36  C   UNL     1      -2.767   8.600  -8.339  1.00  0.00    -0.014 A 
BRANCH  36  37
ATOM     37  C   UNL     1      -2.912  10.032  -8.685  1.00  0.00     0.031 A 
ATOM     38  C   UNL     1      -2.091  10.596  -9.809  1.00  0.00     0.074 A 
ATOM     39  C   UNL     1      -3.783  10.809  -8.022  1.00  0.00     0.049 A 
ATOM     40  N   UNL     1      -2.032  11.823 -10.259  1.00  0.00    -0.248 NA
ATOM     41  C   UNL     1      -1.223   9.648 -10.524  1.00  0.00     0.031 C 
ATOM     42  C   UNL     1      -4.667  10.360  -6.949  1.00  0.00     0.029 A 
ATOM     43  N   UNL     1      -4.061  12.146  -8.154  1.00  0.00    -0.354 N 
ATOM     44  C   UNL     1      -1.125  11.795 -11.309  1.00  0.00     0.074 A 
ATOM     45  C   UNL     1      -0.637  10.436 -11.413  1.00  0.00     0.031 C 
ATOM     46  C   UNL     1      -5.384  11.408  -6.510  1.00  0.00     0.029 A 
ATOM     47  C   UNL     1      -4.984  12.604  -7.248  1.00  0.00     0.049 A 
ATOM     48  H   UNL     1      -3.639  12.721  -8.833  1.00  0.00     0.167 HD
ATOM     49  C   UNL     1      -0.740  12.810 -12.118  1.00  0.00     0.037 A 
ATOM     50  C   UNL     1      -5.433  13.854  -7.027  1.00  0.00     0.037 A 
ATOM     51  C   UNL     1      -1.218  14.162 -12.004  1.00  0.00     0.049 A 
ATOM     52  C   UNL     1      -4.908  14.987  -7.870  1.00  0.00     0.074 A 
ATOM     53  C   UNL     1      -0.907  15.259 -12.788  1.00  0.00     0.029 A 
ATOM     54  N   UNL     1      -2.102  14.604 -11.030  1.00  0.00    -0.354 N 
ATOM     55  N   UNL     1      -4.069  14.950  -8.876  1.00  0.00    -0.248 NA
ATOM     56  C   UNL     1      -5.387  16.336  -7.537  1.00  0.00     0.031 C 
ATOM     57  C   UNL     1      -1.565  16.375 -12.258  1.00  0.00     0.029 A 
ATOM     58  C   UNL     1      -2.320  15.965 -11.171  1.00  0.00     0.049 A 
ATOM     59  H   UNL     1      -2.514  14.034 -10.340  1.00  0.00     0.167 HD
ATOM     60  C   UNL     1      -3.932  16.263  -9.308  1.00  0.00     0.074 A 
ATOM     61  C   UNL     1      -4.787  17.072  -8.463  1.00  0.00     0.031 C 
ATOM     62  C   UNL     1      -3.168  16.755 -10.315  1.00  0.00     0.037 A 
BRANCH  49  63
ATOM     63  C   UNL     1       0.271  12.497 -13.180  1.00  0.00     0.064 A 
ATOM     64  C   UNL     1      -0.067  11.748 -14.317  1.00  0.00     0.173 A 
ATOM     65  C   UNL     1       1.588  12.966 -13.068  1.00  0.00     0.173 A 
ATOM     66  F   UNL     1      -1.310  11.264 -14.463  1.00  0.00    -0.203 F 
ATOM     67  C   UNL     1       0.886  11.456 -15.290  1.00  0.00     0.198 A 
ATOM     68  C   UNL     1       2.531  12.694 -14.055  1.00  0.00     0.198 A 
ATOM     69  F   UNL     1       1.960  13.689 -12.001  1.00  0.00    -0.203 F 
ATOM     70  F   UNL     1       0.554  10.700 -16.346  1.00  0.00    -0.200 F 
ATOM     71  C   UNL     1       2.182  11.934 -15.161  1.00  0.00     0.200 A 
ATOM     72  F   UNL     1       3.781  13.162 -13.933  1.00  0.00    -0.200 F 
ATOM     73  F   UNL     1       3.097  11.653 -16.099  1.00  0.00    -0.200 F 
ENDBRANCH  49  63
BRANCH  50  74
ATOM     74  C   UNL     1      -6.422  14.105  -5.948  1.00  0.00     0.064 A 
ATOM     75  C   UNL     1      -7.742  14.465  -6.249  1.00  0.00     0.173 A 
ATOM     76  C   UNL     1      -6.065  13.995  -4.596  1.00  0.00     0.173 A 
ATOM     77  F   UNL     1      -8.121  14.609  -7.527  1.00  0.00    -0.203 F 
ATOM     78  C   UNL     1      -8.666  14.714  -5.237  1.00  0.00     0.198 A 
ATOM     79  C   UNL     1      -6.997  14.221  -3.586  1.00  0.00     0.198 A 
ATOM     80  F   UNL     1      -4.812  13.659  -4.257  1.00  0.00    -0.203 F 
ATOM     81  F   UNL     1      -9.913  15.092  -5.551  1.00  0.00    -0.200 F 
ATOM     82  C   UNL     1      -8.295  14.586  -3.907  1.00  0.00     0.200 A 
ATOM     83  F   UNL     1      -6.636  14.088  -2.302  1.00  0.00    -0.200 F 
ATOM     84  F   UNL     1      -9.187  14.821  -2.935  1.00  0.00    -0.200 F 
ENDBRANCH  50  74
BRANCH  62  85
ATOM     85  C   UNL     1      -3.229  18.233 -10.565  1.00  0.00     0.064 A 
ATOM     86  C   UNL     1      -2.604  19.146  -9.703  1.00  0.00     0.173 A 
ATOM     87  C   UNL     1      -3.878  18.737 -11.701  1.00  0.00     0.173 A 
ATOM     88  F   UNL     1      -1.986  18.713  -8.594  1.00  0.00    -0.203 F 
ATOM     89  C   UNL     1      -2.643  20.513  -9.961  1.00  0.00     0.198 A 
ATOM     90  C   UNL     1      -3.893  20.103 -11.970  1.00  0.00     0.198 A 
ATOM     91  F   UNL     1      -4.487  17.904 -12.558  1.00  0.00    -0.203 F 
ATOM     92  F   UNL     1      -2.073  21.372  -9.104  1.00  0.00    -0.200 F 
ATOM     93  C   UNL     1      -3.280  20.990 -11.098  1.00  0.00     0.200 A 
ATOM     94  F   UNL     1      -4.499  20.561 -13.074  1.00  0.00    -0.200 F 
ATOM     95  F   UNL     1      -3.308  22.306 -11.349  1.00  0.00    -0.200 F 
ENDBRANCH  62  85
ENDBRANCH  36  37
ENDBRANCH  29  31
ENDBRANCH  28  29
ENDBRANCH  27  28
ENDBRANCH  26  27
ENDBRANCH  25  26
ENDBRANCH   1  25
TORSDOF 19
