REMARK SMILES O=C(OCCOCCOC(=O)c1cc(OCc2ccc(Br)cc2F)cs1)c1ccc(-c2c3nc(c(-c4c(F)c(F)c(F)c(F)c4F)c4ccc([nH]4)c(-c4c(F)c(F)c(F)c(F)c4F)c4nc(c(-c5c(F)c(F)c(F)c(F)c5F)c5ccc2[nH]5)C=C4)C=C3)cc1
REMARK SMILES IDX 7 1 6 2 5 3 4 4 3 5 2 6 1 7 27 8 28 9 89 10 29 11 88 12
REMARK SMILES IDX 30 13 31 14 32 15 82 16 33 17 87 18 81 19 83 20 34 21 86 22
REMARK SMILES IDX 80 23 79 24 35 26 67 27 47 28 66 29 48 30 51 31 65 32 84 33
REMARK SMILES IDX 49 34 50 35 64 37 85 38 52 39 36 40 37 41 45 42 38 43 39 44
REMARK SMILES IDX 43 45 46 46 40 47 41 48 44 49 42 50 68 51 69 52 77 53 70 54
REMARK SMILES IDX 71 55 75 56 78 57 72 58 73 59 76 60 74 61 53 62 54 63 62 64
REMARK SMILES IDX 55 65 56 66 60 67 63 68 57 69 58 70 61 71 59 72 8 73 9 74
REMARK SMILES IDX 10 75 11 76 12 77 13 78 26 79 14 80 25 81 15 82 16 83 17 84
REMARK SMILES IDX 18 85 23 86 19 87 22 88 24 89 20 90 21 91
REMARK H PARENT 83 25 51 36
REMARK Flexibility Score: inf
ROOT
ATOM      1  C   UNL     1       2.726  -2.353   0.626  1.00  0.00     0.202 C 
ENDROOT
BRANCH   1   2
ATOM      2  O   UNL     1       4.034  -1.786   0.768  1.00  0.00    -0.374 OA
BRANCH   2   3
ATOM      3  C   UNL     1       4.166  -0.793   1.787  1.00  0.00     0.202 C 
BRANCH   3   4
ATOM      4  C   UNL     1       3.847   0.626   1.312  1.00  0.00     0.261 C 
BRANCH   4   5
ATOM      5  O   UNL     1       2.479   0.701   0.870  1.00  0.00    -0.460 OA
BRANCH   5   6
ATOM      6  C   UNL     1       1.995   0.882  -0.379  1.00  0.00     0.338 C 
ATOM      7  O   UNL     1       0.790   1.085  -0.516  1.00  0.00    -0.246 OA
BRANCH   6   8
ATOM      8  C   UNL     1       2.834   0.833  -1.617  1.00  0.00     0.060 A 
ATOM      9  C   UNL     1       4.043   0.146  -1.746  1.00  0.00     0.016 A 
ATOM     10  C   UNL     1       2.300   1.443  -2.768  1.00  0.00     0.016 A 
ATOM     11  C   UNL     1       4.739   0.124  -2.953  1.00  0.00     0.010 A 
ATOM     12  C   UNL     1       2.967   1.383  -3.996  1.00  0.00     0.010 A 
ATOM     13  C   UNL     1       4.203   0.736  -4.085  1.00  0.00    -0.014 A 
BRANCH  13  14
ATOM     14  C   UNL     1       4.981   0.723  -5.340  1.00  0.00     0.031 A 
ATOM     15  C   UNL     1       5.706   1.962  -5.761  1.00  0.00     0.074 A 
ATOM     16  C   UNL     1       5.096  -0.422  -6.037  1.00  0.00     0.049 A 
ATOM     17  N   UNL     1       6.442   2.173  -6.820  1.00  0.00    -0.248 NA
ATOM     18  C   UNL     1       5.597   3.121  -4.860  1.00  0.00     0.031 C 
ATOM     19  C   UNL     1       4.484  -1.698  -5.663  1.00  0.00     0.029 A 
ATOM     20  N   UNL     1       5.785  -0.705  -7.187  1.00  0.00    -0.354 N 
ATOM     21  C   UNL     1       6.873   3.488  -6.720  1.00  0.00     0.074 A 
ATOM     22  C   UNL     1       6.308   4.033  -5.505  1.00  0.00     0.031 C 
ATOM     23  C   UNL     1       4.844  -2.634  -6.556  1.00  0.00     0.029 A 
ATOM     24  C   UNL     1       5.668  -2.013  -7.588  1.00  0.00     0.049 A 
ATOM     25  H   UNL     1       6.312  -0.034  -7.679  1.00  0.00     0.167 HD
ATOM     26  C   UNL     1       7.668   4.175  -7.573  1.00  0.00     0.037 A 
ATOM     27  C   UNL     1       6.160  -2.628  -8.680  1.00  0.00     0.037 A 
ATOM     28  C   UNL     1       8.212   3.619  -8.782  1.00  0.00     0.049 A 
ATOM     29  C   UNL     1       6.989  -1.824  -9.644  1.00  0.00     0.074 A 
ATOM     30  C   UNL     1       8.984   4.235  -9.750  1.00  0.00     0.029 A 
ATOM     31  N   UNL     1       8.035   2.302  -9.186  1.00  0.00    -0.354 N 
ATOM     32  N   UNL     1       7.362  -0.569  -9.565  1.00  0.00    -0.248 NA
ATOM     33  C   UNL     1       7.454  -2.513 -10.855  1.00  0.00     0.031 C 
ATOM     34  C   UNL     1       9.245   3.298 -10.758  1.00  0.00     0.029 A 
ATOM     35  C   UNL     1       8.668   2.089 -10.398  1.00  0.00     0.049 A 
ATOM     36  H   UNL     1       7.533   1.620  -8.684  1.00  0.00     0.167 HD
ATOM     37  C   UNL     1       8.109  -0.318 -10.706  1.00  0.00     0.074 A 
ATOM     38  C   UNL     1       8.157  -1.560 -11.452  1.00  0.00     0.031 C 
ATOM     39  C   UNL     1       8.695   0.836 -11.110  1.00  0.00     0.037 A 
BRANCH  26  40
ATOM     40  C   UNL     1       7.935   5.611  -7.243  1.00  0.00     0.064 A 
ATOM     41  C   UNL     1       8.800   5.981  -6.202  1.00  0.00     0.173 A 
ATOM     42  C   UNL     1       7.288   6.632  -7.955  1.00  0.00     0.173 A 
ATOM     43  F   UNL     1       9.421   5.040  -5.475  1.00  0.00    -0.203 F 
ATOM     44  C   UNL     1       8.985   7.321  -5.868  1.00  0.00     0.198 A 
ATOM     45  C   UNL     1       7.492   7.971  -7.632  1.00  0.00     0.198 A 
ATOM     46  F   UNL     1       6.446   6.330  -8.954  1.00  0.00    -0.203 F 
ATOM     47  F   UNL     1       9.772   7.649  -4.834  1.00  0.00    -0.200 F 
ATOM     48  C   UNL     1       8.332   8.314  -6.584  1.00  0.00     0.200 A 
ATOM     49  F   UNL     1       6.861   8.929  -8.325  1.00  0.00    -0.200 F 
ATOM     50  F   UNL     1       8.501   9.601  -6.252  1.00  0.00    -0.200 F 
ENDBRANCH  26  40
BRANCH  27  51
ATOM     51  C   UNL     1       5.860  -4.063  -8.924  1.00  0.00     0.064 A 
ATOM     52  C   UNL     1       6.866  -5.037  -8.870  1.00  0.00     0.173 A 
ATOM     53  C   UNL     1       4.555  -4.492  -9.214  1.00  0.00     0.173 A 
ATOM     54  F   UNL     1       8.134  -4.676  -8.621  1.00  0.00    -0.203 F 
ATOM     55  C   UNL     1       6.581  -6.381  -9.105  1.00  0.00     0.198 A 
ATOM     56  C   UNL     1       4.266  -5.839  -9.421  1.00  0.00     0.198 A 
ATOM     57  F   UNL     1       3.555  -3.601  -9.282  1.00  0.00    -0.203 F 
ATOM     58  F   UNL     1       7.569  -7.287  -9.085  1.00  0.00    -0.200 F 
ATOM     59  C   UNL     1       5.281  -6.782  -9.373  1.00  0.00     0.200 A 
ATOM     60  F   UNL     1       3.006  -6.222  -9.668  1.00  0.00    -0.200 F 
ATOM     61  F   UNL     1       5.006  -8.075  -9.592  1.00  0.00    -0.200 F 
ENDBRANCH  27  51
BRANCH  39  62
ATOM     62  C   UNL     1       9.439   0.799 -12.409  1.00  0.00     0.064 A 
ATOM     63  C   UNL     1       8.760   0.789 -13.636  1.00  0.00     0.173 A 
ATOM     64  C   UNL     1      10.841   0.824 -12.426  1.00  0.00     0.173 A 
ATOM     65  F   UNL     1       7.420   0.750 -13.665  1.00  0.00    -0.203 F 
ATOM     66  C   UNL     1       9.462   0.789 -14.837  1.00  0.00     0.198 A 
ATOM     67  C   UNL     1      11.538   0.846 -13.630  1.00  0.00     0.198 A 
ATOM     68  F   UNL     1      11.531   0.838 -11.276  1.00  0.00    -0.203 F 
ATOM     69  F   UNL     1       8.796   0.745 -16.000  1.00  0.00    -0.200 F 
ATOM     70  C   UNL     1      10.849   0.825 -14.834  1.00  0.00     0.200 A 
ATOM     71  F   UNL     1      12.877   0.890 -13.626  1.00  0.00    -0.200 F 
ATOM     72  F   UNL     1      11.522   0.832 -15.992  1.00  0.00    -0.200 F 
ENDBRANCH  39  62
ENDBRANCH  13  14
ENDBRANCH   6   8
ENDBRANCH   5   6
ENDBRANCH   4   5
ENDBRANCH   3   4
ENDBRANCH   2   3
ENDBRANCH   1   2
BRANCH   1  73
ATOM     73  C   UNL     1       2.866  -3.832   0.240  1.00  0.00     0.261 C 
BRANCH  73  74
ATOM     74  O   UNL     1       3.460  -4.535   1.343  1.00  0.00    -0.459 OA
BRANCH  74  75
ATOM     75  C   UNL     1       4.825  -4.449   1.406  1.00  0.00     0.348 C 
ATOM     76  O   UNL     1       5.559  -4.355   0.429  1.00  0.00    -0.245 OA
BRANCH  75  77
ATOM     77  C   UNL     1       5.207  -4.351   2.799  1.00  0.00     0.116 A 
ATOM     78  C   UNL     1       4.470  -4.693   3.919  1.00  0.00     0.074 A 
ATOM     79  S   UNL     1       6.696  -3.628   3.232  1.00  0.00    -0.133 S 
ATOM     80  C   UNL     1       5.063  -4.225   5.124  1.00  0.00     0.131 A 
ATOM     81  C   UNL     1       6.276  -3.620   4.890  1.00  0.00     0.112 A 
BRANCH  80  82
ATOM     82  O   UNL     1       4.577  -4.255   6.391  1.00  0.00    -0.488 OA
BRANCH  82  83
ATOM     83  C   UNL     1       3.387  -5.019   6.597  1.00  0.00     0.268 C 
BRANCH  83  84
ATOM     84  C   UNL     1       2.111  -4.408   6.059  1.00  0.00     0.025 A 
ATOM     85  C   UNL     1       1.091  -5.246   5.576  1.00  0.00     0.011 A 
ATOM     86  C   UNL     1       1.895  -3.026   6.048  1.00  0.00     0.130 A 
ATOM     87  C   UNL     1      -0.089  -4.704   5.059  1.00  0.00     0.016 A 
ATOM     88  C   UNL     1       0.725  -2.477   5.530  1.00  0.00     0.055 A 
ATOM     89  F   UNL     1       2.824  -2.192   6.534  1.00  0.00    -0.207 F 
ATOM     90  C   UNL     1      -0.262  -3.321   5.032  1.00  0.00     0.020 A 
ATOM     91  Br  UNL     1      -1.852  -2.590   4.319  1.00  0.00    -0.051 Br
ENDBRANCH  83  84
ENDBRANCH  82  83
ENDBRANCH  80  82
ENDBRANCH  75  77
ENDBRANCH  74  75
ENDBRANCH  73  74
ENDBRANCH   1  73
TORSDOF 17
