REMARK SMILES CSCC[C@H](NC(=O)N[C@@H]1CCCCC1(C)C)C(=O)OCCOCCOC(=O)c1ccc(-c2c3nc(c(-c4c(F)c(F)c(F)c(F)c4F)c4ccc([nH]4)c(-c4c(F)c(F)c(F)c(F)c4F)c4nc(c(-c5c(F)c(F)c(F)c(F)c5F)c5ccc2[nH]5)C=C4)C=C3)cc1
REMARK SMILES IDX 22 1 21 2 20 3 18 4 19 5 5 6 4 7 3 8 2 9 1 10 6 11 7 12 8 14
REMARK SMILES IDX 9 15 10 17 11 18 15 19 12 20 14 21 16 22 17 23 13 24 23 25
REMARK SMILES IDX 24 26 25 27 26 28 27 29 28 30 29 31 30 32 91 33 31 34 90 35
REMARK SMILES IDX 32 36 33 37 34 38 84 39 35 40 89 41 83 42 85 43 36 44 88 45
REMARK SMILES IDX 82 46 81 47 37 49 69 50 49 51 68 52 50 53 53 54 67 55 86 56
REMARK SMILES IDX 51 57 52 58 66 60 87 61 54 62 38 63 39 64 47 65 40 66 41 67
REMARK SMILES IDX 45 68 48 69 42 70 43 71 46 72 44 73 70 74 71 75 79 76 72 77
REMARK SMILES IDX 73 78 77 79 80 80 74 81 75 82 78 83 76 84 55 85 56 86 64 87
REMARK SMILES IDX 57 88 58 89 62 90 65 91 59 92 60 93 63 94 61 95
REMARK H PARENT 6 13 9 16 85 48 53 59
REMARK Flexibility Score: inf
ROOT
ATOM      1  C   UNL     1      -1.641  -6.618   0.839  1.00  0.00     0.202 C 
ENDROOT
BRANCH   1   2
ATOM      2  C   UNL     1      -0.136  -6.498   1.127  1.00  0.00     0.261 C 
BRANCH   2   3
ATOM      3  O   UNL     1       0.318  -5.271   1.719  1.00  0.00    -0.462 OA
BRANCH   3   4
ATOM      4  C   UNL     1       0.637  -4.353   0.770  1.00  0.00     0.328 C 
ATOM      5  O   UNL     1       0.350  -4.484  -0.415  1.00  0.00    -0.250 OA
BRANCH   4   6
ATOM      6  C   UNL     1       1.550  -3.234   1.260  1.00  0.00     0.194 C 
BRANCH   6   7
ATOM      7  C   UNL     1       2.951  -3.799   1.541  1.00  0.00     0.048 C 
BRANCH   7   8
ATOM      8  C   UNL     1       3.514  -4.770   0.481  1.00  0.00     0.072 C 
BRANCH   8   9
ATOM      9  S   UNL     1       3.900  -4.066  -1.163  1.00  0.00    -0.165 SA
ATOM     10  C   UNL     1       2.526  -4.693  -2.179  1.00  0.00     0.085 C 
ENDBRANCH   8   9
ENDBRANCH   7   8
ENDBRANCH   6   7
BRANCH   6  11
ATOM     11  N   UNL     1       1.015  -2.434   2.388  1.00  0.00    -0.325 N 
ATOM     12  C   UNL     1       0.400  -1.274   2.627  1.00  0.00     0.315 C 
ATOM     13  H   UNL     1       1.162  -2.914   3.235  1.00  0.00     0.166 HD
ATOM     14  O   UNL     1      -0.105  -1.191   3.758  1.00  0.00    -0.249 OA
ATOM     15  N   UNL     1       0.215  -0.195   1.866  1.00  0.00    -0.335 N 
ATOM     16  H   UNL     1      -0.504   0.328   2.286  1.00  0.00     0.165 HD
BRANCH  15  17
ATOM     17  C   UNL     1       0.642   0.567   0.629  1.00  0.00     0.089 C 
ATOM     18  C   UNL     1      -0.553   1.379   0.091  1.00  0.00     0.025 C 
ATOM     19  C   UNL     1       1.237  -0.274  -0.505  1.00  0.00    -0.015 C 
ATOM     20  C   UNL     1      -1.676   0.482  -0.426  1.00  0.00     0.002 C 
ATOM     21  C   UNL     1       0.124  -1.314  -0.841  1.00  0.00     0.008 C 
ATOM     22  C   UNL     1       1.565   0.429  -1.847  1.00  0.00     0.013 C 
ATOM     23  C   UNL     1       2.651  -0.651   0.004  1.00  0.00     0.013 C 
ATOM     24  C   UNL     1      -1.200  -0.677  -1.307  1.00  0.00     0.001 C 
ENDBRANCH  15  17
ENDBRANCH   6  11
ENDBRANCH   4   6
ENDBRANCH   3   4
ENDBRANCH   2   3
ENDBRANCH   1   2
BRANCH   1  25
ATOM     25  O   UNL     1      -2.351  -5.554   0.229  1.00  0.00    -0.374 OA
BRANCH  25  26
ATOM     26  C   UNL     1      -2.514  -4.311   0.905  1.00  0.00     0.202 C 
BRANCH  26  27
ATOM     27  C   UNL     1      -2.982  -4.268   2.364  1.00  0.00     0.261 C 
BRANCH  27  28
ATOM     28  O   UNL     1      -2.177  -5.058   3.254  1.00  0.00    -0.460 OA
BRANCH  28  29
ATOM     29  C   UNL     1      -2.857  -6.041   3.891  1.00  0.00     0.338 C 
ATOM     30  O   UNL     1      -4.049  -6.282   3.835  1.00  0.00    -0.246 OA
BRANCH  29  31
ATOM     31  C   UNL     1      -1.914  -6.971   4.532  1.00  0.00     0.060 A 
ATOM     32  C   UNL     1      -1.908  -8.293   4.072  1.00  0.00     0.016 A 
ATOM     33  C   UNL     1      -1.172  -6.596   5.653  1.00  0.00     0.016 A 
ATOM     34  C   UNL     1      -1.201  -9.264   4.765  1.00  0.00     0.010 A 
ATOM     35  C   UNL     1      -0.481  -7.580   6.367  1.00  0.00     0.010 A 
ATOM     36  C   UNL     1      -0.540  -8.921   5.950  1.00  0.00    -0.014 A 
BRANCH  36  37
ATOM     37  C   UNL     1      -0.121 -10.029   6.837  1.00  0.00     0.031 A 
ATOM     38  C   UNL     1      -1.077 -10.490   7.902  1.00  0.00     0.074 A 
ATOM     39  C   UNL     1       1.022 -10.691   6.601  1.00  0.00     0.049 A 
ATOM     40  N   UNL     1      -0.991 -11.515   8.710  1.00  0.00    -0.248 NA
ATOM     41  C   UNL     1      -2.306  -9.695   8.068  1.00  0.00     0.031 C 
ATOM     42  C   UNL     1       1.987 -10.357   5.555  1.00  0.00     0.029 A 
ATOM     43  N   UNL     1       1.551 -11.798   7.211  1.00  0.00    -0.354 N 
ATOM     44  C   UNL     1      -2.152 -11.492   9.471  1.00  0.00     0.074 A 
ATOM     45  C   UNL     1      -2.913 -10.335   9.055  1.00  0.00     0.031 C 
ATOM     46  C   UNL     1       2.992 -11.249   5.591  1.00  0.00     0.029 A 
ATOM     47  C   UNL     1       2.746 -12.202   6.672  1.00  0.00     0.049 A 
ATOM     48  H   UNL     1       1.115 -12.259   7.963  1.00  0.00     0.167 HD
ATOM     49  C   UNL     1      -2.552 -12.367  10.423  1.00  0.00     0.037 A 
ATOM     50  C   UNL     1       3.547 -13.227   7.020  1.00  0.00     0.037 A 
ATOM     51  C   UNL     1      -1.782 -13.511  10.835  1.00  0.00     0.049 A 
ATOM     52  C   UNL     1       3.106 -14.151   8.124  1.00  0.00     0.074 A 
ATOM     53  C   UNL     1      -2.082 -14.456  11.800  1.00  0.00     0.029 A 
ATOM     54  N   UNL     1      -0.547 -13.858  10.304  1.00  0.00    -0.354 N 
ATOM     55  N   UNL     1       2.001 -14.132   8.831  1.00  0.00    -0.248 NA
ATOM     56  C   UNL     1       4.019 -15.249   8.468  1.00  0.00     0.031 C 
ATOM     57  C   UNL     1      -1.007 -15.348  11.885  1.00  0.00     0.029 A 
ATOM     58  C   UNL     1      -0.063 -14.993  10.934  1.00  0.00     0.049 A 
ATOM     59  H   UNL     1      -0.084 -13.370   9.585  1.00  0.00     0.167 HD
ATOM     60  C   UNL     1       2.071 -15.228   9.681  1.00  0.00     0.074 A 
ATOM     61  C   UNL     1       3.321 -15.900   9.387  1.00  0.00     0.031 C 
ATOM     62  C   UNL     1       1.184 -15.643  10.620  1.00  0.00     0.037 A 
BRANCH  49  63
ATOM     63  C   UNL     1      -3.862 -12.098  11.104  1.00  0.00     0.064 A 
ATOM     64  C   UNL     1      -5.089 -12.263  10.442  1.00  0.00     0.173 A 
ATOM     65  C   UNL     1      -3.893 -11.681  12.444  1.00  0.00     0.173 A 
ATOM     66  F   UNL     1      -5.116 -12.641   9.155  1.00  0.00    -0.203 F 
ATOM     67  C   UNL     1      -6.294 -11.998  11.088  1.00  0.00     0.198 A 
ATOM     68  C   UNL     1      -5.100 -11.444  13.095  1.00  0.00     0.198 A 
ATOM     69  F   UNL     1      -2.749 -11.506  13.123  1.00  0.00    -0.203 F 
ATOM     70  F   UNL     1      -7.451 -12.117  10.422  1.00  0.00    -0.200 F 
ATOM     71  C   UNL     1      -6.299 -11.595  12.415  1.00  0.00     0.200 A 
ATOM     72  F   UNL     1      -5.103 -11.063  14.380  1.00  0.00    -0.200 F 
ATOM     73  F   UNL     1      -7.460 -11.344  13.037  1.00  0.00    -0.200 F 
ENDBRANCH  49  63
BRANCH  50  74
ATOM     74  C   UNL     1       4.837 -13.434   6.311  1.00  0.00     0.064 A 
ATOM     75  C   UNL     1       5.048 -14.550   5.491  1.00  0.00     0.173 A 
ATOM     76  C   UNL     1       5.890 -12.517   6.448  1.00  0.00     0.173 A 
ATOM     77  F   UNL     1       4.079 -15.465   5.343  1.00  0.00    -0.203 F 
ATOM     78  C   UNL     1       6.269 -14.752   4.850  1.00  0.00     0.198 A 
ATOM     79  C   UNL     1       7.100 -12.704   5.784  1.00  0.00     0.198 A 
ATOM     80  F   UNL     1       5.739 -11.431   7.220  1.00  0.00    -0.203 F 
ATOM     81  F   UNL     1       6.459 -15.850   4.107  1.00  0.00    -0.200 F 
ATOM     82  C   UNL     1       7.292 -13.826   4.992  1.00  0.00     0.200 A 
ATOM     83  F   UNL     1       8.079 -11.799   5.912  1.00  0.00    -0.200 F 
ATOM     84  F   UNL     1       8.463 -14.017   4.371  1.00  0.00    -0.200 F 
ENDBRANCH  50  74
BRANCH  62  85
ATOM     85  C   UNL     1       1.522 -16.901  11.367  1.00  0.00     0.064 A 
ATOM     86  C   UNL     1       2.562 -16.944  12.308  1.00  0.00     0.173 A 
ATOM     87  C   UNL     1       0.784 -18.074  11.149  1.00  0.00     0.173 A 
ATOM     88  F   UNL     1       3.305 -15.853  12.543  1.00  0.00    -0.203 F 
ATOM     89  C   UNL     1       2.876 -18.127  12.972  1.00  0.00     0.198 A 
ATOM     90  C   UNL     1       1.079 -19.246  11.840  1.00  0.00     0.198 A 
ATOM     91  F   UNL     1      -0.227 -18.083  10.268  1.00  0.00    -0.203 F 
ATOM     92  F   UNL     1       3.914 -18.161  13.820  1.00  0.00    -0.200 F 
ATOM     93  C   UNL     1       2.132 -19.274  12.742  1.00  0.00     0.200 A 
ATOM     94  F   UNL     1       0.349 -20.349  11.627  1.00  0.00    -0.200 F 
ATOM     95  F   UNL     1       2.437 -20.412  13.381  1.00  0.00    -0.200 F 
ENDBRANCH  62  85
ENDBRANCH  36  37
ENDBRANCH  29  31
ENDBRANCH  28  29
ENDBRANCH  27  28
ENDBRANCH  26  27
ENDBRANCH  25  26
ENDBRANCH   1  25
TORSDOF 19
