REMARK SMILES C=CC[N@H+](CC(=O)OCCOCCOC(=O)c1ccc(-c2c3nc(c(-c4c(F)c(F)c(F)c(F)c4F)c4ccc([nH]4)c(-c4c(F)c(F)c(F)c(F)c4F)c4nc(c(-c5c(F)c(F)c(F)c(F)c5F)c5ccc2[nH]5)C=C4)C=C3)cc1)[C@H]1CC(=O)N(c2ccccc2)C1=O
REMARK SMILES IDX 10 1 9 2 8 3 6 4 7 5 5 6 4 7 3 9 2 10 1 11 80 12 81 13 91 14
REMARK SMILES IDX 82 15 84 16 92 17 83 18 85 19 86 20 90 21 87 22 89 23 88 24
REMARK SMILES IDX 11 25 12 26 13 27 14 28 15 29 16 30 17 31 18 32 79 33 19 34
REMARK SMILES IDX 78 35 20 36 21 37 22 38 72 39 23 40 77 41 71 42 73 43 24 44
REMARK SMILES IDX 76 45 70 46 69 47 25 49 57 50 37 51 56 52 38 53 41 54 55 55
REMARK SMILES IDX 74 56 39 57 40 58 54 60 75 61 42 62 26 63 27 64 35 65 28 66
REMARK SMILES IDX 29 67 33 68 36 69 30 70 31 71 34 72 32 73 58 74 59 75 67 76
REMARK SMILES IDX 60 77 61 78 65 79 68 80 62 81 63 82 66 83 64 84 43 85 44 86
REMARK SMILES IDX 52 87 45 88 46 89 50 90 53 91 47 92 48 93 51 94 49 95
REMARK H PARENT 4 8 73 48 41 59
REMARK Flexibility Score: inf
ROOT
ATOM      1  C   UNL     1       4.100   0.363  -1.416  1.00  0.00     0.202 C 
ENDROOT
BRANCH   1   2
ATOM      2  C   UNL     1       3.333   0.768  -0.157  1.00  0.00     0.261 C 
BRANCH   2   3
ATOM      3  O   UNL     1       2.246  -0.135   0.120  1.00  0.00    -0.459 OA
BRANCH   3   4
ATOM      4  C   UNL     1       0.995   0.372  -0.022  1.00  0.00     0.361 C 
ATOM      5  O   UNL     1       0.753   1.541  -0.311  1.00  0.00    -0.245 OA
BRANCH   4   6
ATOM      6  C   UNL     1      -0.120  -0.617   0.311  1.00  0.00     0.387 C 
BRANCH   6   7
ATOM      7  N   UNL     1      -0.090  -1.962  -0.360  1.00  0.00    -0.312 N 
ATOM      8  H   UNL     1       0.238  -1.916  -1.325  1.00  0.00     0.349 HD
BRANCH   7   9
ATOM      9  C   UNL     1       0.874  -2.853   0.317  1.00  0.00     0.291 C 
BRANCH   9  10
ATOM     10  C   UNL     1       1.235  -4.066  -0.501  1.00  0.00     0.025 C 
ATOM     11  C   UNL     1       2.298  -4.839  -0.246  1.00  0.00     0.010 C 
ENDBRANCH   9  10
ENDBRANCH   7   9
BRANCH   7  12
ATOM     12  C   UNL     1      -1.514  -2.469  -0.355  1.00  0.00     0.285 C 
ATOM     13  C   UNL     1      -2.130  -2.295  -1.730  1.00  0.00     0.176 C 
ATOM     14  C   UNL     1      -1.740  -3.942  -0.059  1.00  0.00     0.292 C 
ATOM     15  C   UNL     1      -2.324  -3.691  -2.239  1.00  0.00     0.240 C 
ATOM     16  N   UNL     1      -2.081  -4.592  -1.227  1.00  0.00    -0.245 N 
ATOM     17  O   UNL     1      -1.610  -4.401   1.070  1.00  0.00    -0.267 OA
ATOM     18  O   UNL     1      -2.725  -3.900  -3.377  1.00  0.00    -0.274 OA
BRANCH  16  19
ATOM     19  C   UNL     1      -2.170  -6.013  -1.368  1.00  0.00     0.052 A 
ATOM     20  C   UNL     1      -2.307  -6.860  -0.256  1.00  0.00     0.027 A 
ATOM     21  C   UNL     1      -2.074  -6.624  -2.629  1.00  0.00     0.027 A 
ATOM     22  C   UNL     1      -2.341  -8.254  -0.397  1.00  0.00     0.002 A 
ATOM     23  C   UNL     1      -2.094  -8.017  -2.772  1.00  0.00     0.002 A 
ATOM     24  C   UNL     1      -2.227  -8.832  -1.655  1.00  0.00     0.000 A 
ENDBRANCH  16  19
ENDBRANCH   7  12
ENDBRANCH   6   7
ENDBRANCH   4   6
ENDBRANCH   3   4
ENDBRANCH   2   3
ENDBRANCH   1   2
BRANCH   1  25
ATOM     25  O   UNL     1       3.409   0.521  -2.653  1.00  0.00    -0.374 OA
BRANCH  25  26
ATOM     26  C   UNL     1       2.432  -0.465  -2.986  1.00  0.00     0.202 C 
BRANCH  26  27
ATOM     27  C   UNL     1       2.966  -1.791  -3.543  1.00  0.00     0.261 C 
BRANCH  27  28
ATOM     28  O   UNL     1       3.761  -2.513  -2.587  1.00  0.00    -0.460 OA
BRANCH  28  29
ATOM     29  C   UNL     1       5.090  -2.539  -2.838  1.00  0.00     0.338 C 
ATOM     30  O   UNL     1       5.679  -2.066  -3.803  1.00  0.00    -0.246 OA
BRANCH  29  31
ATOM     31  C   UNL     1       5.797  -3.100  -1.675  1.00  0.00     0.060 A 
ATOM     32  C   UNL     1       6.810  -2.340  -1.079  1.00  0.00     0.016 A 
ATOM     33  C   UNL     1       5.511  -4.383  -1.209  1.00  0.00     0.016 A 
ATOM     34  C   UNL     1       7.565  -2.879  -0.037  1.00  0.00     0.010 A 
ATOM     35  C   UNL     1       6.248  -4.912  -0.146  1.00  0.00     0.010 A 
ATOM     36  C   UNL     1       7.310  -4.181   0.418  1.00  0.00    -0.014 A 
BRANCH  36  37
ATOM     37  C   UNL     1       8.259  -4.846   1.350  1.00  0.00     0.031 A 
ATOM     38  C   UNL     1       9.156  -5.933   0.816  1.00  0.00     0.074 A 
ATOM     39  C   UNL     1       8.341  -4.484   2.643  1.00  0.00     0.049 A 
ATOM     40  N   UNL     1      10.014  -6.692   1.448  1.00  0.00    -0.248 NA
ATOM     41  C   UNL     1       9.060  -6.210  -0.627  1.00  0.00     0.031 C 
ATOM     42  C   UNL     1       7.547  -3.437   3.282  1.00  0.00     0.029 A 
ATOM     43  N   UNL     1       9.134  -4.968   3.655  1.00  0.00    -0.354 N 
ATOM     44  C   UNL     1      10.540  -7.547   0.487  1.00  0.00     0.074 A 
ATOM     45  C   UNL     1       9.874  -7.245  -0.760  1.00  0.00     0.031 C 
ATOM     46  C   UNL     1       7.896  -3.354   4.578  1.00  0.00     0.029 A 
ATOM     47  C   UNL     1       8.912  -4.364   4.868  1.00  0.00     0.049 A 
ATOM     48  H   UNL     1       9.800  -5.682   3.523  1.00  0.00     0.167 HD
ATOM     49  C   UNL     1      11.506  -8.486   0.625  1.00  0.00     0.037 A 
ATOM     50  C   UNL     1       9.456  -4.611   6.076  1.00  0.00     0.037 A 
ATOM     51  C   UNL     1      12.193  -8.767   1.857  1.00  0.00     0.049 A 
ATOM     52  C   UNL     1      10.501  -5.690   6.213  1.00  0.00     0.074 A 
ATOM     53  C   UNL     1      13.212  -9.673   2.090  1.00  0.00     0.029 A 
ATOM     54  N   UNL     1      11.930  -8.140   3.066  1.00  0.00    -0.354 N 
ATOM     55  N   UNL     1      11.013  -6.471   5.292  1.00  0.00    -0.248 NA
ATOM     56  C   UNL     1      11.048  -5.917   7.559  1.00  0.00     0.031 C 
ATOM     57  C   UNL     1      13.534  -9.629   3.450  1.00  0.00     0.029 A 
ATOM     58  C   UNL     1      12.754  -8.655   4.053  1.00  0.00     0.049 A 
ATOM     59  H   UNL     1      11.258  -7.433   3.202  1.00  0.00     0.167 HD
ATOM     60  C   UNL     1      11.960  -7.256   5.939  1.00  0.00     0.074 A 
ATOM     61  C   UNL     1      11.963  -6.848   7.327  1.00  0.00     0.031 C 
ATOM     62  C   UNL     1      12.757  -8.227   5.428  1.00  0.00     0.037 A 
BRANCH  49  63
ATOM     63  C   UNL     1      11.869  -9.290  -0.591  1.00  0.00     0.064 A 
ATOM     64  C   UNL     1      12.552  -8.721  -1.676  1.00  0.00     0.173 A 
ATOM     65  C   UNL     1      11.553 -10.655  -0.658  1.00  0.00     0.173 A 
ATOM     66  F   UNL     1      12.864  -7.416  -1.668  1.00  0.00    -0.203 F 
ATOM     67  C   UNL     1      12.877  -9.481  -2.797  1.00  0.00     0.198 A 
ATOM     68  C   UNL     1      11.909 -11.420  -1.766  1.00  0.00     0.198 A 
ATOM     69  F   UNL     1      10.905 -11.251   0.354  1.00  0.00    -0.203 F 
ATOM     70  F   UNL     1      13.481  -8.903  -3.844  1.00  0.00    -0.200 F 
ATOM     71  C   UNL     1      12.562 -10.831  -2.837  1.00  0.00     0.200 A 
ATOM     72  F   UNL     1      11.616 -12.727  -1.798  1.00  0.00    -0.200 F 
ATOM     73  F   UNL     1      12.881 -11.563  -3.914  1.00  0.00    -0.200 F 
ENDBRANCH  49  63
BRANCH  50  74
ATOM     74  C   UNL     1       9.026  -3.825   7.264  1.00  0.00     0.064 A 
ATOM     75  C   UNL     1       9.906  -2.938   7.901  1.00  0.00     0.173 A 
ATOM     76  C   UNL     1       7.740  -3.966   7.805  1.00  0.00     0.173 A 
ATOM     77  F   UNL     1      11.156  -2.788   7.439  1.00  0.00    -0.203 F 
ATOM     78  C   UNL     1       9.524  -2.242   9.047  1.00  0.00     0.198 A 
ATOM     79  C   UNL     1       7.349  -3.247   8.933  1.00  0.00     0.198 A 
ATOM     80  F   UNL     1       6.860  -4.803   7.236  1.00  0.00    -0.203 F 
ATOM     81  F   UNL     1      10.403  -1.443   9.666  1.00  0.00    -0.200 F 
ATOM     82  C   UNL     1       8.245  -2.393   9.559  1.00  0.00     0.200 A 
ATOM     83  F   UNL     1       6.108  -3.387   9.417  1.00  0.00    -0.200 F 
ATOM     84  F   UNL     1       7.878  -1.724  10.660  1.00  0.00    -0.200 F 
ENDBRANCH  50  74
BRANCH  62  85
ATOM     85  C   UNL     1      13.732  -8.888   6.361  1.00  0.00     0.064 A 
ATOM     86  C   UNL     1      13.312  -9.777   7.361  1.00  0.00     0.173 A 
ATOM     87  C   UNL     1      15.110  -8.666   6.216  1.00  0.00     0.173 A 
ATOM     88  F   UNL     1      12.004 -10.013   7.548  1.00  0.00    -0.203 F 
ATOM     89  C   UNL     1      14.234 -10.400   8.198  1.00  0.00     0.198 A 
ATOM     90  C   UNL     1      16.031  -9.315   7.034  1.00  0.00     0.198 A 
ATOM     91  F   UNL     1      15.566  -7.833   5.269  1.00  0.00    -0.203 F 
ATOM     92  F   UNL     1      13.807 -11.209   9.177  1.00  0.00    -0.200 F 
ATOM     93  C   UNL     1      15.592 -10.175   8.029  1.00  0.00     0.200 A 
ATOM     94  F   UNL     1      17.344  -9.109   6.858  1.00  0.00    -0.200 F 
ATOM     95  F   UNL     1      16.478 -10.783   8.829  1.00  0.00    -0.200 F 
ENDBRANCH  62  85
ENDBRANCH  36  37
ENDBRANCH  29  31
ENDBRANCH  28  29
ENDBRANCH  27  28
ENDBRANCH  26  27
ENDBRANCH  25  26
ENDBRANCH   1  25
TORSDOF 19
