REMARK SMILES O=C(N[C@@H](Cc1c[nH]c2ccccc12)C(=O)N[C@@H](CS)C(=O)N[C@@H](CO)C(=O)OCCOCCOC(=O)c1ccc(-c2c3nc(c(-c4c(F)c(F)c(F)c(F)c4F)c4ccc([nH]4)c(-c4c(F)c(F)c(F)c(F)c4F)c4nc(c(-c5c(F)c(F)c(F)c(F)c5F)c5ccc2[nH]5)C=C4)C=C3)cc1)c1ccc(F)cc1
REMARK SMILES IDX 30 1 29 2 27 3 28 4 24 5 23 6 21 7 22 8 18 10 17 11 15 12
REMARK SMILES IDX 16 13 4 15 3 16 1 17 2 18 101 20 102 21 107 22 103 23 106 24
REMARK SMILES IDX 104 25 105 26 5 27 6 28 7 29 14 30 8 31 9 32 13 33 10 35
REMARK SMILES IDX 12 36 11 37 19 38 20 39 25 41 26 42 31 44 32 45 33 46 34 47
REMARK SMILES IDX 35 48 36 49 37 50 38 51 39 52 100 53 40 54 99 55 41 56 42 57
REMARK SMILES IDX 43 58 93 59 44 60 98 61 92 62 94 63 45 64 97 65 91 66 90 67
REMARK SMILES IDX 46 69 78 70 58 71 77 72 59 73 62 74 76 75 95 76 60 77 61 78
REMARK SMILES IDX 75 80 96 81 63 82 47 83 48 84 56 85 49 86 50 87 54 88 57 89
REMARK SMILES IDX 51 90 52 91 55 92 53 93 79 94 80 95 88 96 81 97 82 98 86 99
REMARK SMILES IDX 89 100 83 101 84 102 87 103 85 104 64 105 65 106 73 107
REMARK SMILES IDX 66 108 67 109 71 110 74 111 68 112 69 113 72 114 70 115
REMARK H PARENT 23 9 17 14 3 19 8 34 20 40 26 43 94 68 62 79
REMARK Flexibility Score: inf
ROOT
ATOM      1  C   UNL     1       3.513  -0.527  10.391  1.00  0.00     0.261 C 
ENDROOT
BRANCH   1   2
ATOM      2  O   UNL     1       4.313  -0.221   9.238  1.00  0.00    -0.462 OA
BRANCH   2   3
ATOM      3  C   UNL     1       4.871  -1.295   8.611  1.00  0.00     0.331 C 
ATOM      4  O   UNL     1       4.904  -2.430   9.071  1.00  0.00    -0.250 OA
BRANCH   3   5
ATOM      5  C   UNL     1       5.462  -0.921   7.243  1.00  0.00     0.218 C 
BRANCH   5   6
ATOM      6  N   UNL     1       5.159   0.451   6.816  1.00  0.00    -0.339 N 
ATOM      7  C   UNL     1       4.949   0.938   5.572  1.00  0.00     0.244 C 
ATOM      8  O   UNL     1       5.514   2.006   5.317  1.00  0.00    -0.273 OA
ATOM      9  H   UNL     1       5.099   1.113   7.542  1.00  0.00     0.164 HD
BRANCH   7  10
ATOM     10  C   UNL     1       4.142   0.200   4.478  1.00  0.00     0.181 C 
BRANCH  10  11
ATOM     11  N   UNL     1       4.957  -0.593   3.579  1.00  0.00    -0.342 N 
ATOM     12  C   UNL     1       5.290  -0.336   2.280  1.00  0.00     0.243 C 
ATOM     13  O   UNL     1       6.223  -1.010   1.824  1.00  0.00    -0.273 OA
ATOM     14  H   UNL     1       5.318  -1.428   3.955  1.00  0.00     0.164 HD
BRANCH  12  15
ATOM     15  C   UNL     1       4.523   0.656   1.346  1.00  0.00     0.176 C 
BRANCH  15  16
ATOM     16  N   UNL     1       3.130   0.246   1.161  1.00  0.00    -0.340 N 
ATOM     17  O   UNL     1       1.258  -0.298   0.054  1.00  0.00    -0.269 OA
ATOM     18  C   UNL     1       2.481  -0.192   0.038  1.00  0.00     0.251 C 
ATOM     19  H   UNL     1       2.573   0.293   1.971  1.00  0.00     0.164 HD
BRANCH  18  20
ATOM     20  C   UNL     1       3.224  -0.522  -1.196  1.00  0.00     0.040 A 
ATOM     21  C   UNL     1       4.262  -1.463  -1.183  1.00  0.00     0.017 A 
ATOM     22  C   UNL     1       2.817   0.062  -2.403  1.00  0.00     0.017 A 
ATOM     23  C   UNL     1       4.923  -1.781  -2.371  1.00  0.00     0.040 A 
ATOM     24  C   UNL     1       3.479  -0.263  -3.589  1.00  0.00     0.040 A 
ATOM     25  C   UNL     1       4.528  -1.177  -3.561  1.00  0.00     0.123 A 
ATOM     26  F   UNL     1       5.162  -1.488  -4.699  1.00  0.00    -0.207 F 
ENDBRANCH  18  20
ENDBRANCH  15  16
BRANCH  15  27
ATOM     27  C   UNL     1       4.748   2.179   1.481  1.00  0.00     0.072 C 
BRANCH  27  28
ATOM     28  C   UNL     1       3.950   3.028   2.444  1.00  0.00    -0.020 A 
ATOM     29  C   UNL     1       2.661   2.875   2.929  1.00  0.00     0.087 A 
ATOM     30  C   UNL     1       4.414   4.280   2.990  1.00  0.00     0.003 A 
ATOM     31  N   UNL     1       2.457   3.800   3.921  1.00  0.00    -0.361 N 
ATOM     32  C   UNL     1       3.507   4.680   3.971  1.00  0.00     0.046 A 
ATOM     33  C   UNL     1       5.535   5.103   2.749  1.00  0.00     0.010 A 
ATOM     34  H   UNL     1       1.670   3.828   4.512  1.00  0.00     0.166 HD
ATOM     35  C   UNL     1       3.709   5.798   4.788  1.00  0.00     0.026 A 
ATOM     36  C   UNL     1       5.716   6.266   3.507  1.00  0.00     0.001 A 
ATOM     37  C   UNL     1       4.830   6.591   4.531  1.00  0.00     0.002 A 
ENDBRANCH  27  28
ENDBRANCH  15  27
ENDBRANCH  12  15
ENDBRANCH  10  11
BRANCH  10  38
ATOM     38  C   UNL     1       2.760  -0.361   4.838  1.00  0.00     0.101 C 
BRANCH  38  39
ATOM     39  S   UNL     1       2.658  -2.025   5.550  1.00  0.00    -0.177 SA
ATOM     40  H   UNL     1       3.077  -2.937   4.633  1.00  0.00     0.102 HD
ENDBRANCH  38  39
ENDBRANCH  10  38
ENDBRANCH   7  10
ENDBRANCH   5   6
BRANCH   5  41
ATOM     41  C   UNL     1       6.983  -1.114   7.305  1.00  0.00     0.193 C 
BRANCH  41  42
ATOM     42  O   UNL     1       7.600  -0.052   8.037  1.00  0.00    -0.394 OA
ATOM     43  H   UNL     1       7.418   0.792   7.596  1.00  0.00     0.210 HD
ENDBRANCH  41  42
ENDBRANCH   5  41
ENDBRANCH   3   5
ENDBRANCH   2   3
ENDBRANCH   1   2
BRANCH   1  44
ATOM     44  C   UNL     1       2.386   0.498  10.548  1.00  0.00     0.202 C 
BRANCH  44  45
ATOM     45  O   UNL     1       1.383   0.504   9.531  1.00  0.00    -0.374 OA
BRANCH  45  46
ATOM     46  C   UNL     1       1.770   0.919   8.225  1.00  0.00     0.202 C 
BRANCH  46  47
ATOM     47  C   UNL     1       1.936   2.427   7.992  1.00  0.00     0.261 C 
BRANCH  47  48
ATOM     48  O   UNL     1       2.870   3.039   8.893  1.00  0.00    -0.460 OA
BRANCH  48  49
ATOM     49  C   UNL     1       2.299   3.869   9.800  1.00  0.00     0.338 C 
ATOM     50  O   UNL     1       1.129   4.206   9.866  1.00  0.00    -0.246 OA
BRANCH  49  51
ATOM     51  C   UNL     1       3.272   4.227  10.845  1.00  0.00     0.060 A 
ATOM     52  C   UNL     1       2.942   3.899  12.166  1.00  0.00     0.016 A 
ATOM     53  C   UNL     1       4.417   4.972  10.557  1.00  0.00     0.016 A 
ATOM     54  C   UNL     1       3.727   4.369  13.214  1.00  0.00     0.010 A 
ATOM     55  C   UNL     1       5.199   5.453  11.613  1.00  0.00     0.010 A 
ATOM     56  C   UNL     1       4.829   5.192  12.945  1.00  0.00    -0.014 A 
BRANCH  56  57
ATOM     57  C   UNL     1       5.453   5.927  14.072  1.00  0.00     0.031 A 
ATOM     58  C   UNL     1       5.011   7.339  14.343  1.00  0.00     0.074 A 
ATOM     59  C   UNL     1       6.330   5.319  14.889  1.00  0.00     0.049 A 
ATOM     60  N   UNL     1       5.365   8.153  15.305  1.00  0.00    -0.248 NA
ATOM     61  C   UNL     1       4.032   7.910  13.405  1.00  0.00     0.031 C 
ATOM     62  C   UNL     1       6.801   3.943  14.749  1.00  0.00     0.029 A 
ATOM     63  N   UNL     1       6.971   5.784  16.010  1.00  0.00    -0.354 N 
ATOM     64  C   UNL     1       4.648   9.324  15.092  1.00  0.00     0.074 A 
ATOM     65  C   UNL     1       3.871   9.132  13.887  1.00  0.00     0.031 C 
ATOM     66  C   UNL     1       7.654   3.672  15.752  1.00  0.00     0.029 A 
ATOM     67  C   UNL     1       7.802   4.860  16.590  1.00  0.00     0.049 A 
ATOM     68  H   UNL     1       6.845   6.694  16.364  1.00  0.00     0.167 HD
ATOM     69  C   UNL     1       4.627  10.451  15.842  1.00  0.00     0.037 A 
ATOM     70  C   UNL     1       8.593   4.968  17.675  1.00  0.00     0.037 A 
ATOM     71  C   UNL     1       5.407  10.643  17.036  1.00  0.00     0.049 A 
ATOM     72  C   UNL     1       8.595   6.255  18.459  1.00  0.00     0.074 A 
ATOM     73  C   UNL     1       5.472  11.753  17.859  1.00  0.00     0.029 A 
ATOM     74  N   UNL     1       6.263   9.694  17.576  1.00  0.00    -0.354 N 
ATOM     75  N   UNL     1       7.902   7.350  18.260  1.00  0.00    -0.248 NA
ATOM     76  C   UNL     1       9.482   6.314  19.630  1.00  0.00     0.031 C 
ATOM     77  C   UNL     1       6.397  11.490  18.875  1.00  0.00     0.029 A 
ATOM     78  C   UNL     1       6.869  10.197  18.715  1.00  0.00     0.049 A 
ATOM     79  H   UNL     1       6.416   8.795  17.204  1.00  0.00     0.167 HD
ATOM     80  C   UNL     1       8.238   8.211  19.297  1.00  0.00     0.074 A 
ATOM     81  C   UNL     1       9.189   7.505  20.131  1.00  0.00     0.031 C 
ATOM     82  C   UNL     1       7.799   9.471  19.541  1.00  0.00     0.037 A 
BRANCH  69  83
ATOM     83  C   UNL     1       3.743  11.571  15.376  1.00  0.00     0.064 A 
ATOM     84  C   UNL     1       2.344  11.487  15.458  1.00  0.00     0.173 A 
ATOM     85  C   UNL     1       4.299  12.749  14.856  1.00  0.00     0.173 A 
ATOM     86  F   UNL     1       1.761  10.375  15.931  1.00  0.00    -0.203 F 
ATOM     87  C   UNL     1       1.535  12.530  15.012  1.00  0.00     0.198 A 
ATOM     88  C   UNL     1       3.488  13.801  14.437  1.00  0.00     0.198 A 
ATOM     89  F   UNL     1       5.630  12.882  14.756  1.00  0.00    -0.203 F 
ATOM     90  F   UNL     1       0.201  12.407  15.054  1.00  0.00    -0.200 F 
ATOM     91  C   UNL     1       2.108  13.688  14.508  1.00  0.00     0.200 A 
ATOM     92  F   UNL     1       4.043  14.924  13.959  1.00  0.00    -0.200 F 
ATOM     93  F   UNL     1       1.329  14.692  14.082  1.00  0.00    -0.200 F 
ENDBRANCH  69  83
BRANCH  70  94
ATOM     94  C   UNL     1       9.440   3.822  18.099  1.00  0.00     0.064 A 
ATOM     95  C   UNL     1       9.185   3.135  19.295  1.00  0.00     0.173 A 
ATOM     96  C   UNL     1      10.540   3.411  17.333  1.00  0.00     0.173 A 
ATOM     97  F   UNL     1       8.160   3.507  20.075  1.00  0.00    -0.203 F 
ATOM     98  C   UNL     1      10.014   2.099  19.720  1.00  0.00     0.198 A 
ATOM     99  C   UNL     1      11.351   2.355  17.745  1.00  0.00     0.198 A 
ATOM    100  F   UNL     1      10.828   4.036  16.182  1.00  0.00    -0.203 F 
ATOM    101  F   UNL     1       9.779   1.495  20.894  1.00  0.00    -0.200 F 
ATOM    102  C   UNL     1      11.093   1.706  18.943  1.00  0.00     0.200 A 
ATOM    103  F   UNL     1      12.387   1.973  16.986  1.00  0.00    -0.200 F 
ATOM    104  F   UNL     1      11.891   0.711  19.354  1.00  0.00    -0.200 F 
ENDBRANCH  70  94
BRANCH  82 105
ATOM    105  C   UNL     1       8.301  10.142  20.788  1.00  0.00     0.064 A 
ATOM    106  C   UNL     1       9.629  10.576  20.913  1.00  0.00     0.173 A 
ATOM    107  C   UNL     1       7.431  10.368  21.866  1.00  0.00     0.173 A 
ATOM    108  F   UNL     1      10.502  10.372  19.915  1.00  0.00    -0.203 F 
ATOM    109  C   UNL     1      10.078  11.176  22.086  1.00  0.00     0.198 A 
ATOM    110  C   UNL     1       7.875  10.998  23.025  1.00  0.00     0.198 A 
ATOM    111  F   UNL     1       6.149   9.982  21.794  1.00  0.00    -0.203 F 
ATOM    112  F   UNL     1      11.365  11.527  22.206  1.00  0.00    -0.200 F 
ATOM    113  C   UNL     1       9.200  11.390  23.139  1.00  0.00     0.200 A 
ATOM    114  F   UNL     1       7.023  11.216  24.036  1.00  0.00    -0.200 F 
ATOM    115  F   UNL     1       9.635  11.967  24.268  1.00  0.00    -0.200 F 
ENDBRANCH  82 105
ENDBRANCH  56  57
ENDBRANCH  49  51
ENDBRANCH  48  49
ENDBRANCH  47  48
ENDBRANCH  46  47
ENDBRANCH  45  46
ENDBRANCH  44  45
ENDBRANCH   1  44
TORSDOF 26
