REMARK SMILES O=C(OCCOCCOC(=O)[C@H]1Cc2c([nH]c3ccccc23)[C@H](c2c[nH]c3ccccc23)[NH2+]1)c1ccc(-c2c3nc(c(-c4c(F)c(F)c(F)c(F)c4F)c4ccc([nH]4)c(-c4c(F)c(F)c(F)c(F)c4F)c4nc(c(-c5c(F)c(F)c(F)c(F)c5F)c5ccc2[nH]5)C=C4)C=C3)cc1
REMARK SMILES IDX 5 1 4 2 3 3 2 4 1 5 34 6 35 7 96 8 36 9 95 10 37 11 38 12
REMARK SMILES IDX 39 13 89 14 40 15 94 16 88 17 90 18 41 19 93 20 87 21 86 22
REMARK SMILES IDX 42 24 74 25 54 26 73 27 55 28 58 29 72 30 91 31 56 32 57 33
REMARK SMILES IDX 71 35 92 36 59 37 43 38 44 39 52 40 45 41 46 42 50 43 53 44
REMARK SMILES IDX 47 45 48 46 51 47 49 48 75 49 76 50 84 51 77 52 78 53 82 54
REMARK SMILES IDX 85 55 79 56 80 57 83 58 81 59 60 60 61 61 69 62 62 63 63 64
REMARK SMILES IDX 67 65 70 66 64 67 65 68 68 69 66 70 6 71 7 72 8 73 9 74
REMARK SMILES IDX 10 75 11 76 12 77 13 78 33 79 14 80 23 81 15 84 22 85 16 86
REMARK SMILES IDX 17 87 21 88 18 90 20 91 19 92 24 93 25 94 32 95 26 96 27 97
REMARK SMILES IDX 31 98 28 100 30 101 29 102
REMARK H PARENT 90 23 58 34 33 82 33 83 16 89 26 99
REMARK Flexibility Score: inf
ROOT
ATOM      1  C   UNL     1       4.053  -1.328   0.387  1.00  0.00     0.202 C 
ENDROOT
BRANCH   1   2
ATOM      2  C   UNL     1       3.645  -0.069   1.146  1.00  0.00     0.261 C 
BRANCH   2   3
ATOM      3  O   UNL     1       2.256   0.203   0.948  1.00  0.00    -0.460 OA
BRANCH   3   4
ATOM      4  C   UNL     1       1.733   1.047   0.035  1.00  0.00     0.338 C 
ATOM      5  O   UNL     1       0.512   1.173  -0.025  1.00  0.00    -0.246 OA
BRANCH   4   6
ATOM      6  C   UNL     1       2.565   1.858  -0.901  1.00  0.00     0.060 A 
ATOM      7  C   UNL     1       3.789   1.461  -1.450  1.00  0.00     0.016 A 
ATOM      8  C   UNL     1       2.008   3.065  -1.341  1.00  0.00     0.016 A 
ATOM      9  C   UNL     1       4.426   2.183  -2.431  1.00  0.00     0.010 A 
ATOM     10  C   UNL     1       2.643   3.815  -2.327  1.00  0.00     0.010 A 
ATOM     11  C   UNL     1       3.841   3.352  -2.880  1.00  0.00    -0.014 A 
BRANCH  11  12
ATOM     12  C   UNL     1       4.590   4.133  -3.856  1.00  0.00     0.031 A 
ATOM     13  C   UNL     1       5.359   5.294  -3.346  1.00  0.00     0.074 A 
ATOM     14  C   UNL     1       4.625   3.720  -5.130  1.00  0.00     0.049 A 
ATOM     15  N   UNL     1       5.917   6.266  -4.005  1.00  0.00    -0.248 NA
ATOM     16  C   UNL     1       5.518   5.373  -1.883  1.00  0.00     0.031 C 
ATOM     17  C   UNL     1       4.033   2.476  -5.632  1.00  0.00     0.029 A 
ATOM     18  N   UNL     1       5.178   4.300  -6.233  1.00  0.00    -0.354 N 
ATOM     19  C   UNL     1       6.436   7.110  -3.036  1.00  0.00     0.074 A 
ATOM     20  C   UNL     1       6.151   6.526  -1.746  1.00  0.00     0.031 C 
ATOM     21  C   UNL     1       4.228   2.405  -6.957  1.00  0.00     0.029 A 
ATOM     22  C   UNL     1       4.875   3.635  -7.394  1.00  0.00     0.049 A 
ATOM     23  H   UNL     1       5.736   5.111  -6.200  1.00  0.00     0.167 HD
ATOM     24  C   UNL     1       7.060   8.290  -3.240  1.00  0.00     0.037 A 
ATOM     25  C   UNL     1       5.039   4.039  -8.665  1.00  0.00     0.037 A 
ATOM     26  C   UNL     1       7.292   8.808  -4.561  1.00  0.00     0.049 A 
ATOM     27  C   UNL     1       5.655   5.394  -8.877  1.00  0.00     0.074 A 
ATOM     28  C   UNL     1       7.853  10.009  -4.940  1.00  0.00     0.029 A 
ATOM     29  N   UNL     1       6.956   8.127  -5.730  1.00  0.00    -0.354 N 
ATOM     30  N   UNL     1       6.067   6.259  -7.976  1.00  0.00    -0.248 NA
ATOM     31  C   UNL     1       5.816   5.844 -10.261  1.00  0.00     0.031 C 
ATOM     32  C   UNL     1       7.806  10.077  -6.338  1.00  0.00     0.029 A 
ATOM     33  C   UNL     1       7.280   8.890  -6.834  1.00  0.00     0.049 A 
ATOM     34  H   UNL     1       6.547   7.232  -5.764  1.00  0.00     0.167 HD
ATOM     35  C   UNL     1       6.559   7.346  -8.679  1.00  0.00     0.074 A 
ATOM     36  C   UNL     1       6.391   7.027 -10.087  1.00  0.00     0.031 C 
ATOM     37  C   UNL     1       7.102   8.499  -8.214  1.00  0.00     0.037 A 
BRANCH  24  38
ATOM     38  C   UNL     1       7.388   9.100  -2.022  1.00  0.00     0.064 A 
ATOM     39  C   UNL     1       8.342   8.687  -1.078  1.00  0.00     0.173 A 
ATOM     40  C   UNL     1       6.652  10.261  -1.739  1.00  0.00     0.173 A 
ATOM     41  F   UNL     1       9.047   7.563  -1.278  1.00  0.00    -0.203 F 
ATOM     42  C   UNL     1       8.507   9.374   0.123  1.00  0.00     0.198 A 
ATOM     43  C   UNL     1       6.845  10.966  -0.554  1.00  0.00     0.198 A 
ATOM     44  F   UNL     1       5.717  10.696  -2.598  1.00  0.00    -0.203 F 
ATOM     45  F   UNL     1       9.356   8.906   1.049  1.00  0.00    -0.200 F 
ATOM     46  C   UNL     1       7.760  10.512   0.384  1.00  0.00     0.200 A 
ATOM     47  F   UNL     1       6.121  12.066  -0.305  1.00  0.00    -0.200 F 
ATOM     48  F   UNL     1       7.902  11.158   1.550  1.00  0.00    -0.200 F 
ENDBRANCH  24  38
BRANCH  25  49
ATOM     49  C   UNL     1       4.551   3.185  -9.778  1.00  0.00     0.064 A 
ATOM     50  C   UNL     1       5.442   2.557 -10.656  1.00  0.00     0.173 A 
ATOM     51  C   UNL     1       3.181   2.922  -9.945  1.00  0.00     0.173 A 
ATOM     52  F   UNL     1       6.759   2.783 -10.548  1.00  0.00    -0.203 F 
ATOM     53  C   UNL     1       4.984   1.702 -11.658  1.00  0.00     0.198 A 
ATOM     54  C   UNL     1       2.726   2.046 -10.929  1.00  0.00     0.198 A 
ATOM     55  F   UNL     1       2.282   3.491  -9.128  1.00  0.00    -0.203 F 
ATOM     56  F   UNL     1       5.857   1.130 -12.499  1.00  0.00    -0.200 F 
ATOM     57  C   UNL     1       3.628   1.438 -11.787  1.00  0.00     0.200 A 
ATOM     58  F   UNL     1       1.416   1.780 -11.034  1.00  0.00    -0.200 F 
ATOM     59  F   UNL     1       3.191   0.601 -12.738  1.00  0.00    -0.200 F 
ENDBRANCH  25  49
BRANCH  37  60
ATOM     60  C   UNL     1       7.608   9.467  -9.238  1.00  0.00     0.064 A 
ATOM     61  C   UNL     1       6.739  10.275  -9.980  1.00  0.00     0.173 A 
ATOM     62  C   UNL     1       8.990   9.658  -9.388  1.00  0.00     0.173 A 
ATOM     63  F   UNL     1       5.411  10.113  -9.877  1.00  0.00    -0.203 F 
ATOM     64  C   UNL     1       7.237  11.245 -10.843  1.00  0.00     0.198 A 
ATOM     65  C   UNL     1       9.483  10.649 -10.227  1.00  0.00     0.198 A 
ATOM     66  F   UNL     1       9.856   8.909  -8.688  1.00  0.00    -0.203 F 
ATOM     67  F   UNL     1       6.393  11.995 -11.563  1.00  0.00    -0.200 F 
ATOM     68  C   UNL     1       8.607  11.440 -10.954  1.00  0.00     0.200 A 
ATOM     69  F   UNL     1      10.805  10.849 -10.318  1.00  0.00    -0.200 F 
ATOM     70  F   UNL     1       9.084  12.396 -11.762  1.00  0.00    -0.200 F 
ENDBRANCH  37  60
ENDBRANCH  11  12
ENDBRANCH   4   6
ENDBRANCH   3   4
ENDBRANCH   2   3
ENDBRANCH   1   2
BRANCH   1  71
ATOM     71  O   UNL     1       3.678  -1.326  -0.986  1.00  0.00    -0.374 OA
BRANCH  71  72
ATOM     72  C   UNL     1       2.425  -1.914  -1.310  1.00  0.00     0.202 C 
BRANCH  72  73
ATOM     73  C   UNL     1       2.696  -3.172  -2.126  1.00  0.00     0.261 C 
BRANCH  73  74
ATOM     74  O   UNL     1       3.335  -4.117  -1.258  1.00  0.00    -0.459 OA
BRANCH  74  75
ATOM     75  C   UNL     1       4.696  -3.982  -1.088  1.00  0.00     0.365 C 
ATOM     76  O   UNL     1       5.446  -3.369  -1.822  1.00  0.00    -0.245 OA
BRANCH  75  77
ATOM     77  C   UNL     1       5.064  -4.665   0.240  1.00  0.00     0.298 C 
ATOM     78  C   UNL     1       4.619  -6.117   0.018  1.00  0.00     0.115 C 
ATOM     79  N   UNL     1       6.492  -4.454   0.603  1.00  0.00    -0.323 N 
ATOM     80  C   UNL     1       5.244  -6.997   1.004  1.00  0.00    -0.006 A 
ATOM     81  C   UNL     1       7.026  -5.258   1.714  1.00  0.00     0.264 C 
ATOM     82  H   UNL     1       6.604  -3.471   0.853  1.00  0.00     0.347 HD
ATOM     83  H   UNL     1       7.021  -4.752  -0.217  1.00  0.00     0.347 HD
ATOM     84  C   UNL     1       6.343  -6.609   1.737  1.00  0.00     0.083 A 
ATOM     85  C   UNL     1       4.894  -8.318   1.338  1.00  0.00     0.003 A 
ATOM     86  N   UNL     1       6.734  -7.716   2.449  1.00  0.00    -0.353 N 
ATOM     87  C   UNL     1       5.854  -8.760   2.243  1.00  0.00     0.046 A 
ATOM     88  C   UNL     1       3.862  -9.183   0.932  1.00  0.00     0.010 A 
ATOM     89  H   UNL     1       7.530  -7.759   3.026  1.00  0.00     0.166 HD
ATOM     90  C   UNL     1       5.835 -10.056   2.765  1.00  0.00     0.026 A 
ATOM     91  C   UNL     1       3.824 -10.477   1.450  1.00  0.00     0.001 A 
ATOM     92  C   UNL     1       4.800 -10.905   2.349  1.00  0.00     0.002 A 
BRANCH  81  93
ATOM     93  C   UNL     1       7.061  -4.594   3.101  1.00  0.00     0.041 A 
ATOM     94  C   UNL     1       7.665  -5.222   4.190  1.00  0.00     0.093 A 
ATOM     95  C   UNL     1       6.660  -3.299   3.628  1.00  0.00     0.009 A 
ATOM     96  N   UNL     1       7.463  -4.497   5.324  1.00  0.00    -0.361 N 
ATOM     97  C   UNL     1       6.848  -3.316   5.018  1.00  0.00     0.046 A 
ATOM     98  C   UNL     1       6.176  -2.084   3.099  1.00  0.00     0.011 A 
ATOM     99  H   UNL     1       7.721  -4.781   6.231  1.00  0.00     0.166 HD
ATOM    100  C   UNL     1       6.486  -2.270   5.880  1.00  0.00     0.026 A 
ATOM    101  C   UNL     1       5.849  -1.004   3.940  1.00  0.00     0.001 A 
ATOM    102  C   UNL     1       5.968  -1.110   5.317  1.00  0.00     0.002 A 
ENDBRANCH  81  93
ENDBRANCH  75  77
ENDBRANCH  74  75
ENDBRANCH  73  74
ENDBRANCH  72  73
ENDBRANCH  71  72
ENDBRANCH   1  71
TORSDOF 15
