REMARK SMILES O=C(C[C@@H](c1cccc([N+](=O)[O-])c1)N1Cc2ccccc2C1=O)OCCOCCOC(=O)c1ccc(-c2c3nc(c(-c4c(F)c(F)c(F)c(F)c4F)c4ccc([nH]4)c(-c4c(F)c(F)c(F)c(F)c4F)c4nc(c(-c5c(F)c(F)c(F)c(F)c5F)c5ccc2[nH]5)C=C4)C=C3)cc1
REMARK SMILES IDX 26 1 25 2 24 3 2 4 1 5 3 6 4 7 5 8 6 9 13 10 7 11 9 12 8 13
REMARK SMILES IDX 10 14 11 15 12 16 14 17 15 18 22 19 16 20 21 21 23 22 17 23
REMARK SMILES IDX 20 24 18 25 19 26 27 27 28 28 29 29 30 30 31 31 32 32 33 33
REMARK SMILES IDX 34 34 95 35 35 36 94 37 36 38 37 39 38 40 88 41 39 42 93 43
REMARK SMILES IDX 87 44 89 45 40 46 92 47 86 48 85 49 41 51 73 52 53 53 72 54
REMARK SMILES IDX 54 55 57 56 71 57 90 58 55 59 56 60 70 62 91 63 58 64 42 65
REMARK SMILES IDX 43 66 51 67 44 68 45 69 49 70 52 71 46 72 47 73 50 74 48 75
REMARK SMILES IDX 74 76 75 77 83 78 76 79 77 80 81 81 84 82 78 83 79 84 82 85
REMARK SMILES IDX 80 86 59 87 60 88 68 89 61 90 62 91 66 92 69 93 63 94 64 95
REMARK SMILES IDX 67 96 65 97
REMARK H PARENT 89 50 57 61
REMARK Flexibility Score: inf
ROOT
ATOM      1  C   UNL     1       3.084  -0.295  -1.885  1.00  0.00     0.202 C 
ENDROOT
BRANCH   1   2
ATOM      2  C   UNL     1       2.385  -1.142  -0.818  1.00  0.00     0.261 C 
BRANCH   2   3
ATOM      3  O   UNL     1       1.632  -0.353   0.106  1.00  0.00    -0.463 OA
BRANCH   3   4
ATOM      4  C   UNL     1       2.092  -0.476   1.380  1.00  0.00     0.308 C 
ATOM      5  O   UNL     1       1.687  -1.333   2.152  1.00  0.00    -0.252 OA
BRANCH   4   6
ATOM      6  C   UNL     1       3.091   0.592   1.728  1.00  0.00     0.152 C 
BRANCH   6   7
ATOM      7  C   UNL     1       4.351   0.029   2.378  1.00  0.00     0.127 C 
BRANCH   7   8
ATOM      8  C   UNL     1       5.023  -1.148   1.624  1.00  0.00    -0.018 A 
ATOM      9  C   UNL     1       4.891  -2.458   2.122  1.00  0.00     0.006 A 
ATOM     10  C   UNL     1       5.769  -1.004   0.440  1.00  0.00     0.091 A 
ATOM     11  C   UNL     1       5.501  -3.556   1.490  1.00  0.00     0.007 A 
ATOM     12  C   UNL     1       6.451  -2.087  -0.142  1.00  0.00     0.269 A 
ATOM     13  C   UNL     1       6.304  -3.373   0.366  1.00  0.00     0.085 A 
BRANCH  12  14
ATOM     14  N   UNL     1       7.347  -1.845  -1.279  1.00  0.00     0.062 N 
ATOM     15  O   UNL     1       7.821  -2.828  -1.865  1.00  0.00    -0.258 OA
ATOM     16  O   UNL     1       7.577  -0.668  -1.591  1.00  0.00    -0.258 OA
ENDBRANCH  12  14
ENDBRANCH   7   8
BRANCH   7  17
ATOM     17  N   UNL     1       5.296   1.128   2.671  1.00  0.00    -0.327 N 
ATOM     18  C   UNL     1       5.990   1.888   1.647  1.00  0.00     0.157 C 
ATOM     19  C   UNL     1       6.045   1.155   3.852  1.00  0.00     0.255 C 
ATOM     20  C   UNL     1       7.399   1.640   2.052  1.00  0.00    -0.016 A 
ATOM     21  C   UNL     1       7.422   1.515   3.443  1.00  0.00     0.045 A 
ATOM     22  O   UNL     1       5.728   0.758   4.955  1.00  0.00    -0.269 OA
ATOM     23  C   UNL     1       8.526   1.342   1.314  1.00  0.00     0.006 A 
ATOM     24  C   UNL     1       8.583   1.320   4.160  1.00  0.00     0.014 A 
ATOM     25  C   UNL     1       9.697   1.030   2.015  1.00  0.00     0.000 A 
ATOM     26  C   UNL     1       9.742   1.086   3.423  1.00  0.00     0.001 A 
ENDBRANCH   7  17
ENDBRANCH   6   7
ENDBRANCH   4   6
ENDBRANCH   3   4
ENDBRANCH   2   3
ENDBRANCH   1   2
BRANCH   1  27
ATOM     27  O   UNL     1       3.298   1.067  -1.504  1.00  0.00    -0.374 OA
BRANCH  27  28
ATOM     28  C   UNL     1       2.251   1.938  -1.961  1.00  0.00     0.202 C 
BRANCH  28  29
ATOM     29  C   UNL     1       2.589   2.600  -3.305  1.00  0.00     0.261 C 
BRANCH  29  30
ATOM     30  O   UNL     1       3.038   1.614  -4.251  1.00  0.00    -0.460 OA
BRANCH  30  31
ATOM     31  C   UNL     1       4.386   1.533  -4.385  1.00  0.00     0.338 C 
ATOM     32  O   UNL     1       5.209   2.351  -4.002  1.00  0.00    -0.246 OA
BRANCH  31  33
ATOM     33  C   UNL     1       4.758   0.193  -4.902  1.00  0.00     0.060 A 
ATOM     34  C   UNL     1       5.976  -0.350  -4.474  1.00  0.00     0.016 A 
ATOM     35  C   UNL     1       3.925  -0.551  -5.743  1.00  0.00     0.016 A 
ATOM     36  C   UNL     1       6.363  -1.631  -4.873  1.00  0.00     0.010 A 
ATOM     37  C   UNL     1       4.321  -1.827  -6.160  1.00  0.00     0.010 A 
ATOM     38  C   UNL     1       5.546  -2.371  -5.734  1.00  0.00    -0.014 A 
BRANCH  38  39
ATOM     39  C   UNL     1       6.028  -3.644  -6.321  1.00  0.00     0.031 A 
ATOM     40  C   UNL     1       6.734  -3.597  -7.645  1.00  0.00     0.074 A 
ATOM     41  C   UNL     1       5.817  -4.824  -5.711  1.00  0.00     0.049 A 
ATOM     42  N   UNL     1       7.092  -4.579  -8.431  1.00  0.00    -0.248 NA
ATOM     43  C   UNL     1       7.079  -2.259  -8.153  1.00  0.00     0.031 C 
ATOM     44  C   UNL     1       5.205  -5.003  -4.397  1.00  0.00     0.029 A 
ATOM     45  N   UNL     1       6.076  -6.104  -6.139  1.00  0.00    -0.354 N 
ATOM     46  C   UNL     1       7.686  -3.978  -9.532  1.00  0.00     0.074 A 
ATOM     47  C   UNL     1       7.641  -2.549  -9.317  1.00  0.00     0.031 C 
ATOM     48  C   UNL     1       5.100  -6.320  -4.141  1.00  0.00     0.029 A 
ATOM     49  C   UNL     1       5.599  -7.074  -5.291  1.00  0.00     0.049 A 
ATOM     50  H   UNL     1       6.557  -6.307  -6.974  1.00  0.00     0.167 HD
ATOM     51  C   UNL     1       8.217  -4.569 -10.627  1.00  0.00     0.037 A 
ATOM     52  C   UNL     1       5.532  -8.412  -5.450  1.00  0.00     0.037 A 
ATOM     53  C   UNL     1       8.275  -5.989 -10.838  1.00  0.00     0.049 A 
ATOM     54  C   UNL     1       6.047  -9.037  -6.725  1.00  0.00     0.074 A 
ATOM     55  C   UNL     1       8.833  -6.679 -11.900  1.00  0.00     0.029 A 
ATOM     56  N   UNL     1       7.749  -6.936  -9.974  1.00  0.00    -0.354 N 
ATOM     57  N   UNL     1       6.622  -8.468  -7.755  1.00  0.00    -0.248 NA
ATOM     58  C   UNL     1       5.884 -10.494  -6.864  1.00  0.00     0.031 C 
ATOM     59  C   UNL     1       8.599  -8.044 -11.703  1.00  0.00     0.029 A 
ATOM     60  C   UNL     1       7.933  -8.204 -10.499  1.00  0.00     0.049 A 
ATOM     61  H   UNL     1       7.311  -6.736  -9.116  1.00  0.00     0.167 HD
ATOM     62  C   UNL     1       6.905  -9.492  -8.651  1.00  0.00     0.074 A 
ATOM     63  C   UNL     1       6.454 -10.722  -8.039  1.00  0.00     0.031 C 
ATOM     64  C   UNL     1       7.481  -9.419  -9.876  1.00  0.00     0.037 A 
BRANCH  51  65
ATOM     65  C   UNL     1       8.746  -3.680 -11.707  1.00  0.00     0.064 A 
ATOM     66  C   UNL     1       9.977  -3.022 -11.583  1.00  0.00     0.173 A 
ATOM     67  C   UNL     1       8.036  -3.534 -12.908  1.00  0.00     0.173 A 
ATOM     68  F   UNL     1      10.683  -3.119 -10.447  1.00  0.00    -0.203 F 
ATOM     69  C   UNL     1      10.476  -2.243 -12.623  1.00  0.00     0.198 A 
ATOM     70  C   UNL     1       8.547  -2.772 -13.953  1.00  0.00     0.198 A 
ATOM     71  F   UNL     1       6.852  -4.144 -13.071  1.00  0.00    -0.203 F 
ATOM     72  F   UNL     1      11.644  -1.602 -12.477  1.00  0.00    -0.200 F 
ATOM     73  C   UNL     1       9.766  -2.126 -13.810  1.00  0.00     0.200 A 
ATOM     74  F   UNL     1       7.863  -2.667 -15.101  1.00  0.00    -0.200 F 
ATOM     75  F   UNL     1      10.255  -1.387 -14.815  1.00  0.00    -0.200 F 
ENDBRANCH  51  65
BRANCH  52  76
ATOM     76  C   UNL     1       4.887  -9.262  -4.414  1.00  0.00     0.064 A 
ATOM     77  C   UNL     1       5.627 -10.200  -3.681  1.00  0.00     0.173 A 
ATOM     78  C   UNL     1       3.503  -9.203  -4.188  1.00  0.00     0.173 A 
ATOM     79  F   UNL     1       6.946 -10.320  -3.886  1.00  0.00    -0.203 F 
ATOM     80  C   UNL     1       5.004 -11.064  -2.781  1.00  0.00     0.198 A 
ATOM     81  C   UNL     1       2.886 -10.046  -3.267  1.00  0.00     0.198 A 
ATOM     82  F   UNL     1       2.748  -8.330  -4.871  1.00  0.00    -0.203 F 
ATOM     83  F   UNL     1       5.725 -11.993  -2.138  1.00  0.00    -0.200 F 
ATOM     84  C   UNL     1       3.635 -10.984  -2.572  1.00  0.00     0.200 A 
ATOM     85  F   UNL     1       1.564  -9.961  -3.066  1.00  0.00    -0.200 F 
ATOM     86  F   UNL     1       3.035 -11.821  -1.715  1.00  0.00    -0.200 F 
ENDBRANCH  52  76
BRANCH  64  87
ATOM     87  C   UNL     1       7.671 -10.700 -10.633  1.00  0.00     0.064 A 
ATOM     88  C   UNL     1       6.590 -11.356 -11.240  1.00  0.00     0.173 A 
ATOM     89  C   UNL     1       8.953 -11.243 -10.806  1.00  0.00     0.173 A 
ATOM     90  F   UNL     1       5.344 -10.883 -11.091  1.00  0.00    -0.203 F 
ATOM     91  C   UNL     1       6.785 -12.517 -11.984  1.00  0.00     0.198 A 
ATOM     92  C   UNL     1       9.147 -12.390 -11.572  1.00  0.00     0.198 A 
ATOM     93  F   UNL     1      10.020 -10.649 -10.251  1.00  0.00    -0.203 F 
ATOM     94  F   UNL     1       5.735 -13.146 -12.529  1.00  0.00    -0.200 F 
ATOM     95  C   UNL     1       8.063 -13.027 -12.156  1.00  0.00     0.200 A 
ATOM     96  F   UNL     1      10.384 -12.874 -11.748  1.00  0.00    -0.200 F 
ATOM     97  F   UNL     1       8.250 -14.138 -12.883  1.00  0.00    -0.200 F 
ENDBRANCH  64  87
ENDBRANCH  38  39
ENDBRANCH  31  33
ENDBRANCH  30  31
ENDBRANCH  29  30
ENDBRANCH  28  29
ENDBRANCH  27  28
ENDBRANCH   1  27
TORSDOF 18
