REMARK SMILES CCC[C@@H]([NH2+]C[C@H]1CSc2ccccc21)C(=O)OCCOCCOC(=O)c1ccc(-c2c3nc(c(-c4c(F)c(F)c(F)c(F)c4F)c4ccc([nH]4)c(-c4c(F)c(F)c(F)c(F)c4F)c4nc(c(-c5c(F)c(F)c(F)c(F)c5F)c5ccc2[nH]5)C=C4)C=C3)cc1
REMARK SMILES IDX 20 1 19 2 18 3 16 4 17 5 4 6 3 7 2 8 1 9 5 10 6 13 7 14 8 15
REMARK SMILES IDX 15 16 9 17 10 18 14 19 11 20 13 21 12 22 21 23 22 24 23 25
REMARK SMILES IDX 24 26 25 27 26 28 27 29 28 30 89 31 29 32 88 33 30 34 31 35
REMARK SMILES IDX 32 36 82 37 33 38 87 39 81 40 83 41 34 42 86 43 80 44 79 45
REMARK SMILES IDX 35 47 67 48 47 49 66 50 48 51 51 52 65 53 84 54 49 55 50 56
REMARK SMILES IDX 64 58 85 59 52 60 36 61 37 62 45 63 38 64 39 65 43 66 46 67
REMARK SMILES IDX 40 68 41 69 44 70 42 71 68 72 69 73 77 74 70 75 71 76 75 77
REMARK SMILES IDX 78 78 72 79 73 80 76 81 74 82 53 83 54 84 62 85 55 86 56 87
REMARK SMILES IDX 60 88 63 89 57 90 58 91 61 92 59 93
REMARK H PARENT 5 11 5 12 83 46 51 57
REMARK Flexibility Score: inf
ROOT
ATOM      1  C   UNL     1       2.658   6.371  -2.351  1.00  0.00     0.202 C 
ENDROOT
BRANCH   1   2
ATOM      2  C   UNL     1       1.167   6.240  -1.999  1.00  0.00     0.261 C 
BRANCH   2   3
ATOM      3  O   UNL     1       0.834   5.104  -1.195  1.00  0.00    -0.459 OA
BRANCH   3   4
ATOM      4  C   UNL     1       0.561   4.009  -1.954  1.00  0.00     0.364 C 
ATOM      5  O   UNL     1       0.634   4.013  -3.183  1.00  0.00    -0.245 OA
BRANCH   4   6
ATOM      6  C   UNL     1       0.200   2.736  -1.153  1.00  0.00     0.293 C 
BRANCH   6   7
ATOM      7  C   UNL     1       0.533   2.815   0.353  1.00  0.00     0.077 C 
BRANCH   7   8
ATOM      8  C   UNL     1       0.322   1.522   1.161  1.00  0.00     0.003 C 
ATOM      9  C   UNL     1       0.997   0.289   0.579  1.00  0.00     0.004 C 
ENDBRANCH   7   8
ENDBRANCH   6   7
BRANCH   6  10
ATOM     10  N   UNL     1      -1.207   2.341  -1.375  1.00  0.00    -0.334 N 
ATOM     11  H   UNL     1      -1.794   2.933  -0.787  1.00  0.00     0.347 HD
ATOM     12  H   UNL     1      -1.254   1.349  -1.145  1.00  0.00     0.347 HD
BRANCH  10  13
ATOM     13  C   UNL     1      -1.696   2.454  -2.757  1.00  0.00     0.270 C 
BRANCH  13  14
ATOM     14  C   UNL     1      -1.284   1.418  -3.842  1.00  0.00     0.086 C 
ATOM     15  C   UNL     1       0.202   1.048  -4.030  1.00  0.00     0.089 C 
ATOM     16  C   UNL     1      -2.013   0.117  -3.616  1.00  0.00    -0.025 A 
ATOM     17  S   UNL     1       0.505  -0.553  -3.217  1.00  0.00    -0.125 SA
ATOM     18  C   UNL     1      -1.212  -0.950  -3.210  1.00  0.00     0.011 A 
ATOM     19  C   UNL     1      -3.393  -0.034  -3.720  1.00  0.00     0.005 A 
ATOM     20  C   UNL     1      -1.775  -2.162  -2.849  1.00  0.00     0.015 A 
ATOM     21  C   UNL     1      -3.967  -1.252  -3.368  1.00  0.00     0.000 A 
ATOM     22  C   UNL     1      -3.163  -2.308  -2.923  1.00  0.00     0.001 A 
ENDBRANCH  13  14
ENDBRANCH  10  13
ENDBRANCH   6  10
ENDBRANCH   4   6
ENDBRANCH   3   4
ENDBRANCH   2   3
ENDBRANCH   1   2
BRANCH   1  23
ATOM     23  O   UNL     1       3.406   5.221  -2.722  1.00  0.00    -0.374 OA
BRANCH  23  24
ATOM     24  C   UNL     1       3.705   4.215  -1.757  1.00  0.00     0.202 C 
BRANCH  24  25
ATOM     25  C   UNL     1       4.397   4.602  -0.447  1.00  0.00     0.261 C 
BRANCH  25  26
ATOM     26  O   UNL     1       3.603   5.494   0.355  1.00  0.00    -0.460 OA
BRANCH  26  27
ATOM     27  C   UNL     1       4.183   6.691   0.606  1.00  0.00     0.338 C 
ATOM     28  O   UNL     1       5.310   7.052   0.290  1.00  0.00    -0.246 OA
BRANCH  27  29
ATOM     29  C   UNL     1       3.185   7.631   1.141  1.00  0.00     0.060 A 
ATOM     30  C   UNL     1       2.513   7.375   2.335  1.00  0.00     0.016 A 
ATOM     31  C   UNL     1       2.999   8.843   0.460  1.00  0.00     0.016 A 
ATOM     32  C   UNL     1       1.695   8.369   2.879  1.00  0.00     0.010 A 
ATOM     33  C   UNL     1       2.179   9.830   1.001  1.00  0.00     0.010 A 
ATOM     34  C   UNL     1       1.554   9.615   2.235  1.00  0.00    -0.014 A 
BRANCH  34  35
ATOM     35  C   UNL     1       0.925  10.754   2.947  1.00  0.00     0.031 A 
ATOM     36  C   UNL     1      -0.421  11.284   2.564  1.00  0.00     0.074 A 
ATOM     37  C   UNL     1       1.628  11.341   3.935  1.00  0.00     0.049 A 
ATOM     38  N   UNL     1      -1.131  12.213   3.152  1.00  0.00    -0.248 NA
ATOM     39  C   UNL     1      -1.048  10.714   1.364  1.00  0.00     0.031 C 
ATOM     40  C   UNL     1       2.983  10.956   4.337  1.00  0.00     0.029 A 
ATOM     41  N   UNL     1       1.309  12.371   4.782  1.00  0.00    -0.354 N 
ATOM     42  C   UNL     1      -2.300  12.322   2.414  1.00  0.00     0.074 A 
ATOM     43  C   UNL     1      -2.179  11.407   1.298  1.00  0.00     0.031 C 
ATOM     44  C   UNL     1       3.360  11.707   5.381  1.00  0.00     0.029 A 
ATOM     45  C   UNL     1       2.288  12.643   5.706  1.00  0.00     0.049 A 
ATOM     46  H   UNL     1       0.460  12.867   4.733  1.00  0.00     0.167 HD
ATOM     47  C   UNL     1      -3.381  13.098   2.667  1.00  0.00     0.037 A 
ATOM     48  C   UNL     1       2.316  13.537   6.713  1.00  0.00     0.037 A 
ATOM     49  C   UNL     1      -3.479  14.017   3.773  1.00  0.00     0.049 A 
ATOM     50  C   UNL     1       1.112  14.404   6.955  1.00  0.00     0.074 A 
ATOM     51  C   UNL     1      -4.554  14.809   4.140  1.00  0.00     0.029 A 
ATOM     52  N   UNL     1      -2.462  14.280   4.680  1.00  0.00    -0.354 N 
ATOM     53  N   UNL     1      -0.033  14.420   6.318  1.00  0.00    -0.248 NA
ATOM     54  C   UNL     1       1.198  15.371   8.059  1.00  0.00     0.031 C 
ATOM     55  C   UNL     1      -4.168  15.593   5.230  1.00  0.00     0.029 A 
ATOM     56  C   UNL     1      -2.875  15.245   5.586  1.00  0.00     0.049 A 
ATOM     57  H   UNL     1      -1.579  13.845   4.681  1.00  0.00     0.167 HD
ATOM     58  C   UNL     1      -0.813  15.373   6.958  1.00  0.00     0.074 A 
ATOM     59  C   UNL     1      -0.015  15.909   8.040  1.00  0.00     0.031 C 
ATOM     60  C   UNL     1      -2.078  15.762   6.670  1.00  0.00     0.037 A 
BRANCH  47  61
ATOM     61  C   UNL     1      -4.567  12.977   1.755  1.00  0.00     0.064 A 
ATOM     62  C   UNL     1      -5.374  11.829   1.762  1.00  0.00     0.173 A 
ATOM     63  C   UNL     1      -4.968  14.054   0.949  1.00  0.00     0.173 A 
ATOM     64  F   UNL     1      -5.036  10.771   2.514  1.00  0.00    -0.203 F 
ATOM     65  C   UNL     1      -6.529  11.759   0.988  1.00  0.00     0.198 A 
ATOM     66  C   UNL     1      -6.140  13.992   0.199  1.00  0.00     0.198 A 
ATOM     67  F   UNL     1      -4.241  15.181   0.916  1.00  0.00    -0.203 F 
ATOM     68  F   UNL     1      -7.270  10.642   0.992  1.00  0.00    -0.200 F 
ATOM     69  C   UNL     1      -6.917  12.844   0.216  1.00  0.00     0.200 A 
ATOM     70  F   UNL     1      -6.524  15.049  -0.530  1.00  0.00    -0.200 F 
ATOM     71  F   UNL     1      -8.043  12.784  -0.509  1.00  0.00    -0.200 F 
ENDBRANCH  47  61
BRANCH  48  72
ATOM     72  C   UNL     1       3.505  13.600   7.601  1.00  0.00     0.064 A 
ATOM     73  C   UNL     1       3.432  13.155   8.928  1.00  0.00     0.173 A 
ATOM     74  C   UNL     1       4.745  14.059   7.133  1.00  0.00     0.173 A 
ATOM     75  F   UNL     1       2.265  12.719   9.425  1.00  0.00    -0.203 F 
ATOM     76  C   UNL     1       4.552  13.177   9.756  1.00  0.00     0.198 A 
ATOM     77  C   UNL     1       5.871  14.052   7.953  1.00  0.00     0.198 A 
ATOM     78  F   UNL     1       4.869  14.485   5.867  1.00  0.00    -0.203 F 
ATOM     79  F   UNL     1       4.448  12.775  11.030  1.00  0.00    -0.200 F 
ATOM     80  C   UNL     1       5.772  13.616   9.265  1.00  0.00     0.200 A 
ATOM     81  F   UNL     1       7.052  14.459   7.469  1.00  0.00    -0.200 F 
ATOM     82  F   UNL     1       6.853  13.621  10.058  1.00  0.00    -0.200 F 
ENDBRANCH  48  72
BRANCH  60  83
ATOM     83  C   UNL     1      -2.712  16.805   7.545  1.00  0.00     0.064 A 
ATOM     84  C   UNL     1      -2.337  18.153   7.467  1.00  0.00     0.173 A 
ATOM     85  C   UNL     1      -3.787  16.467   8.382  1.00  0.00     0.173 A 
ATOM     86  F   UNL     1      -1.307  18.525   6.692  1.00  0.00    -0.203 F 
ATOM     87  C   UNL     1      -3.020  19.127   8.192  1.00  0.00     0.198 A 
ATOM     88  C   UNL     1      -4.485  17.447   9.083  1.00  0.00     0.198 A 
ATOM     89  F   UNL     1      -4.188  15.191   8.486  1.00  0.00    -0.203 F 
ATOM     90  F   UNL     1      -2.635  20.409   8.116  1.00  0.00    -0.200 F 
ATOM     91  C   UNL     1      -4.101  18.775   8.987  1.00  0.00     0.200 A 
ATOM     92  F   UNL     1      -5.541  17.107   9.834  1.00  0.00    -0.200 F 
ATOM     93  F   UNL     1      -4.777  19.719   9.657  1.00  0.00    -0.200 F 
ENDBRANCH  60  83
ENDBRANCH  34  35
ENDBRANCH  27  29
ENDBRANCH  26  27
ENDBRANCH  25  26
ENDBRANCH  24  25
ENDBRANCH  23  24
ENDBRANCH   1  23
TORSDOF 19
