REMARK SMILES Nc1c(Cl)ccc2c1C=C(C(=O)OCCOCCOC(=O)c1ccc(-c3c4nc(c(-c5c(F)c(F)c(F)c(F)c5F)c5ccc([nH]5)c(-c5c(F)c(F)c(F)c(F)c5F)c5nc(c(-c6c(F)c(F)c(F)c(F)c6F)c6ccc3[nH]6)C=C5)C=C4)cc1)[C@@H](C(F)(F)F)O2
REMARK SMILES IDX 17 1 16 2 15 3 14 4 13 5 11 6 12 7 10 8 2 9 3 10 8 11 4 12
REMARK SMILES IDX 5 13 7 14 9 15 6 16 90 17 85 18 1 19 86 22 87 23 88 24 89 25
REMARK SMILES IDX 18 26 19 27 20 28 21 29 22 30 23 31 84 32 24 33 83 34 25 35
REMARK SMILES IDX 26 36 27 37 77 38 28 39 82 40 76 41 78 42 29 43 81 44 75 45
REMARK SMILES IDX 74 46 30 48 62 49 42 50 61 51 43 52 46 53 60 54 79 55 44 56
REMARK SMILES IDX 45 57 59 59 80 60 47 61 31 62 32 63 40 64 33 65 34 66 38 67
REMARK SMILES IDX 41 68 35 69 36 70 39 71 37 72 63 73 64 74 72 75 65 76 66 77
REMARK SMILES IDX 70 78 73 79 67 80 68 81 71 82 69 83 48 84 49 85 57 86 50 87
REMARK SMILES IDX 51 88 55 89 58 90 52 91 53 92 56 93 54 94
REMARK H PARENT 1 20 1 21 78 47 46 58
REMARK Flexibility Score: inf
ROOT
ATOM      1  C   UNL     1      -3.685   3.249   0.854  1.00  0.00     0.202 C 
ENDROOT
BRANCH   1   2
ATOM      2  O   UNL     1      -3.461   4.657   0.960  1.00  0.00    -0.374 OA
BRANCH   2   3
ATOM      3  C   UNL     1      -3.996   5.490  -0.065  1.00  0.00     0.202 C 
BRANCH   3   4
ATOM      4  C   UNL     1      -3.179   5.580  -1.356  1.00  0.00     0.261 C 
BRANCH   4   5
ATOM      5  O   UNL     1      -2.974   4.283  -1.938  1.00  0.00    -0.460 OA
BRANCH   5   6
ATOM      6  C   UNL     1      -1.685   3.870  -1.953  1.00  0.00     0.338 C 
ATOM      7  O   UNL     1      -0.701   4.533  -1.663  1.00  0.00    -0.246 OA
BRANCH   6   8
ATOM      8  C   UNL     1      -1.626   2.428  -2.259  1.00  0.00     0.088 C 
ATOM      9  C   UNL     1       0.368  -0.495  -1.137  1.00  0.00     0.061 A 
ATOM     10  C   UNL     1       0.615  -1.798  -1.622  1.00  0.00     0.064 A 
ATOM     11  C   UNL     1      -0.575   0.302  -1.827  1.00  0.00     0.042 A 
ATOM     12  Cl  UNL     1       1.826  -2.797  -0.889  1.00  0.00    -0.082 Cl
ATOM     13  C   UNL     1      -0.111  -2.327  -2.689  1.00  0.00     0.026 A 
ATOM     14  C   UNL     1      -1.326  -0.249  -2.877  1.00  0.00     0.130 A 
ATOM     15  C   UNL     1      -0.761   1.718  -1.525  1.00  0.00     0.029 C 
ATOM     16  C   UNL     1      -1.099  -1.559  -3.299  1.00  0.00     0.049 A 
ATOM     17  O   UNL     1      -2.313   0.416  -3.550  1.00  0.00    -0.475 OA
ATOM     18  C   UNL     1      -2.478   1.845  -3.346  1.00  0.00     0.316 C 
BRANCH   9  19
ATOM     19  N   UNL     1       1.135   0.016  -0.083  1.00  0.00    -0.397 N 
ATOM     20  H   UNL     1       1.784  -0.563   0.380  1.00  0.00     0.156 HD
ATOM     21  H   UNL     1       1.026   0.953   0.197  1.00  0.00     0.156 HD
ENDBRANCH   9  19
BRANCH  18  22
ATOM     22  C   UNL     1      -2.278   2.550  -4.697  1.00  0.00     0.430 C 
ATOM     23  F   UNL     1      -3.030   1.973  -5.666  1.00  0.00    -0.167 F 
ATOM     24  F   UNL     1      -2.650   3.850  -4.645  1.00  0.00    -0.167 F 
ATOM     25  F   UNL     1      -0.990   2.512  -5.106  1.00  0.00    -0.167 F 
ENDBRANCH  18  22
ENDBRANCH   6   8
ENDBRANCH   5   6
ENDBRANCH   4   5
ENDBRANCH   3   4
ENDBRANCH   2   3
ENDBRANCH   1   2
BRANCH   1  26
ATOM     26  C   UNL     1      -5.110   2.759   1.133  1.00  0.00     0.261 C 
BRANCH  26  27
ATOM     27  O   UNL     1      -6.012   3.103   0.062  1.00  0.00    -0.460 OA
BRANCH  27  28
ATOM     28  C   UNL     1      -7.030   3.920   0.413  1.00  0.00     0.338 C 
ATOM     29  O   UNL     1      -7.299   4.344   1.529  1.00  0.00    -0.246 OA
BRANCH  28  30
ATOM     30  C   UNL     1      -7.726   4.399  -0.791  1.00  0.00     0.060 A 
ATOM     31  C   UNL     1      -7.716   5.775  -1.052  1.00  0.00     0.016 A 
ATOM     32  C   UNL     1      -8.481   3.527  -1.577  1.00  0.00     0.016 A 
ATOM     33  C   UNL     1      -8.501   6.294  -2.079  1.00  0.00     0.010 A 
ATOM     34  C   UNL     1      -9.284   4.052  -2.594  1.00  0.00     0.010 A 
ATOM     35  C   UNL     1      -9.325   5.439  -2.822  1.00  0.00    -0.014 A 
BRANCH  35  36
ATOM     36  C   UNL     1     -10.360   6.014  -3.710  1.00  0.00     0.031 A 
ATOM     37  C   UNL     1     -11.738   6.249  -3.156  1.00  0.00     0.074 A 
ATOM     38  C   UNL     1     -10.073   6.343  -4.980  1.00  0.00     0.049 A 
ATOM     39  N   UNL     1     -12.808   6.701  -3.756  1.00  0.00    -0.248 NA
ATOM     40  C   UNL     1     -11.932   5.938  -1.730  1.00  0.00     0.031 C 
ATOM     41  C   UNL     1      -8.760   6.215  -5.608  1.00  0.00     0.029 A 
ATOM     42  N   UNL     1     -10.875   6.851  -5.970  1.00  0.00    -0.354 N 
ATOM     43  C   UNL     1     -13.798   6.737  -2.783  1.00  0.00     0.074 A 
ATOM     44  C   UNL     1     -13.212   6.234  -1.560  1.00  0.00     0.031 C 
ATOM     45  C   UNL     1      -8.849   6.623  -6.886  1.00  0.00     0.029 A 
ATOM     46  C   UNL     1     -10.229   7.012  -7.170  1.00  0.00     0.049 A 
ATOM     47  H   UNL     1     -11.823   7.078  -5.833  1.00  0.00     0.167 HD
ATOM     48  C   UNL     1     -15.077   7.162  -2.899  1.00  0.00     0.037 A 
ATOM     49  C   UNL     1     -10.708   7.409  -8.365  1.00  0.00     0.037 A 
ATOM     50  C   UNL     1     -15.662   7.645  -4.121  1.00  0.00     0.049 A 
ATOM     51  C   UNL     1     -12.163   7.777  -8.494  1.00  0.00     0.074 A 
ATOM     52  C   UNL     1     -16.954   8.088  -4.343  1.00  0.00     0.029 A 
ATOM     53  N   UNL     1     -14.991   7.740  -5.331  1.00  0.00    -0.354 N 
ATOM     54  N   UNL     1     -13.093   7.811  -7.570  1.00  0.00    -0.248 NA
ATOM     55  C   UNL     1     -12.636   8.159  -9.833  1.00  0.00     0.031 C 
ATOM     56  C   UNL     1     -17.077   8.410  -5.698  1.00  0.00     0.029 A 
ATOM     57  C   UNL     1     -15.849   8.213  -6.310  1.00  0.00     0.049 A 
ATOM     58  H   UNL     1     -14.046   7.505  -5.473  1.00  0.00     0.167 HD
ATOM     59  C   UNL     1     -14.250   8.241  -8.207  1.00  0.00     0.074 A 
ATOM     60  C   UNL     1     -13.905   8.463  -9.595  1.00  0.00     0.031 C 
ATOM     61  C   UNL     1     -15.487   8.435  -7.686  1.00  0.00     0.037 A 
BRANCH  48  62
ATOM     62  C   UNL     1     -15.940   7.111  -1.674  1.00  0.00     0.064 A 
ATOM     63  C   UNL     1     -15.775   8.028  -0.626  1.00  0.00     0.173 A 
ATOM     64  C   UNL     1     -16.976   6.171  -1.571  1.00  0.00     0.173 A 
ATOM     65  F   UNL     1     -14.789   8.936  -0.672  1.00  0.00    -0.203 F 
ATOM     66  C   UNL     1     -16.610   7.997   0.488  1.00  0.00     0.198 A 
ATOM     67  C   UNL     1     -17.823   6.158  -0.466  1.00  0.00     0.198 A 
ATOM     68  F   UNL     1     -17.174   5.273  -2.547  1.00  0.00    -0.203 F 
ATOM     69  F   UNL     1     -16.416   8.863   1.493  1.00  0.00    -0.200 F 
ATOM     70  C   UNL     1     -17.638   7.069   0.563  1.00  0.00     0.200 A 
ATOM     71  F   UNL     1     -18.822   5.267  -0.400  1.00  0.00    -0.200 F 
ATOM     72  F   UNL     1     -18.448   7.049   1.631  1.00  0.00    -0.200 F 
ENDBRANCH  48  62
BRANCH  49  73
ATOM     73  C   UNL     1      -9.799   7.478  -9.537  1.00  0.00     0.064 A 
ATOM     74  C   UNL     1      -9.421   8.712 -10.083  1.00  0.00     0.173 A 
ATOM     75  C   UNL     1      -9.285   6.316 -10.130  1.00  0.00     0.173 A 
ATOM     76  F   UNL     1      -9.908   9.850  -9.566  1.00  0.00    -0.203 F 
ATOM     77  C   UNL     1      -8.569   8.780 -11.183  1.00  0.00     0.198 A 
ATOM     78  C   UNL     1      -8.414   6.386 -11.214  1.00  0.00     0.198 A 
ATOM     79  F   UNL     1      -9.620   5.110  -9.646  1.00  0.00    -0.203 F 
ATOM     80  F   UNL     1      -8.250   9.972 -11.707  1.00  0.00    -0.200 F 
ATOM     81  C   UNL     1      -8.059   7.618 -11.743  1.00  0.00     0.200 A 
ATOM     82  F   UNL     1      -7.917   5.261 -11.747  1.00  0.00    -0.200 F 
ATOM     83  F   UNL     1      -7.233   7.685 -12.796  1.00  0.00    -0.200 F 
ENDBRANCH  49  73
BRANCH  61  84
ATOM     84  C   UNL     1     -16.559   8.936  -8.609  1.00  0.00     0.064 A 
ATOM     85  C   UNL     1     -17.151   8.101  -9.567  1.00  0.00     0.173 A 
ATOM     86  C   UNL     1     -17.051  10.244  -8.481  1.00  0.00     0.173 A 
ATOM     87  F   UNL     1     -16.707   6.846  -9.735  1.00  0.00    -0.203 F 
ATOM     88  C   UNL     1     -18.188   8.562 -10.373  1.00  0.00     0.198 A 
ATOM     89  C   UNL     1     -18.106  10.693  -9.270  1.00  0.00     0.198 A 
ATOM     90  F   UNL     1     -16.524  11.079  -7.572  1.00  0.00    -0.203 F 
ATOM     91  F   UNL     1     -18.718   7.757 -11.304  1.00  0.00    -0.200 F 
ATOM     92  C   UNL     1     -18.671   9.853 -10.218  1.00  0.00     0.200 A 
ATOM     93  F   UNL     1     -18.581  11.935  -9.108  1.00  0.00    -0.200 F 
ATOM     94  F   UNL     1     -19.680  10.289 -10.984  1.00  0.00    -0.200 F 
ENDBRANCH  61  84
ENDBRANCH  35  36
ENDBRANCH  28  30
ENDBRANCH  27  28
ENDBRANCH  26  27
ENDBRANCH   1  26
TORSDOF 16
