REMARK SMILES O=C(Cn1c2ccccc2c(=O)c2ccccc21)N[C@@H](Cc1ccccc1)C(=O)OCCOCCOC(=O)c1ccc(-c2c3nc(c(-c4c(F)c(F)c(F)c(F)c4F)c4ccc([nH]4)c(-c4c(F)c(F)c(F)c(F)c4F)c4nc(c(-c5c(F)c(F)c(F)c(F)c5F)c5ccc2[nH]5)C=C4)C=C3)cc1
REMARK SMILES IDX 32 1 31 2 30 3 28 4 29 5 20 6 19 7 1 8 2 9 3 11 4 12 5 13
REMARK SMILES IDX 18 14 6 15 10 16 13 17 17 18 7 19 9 20 11 21 14 22 16 23
REMARK SMILES IDX 8 24 12 25 15 26 21 27 22 28 23 29 27 30 24 31 26 32 25 33
REMARK SMILES IDX 33 34 34 35 35 36 36 37 37 38 38 39 39 40 40 41 101 42 41 43
REMARK SMILES IDX 100 44 42 45 43 46 44 47 94 48 45 49 99 50 93 51 95 52 46 53
REMARK SMILES IDX 98 54 92 55 91 56 47 58 79 59 59 60 78 61 60 62 63 63 77 64
REMARK SMILES IDX 96 65 61 66 62 67 76 69 97 70 64 71 48 72 49 73 57 74 50 75
REMARK SMILES IDX 51 76 55 77 58 78 52 79 53 80 56 81 54 82 80 83 81 84 89 85
REMARK SMILES IDX 82 86 83 87 87 88 90 89 84 90 85 91 88 92 86 93 65 94 66 95
REMARK SMILES IDX 74 96 67 97 68 98 72 99 75 100 69 101 70 102 73 103 71 104
REMARK H PARENT 19 10 95 57 63 68
REMARK Flexibility Score: inf
ROOT
ATOM      1  C   UNL     1       2.011   5.710  -1.023  1.00  0.00     0.202 C 
ENDROOT
BRANCH   1   2
ATOM      2  C   UNL     1       2.414   5.438   0.445  1.00  0.00     0.261 C 
BRANCH   2   3
ATOM      3  O   UNL     1       2.687   4.079   0.806  1.00  0.00    -0.462 OA
BRANCH   3   4
ATOM      4  C   UNL     1       1.843   3.516   1.715  1.00  0.00     0.329 C 
ATOM      5  O   UNL     1       0.946   4.124   2.290  1.00  0.00    -0.250 OA
BRANCH   4   6
ATOM      6  C   UNL     1       2.238   2.076   2.100  1.00  0.00     0.196 C 
BRANCH   6   7
ATOM      7  N   UNL     1       3.092   1.295   1.188  1.00  0.00    -0.341 N 
ATOM      8  O   UNL     1       1.475   0.596  -0.268  1.00  0.00    -0.273 OA
ATOM      9  C   UNL     1       2.637   0.546   0.124  1.00  0.00     0.240 C 
ATOM     10  H   UNL     1       4.063   1.308   1.352  1.00  0.00     0.164 HD
BRANCH   9  11
ATOM     11  C   UNL     1       3.695  -0.409  -0.454  1.00  0.00     0.222 C 
BRANCH  11  12
ATOM     12  N   UNL     1       4.189  -0.139  -1.820  1.00  0.00    -0.331 N 
ATOM     13  C   UNL     1       4.200   1.159  -2.348  1.00  0.00     0.053 A 
ATOM     14  C   UNL     1       4.624  -1.248  -2.601  1.00  0.00     0.053 A 
ATOM     15  C   UNL     1       4.363   2.667  -1.386  1.00  0.00     0.027 A 
ATOM     16  C   UNL     1       4.081   1.249  -4.145  1.00  0.00     0.046 A 
ATOM     17  C   UNL     1       4.762  -1.182  -4.015  1.00  0.00     0.046 A 
ATOM     18  C   UNL     1       5.015  -2.462  -1.987  1.00  0.00     0.027 A 
ATOM     19  C   UNL     1       4.356   4.279  -2.221  1.00  0.00     0.002 A 
ATOM     20  C   UNL     1       4.057   2.842  -4.990  1.00  0.00     0.014 A 
ATOM     21  C   UNL     1       4.304  -0.015  -4.829  1.00  0.00     0.197 A 
ATOM     22  C   UNL     1       5.336  -2.248  -4.734  1.00  0.00     0.014 A 
ATOM     23  C   UNL     1       5.553  -3.529  -2.717  1.00  0.00     0.002 A 
ATOM     24  C   UNL     1       4.195   4.371  -4.020  1.00  0.00     0.001 A 
ATOM     25  O   UNL     1       4.154  -0.077  -6.043  1.00  0.00    -0.288 OA
ATOM     26  C   UNL     1       5.738  -3.413  -4.087  1.00  0.00     0.001 A 
ENDBRANCH  11  12
ENDBRANCH   9  11
ENDBRANCH   6   7
BRANCH   6  27
ATOM     27  C   UNL     1       2.890   2.135   3.508  1.00  0.00     0.072 C 
BRANCH  27  28
ATOM     28  C   UNL     1       4.360   2.525   3.471  1.00  0.00    -0.045 A 
ATOM     29  C   UNL     1       4.748   3.865   3.346  1.00  0.00     0.004 A 
ATOM     30  C   UNL     1       5.351   1.530   3.461  1.00  0.00     0.004 A 
ATOM     31  C   UNL     1       6.093   4.199   3.170  1.00  0.00     0.000 A 
ATOM     32  C   UNL     1       6.692   1.865   3.276  1.00  0.00     0.000 A 
ATOM     33  C   UNL     1       7.062   3.199   3.124  1.00  0.00     0.000 A 
ENDBRANCH  27  28
ENDBRANCH   6  27
ENDBRANCH   4   6
ENDBRANCH   3   4
ENDBRANCH   2   3
ENDBRANCH   1   2
BRANCH   1  34
ATOM     34  O   UNL     1       1.459   4.729  -1.889  1.00  0.00    -0.374 OA
BRANCH  34  35
ATOM     35  C   UNL     1       1.906   3.377  -1.887  1.00  0.00     0.202 C 
BRANCH  35  36
ATOM     36  C   UNL     1       2.860   2.830  -3.103  1.00  0.00     0.261 C 
BRANCH  36  37
ATOM     37  O   UNL     1       4.870   2.759  -3.215  1.00  0.00    -0.460 OA
BRANCH  37  38
ATOM     38  C   UNL     1       6.208   2.572  -3.617  1.00  0.00     0.338 C 
ATOM     39  O   UNL     1       6.627   2.052  -4.644  1.00  0.00    -0.246 OA
BRANCH  38  40
ATOM     40  C   UNL     1       7.197   3.096  -2.658  1.00  0.00     0.060 A 
ATOM     41  C   UNL     1       7.974   2.179  -1.947  1.00  0.00     0.016 A 
ATOM     42  C   UNL     1       7.521   4.458  -2.672  1.00  0.00     0.016 A 
ATOM     43  C   UNL     1       9.116   2.625  -1.284  1.00  0.00     0.010 A 
ATOM     44  C   UNL     1       8.661   4.904  -2.007  1.00  0.00     0.010 A 
ATOM     45  C   UNL     1       9.490   3.979  -1.357  1.00  0.00    -0.014 A 
BRANCH  45  46
ATOM     46  C   UNL     1      10.869   4.366  -0.989  1.00  0.00     0.031 A 
ATOM     47  C   UNL     1      11.182   5.010   0.319  1.00  0.00     0.074 A 
ATOM     48  C   UNL     1      11.840   4.128  -1.891  1.00  0.00     0.049 A 
ATOM     49  N   UNL     1      12.352   5.254   0.849  1.00  0.00    -0.248 NA
ATOM     50  C   UNL     1      10.041   5.447   1.136  1.00  0.00     0.031 C 
ATOM     51  C   UNL     1      11.621   3.576  -3.232  1.00  0.00     0.029 A 
ATOM     52  N   UNL     1      13.196   4.308  -1.823  1.00  0.00    -0.354 N 
ATOM     53  C   UNL     1      12.094   5.842   2.077  1.00  0.00     0.074 A 
ATOM     54  C   UNL     1      10.655   5.968   2.192  1.00  0.00     0.031 C 
ATOM     55  C   UNL     1      12.804   3.438  -3.849  1.00  0.00     0.029 A 
ATOM     56  C   UNL     1      13.860   3.885  -2.949  1.00  0.00     0.049 A 
ATOM     57  H   UNL     1      13.651   4.701  -1.044  1.00  0.00     0.167 HD
ATOM     58  C   UNL     1      12.987   6.216   3.023  1.00  0.00     0.037 A 
ATOM     59  C   UNL     1      15.179   3.836  -3.212  1.00  0.00     0.037 A 
ATOM     60  C   UNL     1      14.416   6.106   2.874  1.00  0.00     0.049 A 
ATOM     61  C   UNL     1      16.145   4.252  -2.140  1.00  0.00     0.074 A 
ATOM     62  C   UNL     1      15.406   6.407   3.793  1.00  0.00     0.029 A 
ATOM     63  N   UNL     1      15.059   5.675   1.722  1.00  0.00    -0.354 N 
ATOM     64  N   UNL     1      15.894   4.684  -0.928  1.00  0.00    -0.248 NA
ATOM     65  C   UNL     1      17.574   4.156  -2.462  1.00  0.00     0.031 C 
ATOM     66  C   UNL     1      16.647   6.195   3.185  1.00  0.00     0.029 A 
ATOM     67  C   UNL     1      16.432   5.725   1.899  1.00  0.00     0.049 A 
ATOM     68  H   UNL     1      14.605   5.377   0.900  1.00  0.00     0.167 HD
ATOM     69  C   UNL     1      17.129   4.894  -0.336  1.00  0.00     0.074 A 
ATOM     70  C   UNL     1      18.131   4.525  -1.317  1.00  0.00     0.031 C 
ATOM     71  C   UNL     1      17.409   5.355   0.907  1.00  0.00     0.037 A 
BRANCH  58  72
ATOM     72  C   UNL     1      12.453   6.749   4.316  1.00  0.00     0.064 A 
ATOM     73  C   UNL     1      11.866   5.894   5.261  1.00  0.00     0.173 A 
ATOM     74  C   UNL     1      12.603   8.101   4.657  1.00  0.00     0.173 A 
ATOM     75  F   UNL     1      11.692   4.594   4.977  1.00  0.00    -0.203 F 
ATOM     76  C   UNL     1      11.444   6.373   6.497  1.00  0.00     0.198 A 
ATOM     77  C   UNL     1      12.195   8.575   5.902  1.00  0.00     0.198 A 
ATOM     78  F   UNL     1      13.160   8.959   3.789  1.00  0.00    -0.203 F 
ATOM     79  F   UNL     1      10.869   5.541   7.376  1.00  0.00    -0.200 F 
ATOM     80  C   UNL     1      11.617   7.711   6.820  1.00  0.00     0.200 A 
ATOM     81  F   UNL     1      12.369   9.866   6.216  1.00  0.00    -0.200 F 
ATOM     82  F   UNL     1      11.223   8.168   8.017  1.00  0.00    -0.200 F 
ENDBRANCH  58  72
BRANCH  59  83
ATOM     83  C   UNL     1      15.649   3.306  -4.515  1.00  0.00     0.064 A 
ATOM     84  C   UNL     1      16.251   2.043  -4.600  1.00  0.00     0.173 A 
ATOM     85  C   UNL     1      15.484   4.034  -5.701  1.00  0.00     0.173 A 
ATOM     86  F   UNL     1      16.442   1.317  -3.489  1.00  0.00    -0.203 F 
ATOM     87  C   UNL     1      16.683   1.534  -5.822  1.00  0.00     0.198 A 
ATOM     88  C   UNL     1      15.897   3.515  -6.926  1.00  0.00     0.198 A 
ATOM     89  F   UNL     1      14.906   5.244  -5.671  1.00  0.00    -0.203 F 
ATOM     90  F   UNL     1      17.285   0.338  -5.871  1.00  0.00    -0.200 F 
ATOM     91  C   UNL     1      16.501   2.268  -6.985  1.00  0.00     0.200 A 
ATOM     92  F   UNL     1      15.711   4.222  -8.049  1.00  0.00    -0.200 F 
ATOM     93  F   UNL     1      16.915   1.776  -8.161  1.00  0.00    -0.200 F 
ENDBRANCH  59  83
BRANCH  71  94
ATOM     94  C   UNL     1      18.854   5.486   1.277  1.00  0.00     0.064 A 
ATOM     95  C   UNL     1      19.640   6.533   0.775  1.00  0.00     0.173 A 
ATOM     96  C   UNL     1      19.441   4.595   2.188  1.00  0.00     0.173 A 
ATOM     97  F   UNL     1      19.125   7.399  -0.110  1.00  0.00    -0.203 F 
ATOM     98  C   UNL     1      20.968   6.677   1.165  1.00  0.00     0.198 A 
ATOM     99  C   UNL     1      20.762   4.756   2.592  1.00  0.00     0.198 A 
ATOM    100  F   UNL     1      18.726   3.581   2.698  1.00  0.00    -0.203 F 
ATOM    101  F   UNL     1      21.711   7.667   0.651  1.00  0.00    -0.200 F 
ATOM    102  C   UNL     1      21.525   5.794   2.079  1.00  0.00     0.200 A 
ATOM    103  F   UNL     1      21.296   3.909   3.484  1.00  0.00    -0.200 F 
ATOM    104  F   UNL     1      22.800   5.943   2.463  1.00  0.00    -0.200 F 
ENDBRANCH  71  94
ENDBRANCH  45  46
ENDBRANCH  38  40
ENDBRANCH  37  38
ENDBRANCH  36  37
ENDBRANCH  35  36
ENDBRANCH  34  35
ENDBRANCH   1  34
TORSDOF 19
