REMARK SMILES CC(C)CN(C)c1cc2c(cc1Cl)C=C(C(=O)OCCOCCOC(=O)c1ccc(-c3c4nc(c(-c5c(F)c(F)c(F)c(F)c5F)c5ccc([nH]5)c(-c5c(F)c(F)c(F)c(F)c5F)c5nc(c(-c6c(F)c(F)c(F)c(F)c6F)c6ccc3[nH]6)C=C5)C=C4)cc1)[C@@H](C(F)(F)F)O2
REMARK SMILES IDX 20 1 19 2 18 3 16 4 17 5 15 6 7 7 8 8 12 9 9 10 11 11 13 12
REMARK SMILES IDX 10 13 95 14 14 15 90 16 5 17 6 18 4 19 2 20 1 21 3 22 91 23
REMARK SMILES IDX 92 24 93 25 94 26 21 27 22 28 23 29 24 30 25 31 26 32 27 33
REMARK SMILES IDX 28 34 89 35 29 36 88 37 30 38 31 39 32 40 82 41 33 42 87 43
REMARK SMILES IDX 81 44 83 45 34 46 86 47 80 48 79 49 35 51 67 52 47 53 66 54
REMARK SMILES IDX 48 55 51 56 65 57 84 58 49 59 50 60 64 62 85 63 52 64 36 65
REMARK SMILES IDX 37 66 45 67 38 68 39 69 43 70 46 71 40 72 41 73 44 74 42 75
REMARK SMILES IDX 68 76 69 77 77 78 70 79 71 80 75 81 78 82 72 83 73 84 76 85
REMARK SMILES IDX 74 86 53 87 54 88 62 89 55 90 56 91 60 92 63 93 57 94 58 95
REMARK SMILES IDX 61 96 59 97
REMARK H PARENT 83 50 51 61
REMARK Flexibility Score: inf
ROOT
ATOM      1  C   UNL     1      -0.303  -3.487   9.358  1.00  0.00     0.202 C 
ENDROOT
BRANCH   1   2
ATOM      2  C   UNL     1      -0.782  -2.033   9.397  1.00  0.00     0.261 C 
BRANCH   2   3
ATOM      3  O   UNL     1      -1.325  -1.592   8.144  1.00  0.00    -0.460 OA
BRANCH   3   4
ATOM      4  C   UNL     1      -0.540  -0.690   7.510  1.00  0.00     0.338 C 
ATOM      5  O   UNL     1       0.468  -0.166   7.959  1.00  0.00    -0.246 OA
BRANCH   4   6
ATOM      6  C   UNL     1      -0.989  -0.477   6.124  1.00  0.00     0.087 C 
ATOM      7  C   UNL     1      -1.021   1.173   1.380  1.00  0.00     0.059 A 
ATOM      8  C   UNL     1      -1.998   0.579   2.211  1.00  0.00     0.074 A 
ATOM      9  C   UNL     1       0.264   1.374   1.929  1.00  0.00     0.065 A 
ATOM     10  C   UNL     1      -1.682   0.159   3.510  1.00  0.00     0.130 A 
ATOM     11  C   UNL     1       0.607   0.841   3.167  1.00  0.00     0.034 A 
ATOM     12  Cl  UNL     1       1.472   2.341   1.153  1.00  0.00    -0.082 Cl
ATOM     13  C   UNL     1      -0.363   0.226   3.949  1.00  0.00     0.019 A 
ATOM     14  O   UNL     1      -2.690  -0.325   4.306  1.00  0.00    -0.475 OA
ATOM     15  C   UNL     1       0.004  -0.266   5.256  1.00  0.00     0.027 C 
ATOM     16  C   UNL     1      -2.441  -0.366   5.753  1.00  0.00     0.316 C 
BRANCH   7  17
ATOM     17  N   UNL     1      -1.311   1.536   0.061  1.00  0.00    -0.373 N 
ATOM     18  C   UNL     1      -2.358   2.535  -0.115  1.00  0.00     0.143 C 
BRANCH  17  19
ATOM     19  C   UNL     1      -1.128   0.524  -1.002  1.00  0.00     0.119 C 
BRANCH  19  20
ATOM     20  C   UNL     1       0.356   0.279  -1.360  1.00  0.00     0.002 C 
ATOM     21  C   UNL     1       0.970  -0.874  -0.559  1.00  0.00     0.009 C 
ATOM     22  C   UNL     1       0.541  -0.019  -2.851  1.00  0.00     0.009 C 
ENDBRANCH  19  20
ENDBRANCH  17  19
ENDBRANCH   7  17
BRANCH  16  23
ATOM     23  C   UNL     1      -3.102   0.830   6.455  1.00  0.00     0.430 C 
ATOM     24  F   UNL     1      -4.400   0.964   6.097  1.00  0.00    -0.167 F 
ATOM     25  F   UNL     1      -3.087   0.673   7.803  1.00  0.00    -0.167 F 
ATOM     26  F   UNL     1      -2.478   1.997   6.180  1.00  0.00    -0.167 F 
ENDBRANCH  16  23
ENDBRANCH   4   6
ENDBRANCH   3   4
ENDBRANCH   2   3
ENDBRANCH   1   2
BRANCH   1  27
ATOM     27  O   UNL     1       0.597  -3.874   8.325  1.00  0.00    -0.374 OA
BRANCH  27  28
ATOM     28  C   UNL     1       0.107  -4.000   6.992  1.00  0.00     0.202 C 
BRANCH  28  29
ATOM     29  C   UNL     1      -0.901  -5.112   6.674  1.00  0.00     0.261 C 
BRANCH  29  30
ATOM     30  O   UNL     1      -2.148  -4.966   7.376  1.00  0.00    -0.460 OA
BRANCH  30  31
ATOM     31  C   UNL     1      -2.384  -5.907   8.322  1.00  0.00     0.338 C 
ATOM     32  O   UNL     1      -1.674  -6.857   8.620  1.00  0.00    -0.246 OA
BRANCH  31  33
ATOM     33  C   UNL     1      -3.560  -5.515   9.117  1.00  0.00     0.060 A 
ATOM     34  C   UNL     1      -4.803  -5.329   8.514  1.00  0.00     0.016 A 
ATOM     35  C   UNL     1      -3.412  -5.383  10.504  1.00  0.00     0.016 A 
ATOM     36  C   UNL     1      -5.910  -5.031   9.313  1.00  0.00     0.010 A 
ATOM     37  C   UNL     1      -4.518  -5.083  11.299  1.00  0.00     0.010 A 
ATOM     38  C   UNL     1      -5.779  -4.925  10.711  1.00  0.00    -0.014 A 
BRANCH  38  39
ATOM     39  C   UNL     1      -6.985  -4.770  11.560  1.00  0.00     0.031 A 
ATOM     40  C   UNL     1      -7.311  -3.468  12.226  1.00  0.00     0.074 A 
ATOM     41  C   UNL     1      -7.792  -5.836  11.726  1.00  0.00     0.049 A 
ATOM     42  N   UNL     1      -8.365  -3.149  12.935  1.00  0.00    -0.248 NA
ATOM     43  C   UNL     1      -6.330  -2.383  12.084  1.00  0.00     0.031 C 
ATOM     44  C   UNL     1      -7.554  -7.162  11.155  1.00  0.00     0.029 A 
ATOM     45  N   UNL     1      -8.975  -5.972  12.406  1.00  0.00    -0.354 N 
ATOM     46  C   UNL     1      -8.191  -1.821  13.298  1.00  0.00     0.074 A 
ATOM     47  C   UNL     1      -6.901  -1.410  12.784  1.00  0.00     0.031 C 
ATOM     48  C   UNL     1      -8.581  -7.965  11.470  1.00  0.00     0.029 A 
ATOM     49  C   UNL     1      -9.532  -7.223  12.293  1.00  0.00     0.049 A 
ATOM     50  H   UNL     1      -9.386  -5.244  12.926  1.00  0.00     0.167 HD
ATOM     51  C   UNL     1      -9.045  -1.016  13.974  1.00  0.00     0.037 A 
ATOM     52  C   UNL     1     -10.684  -7.713  12.789  1.00  0.00     0.037 A 
ATOM     53  C   UNL     1     -10.319  -1.438  14.500  1.00  0.00     0.049 A 
ATOM     54  C   UNL     1     -11.579  -6.812  13.595  1.00  0.00     0.074 A 
ATOM     55  C   UNL     1     -11.260  -0.687  15.184  1.00  0.00     0.029 A 
ATOM     56  N   UNL     1     -10.828  -2.726  14.410  1.00  0.00    -0.354 N 
ATOM     57  N   UNL     1     -11.438  -5.538  13.870  1.00  0.00    -0.248 NA
ATOM     58  C   UNL     1     -12.794  -7.417  14.157  1.00  0.00     0.031 C 
ATOM     59  C   UNL     1     -12.312  -1.530  15.553  1.00  0.00     0.029 A 
ATOM     60  C   UNL     1     -12.057  -2.795  15.049  1.00  0.00     0.049 A 
ATOM     61  H   UNL     1     -10.383  -3.479  13.959  1.00  0.00     0.167 HD
ATOM     62  C   UNL     1     -12.557  -5.183  14.612  1.00  0.00     0.074 A 
ATOM     63  C   UNL     1     -13.377  -6.370  14.727  1.00  0.00     0.031 C 
ATOM     64  C   UNL     1     -12.871  -3.980  15.151  1.00  0.00     0.037 A 
BRANCH  51  65
ATOM     65  C   UNL     1      -8.652   0.420  14.170  1.00  0.00     0.064 A 
ATOM     66  C   UNL     1      -8.647   1.322  13.095  1.00  0.00     0.173 A 
ATOM     67  C   UNL     1      -8.377   0.924  15.450  1.00  0.00     0.173 A 
ATOM     68  F   UNL     1      -8.898   0.890  11.850  1.00  0.00    -0.203 F 
ATOM     69  C   UNL     1      -8.372   2.673  13.294  1.00  0.00     0.198 A 
ATOM     70  C   UNL     1      -8.130   2.280  15.649  1.00  0.00     0.198 A 
ATOM     71  F   UNL     1      -8.379   0.106  16.514  1.00  0.00    -0.203 F 
ATOM     72  F   UNL     1      -8.349   3.510  12.248  1.00  0.00    -0.200 F 
ATOM     73  C   UNL     1      -8.125   3.152  14.571  1.00  0.00     0.200 A 
ATOM     74  F   UNL     1      -7.911   2.745  16.887  1.00  0.00    -0.200 F 
ATOM     75  F   UNL     1      -7.885   4.457  14.764  1.00  0.00    -0.200 F 
ENDBRANCH  51  65
BRANCH  52  76
ATOM     76  C   UNL     1     -11.077  -9.117  12.498  1.00  0.00     0.064 A 
ATOM     77  C   UNL     1     -12.182  -9.396  11.681  1.00  0.00     0.173 A 
ATOM     78  C   UNL     1     -10.361 -10.203  13.020  1.00  0.00     0.173 A 
ATOM     79  F   UNL     1     -12.910  -8.391  11.172  1.00  0.00    -0.203 F 
ATOM     80  C   UNL     1     -12.564 -10.709  11.412  1.00  0.00     0.198 A 
ATOM     81  C   UNL     1     -10.725 -11.515  12.725  1.00  0.00     0.198 A 
ATOM     82  F   UNL     1      -9.294  -9.990  13.804  1.00  0.00    -0.203 F 
ATOM     83  F   UNL     1     -13.650 -10.947  10.664  1.00  0.00    -0.200 F 
ATOM     84  C   UNL     1     -11.832 -11.767  11.928  1.00  0.00     0.200 A 
ATOM     85  F   UNL     1     -10.005 -12.534  13.212  1.00  0.00    -0.200 F 
ATOM     86  F   UNL     1     -12.195 -13.028  11.662  1.00  0.00    -0.200 F 
ENDBRANCH  52  76
BRANCH  64  87
ATOM     87  C   UNL     1     -14.168  -3.870  15.903  1.00  0.00     0.064 A 
ATOM     88  C   UNL     1     -14.343  -4.474  17.156  1.00  0.00     0.173 A 
ATOM     89  C   UNL     1     -15.220  -3.090  15.398  1.00  0.00     0.173 A 
ATOM     90  F   UNL     1     -13.374  -5.242  17.677  1.00  0.00    -0.203 F 
ATOM     91  C   UNL     1     -15.529  -4.314  17.869  1.00  0.00     0.198 A 
ATOM     92  C   UNL     1     -16.391  -2.905  16.128  1.00  0.00     0.198 A 
ATOM     93  F   UNL     1     -15.102  -2.484  14.207  1.00  0.00    -0.203 F 
ATOM     94  F   UNL     1     -15.688  -4.932  19.047  1.00  0.00    -0.200 F 
ATOM     95  C   UNL     1     -16.546  -3.521  17.360  1.00  0.00     0.200 A 
ATOM     96  F   UNL     1     -17.366  -2.124  15.642  1.00  0.00    -0.200 F 
ATOM     97  F   UNL     1     -17.678  -3.352  18.057  1.00  0.00    -0.200 F 
ENDBRANCH  64  87
ENDBRANCH  38  39
ENDBRANCH  31  33
ENDBRANCH  30  31
ENDBRANCH  29  30
ENDBRANCH  28  29
ENDBRANCH  27  28
ENDBRANCH   1  27
TORSDOF 18
