REMARK SMILES CC(C)(C)c1cc2c(cc1Cl)C=C(C(=O)OCCOCCOC(=O)c1ccc(-c3c4nc(c(-c5c(F)c(F)c(F)c(F)c5F)c5ccc([nH]5)c(-c5c(F)c(F)c(F)c(F)c5F)c5nc(c(-c6c(F)c(F)c(F)c(F)c6F)c6ccc3[nH]6)C=C5)C=C4)cc1)[C@H](C(F)(F)F)O2
REMARK SMILES IDX 20 1 19 2 18 3 17 4 16 5 14 6 15 7 13 8 5 9 6 10 10 11 7 12
REMARK SMILES IDX 9 13 11 14 8 15 93 16 12 17 88 18 2 19 1 20 3 21 4 22 89 23
REMARK SMILES IDX 90 24 91 25 92 26 21 27 22 28 23 29 24 30 25 31 26 32 87 33
REMARK SMILES IDX 27 34 86 35 28 36 29 37 30 38 80 39 31 40 85 41 79 42 81 43
REMARK SMILES IDX 32 44 84 45 78 46 77 47 33 49 65 50 45 51 64 52 46 53 49 54
REMARK SMILES IDX 63 55 82 56 47 57 48 58 62 60 83 61 50 62 34 63 35 64 43 65
REMARK SMILES IDX 36 66 37 67 41 68 44 69 38 70 39 71 42 72 40 73 66 74 67 75
REMARK SMILES IDX 75 76 68 77 69 78 73 79 76 80 70 81 71 82 74 83 72 84 51 85
REMARK SMILES IDX 52 86 60 87 53 88 54 89 58 90 61 91 55 92 56 93 59 94 57 95
REMARK H PARENT 81 48 49 59
REMARK Flexibility Score: inf
ROOT
ATOM      1  C   UNL     1       1.360   2.797   9.292  1.00  0.00     0.202 C 
ENDROOT
BRANCH   1   2
ATOM      2  O   UNL     1       2.451   3.005  10.193  1.00  0.00    -0.374 OA
BRANCH   2   3
ATOM      3  C   UNL     1       2.973   4.330  10.289  1.00  0.00     0.202 C 
BRANCH   3   4
ATOM      4  C   UNL     1       4.045   4.704   9.264  1.00  0.00     0.261 C 
BRANCH   4   5
ATOM      5  O   UNL     1       3.488   4.702   7.939  1.00  0.00    -0.460 OA
BRANCH   5   6
ATOM      6  C   UNL     1       3.874   3.663   7.171  1.00  0.00     0.338 C 
ATOM      7  O   UNL     1       4.807   2.909   7.400  1.00  0.00    -0.246 OA
BRANCH   6   8
ATOM      8  C   UNL     1       2.933   3.469   6.053  1.00  0.00     0.087 C 
ATOM      9  C   UNL     1       0.939   1.408   1.887  1.00  0.00    -0.020 A 
ATOM     10  C   UNL     1       1.110   2.727   2.389  1.00  0.00     0.053 A 
ATOM     11  C   UNL     1       1.245   0.361   2.783  1.00  0.00     0.045 A 
ATOM     12  C   UNL     1       1.663   2.990   3.645  1.00  0.00     0.128 A 
ATOM     13  C   UNL     1       1.807   0.628   4.042  1.00  0.00     0.032 A 
ATOM     14  Cl  UNL     1       0.961  -1.318   2.489  1.00  0.00    -0.084 Cl
ATOM     15  C   UNL     1       2.046   1.934   4.456  1.00  0.00     0.019 A 
ATOM     16  O   UNL     1       1.880   4.303   3.970  1.00  0.00    -0.475 OA
ATOM     17  C   UNL     1       2.797   2.194   5.665  1.00  0.00     0.027 C 
ATOM     18  C   UNL     1       2.244   4.613   5.353  1.00  0.00     0.316 C 
BRANCH   9  19
ATOM     19  C   UNL     1       0.422   1.235   0.434  1.00  0.00    -0.012 C 
ATOM     20  C   UNL     1       0.884  -0.050  -0.293  1.00  0.00     0.016 C 
ATOM     21  C   UNL     1       0.910   2.390  -0.487  1.00  0.00     0.016 C 
ATOM     22  C   UNL     1      -1.117   1.256   0.467  1.00  0.00     0.016 C 
ENDBRANCH   9  19
BRANCH  18  23
ATOM     23  C   UNL     1       0.996   5.160   6.078  1.00  0.00     0.430 C 
ATOM     24  F   UNL     1       0.074   4.197   6.312  1.00  0.00    -0.167 F 
ATOM     25  F   UNL     1       1.291   5.728   7.270  1.00  0.00    -0.167 F 
ATOM     26  F   UNL     1       0.390   6.126   5.343  1.00  0.00    -0.167 F 
ENDBRANCH  18  23
ENDBRANCH   6   8
ENDBRANCH   5   6
ENDBRANCH   4   5
ENDBRANCH   3   4
ENDBRANCH   2   3
ENDBRANCH   1   2
BRANCH   1  27
ATOM     27  C   UNL     1      -0.029   3.235   9.775  1.00  0.00     0.261 C 
BRANCH  27  28
ATOM     28  O   UNL     1      -0.143   4.668   9.820  1.00  0.00    -0.460 OA
BRANCH  28  29
ATOM     29  C   UNL     1      -0.128   5.215  11.059  1.00  0.00     0.338 C 
ATOM     30  O   UNL     1      -0.135   4.625  12.127  1.00  0.00    -0.246 OA
BRANCH  29  31
ATOM     31  C   UNL     1       0.136   6.666  10.944  1.00  0.00     0.060 A 
ATOM     32  C   UNL     1      -0.558   7.475  10.043  1.00  0.00     0.016 A 
ATOM     33  C   UNL     1       1.121   7.217  11.776  1.00  0.00     0.016 A 
ATOM     34  C   UNL     1      -0.286   8.847  10.003  1.00  0.00     0.010 A 
ATOM     35  C   UNL     1       1.391   8.585  11.734  1.00  0.00     0.010 A 
ATOM     36  C   UNL     1       0.674   9.415  10.862  1.00  0.00    -0.014 A 
BRANCH  36  37
ATOM     37  C   UNL     1       0.832  10.889  10.941  1.00  0.00     0.031 A 
ATOM     38  C   UNL     1       2.036  11.585  10.382  1.00  0.00     0.074 A 
ATOM     39  C   UNL     1      -0.128  11.601  11.561  1.00  0.00     0.049 A 
ATOM     40  N   UNL     1       2.293  12.869  10.330  1.00  0.00    -0.248 NA
ATOM     41  C   UNL     1       3.092  10.737   9.814  1.00  0.00     0.031 C 
ATOM     42  C   UNL     1      -1.323  11.030  12.183  1.00  0.00     0.029 A 
ATOM     43  N   UNL     1      -0.258  12.952  11.765  1.00  0.00    -0.354 N 
ATOM     44  C   UNL     1       3.527  12.986   9.706  1.00  0.00     0.074 A 
ATOM     45  C   UNL     1       3.994  11.639   9.445  1.00  0.00     0.031 C 
ATOM     46  C   UNL     1      -2.081  12.024  12.668  1.00  0.00     0.029 A 
ATOM     47  C   UNL     1      -1.413  13.298  12.423  1.00  0.00     0.049 A 
ATOM     48  H   UNL     1       0.413  13.609  11.470  1.00  0.00     0.167 HD
ATOM     49  C   UNL     1       4.193  14.115   9.362  1.00  0.00     0.037 A 
ATOM     50  C   UNL     1      -1.884  14.507  12.785  1.00  0.00     0.037 A 
ATOM     51  C   UNL     1       3.729  15.453   9.638  1.00  0.00     0.049 A 
ATOM     52  C   UNL     1      -1.098  15.740  12.436  1.00  0.00     0.074 A 
ATOM     53  C   UNL     1       4.320  16.657   9.292  1.00  0.00     0.029 A 
ATOM     54  N   UNL     1       2.572  15.765  10.337  1.00  0.00    -0.354 N 
ATOM     55  N   UNL     1       0.027  15.843  11.771  1.00  0.00    -0.248 NA
ATOM     56  C   UNL     1      -1.649  17.027  12.884  1.00  0.00     0.031 C 
ATOM     57  C   UNL     1       3.554  17.694   9.832  1.00  0.00     0.029 A 
ATOM     58  C   UNL     1       2.451  17.142  10.461  1.00  0.00     0.049 A 
ATOM     59  H   UNL     1       1.932  15.107  10.693  1.00  0.00     0.167 HD
ATOM     60  C   UNL     1       0.306  17.201  11.701  1.00  0.00     0.074 A 
ATOM     61  C   UNL     1      -0.778  17.886  12.373  1.00  0.00     0.031 C 
ATOM     62  C   UNL     1       1.369  17.820  11.131  1.00  0.00     0.037 A 
BRANCH  49  63
ATOM     63  C   UNL     1       5.495  13.968   8.628  1.00  0.00     0.064 A 
ATOM     64  C   UNL     1       5.535  13.527   7.297  1.00  0.00     0.173 A 
ATOM     65  C   UNL     1       6.704  14.362   9.224  1.00  0.00     0.173 A 
ATOM     66  F   UNL     1       4.410  13.135   6.681  1.00  0.00    -0.203 F 
ATOM     67  C   UNL     1       6.737  13.473   6.594  1.00  0.00     0.198 A 
ATOM     68  C   UNL     1       7.899  14.335   8.509  1.00  0.00     0.198 A 
ATOM     69  F   UNL     1       6.722  14.803  10.491  1.00  0.00    -0.203 F 
ATOM     70  F   UNL     1       6.753  13.019   5.333  1.00  0.00    -0.200 F 
ATOM     71  C   UNL     1       7.915  13.887   7.197  1.00  0.00     0.200 A 
ATOM     72  F   UNL     1       9.034  14.752   9.086  1.00  0.00    -0.200 F 
ATOM     73  F   UNL     1       9.067  13.853   6.512  1.00  0.00    -0.200 F 
ENDBRANCH  49  63
BRANCH  50  74
ATOM     74  C   UNL     1      -3.191  14.604  13.485  1.00  0.00     0.064 A 
ATOM     75  C   UNL     1      -4.307  15.164  12.848  1.00  0.00     0.173 A 
ATOM     76  C   UNL     1      -3.359  14.119  14.791  1.00  0.00     0.173 A 
ATOM     77  F   UNL     1      -4.191  15.658  11.607  1.00  0.00    -0.203 F 
ATOM     78  C   UNL     1      -5.538  15.245  13.494  1.00  0.00     0.198 A 
ATOM     79  C   UNL     1      -4.599  14.172  15.424  1.00  0.00     0.198 A 
ATOM     80  F   UNL     1      -2.323  13.569  15.442  1.00  0.00    -0.203 F 
ATOM     81  F   UNL     1      -6.579  15.819  12.876  1.00  0.00    -0.200 F 
ATOM     82  C   UNL     1      -5.686  14.741  14.777  1.00  0.00     0.200 A 
ATOM     83  F   UNL     1      -4.741  13.668  16.657  1.00  0.00    -0.200 F 
ATOM     84  F   UNL     1      -6.874  14.807  15.393  1.00  0.00    -0.200 F 
ENDBRANCH  50  74
BRANCH  62  85
ATOM     85  C   UNL     1       1.418  19.321  11.192  1.00  0.00     0.064 A 
ATOM     86  C   UNL     1       1.668  19.999  12.394  1.00  0.00     0.173 A 
ATOM     87  C   UNL     1       1.287  20.087  10.023  1.00  0.00     0.173 A 
ATOM     88  F   UNL     1       1.787  19.316  13.543  1.00  0.00    -0.203 F 
ATOM     89  C   UNL     1       1.771  21.388  12.426  1.00  0.00     0.198 A 
ATOM     90  C   UNL     1       1.423  21.473  10.053  1.00  0.00     0.198 A 
ATOM     91  F   UNL     1       1.054  19.489   8.845  1.00  0.00    -0.203 F 
ATOM     92  F   UNL     1       1.973  22.016  13.593  1.00  0.00    -0.200 F 
ATOM     93  C   UNL     1       1.660  22.122  11.255  1.00  0.00     0.200 A 
ATOM     94  F   UNL     1       1.334  22.178   8.917  1.00  0.00    -0.200 F 
ATOM     95  F   UNL     1       1.780  23.456  11.285  1.00  0.00    -0.200 F 
ENDBRANCH  62  85
ENDBRANCH  36  37
ENDBRANCH  29  31
ENDBRANCH  28  29
ENDBRANCH  27  28
ENDBRANCH   1  27
TORSDOF 16
