REMARK SMILES CC(C)C[N@@H+](C[C@@H](C)C(=O)OCCOCCOC(=O)c1ccc(-c2c3nc(c(-c4c(F)c(F)c(F)c(F)c4F)c4ccc([nH]4)c(-c4c(F)c(F)c(F)c(F)c4F)c4nc(c(-c5c(F)c(F)c(F)c(F)c5F)c5ccc2[nH]5)C=C4)C=C3)cc1)C1CCCC1
REMARK SMILES IDX 13 1 12 2 11 3 9 4 10 5 7 6 8 7 6 8 5 9 4 11 2 12 1 13 3 14
REMARK SMILES IDX 83 15 84 16 87 17 85 18 86 19 14 20 15 21 16 22 17 23 18 24
REMARK SMILES IDX 19 25 20 26 21 27 82 28 22 29 81 30 23 31 24 32 25 33 75 34
REMARK SMILES IDX 26 35 80 36 74 37 76 38 27 39 79 40 73 41 72 42 28 44 60 45
REMARK SMILES IDX 40 46 59 47 41 48 44 49 58 50 77 51 42 52 43 53 57 55 78 56
REMARK SMILES IDX 45 57 29 58 30 59 38 60 31 61 32 62 36 63 39 64 33 65 34 66
REMARK SMILES IDX 37 67 35 68 61 69 62 70 70 71 63 72 64 73 68 74 71 75 65 76
REMARK SMILES IDX 66 77 69 78 67 79 46 80 47 81 55 82 48 83 49 84 53 85 56 86
REMARK SMILES IDX 50 87 51 88 54 89 52 90
REMARK H PARENT 5 10 76 43 44 54
REMARK Flexibility Score: inf
ROOT
ATOM      1  C   UNL     1      -7.744   0.086  -0.637  1.00  0.00     0.202 C 
ENDROOT
BRANCH   1   2
ATOM      2  C   UNL     1      -7.042   0.416   0.682  1.00  0.00     0.261 C 
BRANCH   2   3
ATOM      3  O   UNL     1      -5.620   0.575   0.557  1.00  0.00    -0.463 OA
BRANCH   3   4
ATOM      4  C   UNL     1      -4.897  -0.512   0.936  1.00  0.00     0.314 C 
ATOM      5  O   UNL     1      -5.376  -1.577   1.311  1.00  0.00    -0.252 OA
BRANCH   4   6
ATOM      6  C   UNL     1      -3.406  -0.250   0.966  1.00  0.00     0.151 C 
ATOM      7  C   UNL     1      -3.103   0.342   2.338  1.00  0.00     0.026 C 
BRANCH   6   8
ATOM      8  C   UNL     1      -2.886   0.554  -0.261  1.00  0.00     0.277 C 
BRANCH   8   9
ATOM      9  N   UNL     1      -1.401   0.694  -0.459  1.00  0.00    -0.332 N 
ATOM     10  H   UNL     1      -1.160   1.054  -1.382  1.00  0.00     0.348 HD
BRANCH   9  11
ATOM     11  C   UNL     1      -0.781  -0.653  -0.421  1.00  0.00     0.265 C 
BRANCH  11  12
ATOM     12  C   UNL     1       0.506  -0.948  -1.246  1.00  0.00     0.038 C 
ATOM     13  C   UNL     1       1.804  -0.826  -0.442  1.00  0.00     0.013 C 
ATOM     14  C   UNL     1       0.440  -2.395  -1.779  1.00  0.00     0.013 C 
ENDBRANCH  11  12
ENDBRANCH   9  11
BRANCH   9  15
ATOM     15  C   UNL     1      -0.857   1.728   0.436  1.00  0.00     0.184 C 
ATOM     16  C   UNL     1       0.647   1.954   0.544  1.00  0.00     0.065 C 
ATOM     17  C   UNL     1      -1.319   3.151   0.063  1.00  0.00     0.065 C 
ATOM     18  C   UNL     1       0.748   3.252   1.343  1.00  0.00     0.006 C 
ATOM     19  C   UNL     1      -0.462   4.078   0.924  1.00  0.00     0.006 C 
ENDBRANCH   9  15
ENDBRANCH   8   9
ENDBRANCH   6   8
ENDBRANCH   4   6
ENDBRANCH   3   4
ENDBRANCH   2   3
ENDBRANCH   1   2
BRANCH   1  20
ATOM     20  O   UNL     1      -7.324  -1.089  -1.321  1.00  0.00    -0.374 OA
BRANCH  20  21
ATOM     21  C   UNL     1      -6.129  -1.005  -2.098  1.00  0.00     0.202 C 
BRANCH  21  22
ATOM     22  C   UNL     1      -6.242  -0.274  -3.439  1.00  0.00     0.261 C 
BRANCH  22  23
ATOM     23  O   UNL     1      -6.434   1.143  -3.256  1.00  0.00    -0.460 OA
BRANCH  23  24
ATOM     24  C   UNL     1      -7.616   1.618  -3.714  1.00  0.00     0.338 C 
ATOM     25  O   UNL     1      -8.470   1.008  -4.334  1.00  0.00    -0.246 OA
BRANCH  24  26
ATOM     26  C   UNL     1      -7.846   2.985  -3.207  1.00  0.00     0.060 A 
ATOM     27  C   UNL     1      -9.063   3.231  -2.558  1.00  0.00     0.016 A 
ATOM     28  C   UNL     1      -6.945   4.024  -3.445  1.00  0.00     0.016 A 
ATOM     29  C   UNL     1      -9.413   4.531  -2.200  1.00  0.00     0.010 A 
ATOM     30  C   UNL     1      -7.302   5.331  -3.094  1.00  0.00     0.010 A 
ATOM     31  C   UNL     1      -8.555   5.594  -2.510  1.00  0.00    -0.014 A 
BRANCH  31  32
ATOM     32  C   UNL     1      -9.047   6.987  -2.371  1.00  0.00     0.031 A 
ATOM     33  C   UNL     1      -9.584   7.692  -3.587  1.00  0.00     0.074 A 
ATOM     34  C   UNL     1      -9.057   7.600  -1.176  1.00  0.00     0.049 A 
ATOM     35  N   UNL     1     -10.052   8.909  -3.704  1.00  0.00    -0.248 NA
ATOM     36  C   UNL     1      -9.597   6.919  -4.839  1.00  0.00     0.031 C 
ATOM     37  C   UNL     1      -8.604   7.007   0.080  1.00  0.00     0.029 A 
ATOM     38  N   UNL     1      -9.462   8.864  -0.827  1.00  0.00    -0.354 N 
ATOM     39  C   UNL     1     -10.410   9.048  -5.039  1.00  0.00     0.074 A 
ATOM     40  C   UNL     1     -10.081   7.803  -5.699  1.00  0.00     0.031 C 
ATOM     41  C   UNL     1      -8.748   7.911   1.064  1.00  0.00     0.029 A 
ATOM     42  C   UNL     1      -9.275   9.153   0.502  1.00  0.00     0.049 A 
ATOM     43  H   UNL     1      -9.850   9.502  -1.468  1.00  0.00     0.167 HD
ATOM     44  C   UNL     1     -10.971  10.114  -5.656  1.00  0.00     0.037 A 
ATOM     45  C   UNL     1      -9.488  10.298   1.179  1.00  0.00     0.037 A 
ATOM     46  C   UNL     1     -11.302  11.351  -4.999  1.00  0.00     0.049 A 
ATOM     47  C   UNL     1     -10.051  11.494   0.455  1.00  0.00     0.074 A 
ATOM     48  C   UNL     1     -11.889  12.484  -5.535  1.00  0.00     0.029 A 
ATOM     49  N   UNL     1     -11.067  11.618  -3.658  1.00  0.00    -0.354 N 
ATOM     50  N   UNL     1     -10.408  11.609  -0.801  1.00  0.00    -0.248 NA
ATOM     51  C   UNL     1     -10.243  12.718   1.246  1.00  0.00     0.031 C 
ATOM     52  C   UNL     1     -11.968  13.453  -4.529  1.00  0.00     0.029 A 
ATOM     53  C   UNL     1     -11.475  12.906  -3.355  1.00  0.00     0.049 A 
ATOM     54  H   UNL     1     -10.669  10.985  -3.017  1.00  0.00     0.167 HD
ATOM     55  C   UNL     1     -10.892  12.903  -0.944  1.00  0.00     0.074 A 
ATOM     56  C   UNL     1     -10.792  13.533   0.356  1.00  0.00     0.031 C 
ATOM     57  C   UNL     1     -11.378  13.514  -2.053  1.00  0.00     0.037 A 
BRANCH  44  58
ATOM     58  C   UNL     1     -11.243   9.999  -7.126  1.00  0.00     0.064 A 
ATOM     59  C   UNL     1     -12.283   9.198  -7.622  1.00  0.00     0.173 A 
ATOM     60  C   UNL     1     -10.476  10.725  -8.049  1.00  0.00     0.173 A 
ATOM     61  F   UNL     1     -13.037   8.473  -6.782  1.00  0.00    -0.203 F 
ATOM     62  C   UNL     1     -12.530   9.113  -8.990  1.00  0.00     0.198 A 
ATOM     63  C   UNL     1     -10.742  10.658  -9.414  1.00  0.00     0.198 A 
ATOM     64  F   UNL     1      -9.472  11.508  -7.625  1.00  0.00    -0.203 F 
ATOM     65  F   UNL     1     -13.503   8.311  -9.445  1.00  0.00    -0.200 F 
ATOM     66  C   UNL     1     -11.765   9.848  -9.883  1.00  0.00     0.200 A 
ATOM     67  F   UNL     1     -10.008  11.376 -10.274  1.00  0.00    -0.200 F 
ATOM     68  F   UNL     1     -12.008   9.770 -11.199  1.00  0.00    -0.200 F 
ENDBRANCH  44  58
BRANCH  45  69
ATOM     69  C   UNL     1      -9.159  10.374   2.626  1.00  0.00     0.064 A 
ATOM     70  C   UNL     1     -10.167  10.483   3.593  1.00  0.00     0.173 A 
ATOM     71  C   UNL     1      -7.828  10.354   3.068  1.00  0.00     0.173 A 
ATOM     72  F   UNL     1     -11.453  10.533   3.217  1.00  0.00    -0.203 F 
ATOM     73  C   UNL     1      -9.855  10.585   4.948  1.00  0.00     0.198 A 
ATOM     74  C   UNL     1      -7.519  10.430   4.424  1.00  0.00     0.198 A 
ATOM     75  F   UNL     1      -6.827  10.254   2.181  1.00  0.00    -0.203 F 
ATOM     76  F   UNL     1     -10.836  10.732   5.849  1.00  0.00    -0.200 F 
ATOM     77  C   UNL     1      -8.532  10.553   5.362  1.00  0.00     0.200 A 
ATOM     78  F   UNL     1      -6.240  10.387   4.821  1.00  0.00    -0.200 F 
ATOM     79  F   UNL     1      -8.233  10.647   6.665  1.00  0.00    -0.200 F 
ENDBRANCH  45  69
BRANCH  57  80
ATOM     80  C   UNL     1     -11.874  14.923  -1.904  1.00  0.00     0.064 A 
ATOM     81  C   UNL     1     -10.992  16.001  -1.742  1.00  0.00     0.173 A 
ATOM     82  C   UNL     1     -13.248  15.202  -1.972  1.00  0.00     0.173 A 
ATOM     83  F   UNL     1      -9.670  15.785  -1.656  1.00  0.00    -0.203 F 
ATOM     84  C   UNL     1     -11.468  17.305  -1.633  1.00  0.00     0.198 A 
ATOM     85  C   UNL     1     -13.719  16.509  -1.890  1.00  0.00     0.198 A 
ATOM     86  F   UNL     1     -14.132  14.206  -2.134  1.00  0.00    -0.203 F 
ATOM     87  F   UNL     1     -10.610  18.316  -1.437  1.00  0.00    -0.200 F 
ATOM     88  C   UNL     1     -12.830  17.558  -1.714  1.00  0.00     0.200 A 
ATOM     89  F   UNL     1     -15.033  16.753  -1.982  1.00  0.00    -0.200 F 
ATOM     90  F   UNL     1     -13.286  18.815  -1.617  1.00  0.00    -0.200 F 
ENDBRANCH  57  80
ENDBRANCH  31  32
ENDBRANCH  24  26
ENDBRANCH  23  24
ENDBRANCH  22  23
ENDBRANCH  21  22
ENDBRANCH  20  21
ENDBRANCH   1  20
TORSDOF 19
