REMARK SMILES Cc1cccc(NS(=O)(=O)Cc2ccc(C(=O)OCCOCCOC(=O)c3ccc(-c4c5nc(c(-c6c(F)c(F)c(F)c(F)c6F)c6ccc([nH]6)c(-c6c(F)c(F)c(F)c(F)c6F)c6nc(c(-c7c(F)c(F)c(F)c(F)c7F)c7ccc4[nH]7)C=C6)C=C5)cc3)cc2)n1
REMARK SMILES IDX 20 1 19 2 18 3 16 4 17 5 15 6 12 7 13 8 91 9 14 10 90 11
REMARK SMILES IDX 11 12 8 13 9 14 10 15 7 16 6 18 1 19 2 20 3 21 92 22 4 23
REMARK SMILES IDX 5 24 21 25 22 26 23 27 24 28 25 29 26 30 27 31 28 32 89 33
REMARK SMILES IDX 29 34 88 35 30 36 31 37 32 38 82 39 33 40 87 41 81 42 83 43
REMARK SMILES IDX 34 44 86 45 80 46 79 47 35 49 67 50 47 51 66 52 48 53 51 54
REMARK SMILES IDX 65 55 84 56 49 57 50 58 64 60 85 61 52 62 36 63 37 64 45 65
REMARK SMILES IDX 38 66 39 67 43 68 46 69 40 70 41 71 44 72 42 73 68 74 69 75
REMARK SMILES IDX 77 76 70 77 71 78 75 79 78 80 72 81 73 82 76 83 74 84 53 85
REMARK SMILES IDX 54 86 62 87 55 88 56 89 60 90 63 91 57 92 58 93 61 94 59 95
REMARK H PARENT 7 17 83 48 51 59
REMARK Flexibility Score: inf
ROOT
ATOM      1  C   UNL     1       1.245  -1.034   7.178  1.00  0.00     0.202 C 
ENDROOT
BRANCH   1   2
ATOM      2  C   UNL     1       2.468  -0.140   6.955  1.00  0.00     0.261 C 
BRANCH   2   3
ATOM      3  O   UNL     1       2.209   0.888   5.986  1.00  0.00    -0.460 OA
BRANCH   3   4
ATOM      4  C   UNL     1       2.993   0.819   4.882  1.00  0.00     0.338 C 
ATOM      5  O   UNL     1       3.958   0.083   4.727  1.00  0.00    -0.246 OA
BRANCH   4   6
ATOM      6  C   UNL     1       2.463   1.659   3.780  1.00  0.00     0.060 A 
ATOM      7  C   UNL     1       1.538   3.108   1.545  1.00  0.00    -0.031 A 
ATOM      8  C   UNL     1       2.370   1.992   1.393  1.00  0.00     0.006 A 
ATOM      9  C   UNL     1       1.198   3.514   2.844  1.00  0.00     0.006 A 
ATOM     10  C   UNL     1       2.807   1.260   2.489  1.00  0.00     0.016 A 
ATOM     11  C   UNL     1       1.658   2.792   3.961  1.00  0.00     0.016 A 
BRANCH   7  12
ATOM     12  C   UNL     1       1.119   3.846   0.299  1.00  0.00     0.195 C 
BRANCH  12  13
ATOM     13  S   UNL     1      -0.630   3.714  -0.098  1.00  0.00     0.238 S 
ATOM     14  O   UNL     1      -0.799   3.695  -1.537  1.00  0.00    -0.206 OA
ATOM     15  O   UNL     1      -1.315   4.741   0.671  1.00  0.00    -0.206 OA
BRANCH  13  16
ATOM     16  N   UNL     1      -1.223   2.300   0.529  1.00  0.00    -0.267 N 
ATOM     17  H   UNL     1      -1.773   2.327   1.345  1.00  0.00     0.181 HD
BRANCH  16  18
ATOM     18  C   UNL     1      -0.955   1.056  -0.083  1.00  0.00     0.139 A 
ATOM     19  C   UNL     1       2.121  -0.701  -1.063  1.00  0.00     0.067 C 
ATOM     20  C   UNL     1       0.679  -0.449  -0.728  1.00  0.00     0.040 A 
ATOM     21  C   UNL     1      -0.186  -1.526  -0.561  1.00  0.00     0.023 A 
ATOM     22  N   UNL     1       0.309   0.836  -0.483  1.00  0.00    -0.235 NA
ATOM     23  C   UNL     1      -1.493  -1.274  -0.168  1.00  0.00     0.006 A 
ATOM     24  C   UNL     1      -1.881   0.036   0.089  1.00  0.00     0.048 A 
ENDBRANCH  16  18
ENDBRANCH  13  16
ENDBRANCH  12  13
ENDBRANCH   7  12
ENDBRANCH   4   6
ENDBRANCH   3   4
ENDBRANCH   2   3
ENDBRANCH   1   2
BRANCH   1  25
ATOM     25  O   UNL     1       0.725  -1.708   6.035  1.00  0.00    -0.374 OA
BRANCH  25  26
ATOM     26  C   UNL     1      -0.068  -0.947   5.121  1.00  0.00     0.202 C 
BRANCH  26  27
ATOM     27  C   UNL     1      -1.471  -0.546   5.597  1.00  0.00     0.261 C 
BRANCH  27  28
ATOM     28  O   UNL     1      -1.427   0.458   6.630  1.00  0.00    -0.460 OA
BRANCH  28  29
ATOM     29  C   UNL     1      -1.924   0.075   7.828  1.00  0.00     0.338 C 
ATOM     30  O   UNL     1      -2.474  -0.986   8.103  1.00  0.00    -0.246 OA
BRANCH  29  31
ATOM     31  C   UNL     1      -1.544   1.053   8.862  1.00  0.00     0.060 A 
ATOM     32  C   UNL     1      -0.822   0.587   9.969  1.00  0.00     0.016 A 
ATOM     33  C   UNL     1      -1.946   2.387   8.788  1.00  0.00     0.016 A 
ATOM     34  C   UNL     1      -0.529   1.447  11.025  1.00  0.00     0.010 A 
ATOM     35  C   UNL     1      -1.662   3.246   9.855  1.00  0.00     0.010 A 
ATOM     36  C   UNL     1      -0.980   2.773  10.990  1.00  0.00    -0.014 A 
BRANCH  36  37
ATOM     37  C   UNL     1      -0.859   3.620  12.202  1.00  0.00     0.031 A 
ATOM     38  C   UNL     1      -2.052   3.781  13.102  1.00  0.00     0.074 A 
ATOM     39  C   UNL     1       0.305   4.218  12.509  1.00  0.00     0.049 A 
ATOM     40  N   UNL     1      -2.182   4.495  14.191  1.00  0.00    -0.248 NA
ATOM     41  C   UNL     1      -3.262   3.036  12.722  1.00  0.00     0.031 C 
ATOM     42  C   UNL     1       1.540   4.107  11.735  1.00  0.00     0.029 A 
ATOM     43  N   UNL     1       0.634   5.044  13.554  1.00  0.00    -0.354 N 
ATOM     44  C   UNL     1      -3.486   4.291  14.622  1.00  0.00     0.074 A 
ATOM     45  C   UNL     1      -4.117   3.410  13.662  1.00  0.00     0.031 C 
ATOM     46  C   UNL     1       2.491   4.850  12.327  1.00  0.00     0.029 A 
ATOM     47  C   UNL     1       1.924   5.510  13.502  1.00  0.00     0.049 A 
ATOM     48  H   UNL     1       0.004   5.281  14.273  1.00  0.00     0.167 HD
ATOM     49  C   UNL     1      -4.099   4.786  15.724  1.00  0.00     0.037 A 
ATOM     50  C   UNL     1       2.564   6.386  14.300  1.00  0.00     0.037 A 
ATOM     51  C   UNL     1      -3.469   5.660  16.678  1.00  0.00     0.049 A 
ATOM     52  C   UNL     1       1.839   6.976  15.482  1.00  0.00     0.074 A 
ATOM     53  C   UNL     1      -3.998   6.196  17.839  1.00  0.00     0.029 A 
ATOM     54  N   UNL     1      -2.170   6.136  16.574  1.00  0.00    -0.354 N 
ATOM     55  N   UNL     1       0.616   6.754  15.900  1.00  0.00    -0.248 NA
ATOM     56  C   UNL     1       2.586   7.939  16.304  1.00  0.00     0.031 C 
ATOM     57  C   UNL     1      -3.037   7.036  18.411  1.00  0.00     0.029 A 
ATOM     58  C   UNL     1      -1.889   6.981  17.636  1.00  0.00     0.049 A 
ATOM     59  H   UNL     1      -1.540   5.907  15.853  1.00  0.00     0.167 HD
ATOM     60  C   UNL     1       0.457   7.525  17.045  1.00  0.00     0.074 A 
ATOM     61  C   UNL     1       1.713   8.210  17.264  1.00  0.00     0.031 C 
ATOM     62  C   UNL     1      -0.632   7.653  17.843  1.00  0.00     0.037 A 
BRANCH  49  63
ATOM     63  C   UNL     1      -5.535   4.411  15.945  1.00  0.00     0.064 A 
ATOM     64  C   UNL     1      -5.909   3.115  16.328  1.00  0.00     0.173 A 
ATOM     65  C   UNL     1      -6.548   5.372  15.803  1.00  0.00     0.173 A 
ATOM     66  F   UNL     1      -4.980   2.156  16.464  1.00  0.00    -0.203 F 
ATOM     67  C   UNL     1      -7.246   2.788  16.538  1.00  0.00     0.198 A 
ATOM     68  C   UNL     1      -7.881   5.048  16.040  1.00  0.00     0.198 A 
ATOM     69  F   UNL     1      -6.244   6.627  15.441  1.00  0.00    -0.203 F 
ATOM     70  F   UNL     1      -7.585   1.531  16.859  1.00  0.00    -0.200 F 
ATOM     71  C   UNL     1      -8.230   3.756  16.400  1.00  0.00     0.200 A 
ATOM     72  F   UNL     1      -8.829   5.988  15.918  1.00  0.00    -0.200 F 
ATOM     73  F   UNL     1      -9.516   3.441  16.608  1.00  0.00    -0.200 F 
ENDBRANCH  49  63
BRANCH  50  74
ATOM     74  C   UNL     1       3.970   6.769  14.005  1.00  0.00     0.064 A 
ATOM     75  C   UNL     1       5.018   6.386  14.852  1.00  0.00     0.173 A 
ATOM     76  C   UNL     1       4.290   7.542  12.879  1.00  0.00     0.173 A 
ATOM     77  F   UNL     1       4.758   5.668  15.956  1.00  0.00    -0.203 F 
ATOM     78  C   UNL     1       6.330   6.777  14.595  1.00  0.00     0.198 A 
ATOM     79  C   UNL     1       5.606   7.909  12.608  1.00  0.00     0.198 A 
ATOM     80  F   UNL     1       3.322   7.938  12.038  1.00  0.00    -0.203 F 
ATOM     81  F   UNL     1       7.307   6.436  15.447  1.00  0.00    -0.200 F 
ATOM     82  C   UNL     1       6.624   7.532  13.470  1.00  0.00     0.200 A 
ATOM     83  F   UNL     1       5.886   8.630  11.514  1.00  0.00    -0.200 F 
ATOM     84  F   UNL     1       7.887   7.906  13.222  1.00  0.00    -0.200 F 
ENDBRANCH  50  74
BRANCH  62  85
ATOM     85  C   UNL     1      -0.504   8.542  19.047  1.00  0.00     0.064 A 
ATOM     86  C   UNL     1      -0.443   9.938  18.929  1.00  0.00     0.173 A 
ATOM     87  C   UNL     1      -0.484   7.990  20.338  1.00  0.00     0.173 A 
ATOM     88  F   UNL     1      -0.444  10.514  17.717  1.00  0.00    -0.203 F 
ATOM     89  C   UNL     1      -0.340  10.748  20.057  1.00  0.00     0.198 A 
ATOM     90  C   UNL     1      -0.411   8.805  21.465  1.00  0.00     0.198 A 
ATOM     91  F   UNL     1      -0.548   6.661  20.507  1.00  0.00    -0.203 F 
ATOM     92  F   UNL     1      -0.234  12.077  19.918  1.00  0.00    -0.200 F 
ATOM     93  C   UNL     1      -0.332  10.181  21.323  1.00  0.00     0.200 A 
ATOM     94  F   UNL     1      -0.418   8.256  22.687  1.00  0.00    -0.200 F 
ATOM     95  F   UNL     1      -0.239  10.963  22.408  1.00  0.00    -0.200 F 
ENDBRANCH  62  85
ENDBRANCH  36  37
ENDBRANCH  29  31
ENDBRANCH  28  29
ENDBRANCH  27  28
ENDBRANCH  26  27
ENDBRANCH  25  26
ENDBRANCH   1  25
TORSDOF 18
