REMARK SMILES O=C(CNc1nc(-c2ccccc2)c(-c2ccccc2)s1)OCCOCCOC(=O)c1ccc(-c2c3nc(c(-c4c(F)c(F)c(F)c(F)c4F)c4ccc([nH]4)c(-c4c(F)c(F)c(F)c(F)c4F)c4nc(c(-c5c(F)c(F)c(F)c(F)c5F)c5ccc2[nH]5)C=C4)C=C3)cc1
REMARK SMILES IDX 24 1 23 2 22 3 2 4 1 5 3 6 4 7 5 9 6 10 21 11 7 12 14 13
REMARK SMILES IDX 8 14 9 15 13 16 10 17 12 18 11 19 15 20 16 21 20 22 17 23
REMARK SMILES IDX 19 24 18 25 25 26 26 27 27 28 28 29 29 30 30 31 31 32 32 33
REMARK SMILES IDX 93 34 33 35 92 36 34 37 35 38 36 39 86 40 37 41 91 42 85 43
REMARK SMILES IDX 87 44 38 45 90 46 84 47 83 48 39 50 71 51 51 52 70 53 52 54
REMARK SMILES IDX 55 55 69 56 88 57 53 58 54 59 68 61 89 62 56 63 40 64 41 65
REMARK SMILES IDX 49 66 42 67 43 68 47 69 50 70 44 71 45 72 48 73 46 74 72 75
REMARK SMILES IDX 73 76 81 77 74 78 75 79 79 80 82 81 76 82 77 83 80 84 78 85
REMARK SMILES IDX 57 86 58 87 66 88 59 89 60 90 64 91 67 92 61 93 62 94 65 95
REMARK SMILES IDX 63 96
REMARK H PARENT 4 8 87 49 55 60
REMARK Flexibility Score: inf
ROOT
ATOM      1  C   UNL     1       4.512  -0.126   1.042  1.00  0.00     0.202 C 
ENDROOT
BRANCH   1   2
ATOM      2  C   UNL     1       4.018   1.056   0.212  1.00  0.00     0.261 C 
BRANCH   2   3
ATOM      3  O   UNL     1       2.639   1.006  -0.168  1.00  0.00    -0.462 OA
BRANCH   3   4
ATOM      4  C   UNL     1       2.135   0.303  -1.211  1.00  0.00     0.325 C 
ATOM      5  O   UNL     1       0.917   0.325  -1.398  1.00  0.00    -0.250 OA
BRANCH   4   6
ATOM      6  C   UNL     1       3.043  -0.540  -2.109  1.00  0.00     0.238 C 
BRANCH   6   7
ATOM      7  N   UNL     1       4.144   0.206  -2.692  1.00  0.00    -0.351 N 
ATOM      8  H   UNL     1       3.954   1.023  -3.208  1.00  0.00     0.163 HD
BRANCH   7   9
ATOM      9  C   UNL     1       5.422  -0.198  -2.539  1.00  0.00     0.184 A 
ATOM     10  N   UNL     1       5.825  -1.400  -2.202  1.00  0.00    -0.220 NA
ATOM     11  S   UNL     1       6.675   0.970  -2.707  1.00  0.00    -0.096 S 
ATOM     12  C   UNL     1       7.202  -1.411  -2.012  1.00  0.00     0.091 A 
ATOM     13  C   UNL     1       7.824  -0.182  -2.171  1.00  0.00     0.064 A 
BRANCH  12  14
ATOM     14  C   UNL     1       7.943  -2.649  -1.801  1.00  0.00     0.002 A 
ATOM     15  C   UNL     1       8.874  -2.786  -0.762  1.00  0.00     0.010 A 
ATOM     16  C   UNL     1       7.823  -3.674  -2.748  1.00  0.00     0.010 A 
ATOM     17  C   UNL     1       9.720  -3.898  -0.716  1.00  0.00     0.001 A 
ATOM     18  C   UNL     1       8.671  -4.782  -2.702  1.00  0.00     0.001 A 
ATOM     19  C   UNL     1       9.630  -4.885  -1.696  1.00  0.00     0.000 A 
ENDBRANCH  12  14
BRANCH  13  20
ATOM     20  C   UNL     1       9.224   0.215  -2.085  1.00  0.00    -0.006 A 
ATOM     21  C   UNL     1       9.668   1.057  -1.056  1.00  0.00     0.009 A 
ATOM     22  C   UNL     1      10.136  -0.244  -3.042  1.00  0.00     0.009 A 
ATOM     23  C   UNL     1      11.007   1.449  -1.001  1.00  0.00     0.001 A 
ATOM     24  C   UNL     1      11.471   0.151  -2.986  1.00  0.00     0.001 A 
ATOM     25  C   UNL     1      11.904   1.001  -1.969  1.00  0.00     0.000 A 
ENDBRANCH  13  20
ENDBRANCH   7   9
ENDBRANCH   6   7
ENDBRANCH   4   6
ENDBRANCH   3   4
ENDBRANCH   2   3
ENDBRANCH   1   2
BRANCH   1  26
ATOM     26  O   UNL     1       3.999  -1.411   0.720  1.00  0.00    -0.374 OA
BRANCH  26  27
ATOM     27  C   UNL     1       2.728  -1.748   1.281  1.00  0.00     0.202 C 
BRANCH  27  28
ATOM     28  C   UNL     1       2.763  -2.295   2.711  1.00  0.00     0.261 C 
BRANCH  28  29
ATOM     29  O   UNL     1       3.165  -1.280   3.645  1.00  0.00    -0.460 OA
BRANCH  29  30
ATOM     30  C   UNL     1       4.455  -1.357   4.042  1.00  0.00     0.338 C 
ATOM     31  O   UNL     1       5.255  -2.250   3.805  1.00  0.00    -0.246 OA
BRANCH  30  32
ATOM     32  C   UNL     1       4.855  -0.082   4.666  1.00  0.00     0.060 A 
ATOM     33  C   UNL     1       6.116   0.429   4.330  1.00  0.00     0.016 A 
ATOM     34  C   UNL     1       4.044   0.576   5.594  1.00  0.00     0.016 A 
ATOM     35  C   UNL     1       6.618   1.536   5.003  1.00  0.00     0.010 A 
ATOM     36  C   UNL     1       4.548   1.689   6.270  1.00  0.00     0.010 A 
ATOM     37  C   UNL     1       5.862   2.123   6.025  1.00  0.00    -0.014 A 
BRANCH  37  38
ATOM     38  C   UNL     1       6.549   3.007   6.994  1.00  0.00     0.031 A 
ATOM     39  C   UNL     1       6.976   2.416   8.312  1.00  0.00     0.074 A 
ATOM     40  C   UNL     1       6.849   4.278   6.682  1.00  0.00     0.049 A 
ATOM     41  N   UNL     1       7.609   2.974   9.311  1.00  0.00    -0.248 NA
ATOM     42  C   UNL     1       6.638   1.000   8.534  1.00  0.00     0.031 C 
ATOM     43  C   UNL     1       6.521   4.937   5.420  1.00  0.00     0.029 A 
ATOM     44  N   UNL     1       7.505   5.239   7.407  1.00  0.00    -0.354 N 
ATOM     45  C   UNL     1       7.729   1.985  10.280  1.00  0.00     0.074 A 
ATOM     46  C   UNL     1       7.072   0.804   9.769  1.00  0.00     0.031 C 
ATOM     47  C   UNL     1       6.981   6.199   5.457  1.00  0.00     0.029 A 
ATOM     48  C   UNL     1       7.609   6.441   6.755  1.00  0.00     0.049 A 
ATOM     49  H   UNL     1       7.866   5.081   8.309  1.00  0.00     0.167 HD
ATOM     50  C   UNL     1       8.347   2.052  11.482  1.00  0.00     0.037 A 
ATOM     51  C   UNL     1       8.145   7.604   7.171  1.00  0.00     0.037 A 
ATOM     52  C   UNL     1       9.008   3.231  11.977  1.00  0.00     0.049 A 
ATOM     53  C   UNL     1       8.780   7.668   8.537  1.00  0.00     0.074 A 
ATOM     54  C   UNL     1       9.684   3.406  13.171  1.00  0.00     0.029 A 
ATOM     55  N   UNL     1       9.068   4.441  11.300  1.00  0.00    -0.354 N 
ATOM     56  N   UNL     1       8.918   6.722   9.436  1.00  0.00    -0.248 NA
ATOM     57  C   UNL     1       9.348   8.961   8.939  1.00  0.00     0.031 C 
ATOM     58  C   UNL     1      10.098   4.739  13.244  1.00  0.00     0.029 A 
ATOM     59  C   UNL     1       9.748   5.375  12.063  1.00  0.00     0.049 A 
ATOM     60  H   UNL     1       8.684   4.610  10.409  1.00  0.00     0.167 HD
ATOM     61  C   UNL     1       9.625   7.292  10.488  1.00  0.00     0.074 A 
ATOM     62  C   UNL     1       9.896   8.663  10.108  1.00  0.00     0.031 C 
ATOM     63  C   UNL     1      10.020   6.732  11.659  1.00  0.00     0.037 A 
BRANCH  50  64
ATOM     64  C   UNL     1       8.303   0.831  12.357  1.00  0.00     0.064 A 
ATOM     65  C   UNL     1       8.996  -0.345  12.030  1.00  0.00     0.173 A 
ATOM     66  C   UNL     1       7.569   0.845  13.553  1.00  0.00     0.173 A 
ATOM     67  F   UNL     1       9.700  -0.420  10.890  1.00  0.00    -0.203 F 
ATOM     68  C   UNL     1       8.930  -1.469  12.850  1.00  0.00     0.198 A 
ATOM     69  C   UNL     1       7.533  -0.269  14.388  1.00  0.00     0.198 A 
ATOM     70  F   UNL     1       6.887   1.942  13.915  1.00  0.00    -0.203 F 
ATOM     71  F   UNL     1       9.553  -2.599  12.488  1.00  0.00    -0.200 F 
ATOM     72  C   UNL     1       8.205  -1.427  14.032  1.00  0.00     0.200 A 
ATOM     73  F   UNL     1       6.843  -0.221  15.536  1.00  0.00    -0.200 F 
ATOM     74  F   UNL     1       8.148  -2.507  14.824  1.00  0.00    -0.200 F 
ENDBRANCH  50  64
BRANCH  51  75
ATOM     75  C   UNL     1       8.117   8.798   6.286  1.00  0.00     0.064 A 
ATOM     76  C   UNL     1       9.299   9.338   5.760  1.00  0.00     0.173 A 
ATOM     77  C   UNL     1       6.910   9.436   5.962  1.00  0.00     0.173 A 
ATOM     78  F   UNL     1      10.481   8.776   6.056  1.00  0.00    -0.203 F 
ATOM     79  C   UNL     1       9.279  10.484   4.969  1.00  0.00     0.198 A 
ATOM     80  C   UNL     1       6.888  10.563   5.144  1.00  0.00     0.198 A 
ATOM     81  F   UNL     1       5.750   8.960   6.436  1.00  0.00    -0.203 F 
ATOM     82  F   UNL     1      10.429  11.009   4.525  1.00  0.00    -0.200 F 
ATOM     83  C   UNL     1       8.073  11.093   4.656  1.00  0.00     0.200 A 
ATOM     84  F   UNL     1       5.719  11.139   4.832  1.00  0.00    -0.200 F 
ATOM     85  F   UNL     1       8.054  12.194   3.893  1.00  0.00    -0.200 F 
ENDBRANCH  51  75
BRANCH  63  86
ATOM     86  C   UNL     1      10.846   7.583  12.584  1.00  0.00     0.064 A 
ATOM     87  C   UNL     1      10.310   8.691  13.256  1.00  0.00     0.173 A 
ATOM     88  C   UNL     1      12.194   7.265  12.815  1.00  0.00     0.173 A 
ATOM     89  F   UNL     1       9.030   9.044  13.063  1.00  0.00    -0.203 F 
ATOM     90  C   UNL     1      11.105   9.477  14.087  1.00  0.00     0.198 A 
ATOM     91  C   UNL     1      12.974   8.029  13.678  1.00  0.00     0.198 A 
ATOM     92  F   UNL     1      12.755   6.208  12.209  1.00  0.00    -0.203 F 
ATOM     93  F   UNL     1      10.589  10.572  14.663  1.00  0.00    -0.200 F 
ATOM     94  C   UNL     1      12.433   9.142  14.303  1.00  0.00     0.200 A 
ATOM     95  F   UNL     1      14.252   7.691  13.900  1.00  0.00    -0.200 F 
ATOM     96  F   UNL     1      13.195   9.898  15.104  1.00  0.00    -0.200 F 
ENDBRANCH  63  86
ENDBRANCH  37  38
ENDBRANCH  30  32
ENDBRANCH  29  30
ENDBRANCH  28  29
ENDBRANCH  27  28
ENDBRANCH  26  27
ENDBRANCH   1  26
TORSDOF 18
