REMARK SMILES Cc1nccn1CCC[NH+]1CCC2(CC1)[C@@H](C(=O)OCCOCCOC(=O)c1ccc(-c3c4nc(c(-c5c(F)c(F)c(F)c(F)c5F)c5ccc([nH]5)c(-c5c(F)c(F)c(F)c(F)c5F)c5nc(c(-c6c(F)c(F)c(F)c(F)c6F)c6ccc3[nH]6)C=C5)C=C4)cc1)CC(=O)N2C
REMARK SMILES IDX 21 1 20 2 19 3 17 4 18 5 16 6 10 7 11 8 15 9 12 11 14 12
REMARK SMILES IDX 13 13 94 14 91 15 92 16 95 17 93 18 9 19 8 20 7 21 6 22 1 23
REMARK SMILES IDX 2 24 3 25 4 26 5 27 22 28 23 29 24 30 25 31 26 32 27 33
REMARK SMILES IDX 28 34 29 35 90 36 30 37 89 38 31 39 32 40 33 41 83 42 34 43
REMARK SMILES IDX 88 44 82 45 84 46 35 47 87 48 81 49 80 50 36 52 68 53 48 54
REMARK SMILES IDX 67 55 49 56 52 57 66 58 85 59 50 60 51 61 65 63 86 64 53 65
REMARK SMILES IDX 37 66 38 67 46 68 39 69 40 70 44 71 47 72 41 73 42 74 45 75
REMARK SMILES IDX 43 76 69 77 70 78 78 79 71 80 72 81 76 82 79 83 73 84 74 85
REMARK SMILES IDX 77 86 75 87 54 88 55 89 63 90 56 91 57 92 61 93 64 94 58 95
REMARK SMILES IDX 59 96 62 97 60 98
REMARK H PARENT 10 10 84 51 52 62
REMARK Flexibility Score: inf
ROOT
ATOM      1  C   UNL     1      -1.070   3.732  -1.841  1.00  0.00     0.202 C 
ENDROOT
BRANCH   1   2
ATOM      2  C   UNL     1      -0.474   2.419  -1.337  1.00  0.00     0.261 C 
BRANCH   2   3
ATOM      3  O   UNL     1      -1.452   1.352  -1.302  1.00  0.00    -0.463 OA
BRANCH   3   4
ATOM      4  C   UNL     1      -1.693   0.757  -0.114  1.00  0.00     0.311 C 
ATOM      5  O   UNL     1      -1.156   1.121   0.929  1.00  0.00    -0.252 OA
BRANCH   4   6
ATOM      6  C   UNL     1      -2.710  -0.387  -0.107  1.00  0.00     0.134 C 
ATOM      7  N   UNL     1      -2.644  -2.327  -3.918  1.00  0.00    -0.335 N 
ATOM      8  C   UNL     1      -3.037  -3.186  -2.822  1.00  0.00     0.264 C 
ATOM      9  C   UNL     1      -3.387  -1.094  -3.982  1.00  0.00     0.264 C 
ATOM     10  H   UNL     1      -2.981  -2.819  -4.745  1.00  0.00     0.348 HD
ATOM     11  C   UNL     1      -2.906  -2.516  -1.462  1.00  0.00     0.091 C 
ATOM     12  C   UNL     1      -3.321  -0.286  -2.683  1.00  0.00     0.091 C 
ATOM     13  C   UNL     1      -3.426  -1.054  -1.352  1.00  0.00     0.067 C 
ATOM     14  N   UNL     1      -4.845  -1.079  -0.910  1.00  0.00    -0.339 N 
ATOM     15  C   UNL     1      -3.813   0.026   0.872  1.00  0.00     0.118 C 
ATOM     16  C   UNL     1      -5.070  -0.579   0.356  1.00  0.00     0.223 C 
ATOM     17  C   UNL     1      -5.965  -1.600  -1.671  1.00  0.00     0.147 C 
ATOM     18  O   UNL     1      -6.137  -0.570   0.948  1.00  0.00    -0.275 OA
BRANCH   7  19
ATOM     19  C   UNL     1      -1.286  -2.398  -4.433  1.00  0.00     0.264 C 
BRANCH  19  20
ATOM     20  C   UNL     1      -0.208  -1.369  -4.054  1.00  0.00     0.083 C 
BRANCH  20  21
ATOM     21  C   UNL     1       0.145  -1.107  -2.591  1.00  0.00     0.129 C 
BRANCH  21  22
ATOM     22  N   UNL     1       0.721  -2.103  -1.716  1.00  0.00    -0.335 N 
ATOM     23  C   UNL     1       1.547  -0.484   0.095  1.00  0.00     0.087 C 
ATOM     24  C   UNL     1       1.248  -1.832  -0.460  1.00  0.00     0.105 A 
ATOM     25  N   UNL     1       1.419  -2.949   0.220  1.00  0.00    -0.242 NA
ATOM     26  C   UNL     1       1.022  -3.958  -0.605  1.00  0.00     0.131 A 
ATOM     27  C   UNL     1       0.617  -3.461  -1.819  1.00  0.00     0.107 A 
ENDBRANCH  21  22
ENDBRANCH  20  21
ENDBRANCH  19  20
ENDBRANCH   7  19
ENDBRANCH   4   6
ENDBRANCH   3   4
ENDBRANCH   2   3
ENDBRANCH   1   2
BRANCH   1  28
ATOM     28  O   UNL     1      -1.975   4.396  -0.961  1.00  0.00    -0.374 OA
BRANCH  28  29
ATOM     29  C   UNL     1      -3.204   3.760  -0.638  1.00  0.00     0.202 C 
BRANCH  29  30
ATOM     30  C   UNL     1      -4.273   3.757  -1.716  1.00  0.00     0.261 C 
BRANCH  30  31
ATOM     31  O   UNL     1      -3.830   3.108  -2.899  1.00  0.00    -0.460 OA
BRANCH  31  32
ATOM     32  C   UNL     1      -3.547   3.939  -3.933  1.00  0.00     0.338 C 
ATOM     33  O   UNL     1      -3.272   5.116  -3.889  1.00  0.00    -0.246 OA
BRANCH  32  34
ATOM     34  C   UNL     1      -3.810   3.195  -5.173  1.00  0.00     0.060 A 
ATOM     35  C   UNL     1      -3.666   3.866  -6.381  1.00  0.00     0.016 A 
ATOM     36  C   UNL     1      -4.469   1.962  -5.099  1.00  0.00     0.016 A 
ATOM     37  C   UNL     1      -4.403   3.406  -7.451  1.00  0.00     0.010 A 
ATOM     38  C   UNL     1      -5.123   1.450  -6.177  1.00  0.00     0.010 A 
ATOM     39  C   UNL     1      -5.199   2.261  -7.287  1.00  0.00    -0.014 A 
BRANCH  39  40
ATOM     40  C   UNL     1      -6.105   1.865  -8.331  1.00  0.00     0.031 A 
ATOM     41  C   UNL     1      -5.376   1.455  -9.539  1.00  0.00     0.074 A 
ATOM     42  C   UNL     1      -7.440   1.810  -8.162  1.00  0.00     0.049 A 
ATOM     43  N   UNL     1      -5.251   2.148 -10.617  1.00  0.00    -0.248 NA
ATOM     44  C   UNL     1      -4.485   0.289  -9.454  1.00  0.00     0.031 C 
ATOM     45  C   UNL     1      -8.233   1.944  -6.937  1.00  0.00     0.029 A 
ATOM     46  N   UNL     1      -8.382   1.544  -9.104  1.00  0.00    -0.354 N 
ATOM     47  C   UNL     1      -4.445   1.387 -11.446  1.00  0.00     0.074 A 
ATOM     48  C   UNL     1      -3.832   0.387 -10.613  1.00  0.00     0.031 C 
ATOM     49  C   UNL     1      -9.503   1.535  -7.177  1.00  0.00     0.029 A 
ATOM     50  C   UNL     1      -9.644   1.256  -8.594  1.00  0.00     0.049 A 
ATOM     51  H   UNL     1      -8.187   1.554 -10.069  1.00  0.00     0.167 HD
ATOM     52  C   UNL     1      -4.603   1.474 -12.792  1.00  0.00     0.037 A 
ATOM     53  C   UNL     1     -10.675   0.752  -9.319  1.00  0.00     0.037 A 
ATOM     54  C   UNL     1      -5.290   2.695 -13.149  1.00  0.00     0.049 A 
ATOM     55  C   UNL     1     -10.396   1.075 -10.749  1.00  0.00     0.074 A 
ATOM     56  C   UNL     1      -5.027   4.038 -12.945  1.00  0.00     0.029 A 
ATOM     57  N   UNL     1      -6.634   2.621 -13.431  1.00  0.00    -0.354 N 
ATOM     58  N   UNL     1     -10.396   2.295 -11.218  1.00  0.00    -0.248 NA
ATOM     59  C   UNL     1      -9.602   0.116 -11.507  1.00  0.00     0.031 C 
ATOM     60  C   UNL     1      -6.290   4.621 -12.627  1.00  0.00     0.029 A 
ATOM     61  C   UNL     1      -7.263   3.628 -12.742  1.00  0.00     0.049 A 
ATOM     62  H   UNL     1      -7.068   1.963 -14.021  1.00  0.00     0.167 HD
ATOM     63  C   UNL     1      -9.283   2.357 -12.045  1.00  0.00     0.074 A 
ATOM     64  C   UNL     1      -8.859   0.969 -12.220  1.00  0.00     0.031 C 
ATOM     65  C   UNL     1      -8.622   3.533 -12.259  1.00  0.00     0.037 A 
BRANCH  52  66
ATOM     66  C   UNL     1      -4.535   0.278 -13.703  1.00  0.00     0.064 A 
ATOM     67  C   UNL     1      -4.637   0.487 -15.090  1.00  0.00     0.173 A 
ATOM     68  C   UNL     1      -4.686  -1.061 -13.275  1.00  0.00     0.173 A 
ATOM     69  F   UNL     1      -4.522   1.721 -15.604  1.00  0.00    -0.203 F 
ATOM     70  C   UNL     1      -4.963  -0.549 -15.967  1.00  0.00     0.198 A 
ATOM     71  C   UNL     1      -4.957  -2.100 -14.159  1.00  0.00     0.198 A 
ATOM     72  F   UNL     1      -4.696  -1.413 -11.985  1.00  0.00    -0.203 F 
ATOM     73  F   UNL     1      -5.186  -0.277 -17.259  1.00  0.00    -0.200 F 
ATOM     74  C   UNL     1      -5.131  -1.840 -15.500  1.00  0.00     0.200 A 
ATOM     75  F   UNL     1      -5.135  -3.340 -13.680  1.00  0.00    -0.200 F 
ATOM     76  F   UNL     1      -5.510  -2.821 -16.327  1.00  0.00    -0.200 F 
ENDBRANCH  52  66
BRANCH  53  77
ATOM     77  C   UNL     1     -11.638  -0.304  -8.912  1.00  0.00     0.064 A 
ATOM     78  C   UNL     1     -12.786  -0.577  -9.676  1.00  0.00     0.173 A 
ATOM     79  C   UNL     1     -11.309  -1.255  -7.926  1.00  0.00     0.173 A 
ATOM     80  F   UNL     1     -13.143   0.247 -10.672  1.00  0.00    -0.203 F 
ATOM     81  C   UNL     1     -13.544  -1.738  -9.478  1.00  0.00     0.198 A 
ATOM     82  C   UNL     1     -12.067  -2.411  -7.727  1.00  0.00     0.198 A 
ATOM     83  F   UNL     1     -10.189  -1.134  -7.198  1.00  0.00    -0.203 F 
ATOM     84  F   UNL     1     -14.598  -1.993 -10.267  1.00  0.00    -0.200 F 
ATOM     85  C   UNL     1     -13.177  -2.659  -8.511  1.00  0.00     0.200 A 
ATOM     86  F   UNL     1     -11.675  -3.312  -6.815  1.00  0.00    -0.200 F 
ATOM     87  F   UNL     1     -13.865  -3.800  -8.361  1.00  0.00    -0.200 F 
ENDBRANCH  53  77
BRANCH  65  88
ATOM     88  C   UNL     1      -9.258   4.806 -11.769  1.00  0.00     0.064 A 
ATOM     89  C   UNL     1      -9.521   5.092 -10.417  1.00  0.00     0.173 A 
ATOM     90  C   UNL     1      -9.459   5.840 -12.693  1.00  0.00     0.173 A 
ATOM     91  F   UNL     1      -9.259   4.195  -9.458  1.00  0.00    -0.203 F 
ATOM     92  C   UNL     1     -10.001   6.342 -10.021  1.00  0.00     0.198 A 
ATOM     93  C   UNL     1      -9.902   7.097 -12.292  1.00  0.00     0.198 A 
ATOM     94  F   UNL     1      -9.171   5.645 -13.990  1.00  0.00    -0.203 F 
ATOM     95  F   UNL     1     -10.252   6.588  -8.726  1.00  0.00    -0.200 F 
ATOM     96  C   UNL     1     -10.183   7.345 -10.958  1.00  0.00     0.200 A 
ATOM     97  F   UNL     1     -10.025   8.078 -13.196  1.00  0.00    -0.200 F 
ATOM     98  F   UNL     1     -10.602   8.559 -10.575  1.00  0.00    -0.200 F 
ENDBRANCH  65  88
ENDBRANCH  39  40
ENDBRANCH  32  34
ENDBRANCH  31  32
ENDBRANCH  30  31
ENDBRANCH  29  30
ENDBRANCH  28  29
ENDBRANCH   1  28
TORSDOF 18
