REMARK SMILES C[NH2+]C[C@@H](C)C(=O)N1CCC([N@@H+]2CCC[C@@H]2C(=O)OCCOCCOC(=O)c2ccc(-c3c4nc(c(-c5c(F)c(F)c(F)c(F)c5F)c5ccc([nH]5)c(-c5c(F)c(F)c(F)c(F)c5F)c5nc(c(-c6c(F)c(F)c(F)c(F)c6F)c6ccc3[nH]6)C=C5)C=C4)cc2)CC1
REMARK SMILES IDX 21 1 20 2 19 3 17 4 18 5 16 6 12 7 13 8 14 10 15 11 11 12
REMARK SMILES IDX 6 13 7 14 8 15 9 16 92 17 10 18 91 19 4 20 5 21 3 22 2 23
REMARK SMILES IDX 1 24 22 27 23 28 24 29 25 30 26 31 27 32 28 33 29 34 90 35
REMARK SMILES IDX 30 36 89 37 31 38 32 39 33 40 83 41 34 42 88 43 82 44 84 45
REMARK SMILES IDX 35 46 87 47 81 48 80 49 36 51 68 52 48 53 67 54 49 55 52 56
REMARK SMILES IDX 66 57 85 58 50 59 51 60 65 62 86 63 53 64 37 65 38 66 46 67
REMARK SMILES IDX 39 68 40 69 44 70 47 71 41 72 42 73 45 74 43 75 69 76 70 77
REMARK SMILES IDX 78 78 71 79 72 80 76 81 79 82 73 83 74 84 77 85 75 86 54 87
REMARK SMILES IDX 55 88 63 89 56 90 57 91 61 92 64 93 58 94 59 95 62 96 60 97
REMARK H PARENT 12 9 2 25 2 26 84 50 52 61
REMARK Flexibility Score: inf
ROOT
ATOM      1  C   UNL     1      -4.484   0.023   2.046  1.00  0.00     0.202 C 
ENDROOT
BRANCH   1   2
ATOM      2  C   UNL     1      -4.450  -1.290   1.271  1.00  0.00     0.261 C 
BRANCH   2   3
ATOM      3  O   UNL     1      -5.679  -1.550   0.575  1.00  0.00    -0.459 OA
BRANCH   3   4
ATOM      4  C   UNL     1      -6.271  -2.748   0.838  1.00  0.00     0.365 C 
ATOM      5  O   UNL     1      -5.875  -3.551   1.678  1.00  0.00    -0.245 OA
BRANCH   4   6
ATOM      6  C   UNL     1      -7.452  -3.025  -0.077  1.00  0.00     0.295 C 
ATOM      7  N   UNL     1      -7.157  -3.693  -1.378  1.00  0.00    -0.321 N 
ATOM      8  C   UNL     1      -8.436  -3.552  -2.105  1.00  0.00     0.263 C 
ATOM      9  H   UNL     1      -6.839  -4.642  -1.182  1.00  0.00     0.349 HD
ATOM     10  C   UNL     1      -9.037  -2.208  -1.699  1.00  0.00     0.068 C 
ATOM     11  C   UNL     1      -8.391  -1.859  -0.366  1.00  0.00     0.083 C 
BRANCH   7  12
ATOM     12  C   UNL     1      -5.985  -3.286  -2.195  1.00  0.00     0.188 C 
ATOM     13  C   UNL     1      -2.829  -0.769  -2.192  1.00  0.00     0.231 C 
ATOM     14  O   UNL     1      -3.398   0.314  -2.010  1.00  0.00    -0.274 OA
ATOM     15  N   UNL     1      -3.524  -1.836  -2.733  1.00  0.00    -0.342 N 
ATOM     16  C   UNL     1      -4.723  -1.541  -3.499  1.00  0.00     0.125 C 
ATOM     17  C   UNL     1      -3.390  -3.249  -2.397  1.00  0.00     0.125 C 
ATOM     18  C   UNL     1      -5.968  -1.826  -2.680  1.00  0.00     0.086 C 
ATOM     19  C   UNL     1      -4.617  -3.746  -1.609  1.00  0.00     0.086 C 
BRANCH  13  20
ATOM     20  C   UNL     1      -1.317  -0.833  -1.949  1.00  0.00     0.130 C 
ATOM     21  C   UNL     1      -0.590  -1.302  -3.206  1.00  0.00     0.024 C 
BRANCH  20  22
ATOM     22  C   UNL     1      -0.883  -1.531  -0.655  1.00  0.00     0.273 C 
BRANCH  22  23
ATOM     23  N   UNL     1       0.544  -1.421  -0.321  1.00  0.00    -0.348 N 
ATOM     24  C   UNL     1       0.946  -0.078   0.076  1.00  0.00     0.330 C 
ATOM     25  H   UNL     1       0.746  -2.058   0.450  1.00  0.00     0.346 HD
ATOM     26  H   UNL     1       1.069  -1.654  -1.163  1.00  0.00     0.346 HD
ENDBRANCH  22  23
ENDBRANCH  20  22
ENDBRANCH  13  20
ENDBRANCH   7  12
ENDBRANCH   4   6
ENDBRANCH   3   4
ENDBRANCH   2   3
ENDBRANCH   1   2
BRANCH   1  27
ATOM     27  O   UNL     1      -5.386   0.064   3.148  1.00  0.00    -0.374 OA
BRANCH  27  28
ATOM     28  C   UNL     1      -6.780   0.112   2.859  1.00  0.00     0.202 C 
BRANCH  28  29
ATOM     29  C   UNL     1      -7.320   1.451   2.342  1.00  0.00     0.261 C 
BRANCH  29  30
ATOM     30  O   UNL     1      -6.870   1.776   1.013  1.00  0.00    -0.460 OA
BRANCH  30  31
ATOM     31  C   UNL     1      -6.019   2.829   0.940  1.00  0.00     0.338 C 
ATOM     32  O   UNL     1      -5.586   3.495   1.872  1.00  0.00    -0.246 OA
BRANCH  31  33
ATOM     33  C   UNL     1      -5.574   3.054  -0.446  1.00  0.00     0.060 A 
ATOM     34  C   UNL     1      -4.201   3.193  -0.687  1.00  0.00     0.016 A 
ATOM     35  C   UNL     1      -6.498   3.271  -1.470  1.00  0.00     0.016 A 
ATOM     36  C   UNL     1      -3.748   3.592  -1.946  1.00  0.00     0.010 A 
ATOM     37  C   UNL     1      -6.043   3.682  -2.726  1.00  0.00     0.010 A 
ATOM     38  C   UNL     1      -4.670   3.877  -2.959  1.00  0.00    -0.014 A 
BRANCH  38  39
ATOM     39  C   UNL     1      -4.232   4.531  -4.216  1.00  0.00     0.031 A 
ATOM     40  C   UNL     1      -4.336   6.026  -4.326  1.00  0.00     0.074 A 
ATOM     41  C   UNL     1      -3.780   3.809  -5.254  1.00  0.00     0.049 A 
ATOM     42  N   UNL     1      -4.138   6.801  -5.362  1.00  0.00    -0.248 NA
ATOM     43  C   UNL     1      -4.718   6.742  -3.099  1.00  0.00     0.031 C 
ATOM     44  C   UNL     1      -3.568   2.365  -5.249  1.00  0.00     0.029 A 
ATOM     45  N   UNL     1      -3.435   4.199  -6.524  1.00  0.00    -0.354 N 
ATOM     46  C   UNL     1      -4.386   8.093  -4.916  1.00  0.00     0.074 A 
ATOM     47  C   UNL     1      -4.764   7.996  -3.522  1.00  0.00     0.031 C 
ATOM     48  C   UNL     1      -3.150   1.983  -6.468  1.00  0.00     0.029 A 
ATOM     49  C   UNL     1      -3.103   3.152  -7.347  1.00  0.00     0.049 A 
ATOM     50  H   UNL     1      -3.427   5.139  -6.817  1.00  0.00     0.167 HD
ATOM     51  C   UNL     1      -4.306   9.254  -5.609  1.00  0.00     0.037 A 
ATOM     52  C   UNL     1      -2.823   3.141  -8.665  1.00  0.00     0.037 A 
ATOM     53  C   UNL     1      -3.936   9.347  -6.996  1.00  0.00     0.049 A 
ATOM     54  C   UNL     1      -2.849   4.434  -9.441  1.00  0.00     0.074 A 
ATOM     55  C   UNL     1      -3.804  10.479  -7.781  1.00  0.00     0.029 A 
ATOM     56  N   UNL     1      -3.651   8.260  -7.808  1.00  0.00    -0.354 N 
ATOM     57  N   UNL     1      -3.064   5.654  -9.014  1.00  0.00    -0.248 NA
ATOM     58  C   UNL     1      -2.602   4.343 -10.889  1.00  0.00     0.031 C 
ATOM     59  C   UNL     1      -3.492  10.072  -9.083  1.00  0.00     0.029 A 
ATOM     60  C   UNL     1      -3.378   8.691  -9.096  1.00  0.00     0.049 A 
ATOM     61  H   UNL     1      -3.645   7.320  -7.514  1.00  0.00     0.167 HD
ATOM     62  C   UNL     1      -2.938   6.478 -10.125  1.00  0.00     0.074 A 
ATOM     63  C   UNL     1      -2.634   5.619 -11.250  1.00  0.00     0.031 C 
ATOM     64  C   UNL     1      -3.055   7.827 -10.203  1.00  0.00     0.037 A 
BRANCH  51  65
ATOM     65  C   UNL     1      -4.671  10.514  -4.881  1.00  0.00     0.064 A 
ATOM     66  C   UNL     1      -3.845  11.060  -3.888  1.00  0.00     0.173 A 
ATOM     67  C   UNL     1      -5.862  11.188  -5.190  1.00  0.00     0.173 A 
ATOM     68  F   UNL     1      -2.702  10.446  -3.547  1.00  0.00    -0.203 F 
ATOM     69  C   UNL     1      -4.215  12.217  -3.207  1.00  0.00     0.198 A 
ATOM     70  C   UNL     1      -6.215  12.360  -4.527  1.00  0.00     0.198 A 
ATOM     71  F   UNL     1      -6.685  10.710  -6.135  1.00  0.00    -0.203 F 
ATOM     72  F   UNL     1      -3.436  12.693  -2.225  1.00  0.00    -0.200 F 
ATOM     73  C   UNL     1      -5.396  12.868  -3.529  1.00  0.00     0.200 A 
ATOM     74  F   UNL     1      -7.351  12.994  -4.847  1.00  0.00    -0.200 F 
ATOM     75  F   UNL     1      -5.751  13.981  -2.873  1.00  0.00    -0.200 F 
ENDBRANCH  51  65
BRANCH  52  76
ATOM     76  C   UNL     1      -2.500   1.861  -9.343  1.00  0.00     0.064 A 
ATOM     77  C   UNL     1      -1.203   1.605  -9.810  1.00  0.00     0.173 A 
ATOM     78  C   UNL     1      -3.475   0.874  -9.549  1.00  0.00     0.173 A 
ATOM     79  F   UNL     1      -0.244   2.531  -9.661  1.00  0.00    -0.203 F 
ATOM     80  C   UNL     1      -0.896   0.416 -10.466  1.00  0.00     0.198 A 
ATOM     81  C   UNL     1      -3.160  -0.326 -10.184  1.00  0.00     0.198 A 
ATOM     82  F   UNL     1      -4.732   1.071  -9.126  1.00  0.00    -0.203 F 
ATOM     83  F   UNL     1       0.343   0.212 -10.935  1.00  0.00    -0.200 F 
ATOM     84  C   UNL     1      -1.873  -0.552 -10.647  1.00  0.00     0.200 A 
ATOM     85  F   UNL     1      -4.105  -1.262 -10.347  1.00  0.00    -0.200 F 
ATOM     86  F   UNL     1      -1.576  -1.699 -11.273  1.00  0.00    -0.200 F 
ENDBRANCH  52  76
BRANCH  64  87
ATOM     87  C   UNL     1      -2.800   8.474 -11.533  1.00  0.00     0.064 A 
ATOM     88  C   UNL     1      -3.729   8.400 -12.581  1.00  0.00     0.173 A 
ATOM     89  C   UNL     1      -1.640   9.237 -11.735  1.00  0.00     0.173 A 
ATOM     90  F   UNL     1      -4.846   7.670 -12.443  1.00  0.00    -0.203 F 
ATOM     91  C   UNL     1      -3.500   9.060 -13.786  1.00  0.00     0.198 A 
ATOM     92  C   UNL     1      -1.427   9.916 -12.931  1.00  0.00     0.198 A 
ATOM     93  F   UNL     1      -0.723   9.343 -10.761  1.00  0.00    -0.203 F 
ATOM     94  F   UNL     1      -4.386   8.951 -14.786  1.00  0.00    -0.200 F 
ATOM     95  C   UNL     1      -2.355   9.824 -13.957  1.00  0.00     0.200 A 
ATOM     96  F   UNL     1      -0.326  10.665 -13.088  1.00  0.00    -0.200 F 
ATOM     97  F   UNL     1      -2.144  10.470 -15.112  1.00  0.00    -0.200 F 
ENDBRANCH  64  87
ENDBRANCH  38  39
ENDBRANCH  31  33
ENDBRANCH  30  31
ENDBRANCH  29  30
ENDBRANCH  28  29
ENDBRANCH  27  28
ENDBRANCH   1  27
TORSDOF 18
