REMARK SMILES CC(C)CCn1nc(C(=O)OCCOCCOC(=O)c2ccc(-c3c4nc(c(-c5c(F)c(F)c(F)c(F)c5F)c5ccc([nH]5)c(-c5c(F)c(F)c(F)c(F)c5F)c5nc(c(-c6c(F)c(F)c(F)c(F)c6F)c6ccc3[nH]6)C=C5)C=C4)cc2)c2c1CCN(C(=O)[C@@H]1CCc3nn(C)c(=O)n3C1)C2
REMARK SMILES IDX 13 1 12 2 11 3 9 4 10 5 8 6 6 7 7 8 84 9 83 10 85 11 101 12
REMARK SMILES IDX 86 13 87 14 5 15 4 16 2 17 1 18 3 19 88 20 89 21 90 22 91 23
REMARK SMILES IDX 100 24 92 25 99 26 93 27 97 28 94 29 95 30 98 31 96 32 14 33
REMARK SMILES IDX 15 34 16 35 17 36 18 37 19 38 20 39 21 40 82 41 22 42 81 43
REMARK SMILES IDX 23 44 24 45 25 46 75 47 26 48 80 49 74 50 76 51 27 52 79 53
REMARK SMILES IDX 73 54 72 55 28 57 60 58 40 59 59 60 41 61 44 62 58 63 77 64
REMARK SMILES IDX 42 65 43 66 57 68 78 69 45 70 29 71 30 72 38 73 31 74 32 75
REMARK SMILES IDX 36 76 39 77 33 78 34 79 37 80 35 81 61 82 62 83 70 84 63 85
REMARK SMILES IDX 64 86 68 87 71 88 65 89 66 90 69 91 67 92 46 93 47 94 55 95
REMARK SMILES IDX 48 96 49 97 53 98 56 99 50 100 51 101 54 102 52 103
REMARK H PARENT 76 56 44 67
REMARK Flexibility Score: inf
ROOT
ATOM      1  C   UNL     1       1.637   0.922   8.702  1.00  0.00     0.202 C 
ENDROOT
BRANCH   1   2
ATOM      2  C   UNL     1       0.153   0.570   8.769  1.00  0.00     0.261 C 
BRANCH   2   3
ATOM      3  O   UNL     1      -0.234  -0.157   7.597  1.00  0.00    -0.458 OA
BRANCH   3   4
ATOM      4  C   UNL     1      -0.911   0.553   6.646  1.00  0.00     0.359 C 
ATOM      5  O   UNL     1      -1.368   1.678   6.822  1.00  0.00    -0.244 OA
BRANCH   4   6
ATOM      6  C   UNL     1      -0.935  -0.168   5.362  1.00  0.00     0.175 A 
ATOM      7  N   UNL     1      -1.291  -0.549   3.285  1.00  0.00    -0.268 N 
ATOM      8  N   UNL     1      -1.292   0.435   4.204  1.00  0.00    -0.165 NA
ATOM      9  C   UNL     1      -1.085  -1.760   3.862  1.00  0.00     0.046 A 
ATOM     10  C   UNL     1      -0.609  -1.535   5.135  1.00  0.00     0.028 A 
ATOM     11  C   UNL     1      -1.429  -3.098   3.344  1.00  0.00     0.078 C 
ATOM     12  C   UNL     1      -0.128  -2.623   6.055  1.00  0.00     0.159 C 
ATOM     13  C   UNL     1      -1.533  -4.002   4.591  1.00  0.00     0.126 C 
ATOM     14  N   UNL     1      -0.320  -3.947   5.407  1.00  0.00    -0.338 N 
BRANCH   7  15
ATOM     15  C   UNL     1      -1.648  -0.291   1.902  1.00  0.00     0.145 C 
BRANCH  15  16
ATOM     16  C   UNL     1      -1.030   0.959   1.261  1.00  0.00     0.027 C 
BRANCH  16  17
ATOM     17  C   UNL     1       0.505   0.951   1.097  1.00  0.00    -0.016 C 
ATOM     18  C   UNL     1       0.991  -0.121   0.119  1.00  0.00     0.007 C 
ATOM     19  C   UNL     1       0.970   2.326   0.603  1.00  0.00     0.007 C 
ENDBRANCH  16  17
ENDBRANCH  15  16
ENDBRANCH   7  15
BRANCH  14  20
ATOM     20  C   UNL     1       0.557  -4.970   5.712  1.00  0.00     0.227 C 
ATOM     21  O   UNL     1       1.480  -4.748   6.512  1.00  0.00    -0.274 OA
BRANCH  20  22
ATOM     22  C   UNL     1       0.516  -6.406   5.121  1.00  0.00     0.099 C 
ATOM     23  C   UNL     1       0.994  -6.593   3.675  1.00  0.00     0.023 C 
ATOM     24  C   UNL     1      -0.711  -7.254   5.428  1.00  0.00     0.142 C 
ATOM     25  C   UNL     1      -0.086  -6.482   2.608  1.00  0.00     0.078 C 
ATOM     26  N   UNL     1      -1.675  -7.246   4.353  1.00  0.00    -0.278 N 
ATOM     27  C   UNL     1      -1.463  -6.843   3.084  1.00  0.00     0.133 A 
ATOM     28  C   UNL     1      -3.036  -7.237   4.540  1.00  0.00     0.345 A 
ATOM     29  N   UNL     1      -2.545  -6.590   2.405  1.00  0.00    -0.155 NA
ATOM     30  N   UNL     1      -3.562  -6.824   3.309  1.00  0.00    -0.216 N 
ATOM     31  O   UNL     1      -3.634  -7.383   5.593  1.00  0.00    -0.246 OA
ATOM     32  C   UNL     1      -4.881  -6.272   3.145  1.00  0.00     0.179 C 
ENDBRANCH  20  22
ENDBRANCH  14  20
ENDBRANCH   4   6
ENDBRANCH   3   4
ENDBRANCH   2   3
ENDBRANCH   1   2
BRANCH   1  33
ATOM     33  O   UNL     1       2.021   1.935   7.769  1.00  0.00    -0.374 OA
BRANCH  33  34
ATOM     34  C   UNL     1       2.118   1.625   6.381  1.00  0.00     0.202 C 
BRANCH  34  35
ATOM     35  C   UNL     1       3.344   0.860   5.911  1.00  0.00     0.261 C 
BRANCH  35  36
ATOM     36  O   UNL     1       3.413  -0.408   6.541  1.00  0.00    -0.460 OA
BRANCH  36  37
ATOM     37  C   UNL     1       4.204  -0.454   7.634  1.00  0.00     0.338 C 
ATOM     38  O   UNL     1       4.746   0.486   8.203  1.00  0.00    -0.246 OA
BRANCH  37  39
ATOM     39  C   UNL     1       4.470  -1.863   7.938  1.00  0.00     0.060 A 
ATOM     40  C   UNL     1       5.588  -2.083   8.737  1.00  0.00     0.016 A 
ATOM     41  C   UNL     1       3.979  -2.831   7.053  1.00  0.00     0.016 A 
ATOM     42  C   UNL     1       6.430  -3.097   8.360  1.00  0.00     0.010 A 
ATOM     43  C   UNL     1       4.820  -3.837   6.671  1.00  0.00     0.010 A 
ATOM     44  C   UNL     1       6.082  -3.866   7.244  1.00  0.00    -0.014 A 
BRANCH  44  45
ATOM     45  C   UNL     1       7.048  -4.795   6.726  1.00  0.00     0.031 A 
ATOM     46  C   UNL     1       7.120  -6.005   7.556  1.00  0.00     0.074 A 
ATOM     47  C   UNL     1       7.730  -4.582   5.589  1.00  0.00     0.049 A 
ATOM     48  N   UNL     1       8.055  -6.302   8.393  1.00  0.00    -0.248 NA
ATOM     49  C   UNL     1       5.917  -6.843   7.660  1.00  0.00     0.031 C 
ATOM     50  C   UNL     1       7.566  -3.537   4.578  1.00  0.00     0.029 A 
ATOM     51  N   UNL     1       8.712  -5.362   5.070  1.00  0.00    -0.354 N 
ATOM     52  C   UNL     1       7.643  -7.480   8.996  1.00  0.00     0.074 A 
ATOM     53  C   UNL     1       6.248  -7.630   8.683  1.00  0.00     0.031 C 
ATOM     54  C   UNL     1       8.262  -3.882   3.467  1.00  0.00     0.029 A 
ATOM     55  C   UNL     1       9.011  -5.095   3.739  1.00  0.00     0.049 A 
ATOM     56  H   UNL     1       9.173  -6.058   5.592  1.00  0.00     0.167 HD
ATOM     57  C   UNL     1       8.560  -8.361   9.474  1.00  0.00     0.037 A 
ATOM     58  C   UNL     1       9.739  -5.923   2.946  1.00  0.00     0.037 A 
ATOM     59  C   UNL     1       9.851  -7.732   9.615  1.00  0.00     0.049 A 
ATOM     60  C   UNL     1      10.560  -6.778   3.858  1.00  0.00     0.074 A 
ATOM     61  C   UNL     1      10.325  -6.672  10.366  1.00  0.00     0.029 A 
ATOM     62  N   UNL     1      10.768  -7.915   8.605  1.00  0.00    -0.354 N 
ATOM     63  N   UNL     1      11.527  -6.303   4.599  1.00  0.00    -0.248 NA
ATOM     64  C   UNL     1       9.965  -8.022   4.336  1.00  0.00     0.031 C 
ATOM     65  C   UNL     1      11.221  -5.976   9.502  1.00  0.00     0.029 A 
ATOM     66  C   UNL     1      11.307  -6.689   8.306  1.00  0.00     0.049 A 
ATOM     67  H   UNL     1      10.996  -8.771   8.176  1.00  0.00     0.167 HD
ATOM     68  C   UNL     1      11.373  -6.929   5.830  1.00  0.00     0.074 A 
ATOM     69  C   UNL     1      10.427  -8.018   5.591  1.00  0.00     0.031 C 
ATOM     70  C   UNL     1      11.775  -6.326   6.988  1.00  0.00     0.037 A 
BRANCH  57  71
ATOM     71  C   UNL     1       8.387  -9.856   9.425  1.00  0.00     0.064 A 
ATOM     72  C   UNL     1       9.372 -10.663  10.026  1.00  0.00     0.173 A 
ATOM     73  C   UNL     1       7.481 -10.532   8.577  1.00  0.00     0.173 A 
ATOM     74  F   UNL     1      10.286 -10.129  10.849  1.00  0.00    -0.203 F 
ATOM     75  C   UNL     1       9.500 -12.019   9.717  1.00  0.00     0.198 A 
ATOM     76  C   UNL     1       7.578 -11.895   8.316  1.00  0.00     0.198 A 
ATOM     77  F   UNL     1       6.536  -9.899   7.874  1.00  0.00    -0.203 F 
ATOM     78  F   UNL     1      10.535 -12.714  10.205  1.00  0.00    -0.200 F 
ATOM     79  C   UNL     1       8.610 -12.631   8.855  1.00  0.00     0.200 A 
ATOM     80  F   UNL     1       6.711 -12.463   7.467  1.00  0.00    -0.200 F 
ATOM     81  F   UNL     1       8.771 -13.912   8.504  1.00  0.00    -0.200 F 
ENDBRANCH  57  71
BRANCH  58  82
ATOM     82  C   UNL     1       9.471  -6.276   1.528  1.00  0.00     0.064 A 
ATOM     83  C   UNL     1      10.407  -6.998   0.768  1.00  0.00     0.173 A 
ATOM     84  C   UNL     1       8.183  -6.150   0.968  1.00  0.00     0.173 A 
ATOM     85  F   UNL     1      11.643  -7.209   1.244  1.00  0.00    -0.203 F 
ATOM     86  C   UNL     1      10.068  -7.577  -0.462  1.00  0.00     0.198 A 
ATOM     87  C   UNL     1       7.848  -6.722  -0.260  1.00  0.00     0.198 A 
ATOM     88  F   UNL     1       7.191  -5.552   1.640  1.00  0.00    -0.203 F 
ATOM     89  F   UNL     1      10.970  -8.310  -1.129  1.00  0.00    -0.200 F 
ATOM     90  C   UNL     1       8.786  -7.447  -0.969  1.00  0.00     0.200 A 
ATOM     91  F   UNL     1       6.592  -6.619  -0.719  1.00  0.00    -0.200 F 
ATOM     92  F   UNL     1       8.441  -8.052  -2.115  1.00  0.00    -0.200 F 
ENDBRANCH  58  82
BRANCH  70  93
ATOM     93  C   UNL     1      12.575  -5.057   6.884  1.00  0.00     0.064 A 
ATOM     94  C   UNL     1      12.085  -3.864   6.323  1.00  0.00     0.173 A 
ATOM     95  C   UNL     1      13.817  -4.999   7.529  1.00  0.00     0.173 A 
ATOM     96  F   UNL     1      10.861  -3.808   5.786  1.00  0.00    -0.203 F 
ATOM     97  C   UNL     1      12.826  -2.683   6.368  1.00  0.00     0.198 A 
ATOM     98  C   UNL     1      14.538  -3.811   7.606  1.00  0.00     0.198 A 
ATOM     99  F   UNL     1      14.308  -6.090   8.137  1.00  0.00    -0.203 F 
ATOM    100  F   UNL     1      12.338  -1.561   5.817  1.00  0.00    -0.200 F 
ATOM    101  C   UNL     1      14.049  -2.656   7.017  1.00  0.00     0.200 A 
ATOM    102  F   UNL     1      15.694  -3.778   8.282  1.00  0.00    -0.200 F 
ATOM    103  F   UNL     1      14.742  -1.512   7.100  1.00  0.00    -0.200 F 
ENDBRANCH  70  93
ENDBRANCH  44  45
ENDBRANCH  37  39
ENDBRANCH  36  37
ENDBRANCH  35  36
ENDBRANCH  34  35
ENDBRANCH  33  34
ENDBRANCH   1  33
TORSDOF 19
