REMARK SMILES CCCOc1cncc(N[C@@](C)(C(=O)OCCOCCOC(=O)c2ccc(-c3c4nc(c(-c5c(F)c(F)c(F)c(F)c5F)c5ccc([nH]5)c(-c5c(F)c(F)c(F)c(F)c5F)c5nc(c(-c6c(F)c(F)c(F)c(F)c6F)c6ccc3[nH]6)C=C5)C=C4)cc2)C(F)(F)F)n1
REMARK SMILES IDX 16 1 15 2 13 3 14 4 11 5 12 6 10 7 9 9 5 10 6 11 91 12 7 13
REMARK SMILES IDX 8 14 4 15 3 16 2 17 1 18 87 19 88 20 89 21 90 22 17 23 18 24
REMARK SMILES IDX 19 25 20 26 21 27 22 28 23 29 24 30 25 31 86 32 26 33 85 34
REMARK SMILES IDX 27 35 28 36 29 37 79 38 30 39 84 40 78 41 80 42 31 43 83 44
REMARK SMILES IDX 77 45 76 46 32 48 64 49 44 50 63 51 45 52 48 53 62 54 81 55
REMARK SMILES IDX 46 56 47 57 61 59 82 60 49 61 33 62 34 63 42 64 35 65 36 66
REMARK SMILES IDX 40 67 43 68 37 69 38 70 41 71 39 72 65 73 66 74 74 75 67 76
REMARK SMILES IDX 68 77 72 78 75 79 69 80 70 81 73 82 71 83 50 84 51 85 59 86
REMARK SMILES IDX 52 87 53 88 57 89 60 90 54 91 55 92 58 93 56 94
REMARK H PARENT 10 8 80 47 48 58
REMARK Flexibility Score: inf
ROOT
ATOM      1  C   UNL     1       5.192   5.119   6.311  1.00  0.00     0.261 C 
ENDROOT
BRANCH   1   2
ATOM      2  O   UNL     1       3.919   4.691   5.795  1.00  0.00    -0.461 OA
BRANCH   2   3
ATOM      3  C   UNL     1       3.228   5.661   5.112  1.00  0.00     0.341 C 
ATOM      4  O   UNL     1       3.611   6.822   5.042  1.00  0.00    -0.249 OA
BRANCH   3   5
ATOM      5  C   UNL     1       1.905   5.135   4.520  1.00  0.00     0.230 C 
ATOM      6  C   UNL     1       0.844   5.235   5.623  1.00  0.00     0.058 C 
BRANCH   5   7
ATOM      7  N   UNL     1       2.043   3.679   4.130  1.00  0.00    -0.346 N 
ATOM      8  H   UNL     1       2.763   3.192   4.593  1.00  0.00     0.163 HD
BRANCH   7   9
ATOM      9  C   UNL     1       1.322   2.929   3.233  1.00  0.00     0.149 A 
ATOM     10  C   UNL     1       0.420   0.867   2.719  1.00  0.00     0.234 A 
ATOM     11  C   UNL     1      -0.265   1.405   1.643  1.00  0.00     0.179 A 
ATOM     12  N   UNL     1       1.198   1.616   3.545  1.00  0.00    -0.193 NA
ATOM     13  N   UNL     1      -0.071   2.670   1.245  1.00  0.00    -0.255 NA
ATOM     14  C   UNL     1       0.754   3.392   2.043  1.00  0.00     0.158 A 
BRANCH  10  15
ATOM     15  O   UNL     1       0.265  -0.467   3.010  1.00  0.00    -0.477 OA
BRANCH  15  16
ATOM     16  C   UNL     1       1.187  -1.285   2.266  1.00  0.00     0.231 C 
BRANCH  16  17
ATOM     17  C   UNL     1       0.737  -1.546   0.820  1.00  0.00     0.038 C 
ATOM     18  C   UNL     1       1.532  -0.737  -0.202  1.00  0.00     0.007 C 
ENDBRANCH  16  17
ENDBRANCH  15  16
ENDBRANCH  10  15
ENDBRANCH   7   9
ENDBRANCH   5   7
BRANCH   5  19
ATOM     19  C   UNL     1       1.574   6.147   3.405  1.00  0.00     0.422 C 
ATOM     20  F   UNL     1       2.432   6.044   2.363  1.00  0.00    -0.168 F 
ATOM     21  F   UNL     1       0.323   5.934   2.917  1.00  0.00    -0.168 F 
ATOM     22  F   UNL     1       1.565   7.435   3.814  1.00  0.00    -0.168 F 
ENDBRANCH   5  19
ENDBRANCH   3   5
ENDBRANCH   2   3
ENDBRANCH   1   2
BRANCH   1  23
ATOM     23  C   UNL     1       6.408   4.520   5.590  1.00  0.00     0.202 C 
BRANCH  23  24
ATOM     24  O   UNL     1       6.383   4.405   4.175  1.00  0.00    -0.374 OA
BRANCH  24  25
ATOM     25  C   UNL     1       5.462   3.495   3.578  1.00  0.00     0.202 C 
BRANCH  25  26
ATOM     26  C   UNL     1       5.559   2.002   3.922  1.00  0.00     0.261 C 
BRANCH  26  27
ATOM     27  O   UNL     1       5.460   1.722   5.331  1.00  0.00    -0.460 OA
BRANCH  27  28
ATOM     28  C   UNL     1       6.542   1.084   5.847  1.00  0.00     0.338 C 
ATOM     29  O   UNL     1       7.526   0.687   5.246  1.00  0.00    -0.246 OA
BRANCH  28  30
ATOM     30  C   UNL     1       6.484   1.063   7.320  1.00  0.00     0.060 A 
ATOM     31  C   UNL     1       7.546   1.658   8.013  1.00  0.00     0.016 A 
ATOM     32  C   UNL     1       5.496   0.356   8.007  1.00  0.00     0.016 A 
ATOM     33  C   UNL     1       7.655   1.499   9.392  1.00  0.00     0.010 A 
ATOM     34  C   UNL     1       5.612   0.189   9.393  1.00  0.00     0.010 A 
ATOM     35  C   UNL     1       6.715   0.724  10.085  1.00  0.00    -0.014 A 
BRANCH  35  36
ATOM     36  C   UNL     1       6.996   0.352  11.494  1.00  0.00     0.031 A 
ATOM     37  C   UNL     1       7.635  -0.980  11.785  1.00  0.00     0.074 A 
ATOM     38  C   UNL     1       6.766   1.221  12.493  1.00  0.00     0.049 A 
ATOM     39  N   UNL     1       8.024  -1.484  12.929  1.00  0.00    -0.248 NA
ATOM     40  C   UNL     1       7.873  -1.859  10.629  1.00  0.00     0.031 C 
ATOM     41  C   UNL     1       6.191   2.555  12.335  1.00  0.00     0.029 A 
ATOM     42  N   UNL     1       7.000   1.112  13.841  1.00  0.00    -0.354 N 
ATOM     43  C   UNL     1       8.565  -2.728  12.629  1.00  0.00     0.074 A 
ATOM     44  C   UNL     1       8.416  -2.923  11.203  1.00  0.00     0.031 C 
ATOM     45  C   UNL     1       6.120   3.144  13.541  1.00  0.00     0.029 A 
ATOM     46  C   UNL     1       6.627   2.222  14.556  1.00  0.00     0.049 A 
ATOM     47  H   UNL     1       7.399   0.313  14.256  1.00  0.00     0.167 HD
ATOM     48  C   UNL     1       9.151  -3.620  13.463  1.00  0.00     0.037 A 
ATOM     49  C   UNL     1       6.686   2.462  15.881  1.00  0.00     0.037 A 
ATOM     50  C   UNL     1       9.291  -3.436  14.884  1.00  0.00     0.049 A 
ATOM     51  C   UNL     1       7.274   1.420  16.796  1.00  0.00     0.074 A 
ATOM     52  C   UNL     1       9.851  -4.291  15.817  1.00  0.00     0.029 A 
ATOM     53  N   UNL     1       8.862  -2.314  15.578  1.00  0.00    -0.354 N 
ATOM     54  N   UNL     1       7.799   0.255  16.500  1.00  0.00    -0.248 NA
ATOM     55  C   UNL     1       7.286   1.733  18.233  1.00  0.00     0.031 C 
ATOM     56  C   UNL     1       9.729  -3.702  17.081  1.00  0.00     0.029 A 
ATOM     57  C   UNL     1       9.133  -2.461  16.928  1.00  0.00     0.049 A 
ATOM     58  H   UNL     1       8.429  -1.529  15.170  1.00  0.00     0.167 HD
ATOM     59  C   UNL     1       8.232  -0.286  17.704  1.00  0.00     0.074 A 
ATOM     60  C   UNL     1       7.921   0.683  18.734  1.00  0.00     0.031 C 
ATOM     61  C   UNL     1       8.831  -1.480  17.938  1.00  0.00     0.037 A 
BRANCH  48  62
ATOM     62  C   UNL     1       9.679  -4.887  12.858  1.00  0.00     0.064 A 
ATOM     63  C   UNL     1      10.842  -4.892  12.072  1.00  0.00     0.173 A 
ATOM     64  C   UNL     1       9.039  -6.113  13.091  1.00  0.00     0.173 A 
ATOM     65  F   UNL     1      11.482  -3.744  11.808  1.00  0.00    -0.203 F 
ATOM     66  C   UNL     1      11.332  -6.076  11.527  1.00  0.00     0.198 A 
ATOM     67  C   UNL     1       9.546  -7.298  12.565  1.00  0.00     0.198 A 
ATOM     68  F   UNL     1       7.925  -6.162  13.838  1.00  0.00    -0.203 F 
ATOM     69  F   UNL     1      12.422  -6.051  10.747  1.00  0.00    -0.200 F 
ATOM     70  C   UNL     1      10.688  -7.278  11.779  1.00  0.00     0.200 A 
ATOM     71  F   UNL     1       8.928  -8.460  12.818  1.00  0.00    -0.200 F 
ATOM     72  F   UNL     1      11.165  -8.417  11.258  1.00  0.00    -0.200 F 
ENDBRANCH  48  62
BRANCH  49  73
ATOM     73  C   UNL     1       6.177   3.746  16.431  1.00  0.00     0.064 A 
ATOM     74  C   UNL     1       7.049   4.687  16.997  1.00  0.00     0.173 A 
ATOM     75  C   UNL     1       4.806   4.038  16.439  1.00  0.00     0.173 A 
ATOM     76  F   UNL     1       8.367   4.440  17.036  1.00  0.00    -0.203 F 
ATOM     77  C   UNL     1       6.566   5.860  17.572  1.00  0.00     0.198 A 
ATOM     78  C   UNL     1       4.326   5.225  16.989  1.00  0.00     0.198 A 
ATOM     79  F   UNL     1       3.930   3.170  15.912  1.00  0.00    -0.203 F 
ATOM     80  F   UNL     1       7.415   6.717  18.155  1.00  0.00    -0.200 F 
ATOM     81  C   UNL     1       5.205   6.130  17.565  1.00  0.00     0.200 A 
ATOM     82  F   UNL     1       3.012   5.486  16.972  1.00  0.00    -0.200 F 
ATOM     83  F   UNL     1       4.740   7.256  18.122  1.00  0.00    -0.200 F 
ENDBRANCH  49  73
BRANCH  61  84
ATOM     84  C   UNL     1       9.229  -1.782  19.353  1.00  0.00     0.064 A 
ATOM     85  C   UNL     1       8.277  -2.081  20.339  1.00  0.00     0.173 A 
ATOM     86  C   UNL     1      10.583  -1.792  19.722  1.00  0.00     0.173 A 
ATOM     87  F   UNL     1       6.970  -2.070  20.039  1.00  0.00    -0.203 F 
ATOM     88  C   UNL     1       8.664  -2.347  21.650  1.00  0.00     0.198 A 
ATOM     89  C   UNL     1      10.968  -2.087  21.027  1.00  0.00     0.198 A 
ATOM     90  F   UNL     1      11.534  -1.520  18.816  1.00  0.00    -0.203 F 
ATOM     91  F   UNL     1       7.734  -2.577  22.587  1.00  0.00    -0.200 F 
ATOM     92  C   UNL     1      10.008  -2.354  21.992  1.00  0.00     0.200 A 
ATOM     93  F   UNL     1      12.268  -2.105  21.354  1.00  0.00    -0.200 F 
ATOM     94  F   UNL     1      10.378  -2.610  23.254  1.00  0.00    -0.200 F 
ENDBRANCH  61  84
ENDBRANCH  35  36
ENDBRANCH  28  30
ENDBRANCH  27  28
ENDBRANCH  26  27
ENDBRANCH  25  26
ENDBRANCH  24  25
ENDBRANCH  23  24
ENDBRANCH   1  23
TORSDOF 20
