REMARK SMILES O=C(OCCOCCOC(=O)C1(Oc2cccc(F)c2)CCN(c2cc(NCCO)ncn2)CC1)c1ccc(-c2c3nc(c(-c4c(F)c(F)c(F)c(F)c4F)c4ccc([nH]4)c(-c4c(F)c(F)c(F)c(F)c4F)c4nc(c(-c5c(F)c(F)c(F)c(F)c5F)c5ccc2[nH]5)C=C4)C=C3)cc1
REMARK SMILES IDX 7 1 6 2 5 3 4 4 3 5 2 6 1 7 36 8 37 9 98 10 38 11 97 12
REMARK SMILES IDX 39 13 40 14 41 15 91 16 42 17 96 18 90 19 92 20 43 21 95 22
REMARK SMILES IDX 89 23 88 24 44 26 76 27 56 28 75 29 57 30 60 31 74 32 93 33
REMARK SMILES IDX 58 34 59 35 73 37 94 38 61 39 45 40 46 41 54 42 47 43 48 44
REMARK SMILES IDX 52 45 55 46 49 47 50 48 53 49 51 50 77 51 78 52 86 53 79 54
REMARK SMILES IDX 80 55 84 56 87 57 81 58 82 59 85 60 83 61 62 62 63 63 71 64
REMARK SMILES IDX 64 65 65 66 69 67 72 68 66 69 67 70 70 71 68 72 8 73 9 74
REMARK SMILES IDX 10 75 11 76 12 77 21 78 35 79 22 80 34 81 23 82 13 83 14 84
REMARK SMILES IDX 15 85 20 86 16 87 18 88 17 89 19 90 24 91 25 92 33 93 26 94
REMARK SMILES IDX 32 95 31 96 27 97 28 99 29 100 30 101
REMARK H PARENT 92 25 60 36 27 98 30 102
REMARK Flexibility Score: inf
ROOT
ATOM      1  C   UNL     1       2.048  -0.940  -1.212  1.00  0.00     0.202 C 
ENDROOT
BRANCH   1   2
ATOM      2  O   UNL     1       3.443  -0.685  -1.000  1.00  0.00    -0.374 OA
BRANCH   2   3
ATOM      3  C   UNL     1       4.026  -1.443   0.067  1.00  0.00     0.202 C 
BRANCH   3   4
ATOM      4  C   UNL     1       4.037  -0.700   1.407  1.00  0.00     0.261 C 
BRANCH   4   5
ATOM      5  O   UNL     1       2.721  -0.227   1.740  1.00  0.00    -0.460 OA
BRANCH   5   6
ATOM      6  C   UNL     1       2.134   0.923   1.331  1.00  0.00     0.338 C 
ATOM      7  O   UNL     1       0.917   1.046   1.456  1.00  0.00    -0.246 OA
BRANCH   6   8
ATOM      8  C   UNL     1       2.904   2.099   0.828  1.00  0.00     0.060 A 
ATOM      9  C   UNL     1       4.064   2.039   0.051  1.00  0.00     0.016 A 
ATOM     10  C   UNL     1       2.371   3.366   1.122  1.00  0.00     0.016 A 
ATOM     11  C   UNL     1       4.737   3.189  -0.331  1.00  0.00     0.010 A 
ATOM     12  C   UNL     1       3.017   4.531   0.704  1.00  0.00     0.010 A 
ATOM     13  C   UNL     1       4.224   4.438   0.006  1.00  0.00    -0.014 A 
BRANCH  13  14
ATOM     14  C   UNL     1       5.048   5.622  -0.281  1.00  0.00     0.031 A 
ATOM     15  C   UNL     1       5.816   6.237   0.847  1.00  0.00     0.074 A 
ATOM     16  C   UNL     1       5.204   6.029  -1.551  1.00  0.00     0.049 A 
ATOM     17  N   UNL     1       6.571   7.301   0.851  1.00  0.00    -0.248 NA
ATOM     18  C   UNL     1       5.739   5.545   2.146  1.00  0.00     0.031 C 
ATOM     19  C   UNL     1       4.597   5.387  -2.719  1.00  0.00     0.029 A 
ATOM     20  N   UNL     1       5.947   7.050  -2.078  1.00  0.00    -0.354 N 
ATOM     21  C   UNL     1       7.035   7.421   2.152  1.00  0.00     0.074 A 
ATOM     22  C   UNL     1       6.485   6.324   2.914  1.00  0.00     0.031 C 
ATOM     23  C   UNL     1       5.018   6.012  -3.829  1.00  0.00     0.029 A 
ATOM     24  C   UNL     1       5.862   7.138  -3.445  1.00  0.00     0.049 A 
ATOM     25  H   UNL     1       6.489   7.662  -1.530  1.00  0.00     0.167 HD
ATOM     26  C   UNL     1       7.844   8.379   2.657  1.00  0.00     0.037 A 
ATOM     27  C   UNL     1       6.387   8.054  -4.280  1.00  0.00     0.037 A 
ATOM     28  C   UNL     1       8.370   9.458   1.867  1.00  0.00     0.049 A 
ATOM     29  C   UNL     1       7.202   9.167  -3.679  1.00  0.00     0.074 A 
ATOM     30  C   UNL     1       9.122  10.544   2.272  1.00  0.00     0.029 A 
ATOM     31  N   UNL     1       8.195   9.574   0.493  1.00  0.00    -0.354 N 
ATOM     32  N   UNL     1       7.556   9.345  -2.428  1.00  0.00    -0.248 NA
ATOM     33  C   UNL     1       7.668  10.218  -4.591  1.00  0.00     0.031 C 
ATOM     34  C   UNL     1       9.372  11.336   1.146  1.00  0.00     0.029 A 
ATOM     35  C   UNL     1       8.814  10.721   0.034  1.00  0.00     0.049 A 
ATOM     36  H   UNL     1       7.702   8.934  -0.070  1.00  0.00     0.167 HD
ATOM     37  C   UNL     1       8.286  10.523  -2.398  1.00  0.00     0.074 A 
ATOM     38  C   UNL     1       8.343  11.007  -3.765  1.00  0.00     0.031 C 
ATOM     39  C   UNL     1       8.849  11.156  -1.340  1.00  0.00     0.037 A 
BRANCH  26  40
ATOM     40  C   UNL     1       8.137   8.329   4.125  1.00  0.00     0.064 A 
ATOM     41  C   UNL     1       7.517   9.236   4.998  1.00  0.00     0.173 A 
ATOM     42  C   UNL     1       9.011   7.381   4.674  1.00  0.00     0.173 A 
ATOM     43  F   UNL     1       6.663  10.155   4.523  1.00  0.00    -0.203 F 
ATOM     44  C   UNL     1       7.765   9.197   6.367  1.00  0.00     0.198 A 
ATOM     45  C   UNL     1       9.240   7.330   6.048  1.00  0.00     0.198 A 
ATOM     46  F   UNL     1       9.604   6.472   3.885  1.00  0.00    -0.203 F 
ATOM     47  F   UNL     1       7.165  10.077   7.181  1.00  0.00    -0.200 F 
ATOM     48  C   UNL     1       8.621   8.240   6.892  1.00  0.00     0.200 A 
ATOM     49  F   UNL     1      10.042   6.385   6.558  1.00  0.00    -0.200 F 
ATOM     50  F   UNL     1       8.839   8.188   8.213  1.00  0.00    -0.200 F 
ENDBRANCH  26  40
BRANCH  27  51
ATOM     51  C   UNL     1       6.119   7.969  -5.739  1.00  0.00     0.064 A 
ATOM     52  C   UNL     1       4.822   8.131  -6.252  1.00  0.00     0.173 A 
ATOM     53  C   UNL     1       7.145   7.691  -6.652  1.00  0.00     0.173 A 
ATOM     54  F   UNL     1       3.802   8.402  -5.424  1.00  0.00    -0.203 F 
ATOM     55  C   UNL     1       4.557   7.987  -7.612  1.00  0.00     0.198 A 
ATOM     56  C   UNL     1       6.884   7.575  -8.017  1.00  0.00     0.198 A 
ATOM     57  F   UNL     1       8.406   7.550  -6.218  1.00  0.00    -0.203 F 
ATOM     58  F   UNL     1       3.301   8.106  -8.064  1.00  0.00    -0.200 F 
ATOM     59  C   UNL     1       5.589   7.712  -8.494  1.00  0.00     0.200 A 
ATOM     60  F   UNL     1       7.888   7.334  -8.871  1.00  0.00    -0.200 F 
ATOM     61  F   UNL     1       5.337   7.584  -9.804  1.00  0.00    -0.200 F 
ENDBRANCH  27  51
BRANCH  39  62
ATOM     62  C   UNL     1       9.582  12.431  -1.619  1.00  0.00     0.064 A 
ATOM     63  C   UNL     1      10.982  12.470  -1.554  1.00  0.00     0.173 A 
ATOM     64  C   UNL     1       8.892  13.629  -1.849  1.00  0.00     0.173 A 
ATOM     65  F   UNL     1      11.680  11.347  -1.327  1.00  0.00    -0.203 F 
ATOM     66  C   UNL     1      11.666  13.672  -1.690  1.00  0.00     0.198 A 
ATOM     67  C   UNL     1       9.582  14.826  -2.007  1.00  0.00     0.198 A 
ATOM     68  F   UNL     1       7.553  13.632  -1.929  1.00  0.00    -0.203 F 
ATOM     69  F   UNL     1      13.002  13.696  -1.587  1.00  0.00    -0.200 F 
ATOM     70  C   UNL     1      10.966  14.848  -1.916  1.00  0.00     0.200 A 
ATOM     71  F   UNL     1       8.907  15.959  -2.244  1.00  0.00    -0.200 F 
ATOM     72  F   UNL     1      11.627  16.007  -2.047  1.00  0.00    -0.200 F 
ENDBRANCH  39  62
ENDBRANCH  13  14
ENDBRANCH   6   8
ENDBRANCH   5   6
ENDBRANCH   4   5
ENDBRANCH   3   4
ENDBRANCH   2   3
ENDBRANCH   1   2
BRANCH   1  73
ATOM     73  C   UNL     1       1.821  -1.711  -2.512  1.00  0.00     0.261 C 
BRANCH  73  74
ATOM     74  O   UNL     1       2.682  -2.860  -2.544  1.00  0.00    -0.460 OA
BRANCH  74  75
ATOM     75  C   UNL     1       3.903  -2.618  -3.112  1.00  0.00     0.350 C 
ATOM     76  O   UNL     1       4.146  -1.647  -3.818  1.00  0.00    -0.247 OA
BRANCH  75  77
ATOM     77  C   UNL     1       4.921  -3.728  -2.767  1.00  0.00     0.209 C 
ATOM     78  C   UNL     1       6.339  -3.163  -2.962  1.00  0.00     0.082 C 
ATOM     79  C   UNL     1       4.631  -4.913  -3.697  1.00  0.00     0.082 C 
ATOM     80  C   UNL     1       6.714  -2.939  -4.421  1.00  0.00     0.123 C 
ATOM     81  C   UNL     1       4.963  -4.579  -5.144  1.00  0.00     0.123 C 
ATOM     82  N   UNL     1       6.334  -4.101  -5.219  1.00  0.00    -0.356 N 
BRANCH  77  83
ATOM     83  O   UNL     1       4.709  -4.002  -1.354  1.00  0.00    -0.475 OA
BRANCH  83  84
ATOM     84  C   UNL     1       5.090  -5.226  -0.888  1.00  0.00     0.123 A 
ATOM     85  C   UNL     1       6.417  -5.489  -0.549  1.00  0.00     0.047 A 
ATOM     86  C   UNL     1       4.107  -6.187  -0.669  1.00  0.00     0.085 A 
ATOM     87  C   UNL     1       6.784  -6.756  -0.093  1.00  0.00     0.007 A 
ATOM     88  C   UNL     1       4.481  -7.441  -0.202  1.00  0.00     0.126 A 
ATOM     89  C   UNL     1       5.812  -7.741   0.070  1.00  0.00     0.039 A 
ATOM     90  F   UNL     1       3.544  -8.380  -0.014  1.00  0.00    -0.207 F 
ENDBRANCH  83  84
ENDBRANCH  77  83
BRANCH  82  91
ATOM     91  C   UNL     1       7.163  -4.423  -6.277  1.00  0.00     0.134 A 
ATOM     92  C   UNL     1       6.664  -4.814  -7.505  1.00  0.00     0.093 A 
ATOM     93  N   UNL     1       8.488  -4.367  -6.072  1.00  0.00    -0.219 NA
ATOM     94  C   UNL     1       7.554  -5.172  -8.498  1.00  0.00     0.131 A 
ATOM     95  C   UNL     1       9.275  -4.762  -7.077  1.00  0.00     0.226 A 
ATOM     96  N   UNL     1       8.873  -5.186  -8.280  1.00  0.00    -0.219 NA
BRANCH  94  97
ATOM     97  N   UNL     1       7.044  -5.563  -9.728  1.00  0.00    -0.368 N 
ATOM     98  H   UNL     1       6.093  -5.415  -9.934  1.00  0.00     0.162 HD
BRANCH  97  99
ATOM     99  C   UNL     1       7.913  -6.194 -10.714  1.00  0.00     0.142 C 
BRANCH  99 100
ATOM    100  C   UNL     1       7.741  -7.714 -10.644  1.00  0.00     0.177 C 
BRANCH 100 101
ATOM    101  O   UNL     1       6.367  -8.055 -10.849  1.00  0.00    -0.395 OA
ATOM    102  H   UNL     1       5.824  -7.641 -10.160  1.00  0.00     0.210 HD
ENDBRANCH 100 101
ENDBRANCH  99 100
ENDBRANCH  97  99
ENDBRANCH  94  97
ENDBRANCH  82  91
ENDBRANCH  75  77
ENDBRANCH  74  75
ENDBRANCH  73  74
ENDBRANCH   1  73
TORSDOF 21
