REMARK SMILES O=C(OCCOCCOC(=O)c1ccc(N2C(=O)[C@@H]3N=NC(c4ccccc4)=C3[C@H]2c2cccc(Br)c2)cc1)c1ccc(-c2c3nc(c(-c4c(F)c(F)c(F)c(F)c4F)c4ccc([nH]4)c(-c4c(F)c(F)c(F)c(F)c4F)c4nc(c(-c5c(F)c(F)c(F)c(F)c5F)c5ccc2[nH]5)C=C4)C=C3)cc1
REMARK SMILES IDX 6 1 5 2 4 3 3 4 2 5 1 6 40 7 41 8 102 9 42 10 101 11 43 12
REMARK SMILES IDX 44 13 45 14 95 15 46 16 100 17 94 18 96 19 47 20 99 21 93 22
REMARK SMILES IDX 92 23 48 25 80 26 60 27 79 28 61 29 64 30 78 31 97 32 62 33
REMARK SMILES IDX 63 34 77 36 98 37 65 38 49 39 50 40 58 41 51 42 52 43 56 44
REMARK SMILES IDX 59 45 53 46 54 47 57 48 55 49 81 50 82 51 90 52 83 53 84 54
REMARK SMILES IDX 88 55 91 56 85 57 86 58 89 59 87 60 66 61 67 62 75 63 68 64
REMARK SMILES IDX 69 65 73 66 76 67 70 68 71 69 74 70 72 71 7 72 8 73 9 74
REMARK SMILES IDX 10 75 11 76 12 77 13 78 39 79 14 80 38 81 15 82 16 83 17 84
REMARK SMILES IDX 30 85 19 86 18 87 29 88 20 89 22 90 21 91 31 92 32 93 37 94
REMARK SMILES IDX 33 95 35 96 34 97 36 98 23 99 24 100 28 101 25 102 27 103
REMARK SMILES IDX 26 104
REMARK H PARENT 96 24 64 35
REMARK Flexibility Score: inf
ROOT
ATOM      1  O   UNL     1       4.207  -1.417   0.206  1.00  0.00    -0.374 OA
ENDROOT
BRANCH   1   2
ATOM      2  C   UNL     1       4.753  -0.333   0.954  1.00  0.00     0.202 C 
BRANCH   2   3
ATOM      3  C   UNL     1       4.447   1.079   0.452  1.00  0.00     0.261 C 
BRANCH   3   4
ATOM      4  O   UNL     1       3.053   1.419   0.545  1.00  0.00    -0.460 OA
BRANCH   4   5
ATOM      5  C   UNL     1       2.040   0.858  -0.150  1.00  0.00     0.338 C 
ATOM      6  O   UNL     1       0.954   0.670   0.395  1.00  0.00    -0.246 OA
BRANCH   5   7
ATOM      7  C   UNL     1       2.134   0.697  -1.621  1.00  0.00     0.060 A 
ATOM      8  C   UNL     1       3.314   0.606  -2.357  1.00  0.00     0.016 A 
ATOM      9  C   UNL     1       0.907   0.753  -2.301  1.00  0.00     0.016 A 
ATOM     10  C   UNL     1       3.299   0.881  -3.710  1.00  0.00     0.010 A 
ATOM     11  C   UNL     1       0.875   0.944  -3.666  1.00  0.00     0.010 A 
ATOM     12  C   UNL     1       2.078   1.119  -4.338  1.00  0.00    -0.014 A 
BRANCH  12  13
ATOM     13  C   UNL     1       2.093   1.420  -5.757  1.00  0.00     0.031 A 
ATOM     14  C   UNL     1       2.664   0.325  -6.585  1.00  0.00     0.074 A 
ATOM     15  C   UNL     1       1.528   2.544  -6.240  1.00  0.00     0.049 A 
ATOM     16  N   UNL     1       3.674   0.375  -7.390  1.00  0.00    -0.248 NA
ATOM     17  C   UNL     1       2.144  -1.038  -6.364  1.00  0.00     0.031 C 
ATOM     18  C   UNL     1       0.745   3.549  -5.515  1.00  0.00     0.029 A 
ATOM     19  N   UNL     1       1.450   2.977  -7.527  1.00  0.00    -0.354 N 
ATOM     20  C   UNL     1       3.795  -0.906  -7.924  1.00  0.00     0.074 A 
ATOM     21  C   UNL     1       2.944  -1.763  -7.144  1.00  0.00     0.031 C 
ATOM     22  C   UNL     1       0.075   4.322  -6.399  1.00  0.00     0.029 A 
ATOM     23  C   UNL     1       0.487   3.958  -7.742  1.00  0.00     0.049 A 
ATOM     24  H   UNL     1       2.024   2.626  -8.245  1.00  0.00     0.167 HD
ATOM     25  C   UNL     1       4.393  -1.109  -9.128  1.00  0.00     0.037 A 
ATOM     26  C   UNL     1       0.017   4.355  -8.951  1.00  0.00     0.037 A 
ATOM     27  C   UNL     1       5.282  -0.026  -9.457  1.00  0.00     0.049 A 
ATOM     28  C   UNL     1       1.010   3.925  -9.972  1.00  0.00     0.074 A 
ATOM     29  C   UNL     1       6.420   0.492  -8.870  1.00  0.00     0.029 A 
ATOM     30  N   UNL     1       4.832   0.945 -10.316  1.00  0.00    -0.354 N 
ATOM     31  N   UNL     1       2.209   4.430 -10.066  1.00  0.00    -0.248 NA
ATOM     32  C   UNL     1       0.841   2.599 -10.551  1.00  0.00     0.031 C 
ATOM     33  C   UNL     1       6.303   1.905  -9.023  1.00  0.00     0.029 A 
ATOM     34  C   UNL     1       5.149   2.160  -9.763  1.00  0.00     0.049 A 
ATOM     35  H   UNL     1       4.368   0.797 -11.172  1.00  0.00     0.167 HD
ATOM     36  C   UNL     1       3.031   3.341 -10.315  1.00  0.00     0.074 A 
ATOM     37  C   UNL     1       2.126   2.248 -10.662  1.00  0.00     0.031 C 
ATOM     38  C   UNL     1       4.341   3.344  -9.930  1.00  0.00     0.037 A 
BRANCH  25  39
ATOM     39  C   UNL     1       3.870  -2.081 -10.155  1.00  0.00     0.064 A 
ATOM     40  C   UNL     1       4.615  -2.316 -11.326  1.00  0.00     0.173 A 
ATOM     41  C   UNL     1       2.537  -2.551 -10.178  1.00  0.00     0.173 A 
ATOM     42  F   UNL     1       5.883  -1.890 -11.425  1.00  0.00    -0.203 F 
ATOM     43  C   UNL     1       4.044  -2.909 -12.455  1.00  0.00     0.198 A 
ATOM     44  C   UNL     1       1.988  -3.189 -11.286  1.00  0.00     0.198 A 
ATOM     45  F   UNL     1       1.677  -2.312  -9.181  1.00  0.00    -0.203 F 
ATOM     46  F   UNL     1       4.753  -2.999 -13.589  1.00  0.00    -0.200 F 
ATOM     47  C   UNL     1       2.730  -3.340 -12.437  1.00  0.00     0.200 A 
ATOM     48  F   UNL     1       0.705  -3.577 -11.253  1.00  0.00    -0.200 F 
ATOM     49  F   UNL     1       2.163  -3.851 -13.537  1.00  0.00    -0.200 F 
ENDBRANCH  25  39
BRANCH  26  50
ATOM     50  C   UNL     1      -1.377   4.722  -9.305  1.00  0.00     0.064 A 
ATOM     51  C   UNL     1      -1.671   5.381 -10.509  1.00  0.00     0.173 A 
ATOM     52  C   UNL     1      -2.476   4.189  -8.601  1.00  0.00     0.173 A 
ATOM     53  F   UNL     1      -0.681   5.873 -11.267  1.00  0.00    -0.203 F 
ATOM     54  C   UNL     1      -2.983   5.483 -10.990  1.00  0.00     0.198 A 
ATOM     55  C   UNL     1      -3.783   4.296  -9.078  1.00  0.00     0.198 A 
ATOM     56  F   UNL     1      -2.296   3.466  -7.487  1.00  0.00    -0.203 F 
ATOM     57  F   UNL     1      -3.219   6.067 -12.173  1.00  0.00    -0.200 F 
ATOM     58  C   UNL     1      -4.036   4.933 -10.278  1.00  0.00     0.200 A 
ATOM     59  F   UNL     1      -4.787   3.724  -8.398  1.00  0.00    -0.200 F 
ATOM     60  F   UNL     1      -5.283   4.977 -10.766  1.00  0.00    -0.200 F 
ENDBRANCH  26  50
BRANCH  38  61
ATOM     61  C   UNL     1       4.922   4.639  -9.432  1.00  0.00     0.064 A 
ATOM     62  C   UNL     1       4.482   5.309  -8.276  1.00  0.00     0.173 A 
ATOM     63  C   UNL     1       6.066   5.140 -10.066  1.00  0.00     0.173 A 
ATOM     64  F   UNL     1       3.461   4.835  -7.551  1.00  0.00    -0.203 F 
ATOM     65  C   UNL     1       5.130   6.452  -7.809  1.00  0.00     0.198 A 
ATOM     66  C   UNL     1       6.734   6.258  -9.577  1.00  0.00     0.198 A 
ATOM     67  F   UNL     1       6.568   4.508 -11.139  1.00  0.00    -0.203 F 
ATOM     68  F   UNL     1       4.684   7.078  -6.709  1.00  0.00    -0.200 F 
ATOM     69  C   UNL     1       6.261   6.920  -8.456  1.00  0.00     0.200 A 
ATOM     70  F   UNL     1       7.858   6.675 -10.176  1.00  0.00    -0.200 F 
ATOM     71  F   UNL     1       6.912   7.993  -7.984  1.00  0.00    -0.200 F 
ENDBRANCH  38  61
ENDBRANCH  12  13
ENDBRANCH   5   7
ENDBRANCH   4   5
ENDBRANCH   3   4
ENDBRANCH   2   3
ENDBRANCH   1   2
BRANCH   1  72
ATOM     72  C   UNL     1       2.993  -1.992   0.707  1.00  0.00     0.202 C 
BRANCH  72  73
ATOM     73  C   UNL     1       3.043  -2.859   1.974  1.00  0.00     0.261 C 
BRANCH  73  74
ATOM     74  O   UNL     1       3.355  -2.108   3.165  1.00  0.00    -0.460 OA
BRANCH  74  75
ATOM     75  C   UNL     1       4.648  -2.207   3.566  1.00  0.00     0.338 C 
ATOM     76  O   UNL     1       5.521  -2.870   3.045  1.00  0.00    -0.246 OA
BRANCH  75  77
ATOM     77  C   UNL     1       4.945  -1.230   4.640  1.00  0.00     0.060 A 
ATOM     78  C   UNL     1       6.049  -0.397   4.445  1.00  0.00     0.018 A 
ATOM     79  C   UNL     1       4.240  -1.188   5.846  1.00  0.00     0.018 A 
ATOM     80  C   UNL     1       6.475   0.444   5.470  1.00  0.00     0.027 A 
ATOM     81  C   UNL     1       4.703  -0.373   6.897  1.00  0.00     0.027 A 
ATOM     82  C   UNL     1       5.836   0.428   6.719  1.00  0.00     0.045 A 
BRANCH  82  83
ATOM     83  N   UNL     1       6.377   1.207   7.786  1.00  0.00    -0.299 N 
ATOM     84  C   UNL     1       6.723   2.563   7.474  1.00  0.00     0.259 C 
ATOM     85  C   UNL     1       7.407   0.597   8.669  1.00  0.00     0.152 C 
ATOM     86  C   UNL     1       7.993   2.892   8.203  1.00  0.00     0.248 C 
ATOM     87  O   UNL     1       6.129   3.308   6.705  1.00  0.00    -0.271 OA
ATOM     88  C   UNL     1       8.517   1.509   8.310  1.00  0.00     0.021 C 
ATOM     89  N   UNL     1       9.035   3.559   7.415  1.00  0.00    -0.170 NA
ATOM     90  C   UNL     1       9.752   1.535   7.814  1.00  0.00     0.097 C 
ATOM     91  N   UNL     1      10.047   2.803   7.344  1.00  0.00    -0.154 NA
BRANCH  85  92
ATOM     92  C   UNL     1       7.091   0.693  10.177  1.00  0.00    -0.020 A 
ATOM     93  C   UNL     1       7.974   1.351  11.071  1.00  0.00     0.006 A 
ATOM     94  C   UNL     1       5.951   0.096  10.737  1.00  0.00     0.022 A 
ATOM     95  C   UNL     1       7.708   1.472  12.435  1.00  0.00     0.002 A 
ATOM     96  C   UNL     1       5.706   0.189  12.118  1.00  0.00     0.018 A 
ATOM     97  C   UNL     1       6.569   0.887  12.964  1.00  0.00     0.016 A 
ATOM     98  Br  UNL     1       4.193  -0.661  12.871  1.00  0.00    -0.051 Br
ENDBRANCH  85  92
BRANCH  90  99
ATOM     99  C   UNL     1      10.709   0.471   7.505  1.00  0.00     0.002 A 
ATOM    100  C   UNL     1      11.648   0.052   8.455  1.00  0.00     0.010 A 
ATOM    101  C   UNL     1      10.890   0.115   6.160  1.00  0.00     0.010 A 
ATOM    102  C   UNL     1      12.807  -0.618   8.044  1.00  0.00     0.001 A 
ATOM    103  C   UNL     1      12.047  -0.550   5.754  1.00  0.00     0.001 A 
ATOM    104  C   UNL     1      13.020  -0.888   6.692  1.00  0.00     0.000 A 
ENDBRANCH  90  99
ENDBRANCH  82  83
ENDBRANCH  75  77
ENDBRANCH  74  75
ENDBRANCH  73  74
ENDBRANCH  72  73
ENDBRANCH   1  72
TORSDOF 17
