REMARK SMILES COc1ccc(Cl)c2c1N[C@@H](c1ccc(C(=O)OCCOCCOC(=O)c3ccc(-c4c5nc(c(-c6c(F)c(F)c(F)c(F)c6F)c6ccc([nH]6)c(-c6c(F)c(F)c(F)c(F)c6F)c6nc(c(-c7c(F)c(F)c(F)c(F)c7F)c7ccc4[nH]7)C=C6)C=C5)cc3)cc1)[C@@H]1CC=C[C@H]21
REMARK SMILES IDX 21 1 20 2 19 3 18 4 16 5 17 6 15 7 12 8 13 9 91 10 14 11
REMARK SMILES IDX 90 12 11 13 3 14 4 15 9 16 5 17 8 18 10 19 6 20 96 21 7 23
REMARK SMILES IDX 92 24 95 25 93 26 94 27 2 28 1 29 22 30 23 31 24 32 25 33
REMARK SMILES IDX 26 34 27 35 28 36 89 37 29 38 88 39 30 40 31 41 32 42 82 43
REMARK SMILES IDX 33 44 87 45 81 46 83 47 34 48 86 49 80 50 79 51 35 53 67 54
REMARK SMILES IDX 47 55 66 56 48 57 51 58 65 59 84 60 49 61 50 62 64 64 85 65
REMARK SMILES IDX 52 66 36 67 37 68 45 69 38 70 39 71 43 72 46 73 40 74 41 75
REMARK SMILES IDX 44 76 42 77 68 78 69 79 77 80 70 81 71 82 75 83 78 84 72 85
REMARK SMILES IDX 73 86 76 87 74 88 53 89 54 90 62 91 55 92 56 93 60 94 63 95
REMARK SMILES IDX 57 96 58 97 61 98 59 99
REMARK H PARENT 10 22 83 52 51 63
REMARK Flexibility Score: inf
ROOT
ATOM      1  O   UNL     1       8.116   2.504   4.699  1.00  0.00    -0.374 OA
ENDROOT
BRANCH   1   2
ATOM      2  C   UNL     1       9.454   2.676   4.239  1.00  0.00     0.202 C 
BRANCH   2   3
ATOM      3  C   UNL     1      10.056   1.512   3.450  1.00  0.00     0.261 C 
BRANCH   3   4
ATOM      4  O   UNL     1       9.292   1.256   2.263  1.00  0.00    -0.460 OA
BRANCH   4   5
ATOM      5  C   UNL     1       8.620   0.081   2.279  1.00  0.00     0.338 C 
ATOM      6  O   UNL     1       8.764  -0.830   3.083  1.00  0.00    -0.246 OA
BRANCH   5   7
ATOM      7  C   UNL     1       7.551   0.073   1.257  1.00  0.00     0.060 A 
ATOM      8  C   UNL     1       5.525  -0.226  -0.673  1.00  0.00    -0.025 A 
ATOM      9  C   UNL     1       5.443  -0.884   0.566  1.00  0.00     0.007 A 
ATOM     10  C   UNL     1       6.591   0.669  -0.880  1.00  0.00     0.007 A 
ATOM     11  C   UNL     1       6.434  -0.721   1.527  1.00  0.00     0.016 A 
ATOM     12  C   UNL     1       7.615   0.801   0.066  1.00  0.00     0.016 A 
BRANCH   8  13
ATOM     13  C   UNL     1       4.555  -0.559  -1.813  1.00  0.00     0.114 C 
ATOM     14  C   UNL     1       1.002  -1.770  -1.475  1.00  0.00     0.142 A 
ATOM     15  C   UNL     1       0.033  -2.502  -2.161  1.00  0.00     0.050 A 
ATOM     16  C   UNL     1       2.316  -1.640  -1.976  1.00  0.00     0.083 A 
ATOM     17  C   UNL     1       0.350  -3.091  -3.379  1.00  0.00     0.025 A 
ATOM     18  C   UNL     1       2.640  -2.253  -3.200  1.00  0.00     0.005 A 
ATOM     19  N   UNL     1       3.274  -0.955  -1.253  1.00  0.00    -0.375 N 
ATOM     20  C   UNL     1       1.643  -2.973  -3.894  1.00  0.00     0.047 A 
ATOM     21  C   UNL     1       4.064  -2.220  -3.694  1.00  0.00     0.051 C 
ATOM     22  H   UNL     1       3.080  -0.726  -0.315  1.00  0.00     0.161 HD
ATOM     23  Cl  UNL     1       1.967  -3.794  -5.384  1.00  0.00    -0.084 Cl
ATOM     24  C   UNL     1       5.118  -1.704  -2.688  1.00  0.00     0.031 C 
ATOM     25  C   UNL     1       4.317  -1.333  -4.885  1.00  0.00    -0.023 C 
ATOM     26  C   UNL     1       6.271  -1.256  -3.611  1.00  0.00     0.034 C 
ATOM     27  C   UNL     1       5.550  -0.815  -4.844  1.00  0.00    -0.030 C 
BRANCH  14  28
ATOM     28  O   UNL     1       0.637  -1.290  -0.239  1.00  0.00    -0.495 OA
ATOM     29  C   UNL     1       0.566   0.135  -0.202  1.00  0.00     0.278 C 
ENDBRANCH  14  28
ENDBRANCH   8  13
ENDBRANCH   5   7
ENDBRANCH   4   5
ENDBRANCH   3   4
ENDBRANCH   2   3
ENDBRANCH   1   2
BRANCH   1  30
ATOM     30  C   UNL     1       7.062   2.769   3.769  1.00  0.00     0.202 C 
BRANCH  30  31
ATOM     31  C   UNL     1       6.775   4.245   3.467  1.00  0.00     0.261 C 
BRANCH  31  32
ATOM     32  O   UNL     1       7.804   4.826   2.642  1.00  0.00    -0.460 OA
BRANCH  32  33
ATOM     33  C   UNL     1       8.528   5.804   3.229  1.00  0.00     0.338 C 
ATOM     34  O   UNL     1       8.354   6.306   4.333  1.00  0.00    -0.246 OA
BRANCH  33  35
ATOM     35  C   UNL     1       9.723   6.089   2.421  1.00  0.00     0.060 A 
ATOM     36  C   UNL     1      10.977   5.848   2.999  1.00  0.00     0.016 A 
ATOM     37  C   UNL     1       9.620   6.683   1.162  1.00  0.00     0.016 A 
ATOM     38  C   UNL     1      12.137   6.240   2.337  1.00  0.00     0.010 A 
ATOM     39  C   UNL     1      10.784   7.101   0.511  1.00  0.00     0.010 A 
ATOM     40  C   UNL     1      12.041   6.916   1.115  1.00  0.00    -0.014 A 
BRANCH  40  41
ATOM     41  C   UNL     1      13.236   7.608   0.579  1.00  0.00     0.031 A 
ATOM     42  C   UNL     1      13.453   9.049   0.951  1.00  0.00     0.074 A 
ATOM     43  C   UNL     1      14.122   6.962  -0.197  1.00  0.00     0.049 A 
ATOM     44  N   UNL     1      14.397   9.871   0.570  1.00  0.00    -0.248 NA
ATOM     45  C   UNL     1      12.477   9.643   1.880  1.00  0.00     0.031 C 
ATOM     46  C   UNL     1      14.042   5.555  -0.581  1.00  0.00     0.029 A 
ATOM     47  N   UNL     1      15.264   7.416  -0.810  1.00  0.00    -0.354 N 
ATOM     48  C   UNL     1      14.129  11.072   1.212  1.00  0.00     0.074 A 
ATOM     49  C   UNL     1      12.925  10.886   1.990  1.00  0.00     0.031 C 
ATOM     50  C   UNL     1      15.079   5.264  -1.385  1.00  0.00     0.029 A 
ATOM     51  C   UNL     1      15.879   6.471  -1.593  1.00  0.00     0.049 A 
ATOM     52  H   UNL     1      15.609   8.331  -0.698  1.00  0.00     0.167 HD
ATOM     53  C   UNL     1      14.834  12.225   1.162  1.00  0.00     0.037 A 
ATOM     54  C   UNL     1      16.949   6.581  -2.405  1.00  0.00     0.037 A 
ATOM     55  C   UNL     1      16.033  12.408   0.391  1.00  0.00     0.049 A 
ATOM     56  C   UNL     1      17.668   7.903  -2.503  1.00  0.00     0.074 A 
ATOM     57  C   UNL     1      16.830  13.535   0.295  1.00  0.00     0.029 A 
ATOM     58  N   UNL     1      16.604  11.440  -0.420  1.00  0.00    -0.354 N 
ATOM     59  N   UNL     1      17.425   9.027  -1.874  1.00  0.00    -0.248 NA
ATOM     60  C   UNL     1      18.811   7.972  -3.427  1.00  0.00     0.031 C 
ATOM     61  C   UNL     1      17.856  13.265  -0.615  1.00  0.00     0.029 A 
ATOM     62  C   UNL     1      17.727  11.954  -1.045  1.00  0.00     0.049 A 
ATOM     63  H   UNL     1      16.262  10.524  -0.535  1.00  0.00     0.167 HD
ATOM     64  C   UNL     1      18.391   9.927  -2.307  1.00  0.00     0.074 A 
ATOM     65  C   UNL     1      19.238   9.213  -3.239  1.00  0.00     0.031 C 
ATOM     66  C   UNL     1      18.560  11.228  -1.967  1.00  0.00     0.037 A 
BRANCH  53  67
ATOM     67  C   UNL     1      14.331  13.395   1.952  1.00  0.00     0.064 A 
ATOM     68  C   UNL     1      14.488  13.459   3.343  1.00  0.00     0.173 A 
ATOM     69  C   UNL     1      13.776  14.504   1.297  1.00  0.00     0.173 A 
ATOM     70  F   UNL     1      15.000  12.416   4.014  1.00  0.00    -0.203 F 
ATOM     71  C   UNL     1      14.111  14.597   4.052  1.00  0.00     0.198 A 
ATOM     72  C   UNL     1      13.421  15.648   2.006  1.00  0.00     0.198 A 
ATOM     73  F   UNL     1      13.607  14.489  -0.034  1.00  0.00    -0.203 F 
ATOM     74  F   UNL     1      14.257  14.634   5.383  1.00  0.00    -0.200 F 
ATOM     75  C   UNL     1      13.590  15.694   3.382  1.00  0.00     0.200 A 
ATOM     76  F   UNL     1      12.929  16.712   1.356  1.00  0.00    -0.200 F 
ATOM     77  F   UNL     1      13.253  16.798   4.062  1.00  0.00    -0.200 F 
ENDBRANCH  53  67
BRANCH  54  78
ATOM     78  C   UNL     1      17.392   5.417  -3.215  1.00  0.00     0.064 A 
ATOM     79  C   UNL     1      18.619   4.785  -2.967  1.00  0.00     0.173 A 
ATOM     80  C   UNL     1      16.611   4.930  -4.273  1.00  0.00     0.173 A 
ATOM     81  F   UNL     1      19.415   5.231  -1.984  1.00  0.00    -0.203 F 
ATOM     82  C   UNL     1      19.056   3.725  -3.759  1.00  0.00     0.198 A 
ATOM     83  C   UNL     1      17.035   3.852  -5.046  1.00  0.00     0.198 A 
ATOM     84  F   UNL     1      15.431   5.502  -4.555  1.00  0.00    -0.203 F 
ATOM     85  F   UNL     1      20.255   3.172  -3.533  1.00  0.00    -0.200 F 
ATOM     86  C   UNL     1      18.261   3.256  -4.795  1.00  0.00     0.200 A 
ATOM     87  F   UNL     1      16.259   3.396  -6.039  1.00  0.00    -0.200 F 
ATOM     88  F   UNL     1      18.681   2.236  -5.556  1.00  0.00    -0.200 F 
ENDBRANCH  54  78
BRANCH  66  89
ATOM     89  C   UNL     1      19.706  11.969  -2.591  1.00  0.00     0.064 A 
ATOM     90  C   UNL     1      19.678  12.358  -3.938  1.00  0.00     0.173 A 
ATOM     91  C   UNL     1      20.807  12.362  -1.815  1.00  0.00     0.173 A 
ATOM     92  F   UNL     1      18.652  11.997  -4.723  1.00  0.00    -0.203 F 
ATOM     93  C   UNL     1      20.718  13.102  -4.488  1.00  0.00     0.198 A 
ATOM     94  C   UNL     1      21.830  13.132  -2.361  1.00  0.00     0.198 A 
ATOM     95  F   UNL     1      20.876  12.024  -0.518  1.00  0.00    -0.203 F 
ATOM     96  F   UNL     1      20.686  13.435  -5.786  1.00  0.00    -0.200 F 
ATOM     97  C   UNL     1      21.787  13.497  -3.698  1.00  0.00     0.200 A 
ATOM     98  F   UNL     1      22.854  13.527  -1.592  1.00  0.00    -0.200 F 
ATOM     99  F   UNL     1      22.778  14.228  -4.226  1.00  0.00    -0.200 F 
ENDBRANCH  66  89
ENDBRANCH  40  41
ENDBRANCH  33  35
ENDBRANCH  32  33
ENDBRANCH  31  32
ENDBRANCH  30  31
ENDBRANCH   1  30
TORSDOF 16
