REMARK SMILES NS(=O)(=O)c1ccc(-c2cc(Cl)cc3c2O[C@@H](C(F)(F)F)C(C(=O)OCCOCCOC(=O)c2ccc(-c4c5nc(c(-c6c(F)c(F)c(F)c(F)c6F)c6ccc([nH]6)c(-c6c(F)c(F)c(F)c(F)c6F)c6nc(c(-c7c(F)c(F)c(F)c(F)c7F)c7ccc4[nH]7)C=C6)C=C5)cc2)=C3)cc1
REMARK SMILES IDX 27 1 26 2 25 3 23 4 24 5 22 6 9 7 10 8 15 9 11 10 14 11
REMARK SMILES IDX 16 12 12 13 13 14 97 15 17 16 8 17 5 18 6 19 99 20 7 21
REMARK SMILES IDX 98 22 2 23 3 24 4 25 1 26 18 29 19 30 20 31 21 32 28 33
REMARK SMILES IDX 29 34 30 35 31 36 32 37 33 38 34 39 35 40 96 41 36 42 95 43
REMARK SMILES IDX 37 44 38 45 39 46 89 47 40 48 94 49 88 50 90 51 41 52 93 53
REMARK SMILES IDX 87 54 86 55 42 57 74 58 54 59 73 60 55 61 58 62 72 63 91 64
REMARK SMILES IDX 56 65 57 66 71 68 92 69 59 70 43 71 44 72 52 73 45 74 46 75
REMARK SMILES IDX 50 76 53 77 47 78 48 79 51 80 49 81 75 82 76 83 84 84 77 85
REMARK SMILES IDX 78 86 82 87 85 88 79 89 80 90 83 91 81 92 60 93 61 94 69 95
REMARK SMILES IDX 62 96 63 97 67 98 70 99 64 100 65 101 68 102 66 103
REMARK H PARENT 1 27 1 28 90 56 58 67
REMARK Flexibility Score: inf
ROOT
ATOM      1  C   UNL     1       2.103 -12.027  -5.328  1.00  0.00     0.202 C 
ENDROOT
BRANCH   1   2
ATOM      2  C   UNL     1       3.384 -11.522  -6.012  1.00  0.00     0.261 C 
BRANCH   2   3
ATOM      3  O   UNL     1       4.150 -10.642  -5.180  1.00  0.00    -0.460 OA
BRANCH   3   4
ATOM      4  C   UNL     1       4.910  -9.735  -5.824  1.00  0.00     0.338 C 
ATOM      5  O   UNL     1       5.098  -9.694  -7.032  1.00  0.00    -0.246 OA
BRANCH   4   6
ATOM      6  C   UNL     1       5.358  -8.656  -4.914  1.00  0.00     0.087 C 
ATOM      7  C   UNL     1       2.586  -7.308  -2.126  1.00  0.00     0.026 A 
ATOM      8  C   UNL     1       1.329  -7.655  -2.667  1.00  0.00     0.033 A 
ATOM      9  C   UNL     1       3.687  -7.577  -2.963  1.00  0.00     0.135 A 
ATOM     10  C   UNL     1       1.171  -7.844  -4.040  1.00  0.00     0.042 A 
ATOM     11  C   UNL     1       3.515  -7.510  -4.354  1.00  0.00     0.019 A 
ATOM     12  O   UNL     1       4.752  -8.350  -2.477  1.00  0.00    -0.475 OA
ATOM     13  Cl  UNL     1      -0.385  -8.190  -4.677  1.00  0.00    -0.084 Cl
ATOM     14  C   UNL     1       2.246  -7.660  -4.898  1.00  0.00     0.032 A 
ATOM     15  C   UNL     1       4.716  -7.515  -5.215  1.00  0.00     0.027 C 
ATOM     16  C   UNL     1       5.768  -8.809  -3.462  1.00  0.00     0.316 C 
BRANCH   7  17
ATOM     17  C   UNL     1       2.512  -6.116  -1.195  1.00  0.00    -0.015 A 
ATOM     18  C   UNL     1       1.698  -3.653  -0.005  1.00  0.00     0.082 A 
ATOM     19  C   UNL     1       1.161  -4.863   0.438  1.00  0.00     0.022 A 
ATOM     20  C   UNL     1       2.689  -3.658  -0.984  1.00  0.00     0.022 A 
ATOM     21  C   UNL     1       1.579  -6.077  -0.137  1.00  0.00     0.010 A 
ATOM     22  C   UNL     1       3.093  -4.879  -1.565  1.00  0.00     0.010 A 
BRANCH  18  23
ATOM     23  S   UNL     1       1.019  -2.152   0.655  1.00  0.00     0.238 S 
ATOM     24  O   UNL     1       1.554  -1.954   1.978  1.00  0.00    -0.207 OA
ATOM     25  O   UNL     1      -0.402  -2.135   0.377  1.00  0.00    -0.207 OA
BRANCH  23  26
ATOM     26  N   UNL     1       1.654  -0.905  -0.281  1.00  0.00    -0.225 NA
ATOM     27  H   UNL     1       1.296  -0.011   0.055  1.00  0.00     0.137 HD
ATOM     28  H   UNL     1       1.379  -1.037  -1.254  1.00  0.00     0.137 HD
ENDBRANCH  23  26
ENDBRANCH  18  23
ENDBRANCH   7  17
BRANCH  16  29
ATOM     29  C   UNL     1       6.485 -10.135  -3.118  1.00  0.00     0.430 C 
ATOM     30  F   UNL     1       7.681 -10.182  -3.766  1.00  0.00    -0.167 F 
ATOM     31  F   UNL     1       6.764 -10.226  -1.797  1.00  0.00    -0.167 F 
ATOM     32  F   UNL     1       5.817 -11.253  -3.458  1.00  0.00    -0.167 F 
ENDBRANCH  16  29
ENDBRANCH   4   6
ENDBRANCH   3   4
ENDBRANCH   2   3
ENDBRANCH   1   2
BRANCH   1  33
ATOM     33  O   UNL     1       1.622 -11.319  -4.194  1.00  0.00    -0.374 OA
BRANCH  33  34
ATOM     34  C   UNL     1       2.402 -11.357  -2.999  1.00  0.00     0.202 C 
BRANCH  34  35
ATOM     35  C   UNL     1       2.501 -12.689  -2.250  1.00  0.00     0.261 C 
BRANCH  35  36
ATOM     36  O   UNL     1       3.130 -13.726  -3.020  1.00  0.00    -0.460 OA
BRANCH  36  37
ATOM     37  C   UNL     1       2.345 -14.802  -3.275  1.00  0.00     0.338 C 
ATOM     38  O   UNL     1       1.194 -14.990  -2.922  1.00  0.00    -0.246 OA
BRANCH  37  39
ATOM     39  C   UNL     1       3.043 -15.704  -4.202  1.00  0.00     0.060 A 
ATOM     40  C   UNL     1       2.491 -15.909  -5.473  1.00  0.00     0.016 A 
ATOM     41  C   UNL     1       4.184 -16.398  -3.797  1.00  0.00     0.016 A 
ATOM     42  C   UNL     1       3.082 -16.817  -6.348  1.00  0.00     0.010 A 
ATOM     43  C   UNL     1       4.768 -17.316  -4.672  1.00  0.00     0.010 A 
ATOM     44  C   UNL     1       4.213 -17.539  -5.945  1.00  0.00    -0.014 A 
BRANCH  44  45
ATOM     45  C   UNL     1       4.791 -18.576  -6.829  1.00  0.00     0.031 A 
ATOM     46  C   UNL     1       4.504 -20.023  -6.561  1.00  0.00     0.074 A 
ATOM     47  C   UNL     1       5.599 -18.218  -7.841  1.00  0.00     0.049 A 
ATOM     48  N   UNL     1       4.994 -21.088  -7.141  1.00  0.00    -0.248 NA
ATOM     49  C   UNL     1       3.540 -20.308  -5.488  1.00  0.00     0.031 C 
ATOM     50  C   UNL     1       5.928 -16.842  -8.205  1.00  0.00     0.029 A 
ATOM     51  N   UNL     1       6.311 -18.984  -8.729  1.00  0.00    -0.354 N 
ATOM     52  C   UNL     1       4.412 -22.170  -6.495  1.00  0.00     0.074 A 
ATOM     53  C   UNL     1       3.547 -21.633  -5.466  1.00  0.00     0.031 C 
ATOM     54  C   UNL     1       6.805 -16.860  -9.222  1.00  0.00     0.029 A 
ATOM     55  C   UNL     1       7.127 -18.247  -9.549  1.00  0.00     0.049 A 
ATOM     56  H   UNL     1       6.243 -19.966  -8.773  1.00  0.00     0.167 HD
ATOM     57  C   UNL     1       4.589 -23.491  -6.743  1.00  0.00     0.037 A 
ATOM     58  C   UNL     1       8.061 -18.648 -10.433  1.00  0.00     0.037 A 
ATOM     59  C   UNL     1       5.455 -24.010  -7.770  1.00  0.00     0.049 A 
ATOM     60  C   UNL     1       8.289 -20.120 -10.647  1.00  0.00     0.074 A 
ATOM     61  C   UNL     1       5.655 -25.326  -8.146  1.00  0.00     0.029 A 
ATOM     62  N   UNL     1       6.283 -23.236  -8.571  1.00  0.00    -0.354 N 
ATOM     63  N   UNL     1       7.697 -21.140 -10.073  1.00  0.00    -0.248 NA
ATOM     64  C   UNL     1       9.316 -20.497 -11.627  1.00  0.00     0.031 C 
ATOM     65  C   UNL     1       6.655 -25.354  -9.124  1.00  0.00     0.029 A 
ATOM     66  C   UNL     1       7.035 -24.050  -9.403  1.00  0.00     0.049 A 
ATOM     67  H   UNL     1       6.330 -22.252  -8.550  1.00  0.00     0.167 HD
ATOM     68  C   UNL     1       8.271 -22.277 -10.626  1.00  0.00     0.074 A 
ATOM     69  C   UNL     1       9.243 -21.821 -11.598  1.00  0.00     0.031 C 
ATOM     70  C   UNL     1       8.016 -23.581 -10.351  1.00  0.00     0.037 A 
BRANCH  57  71
ATOM     71  C   UNL     1       3.866 -24.465  -5.857  1.00  0.00     0.064 A 
ATOM     72  C   UNL     1       2.473 -24.622  -5.902  1.00  0.00     0.173 A 
ATOM     73  C   UNL     1       4.587 -25.268  -4.959  1.00  0.00     0.173 A 
ATOM     74  F   UNL     1       1.735 -23.872  -6.735  1.00  0.00    -0.203 F 
ATOM     75  C   UNL     1       1.825 -25.520  -5.057  1.00  0.00     0.198 A 
ATOM     76  C   UNL     1       3.939 -26.188  -4.138  1.00  0.00     0.198 A 
ATOM     77  F   UNL     1       5.922 -25.164  -4.878  1.00  0.00    -0.203 F 
ATOM     78  F   UNL     1       0.488 -25.613  -5.079  1.00  0.00    -0.200 F 
ATOM     79  C   UNL     1       2.558 -26.306  -4.180  1.00  0.00     0.200 A 
ATOM     80  F   UNL     1       4.651 -26.955  -3.302  1.00  0.00    -0.200 F 
ATOM     81  F   UNL     1       1.933 -27.170  -3.369  1.00  0.00    -0.200 F 
ENDBRANCH  57  71
BRANCH  58  82
ATOM     82  C   UNL     1       8.872 -17.628 -11.148  1.00  0.00     0.064 A 
ATOM     83  C   UNL     1       8.710 -17.404 -12.521  1.00  0.00     0.173 A 
ATOM     84  C   UNL     1       9.806 -16.837 -10.462  1.00  0.00     0.173 A 
ATOM     85  F   UNL     1       7.848 -18.152 -13.224  1.00  0.00    -0.203 F 
ATOM     86  C   UNL     1       9.455 -16.429 -13.182  1.00  0.00     0.198 A 
ATOM     87  C   UNL     1      10.529 -15.844 -11.118  1.00  0.00     0.198 A 
ATOM     88  F   UNL     1       9.999 -17.014  -9.146  1.00  0.00    -0.203 F 
ATOM     89  F   UNL     1       9.304 -16.256 -14.502  1.00  0.00    -0.200 F 
ATOM     90  C   UNL     1      10.356 -15.643 -12.479  1.00  0.00     0.200 A 
ATOM     91  F   UNL     1      11.388 -15.079 -10.431  1.00  0.00    -0.200 F 
ATOM     92  F   UNL     1      11.060 -14.696 -13.113  1.00  0.00    -0.200 F 
ENDBRANCH  58  82
BRANCH  70  93
ATOM     93  C   UNL     1       8.806 -24.610 -11.107  1.00  0.00     0.064 A 
ATOM     94  C   UNL     1      10.168 -24.825 -10.847  1.00  0.00     0.173 A 
ATOM     95  C   UNL     1       8.186 -25.425 -12.067  1.00  0.00     0.173 A 
ATOM     96  F   UNL     1      10.812 -24.062  -9.951  1.00  0.00    -0.203 F 
ATOM     97  C   UNL     1      10.883 -25.803 -11.534  1.00  0.00     0.198 A 
ATOM     98  C   UNL     1       8.896 -26.423 -12.728  1.00  0.00     0.198 A 
ATOM     99  F   UNL     1       6.884 -25.265 -12.350  1.00  0.00    -0.203 F 
ATOM    100  F   UNL     1      12.194 -25.960 -11.300  1.00  0.00    -0.200 F 
ATOM    101  C   UNL     1      10.245 -26.607 -12.466  1.00  0.00     0.200 A 
ATOM    102  F   UNL     1       8.274 -27.209 -13.618  1.00  0.00    -0.200 F 
ATOM    103  F   UNL     1      10.932 -27.555 -13.117  1.00  0.00    -0.200 F 
ENDBRANCH  70  93
ENDBRANCH  44  45
ENDBRANCH  37  39
ENDBRANCH  36  37
ENDBRANCH  35  36
ENDBRANCH  34  35
ENDBRANCH  33  34
ENDBRANCH   1  33
TORSDOF 18
