REMARK SMILES Cc1cc(C[N@H+]2CC[C@](C)(C(=O)OCCOCCOC(=O)c3ccc(-c4c5nc(c(-c6c(F)c(F)c(F)c(F)c6F)c6ccc([nH]6)c(-c6c(F)c(F)c(F)c(F)c6F)c6nc(c(-c7c(F)c(F)c(F)c(F)c7F)c7ccc4[nH]7)C=C6)C=C5)cc3)C2)c2ccccc2n1
REMARK SMILES IDX 16 1 15 2 14 3 13 4 11 5 12 6 9 7 6 8 7 9 85 10 8 12 10 13
REMARK SMILES IDX 5 14 4 15 1 16 2 17 3 18 92 19 91 20 86 21 90 22 87 23 89 24
REMARK SMILES IDX 88 25 17 26 18 27 19 28 20 29 21 30 22 31 23 32 84 33 24 34
REMARK SMILES IDX 83 35 25 36 26 37 27 38 77 39 28 40 82 41 76 42 78 43 29 44
REMARK SMILES IDX 81 45 75 46 74 47 30 49 62 50 42 51 61 52 43 53 46 54 60 55
REMARK SMILES IDX 79 56 44 57 45 58 59 60 80 61 47 62 31 63 32 64 40 65 33 66
REMARK SMILES IDX 34 67 38 68 41 69 35 70 36 71 39 72 37 73 63 74 64 75 72 76
REMARK SMILES IDX 65 77 66 78 70 79 73 80 67 81 68 82 71 83 69 84 48 85 49 86
REMARK SMILES IDX 57 87 50 88 51 89 55 90 58 91 52 92 53 93 56 94 54 95
REMARK H PARENT 6 11 78 48 46 59
REMARK Flexibility Score: inf
ROOT
ATOM      1  O   UNL     1       4.711   5.747   3.766  1.00  0.00    -0.374 OA
ENDROOT
BRANCH   1   2
ATOM      2  C   UNL     1       5.612   4.670   3.507  1.00  0.00     0.202 C 
BRANCH   2   3
ATOM      3  C   UNL     1       5.231   3.307   4.089  1.00  0.00     0.261 C 
BRANCH   3   4
ATOM      4  O   UNL     1       4.103   2.752   3.390  1.00  0.00    -0.463 OA
BRANCH   4   5
ATOM      5  C   UNL     1       2.980   2.555   4.131  1.00  0.00     0.317 C 
ATOM      6  O   UNL     1       2.920   2.674   5.349  1.00  0.00    -0.251 OA
BRANCH   5   7
ATOM      7  C   UNL     1       1.795   2.131   3.280  1.00  0.00     0.119 C 
ATOM      8  N   UNL     1       0.523   3.153   1.492  1.00  0.00    -0.330 N 
ATOM      9  C   UNL     1      -0.393   2.833   2.582  1.00  0.00     0.263 C 
ATOM     10  C   UNL     1       1.843   2.602   1.818  1.00  0.00     0.281 C 
ATOM     11  H   UNL     1       0.618   4.167   1.434  1.00  0.00     0.348 HD
ATOM     12  C   UNL     1       0.516   2.797   3.798  1.00  0.00     0.086 C 
ATOM     13  C   UNL     1       1.702   0.598   3.348  1.00  0.00     0.030 C 
BRANCH   8  14
ATOM     14  C   UNL     1       0.019   2.922   0.129  1.00  0.00     0.299 C 
BRANCH  14  15
ATOM     15  C   UNL     1      -0.364   1.486  -0.196  1.00  0.00     0.017 A 
ATOM     16  C   UNL     1      -3.438  -0.710   0.137  1.00  0.00     0.067 C 
ATOM     17  C   UNL     1      -2.023  -0.249  -0.047  1.00  0.00     0.038 A 
ATOM     18  C   UNL     1      -1.697   1.096   0.000  1.00  0.00     0.033 A 
ATOM     19  N   UNL     1      -1.089  -1.212  -0.201  1.00  0.00    -0.253 NA
ATOM     20  C   UNL     1       0.184  -0.849  -0.432  1.00  0.00     0.071 A 
ATOM     21  C   UNL     1       0.589   0.496  -0.544  1.00  0.00     0.009 A 
ATOM     22  C   UNL     1       1.149  -1.843  -0.530  1.00  0.00     0.029 A 
ATOM     23  C   UNL     1       1.922   0.768  -0.943  1.00  0.00     0.011 A 
ATOM     24  C   UNL     1       2.488  -1.555  -0.805  1.00  0.00     0.002 A 
ATOM     25  C   UNL     1       2.869  -0.246  -1.051  1.00  0.00     0.001 A 
ENDBRANCH  14  15
ENDBRANCH   8  14
ENDBRANCH   5   7
ENDBRANCH   4   5
ENDBRANCH   3   4
ENDBRANCH   2   3
ENDBRANCH   1   2
BRANCH   1  26
ATOM     26  C   UNL     1       3.518   5.805   2.986  1.00  0.00     0.202 C 
BRANCH  26  27
ATOM     27  C   UNL     1       3.656   6.367   1.562  1.00  0.00     0.261 C 
BRANCH  27  28
ATOM     28  O   UNL     1       4.592   5.632   0.751  1.00  0.00    -0.460 OA
BRANCH  28  29
ATOM     29  C   UNL     1       5.758   6.277   0.512  1.00  0.00     0.338 C 
ATOM     30  O   UNL     1       6.053   7.424   0.831  1.00  0.00    -0.246 OA
BRANCH  29  31
ATOM     31  C   UNL     1       6.750   5.357  -0.072  1.00  0.00     0.060 A 
ATOM     32  C   UNL     1       7.988   5.249   0.575  1.00  0.00     0.016 A 
ATOM     33  C   UNL     1       6.517   4.681  -1.272  1.00  0.00     0.016 A 
ATOM     34  C   UNL     1       9.014   4.500   0.002  1.00  0.00     0.010 A 
ATOM     35  C   UNL     1       7.553   3.937  -1.851  1.00  0.00     0.010 A 
ATOM     36  C   UNL     1       8.816   3.870  -1.234  1.00  0.00    -0.014 A 
BRANCH  36  37
ATOM     37  C   UNL     1       9.972   3.259  -1.937  1.00  0.00     0.031 A 
ATOM     38  C   UNL     1      10.667   4.039  -3.019  1.00  0.00     0.074 A 
ATOM     39  C   UNL     1      10.420   2.038  -1.594  1.00  0.00     0.049 A 
ATOM     40  N   UNL     1      11.679   3.692  -3.775  1.00  0.00    -0.248 NA
ATOM     41  C   UNL     1      10.155   5.392  -3.286  1.00  0.00     0.031 C 
ATOM     42  C   UNL     1       9.864   1.203  -0.532  1.00  0.00     0.029 A 
ATOM     43  N   UNL     1      11.450   1.290  -2.108  1.00  0.00    -0.354 N 
ATOM     44  C   UNL     1      11.916   4.776  -4.610  1.00  0.00     0.074 A 
ATOM     45  C   UNL     1      10.932   5.786  -4.285  1.00  0.00     0.031 C 
ATOM     46  C   UNL     1      10.555   0.051  -0.477  1.00  0.00     0.029 A 
ATOM     47  C   UNL     1      11.580   0.056  -1.520  1.00  0.00     0.049 A 
ATOM     48  H   UNL     1      12.039   1.607  -2.830  1.00  0.00     0.167 HD
ATOM     49  C   UNL     1      12.874   4.919  -5.557  1.00  0.00     0.037 A 
ATOM     50  C   UNL     1      12.419  -0.960  -1.805  1.00  0.00     0.037 A 
ATOM     51  C   UNL     1      13.865   3.923  -5.869  1.00  0.00     0.049 A 
ATOM     52  C   UNL     1      13.424  -0.801  -2.917  1.00  0.00     0.074 A 
ATOM     53  C   UNL     1      14.906   3.998  -6.778  1.00  0.00     0.029 A 
ATOM     54  N   UNL     1      13.933   2.667  -5.286  1.00  0.00    -0.354 N 
ATOM     55  N   UNL     1      13.667   0.241  -3.673  1.00  0.00    -0.248 NA
ATOM     56  C   UNL     1      14.270  -1.967  -3.217  1.00  0.00     0.031 C 
ATOM     57  C   UNL     1      15.571   2.768  -6.784  1.00  0.00     0.029 A 
ATOM     58  C   UNL     1      14.975   1.944  -5.843  1.00  0.00     0.049 A 
ATOM     59  H   UNL     1      13.330   2.338  -4.581  1.00  0.00     0.167 HD
ATOM     60  C   UNL     1      14.709  -0.130  -4.514  1.00  0.00     0.074 A 
ATOM     61  C   UNL     1      15.060  -1.491  -4.169  1.00  0.00     0.031 C 
ATOM     62  C   UNL     1      15.320   0.593  -5.484  1.00  0.00     0.037 A 
BRANCH  49  63
ATOM     63  C   UNL     1      12.886   6.191  -6.351  1.00  0.00     0.064 A 
ATOM     64  C   UNL     1      13.324   7.403  -5.798  1.00  0.00     0.173 A 
ATOM     65  C   UNL     1      12.508   6.183  -7.702  1.00  0.00     0.173 A 
ATOM     66  F   UNL     1      13.686   7.464  -4.507  1.00  0.00    -0.203 F 
ATOM     67  C   UNL     1      13.368   8.565  -6.565  1.00  0.00     0.198 A 
ATOM     68  C   UNL     1      12.576   7.340  -8.472  1.00  0.00     0.198 A 
ATOM     69  F   UNL     1      12.085   5.048  -8.279  1.00  0.00    -0.203 F 
ATOM     70  F   UNL     1      13.758   9.719  -6.008  1.00  0.00    -0.200 F 
ATOM     71  C   UNL     1      13.002   8.531  -7.902  1.00  0.00     0.200 A 
ATOM     72  F   UNL     1      12.232   7.303  -9.767  1.00  0.00    -0.200 F 
ATOM     73  F   UNL     1      13.055   9.647  -8.642  1.00  0.00    -0.200 F 
ENDBRANCH  49  63
BRANCH  50  74
ATOM     74  C   UNL     1      12.340  -2.232  -1.040  1.00  0.00     0.064 A 
ATOM     75  C   UNL     1      13.382  -2.630  -0.191  1.00  0.00     0.173 A 
ATOM     76  C   UNL     1      11.240  -3.092  -1.171  1.00  0.00     0.173 A 
ATOM     77  F   UNL     1      14.468  -1.855  -0.056  1.00  0.00    -0.203 F 
ATOM     78  C   UNL     1      13.336  -3.849   0.482  1.00  0.00     0.198 A 
ATOM     79  C   UNL     1      11.183  -4.298  -0.476  1.00  0.00     0.198 A 
ATOM     80  F   UNL     1      10.219  -2.760  -1.975  1.00  0.00    -0.203 F 
ATOM     81  F   UNL     1      14.369  -4.229   1.247  1.00  0.00    -0.200 F 
ATOM     82  C   UNL     1      12.235  -4.680   0.343  1.00  0.00     0.200 A 
ATOM     83  F   UNL     1      10.112  -5.093  -0.607  1.00  0.00    -0.200 F 
ATOM     84  F   UNL     1      12.192  -5.854   0.988  1.00  0.00    -0.200 F 
ENDBRANCH  50  74
BRANCH  62  85
ATOM     85  C   UNL     1      16.455  -0.057  -6.221  1.00  0.00     0.064 A 
ATOM     86  C   UNL     1      16.234  -1.074  -7.161  1.00  0.00     0.173 A 
ATOM     87  C   UNL     1      17.775   0.374  -6.017  1.00  0.00     0.173 A 
ATOM     88  F   UNL     1      14.992  -1.532  -7.380  1.00  0.00    -0.203 F 
ATOM     89  C   UNL     1      17.295  -1.649  -7.855  1.00  0.00     0.198 A 
ATOM     90  C   UNL     1      18.830  -0.183  -6.734  1.00  0.00     0.198 A 
ATOM     91  F   UNL     1      18.039   1.349  -5.134  1.00  0.00    -0.203 F 
ATOM     92  F   UNL     1      17.065  -2.649  -8.718  1.00  0.00    -0.200 F 
ATOM     93  C   UNL     1      18.590  -1.199  -7.647  1.00  0.00     0.200 A 
ATOM     94  F   UNL     1      20.079   0.263  -6.541  1.00  0.00    -0.200 F 
ATOM     95  F   UNL     1      19.609  -1.748  -8.323  1.00  0.00    -0.200 F 
ENDBRANCH  62  85
ENDBRANCH  36  37
ENDBRANCH  29  31
ENDBRANCH  28  29
ENDBRANCH  27  28
ENDBRANCH  26  27
ENDBRANCH   1  26
TORSDOF 16
