REMARK SMILES O=C(CCCC(=O)OCCOCCOC(=O)c1ccc(-c2c3nc(c(-c4c(F)c(F)c(F)c(F)c4F)c4ccc([nH]4)c(-c4c(F)c(F)c(F)c(F)c4F)c4nc(c(-c5c(F)c(F)c(F)c(F)c5F)c5ccc2[nH]5)C=C4)C=C3)cc1)Nc1ccccc1F
REMARK SMILES IDX 10 1 9 2 8 3 6 4 7 5 5 6 4 7 3 8 2 9 1 10 80 11 81 13 82 14
REMARK SMILES IDX 86 15 83 16 85 17 87 18 84 19 11 20 12 21 13 22 14 23 15 24
REMARK SMILES IDX 16 25 17 26 18 27 79 28 19 29 78 30 20 31 21 32 22 33 72 34
REMARK SMILES IDX 23 35 77 36 71 37 73 38 24 39 76 40 70 41 69 42 25 44 57 45
REMARK SMILES IDX 37 46 56 47 38 48 41 49 55 50 74 51 39 52 40 53 54 55 75 56
REMARK SMILES IDX 42 57 26 58 27 59 35 60 28 61 29 62 33 63 36 64 30 65 31 66
REMARK SMILES IDX 34 67 32 68 58 69 59 70 67 71 60 72 61 73 65 74 68 75 62 76
REMARK SMILES IDX 63 77 66 78 64 79 43 80 44 81 52 82 45 83 46 84 50 85 53 86
REMARK SMILES IDX 47 87 48 88 51 89 49 90
REMARK H PARENT 80 12 73 43 41 54
REMARK Flexibility Score: inf
ROOT
ATOM      1  C   UNL     1       6.859  -1.253   1.971  1.00  0.00     0.202 C 
ENDROOT
BRANCH   1   2
ATOM      2  C   UNL     1       6.522   0.208   1.649  1.00  0.00     0.261 C 
BRANCH   2   3
ATOM      3  O   UNL     1       5.481   0.280   0.650  1.00  0.00    -0.463 OA
BRANCH   3   4
ATOM      4  C   UNL     1       5.828   0.747  -0.575  1.00  0.00     0.305 C 
ATOM      5  O   UNL     1       6.887   1.296  -0.840  1.00  0.00    -0.252 OA
BRANCH   4   6
ATOM      6  C   UNL     1       4.701   0.590  -1.581  1.00  0.00     0.123 C 
BRANCH   6   7
ATOM      7  C   UNL     1       3.776  -0.635  -1.478  1.00  0.00     0.022 C 
BRANCH   7   8
ATOM      8  C   UNL     1       2.943  -0.855  -0.206  1.00  0.00     0.101 C 
BRANCH   8   9
ATOM      9  C   UNL     1       1.964   0.266   0.096  1.00  0.00     0.224 C 
ATOM     10  O   UNL     1       0.769   0.141  -0.145  1.00  0.00    -0.275 OA
ATOM     11  N   UNL     1       2.588   1.408   0.559  1.00  0.00    -0.324 N 
ATOM     12  H   UNL     1       3.557   1.363   0.726  1.00  0.00     0.170 HD
BRANCH  11  13
ATOM     13  C   UNL     1       1.941   2.630   0.807  1.00  0.00     0.077 A 
ATOM     14  C   UNL     1       2.604   3.797   0.410  1.00  0.00     0.029 A 
ATOM     15  C   UNL     1       0.703   2.732   1.447  1.00  0.00     0.146 A 
ATOM     16  C   UNL     1       2.007   5.045   0.603  1.00  0.00     0.002 A 
ATOM     17  C   UNL     1       0.125   3.978   1.675  1.00  0.00     0.041 A 
ATOM     18  F   UNL     1       0.100   1.649   1.960  1.00  0.00    -0.205 F 
ATOM     19  C   UNL     1       0.770   5.136   1.240  1.00  0.00     0.003 A 
ENDBRANCH  11  13
ENDBRANCH   8   9
ENDBRANCH   7   8
ENDBRANCH   6   7
ENDBRANCH   4   6
ENDBRANCH   3   4
ENDBRANCH   2   3
ENDBRANCH   1   2
BRANCH   1  20
ATOM     20  O   UNL     1       7.633  -1.926   0.977  1.00  0.00    -0.374 OA
BRANCH  20  21
ATOM     21  C   UNL     1       6.926  -2.427  -0.155  1.00  0.00     0.202 C 
BRANCH  21  22
ATOM     22  C   UNL     1       6.301  -3.815   0.016  1.00  0.00     0.261 C 
BRANCH  22  23
ATOM     23  O   UNL     1       5.285  -3.815   1.036  1.00  0.00    -0.460 OA
BRANCH  23  24
ATOM     24  C   UNL     1       5.650  -4.430   2.184  1.00  0.00     0.338 C 
ATOM     25  O   UNL     1       6.688  -5.043   2.397  1.00  0.00    -0.246 OA
BRANCH  24  26
ATOM     26  C   UNL     1       4.682  -4.142   3.258  1.00  0.00     0.060 A 
ATOM     27  C   UNL     1       5.204  -3.764   4.501  1.00  0.00     0.016 A 
ATOM     28  C   UNL     1       3.305  -4.312   3.091  1.00  0.00     0.016 A 
ATOM     29  C   UNL     1       4.361  -3.620   5.599  1.00  0.00     0.010 A 
ATOM     30  C   UNL     1       2.458  -4.169   4.198  1.00  0.00     0.010 A 
ATOM     31  C   UNL     1       2.988  -3.863   5.465  1.00  0.00    -0.014 A 
BRANCH  31  32
ATOM     32  C   UNL     1       2.145  -3.938   6.684  1.00  0.00     0.031 A 
ATOM     33  C   UNL     1       1.806  -5.286   7.258  1.00  0.00     0.074 A 
ATOM     34  C   UNL     1       1.733  -2.819   7.304  1.00  0.00     0.049 A 
ATOM     35  N   UNL     1       1.098  -5.584   8.319  1.00  0.00    -0.248 NA
ATOM     36  C   UNL     1       2.337  -6.457   6.543  1.00  0.00     0.031 C 
ATOM     37  C   UNL     1       2.026  -1.456   6.867  1.00  0.00     0.029 A 
ATOM     38  N   UNL     1       0.977  -2.656   8.438  1.00  0.00    -0.354 N 
ATOM     39  C   UNL     1       1.092  -6.971   8.392  1.00  0.00     0.074 A 
ATOM     40  C   UNL     1       1.845  -7.459   7.257  1.00  0.00     0.031 C 
ATOM     41  C   UNL     1       1.454  -0.593   7.723  1.00  0.00     0.029 A 
ATOM     42  C   UNL     1       0.731  -1.342   8.749  1.00  0.00     0.049 A 
ATOM     43  H   UNL     1       0.643  -3.409   8.977  1.00  0.00     0.167 HD
ATOM     44  C   UNL     1       0.518  -7.765   9.327  1.00  0.00     0.037 A 
ATOM     45  C   UNL     1      -0.006  -0.807   9.742  1.00  0.00     0.037 A 
ATOM     46  C   UNL     1      -0.221  -7.281  10.463  1.00  0.00     0.049 A 
ATOM     47  C   UNL     1      -0.683  -1.715  10.736  1.00  0.00     0.074 A 
ATOM     48  C   UNL     1      -0.810  -8.008  11.483  1.00  0.00     0.029 A 
ATOM     49  N   UNL     1      -0.481  -5.944  10.723  1.00  0.00    -0.354 N 
ATOM     50  N   UNL     1      -0.654  -3.023  10.817  1.00  0.00    -0.248 NA
ATOM     51  C   UNL     1      -1.492  -1.068  11.779  1.00  0.00     0.031 C 
ATOM     52  C   UNL     1      -1.469  -7.114  12.333  1.00  0.00     0.029 A 
ATOM     53  C   UNL     1      -1.246  -5.826  11.873  1.00  0.00     0.049 A 
ATOM     54  H   UNL     1      -0.168  -5.189  10.174  1.00  0.00     0.167 HD
ATOM     55  C   UNL     1      -1.416  -3.354  11.931  1.00  0.00     0.074 A 
ATOM     56  C   UNL     1      -1.883  -2.108  12.502  1.00  0.00     0.031 C 
ATOM     57  C   UNL     1      -1.700  -4.580  12.435  1.00  0.00     0.037 A 
BRANCH  44  58
ATOM     58  C   UNL     1       0.645  -9.249   9.150  1.00  0.00     0.064 A 
ATOM     59  C   UNL     1       1.859  -9.918   9.367  1.00  0.00     0.173 A 
ATOM     60  C   UNL     1      -0.475 -10.018   8.800  1.00  0.00     0.173 A 
ATOM     61  F   UNL     1       2.962  -9.227   9.690  1.00  0.00    -0.203 F 
ATOM     62  C   UNL     1       1.951 -11.300   9.220  1.00  0.00     0.198 A 
ATOM     63  C   UNL     1      -0.386 -11.402   8.681  1.00  0.00     0.198 A 
ATOM     64  F   UNL     1      -1.660  -9.427   8.586  1.00  0.00    -0.203 F 
ATOM     65  F   UNL     1       3.129 -11.914   9.394  1.00  0.00    -0.200 F 
ATOM     66  C   UNL     1       0.827 -12.041   8.885  1.00  0.00     0.200 A 
ATOM     67  F   UNL     1      -1.475 -12.118   8.368  1.00  0.00    -0.200 F 
ATOM     68  F   UNL     1       0.915 -13.372   8.753  1.00  0.00    -0.200 F 
ENDBRANCH  44  58
BRANCH  45  69
ATOM     69  C   UNL     1      -0.148   0.668   9.845  1.00  0.00     0.064 A 
ATOM     70  C   UNL     1       0.444   1.380  10.897  1.00  0.00     0.173 A 
ATOM     71  C   UNL     1      -0.887   1.394   8.899  1.00  0.00     0.173 A 
ATOM     72  F   UNL     1       1.137   0.727  11.841  1.00  0.00    -0.203 F 
ATOM     73  C   UNL     1       0.290   2.761  11.006  1.00  0.00     0.198 A 
ATOM     74  C   UNL     1      -1.017   2.777   8.994  1.00  0.00     0.198 A 
ATOM     75  F   UNL     1      -1.476   0.758   7.876  1.00  0.00    -0.203 F 
ATOM     76  F   UNL     1       0.831   3.412  12.045  1.00  0.00    -0.200 F 
ATOM     77  C   UNL     1      -0.434   3.459  10.051  1.00  0.00     0.200 A 
ATOM     78  F   UNL     1      -1.709   3.450   8.064  1.00  0.00    -0.200 F 
ATOM     79  F   UNL     1      -0.576   4.787  10.155  1.00  0.00    -0.200 F 
ENDBRANCH  45  69
BRANCH  57  80
ATOM     80  C   UNL     1      -2.528  -4.639  13.687  1.00  0.00     0.064 A 
ATOM     81  C   UNL     1      -3.900  -4.349  13.677  1.00  0.00     0.173 A 
ATOM     82  C   UNL     1      -1.948  -5.033  14.902  1.00  0.00     0.173 A 
ATOM     83  F   UNL     1      -4.498  -3.954  12.543  1.00  0.00    -0.203 F 
ATOM     84  C   UNL     1      -4.657  -4.429  14.843  1.00  0.00     0.198 A 
ATOM     85  C   UNL     1      -2.714  -5.141  16.060  1.00  0.00     0.198 A 
ATOM     86  F   UNL     1      -0.641  -5.329  14.965  1.00  0.00    -0.203 F 
ATOM     87  F   UNL     1      -5.957  -4.105  14.820  1.00  0.00    -0.200 F 
ATOM     88  C   UNL     1      -4.065  -4.832  16.031  1.00  0.00     0.200 A 
ATOM     89  F   UNL     1      -2.143  -5.543  17.204  1.00  0.00    -0.200 F 
ATOM     90  F   UNL     1      -4.797  -4.916  17.151  1.00  0.00    -0.200 F 
ENDBRANCH  57  80
ENDBRANCH  31  32
ENDBRANCH  24  26
ENDBRANCH  23  24
ENDBRANCH  22  23
ENDBRANCH  21  22
ENDBRANCH  20  21
ENDBRANCH   1  20
TORSDOF 18
