REMARK SMILES O=C(OCCOCCOC(=O)c1ccc(-c2c3nc(c(-c4c(F)c(F)c(F)c(F)c4F)c4ccc([nH]4)c(-c4c(F)c(F)c(F)c(F)c4F)c4nc(c(-c5c(F)c(F)c(F)c(F)c5F)c5ccc2[nH]5)C=C4)C=C3)cc1)c1ccc(/C=C/c2ccc3cccc(O)c3n2)cc1
REMARK SMILES IDX 5 1 4 2 3 3 2 4 1 5 75 6 76 7 93 8 77 9 92 10 78 11 79 12
REMARK SMILES IDX 80 13 81 14 82 15 91 16 83 17 90 18 84 19 88 20 85 21 87 22
REMARK SMILES IDX 86 23 89 24 6 26 7 27 8 28 9 29 10 30 11 31 12 32 13 33
REMARK SMILES IDX 74 34 14 35 73 36 15 37 16 38 17 39 67 40 18 41 72 42 66 43
REMARK SMILES IDX 68 44 19 45 71 46 65 47 64 48 20 50 52 51 32 52 51 53 33 54
REMARK SMILES IDX 36 55 50 56 69 57 34 58 35 59 49 61 70 62 37 63 21 64 22 65
REMARK SMILES IDX 30 66 23 67 24 68 28 69 31 70 25 71 26 72 29 73 27 74 53 75
REMARK SMILES IDX 54 76 62 77 55 78 56 79 60 80 63 81 57 82 58 83 61 84 59 85
REMARK SMILES IDX 38 86 39 87 47 88 40 89 41 90 45 91 48 92 42 93 43 94 46 95
REMARK SMILES IDX 44 96
REMARK H PARENT 89 25 68 49 36 60
REMARK Flexibility Score: inf
ROOT
ATOM      1  C   UNL     1       4.524   0.197  -1.315  1.00  0.00     0.202 C 
ENDROOT
BRANCH   1   2
ATOM      2  C   UNL     1       4.223  -0.962  -0.369  1.00  0.00     0.261 C 
BRANCH   2   3
ATOM      3  O   UNL     1       2.830  -0.977  -0.033  1.00  0.00    -0.460 OA
BRANCH   3   4
ATOM      4  C   UNL     1       2.305  -0.563   1.142  1.00  0.00     0.338 C 
ATOM      5  O   UNL     1       1.088  -0.588   1.310  1.00  0.00    -0.246 OA
BRANCH   4   6
ATOM      6  C   UNL     1       3.152  -0.117   2.278  1.00  0.00     0.060 A 
ATOM      7  C   UNL     1       4.035   0.970   2.226  1.00  0.00     0.016 A 
ATOM      8  C   UNL     1       2.887  -0.706   3.512  1.00  0.00     0.016 A 
ATOM      9  C   UNL     1       4.641   1.477   3.381  1.00  0.00     0.009 A 
ATOM     10  C   UNL     1       3.478  -0.192   4.667  1.00  0.00     0.009 A 
ATOM     11  C   UNL     1       4.344   0.917   4.614  1.00  0.00    -0.026 A 
BRANCH  11  12
ATOM     12  C   UNL     1       4.878   1.412   5.883  1.00  0.00     0.010 C 
ATOM     13  C   UNL     1       6.070   2.005   6.114  1.00  0.00     0.029 C 
BRANCH  13  14
ATOM     14  C   UNL     1       6.667   1.694   7.454  1.00  0.00     0.064 A 
ATOM     15  C   UNL     1       7.387   0.508   7.356  1.00  0.00     0.029 A 
ATOM     16  N   UNL     1       5.875   1.962   8.522  1.00  0.00    -0.245 NA
ATOM     17  C   UNL     1       6.835  -0.597   7.991  1.00  0.00     0.013 A 
ATOM     18  C   UNL     1       5.420   0.899   9.222  1.00  0.00     0.113 A 
ATOM     19  C   UNL     1       5.758  -0.419   8.868  1.00  0.00     0.004 A 
ATOM     20  C   UNL     1       4.512   1.072  10.262  1.00  0.00     0.141 A 
ATOM     21  C   UNL     1       5.005  -1.496   9.364  1.00  0.00     0.010 A 
ATOM     22  C   UNL     1       3.811   0.006  10.819  1.00  0.00     0.048 A 
ATOM     23  C   UNL     1       4.013  -1.276  10.318  1.00  0.00     0.005 A 
BRANCH  20  24
ATOM     24  O   UNL     1       4.275   2.332  10.752  1.00  0.00    -0.506 OA
ATOM     25  H   UNL     1       3.664   2.456  11.452  1.00  0.00     0.293 HD
ENDBRANCH  20  24
ENDBRANCH  13  14
ENDBRANCH  11  12
ENDBRANCH   4   6
ENDBRANCH   3   4
ENDBRANCH   2   3
ENDBRANCH   1   2
BRANCH   1  26
ATOM     26  O   UNL     1       4.123   1.468  -0.818  1.00  0.00    -0.374 OA
BRANCH  26  27
ATOM     27  C   UNL     1       2.757   1.840  -1.047  1.00  0.00     0.202 C 
BRANCH  27  28
ATOM     28  C   UNL     1       2.713   3.314  -1.457  1.00  0.00     0.261 C 
BRANCH  28  29
ATOM     29  O   UNL     1       3.293   3.427  -2.762  1.00  0.00    -0.460 OA
BRANCH  29  30
ATOM     30  C   UNL     1       4.653   3.417  -2.777  1.00  0.00     0.338 C 
ATOM     31  O   UNL     1       5.408   3.808  -1.914  1.00  0.00    -0.246 OA
BRANCH  30  32
ATOM     32  C   UNL     1       5.066   2.619  -3.955  1.00  0.00     0.060 A 
ATOM     33  C   UNL     1       6.236   1.850  -3.869  1.00  0.00     0.016 A 
ATOM     34  C   UNL     1       4.274   2.575  -5.106  1.00  0.00     0.016 A 
ATOM     35  C   UNL     1       6.633   1.059  -4.947  1.00  0.00     0.010 A 
ATOM     36  C   UNL     1       4.666   1.786  -6.180  1.00  0.00     0.010 A 
ATOM     37  C   UNL     1       5.863   1.055  -6.116  1.00  0.00    -0.014 A 
BRANCH  37  38
ATOM     38  C   UNL     1       6.375   0.461  -7.367  1.00  0.00     0.031 A 
ATOM     39  C   UNL     1       6.959   1.393  -8.387  1.00  0.00     0.074 A 
ATOM     40  C   UNL     1       6.235  -0.851  -7.615  1.00  0.00     0.049 A 
ATOM     41  N   UNL     1       7.308   1.160  -9.624  1.00  0.00    -0.248 NA
ATOM     42  C   UNL     1       7.151   2.790  -7.958  1.00  0.00     0.031 C 
ATOM     43  C   UNL     1       5.687  -1.835  -6.684  1.00  0.00     0.029 A 
ATOM     44  N   UNL     1       6.509  -1.573  -8.749  1.00  0.00    -0.354 N 
ATOM     45  C   UNL     1       7.737   2.382 -10.125  1.00  0.00     0.074 A 
ATOM     46  C   UNL     1       7.581   3.360  -9.073  1.00  0.00     0.031 C 
ATOM     47  C   UNL     1       5.636  -3.031  -7.295  1.00  0.00     0.029 A 
ATOM     48  C   UNL     1       6.109  -2.884  -8.671  1.00  0.00     0.049 A 
ATOM     49  H   UNL     1       6.949  -1.188  -9.541  1.00  0.00     0.167 HD
ATOM     50  C   UNL     1       8.219   2.656 -11.359  1.00  0.00     0.037 A 
ATOM     51  C   UNL     1       6.093  -3.838  -9.622  1.00  0.00     0.037 A 
ATOM     52  C   UNL     1       8.370   1.666 -12.390  1.00  0.00     0.049 A 
ATOM     53  C   UNL     1       6.591  -3.494 -11.004  1.00  0.00     0.074 A 
ATOM     54  C   UNL     1       8.902   1.815 -13.657  1.00  0.00     0.029 A 
ATOM     55  N   UNL     1       7.971   0.342 -12.272  1.00  0.00    -0.354 N 
ATOM     56  N   UNL     1       7.057  -2.355 -11.458  1.00  0.00    -0.248 NA
ATOM     57  C   UNL     1       6.561  -4.568 -12.007  1.00  0.00     0.031 C 
ATOM     58  C   UNL     1       8.766   0.597 -14.329  1.00  0.00     0.029 A 
ATOM     59  C   UNL     1       8.210  -0.328 -13.458  1.00  0.00     0.049 A 
ATOM     60  H   UNL     1       7.578  -0.060 -11.464  1.00  0.00     0.167 HD
ATOM     61  C   UNL     1       7.399  -2.580 -12.785  1.00  0.00     0.074 A 
ATOM     62  C   UNL     1       7.101  -3.970 -13.060  1.00  0.00     0.031 C 
ATOM     63  C   UNL     1       7.911  -1.718 -13.698  1.00  0.00     0.037 A 
BRANCH  50  64
ATOM     64  C   UNL     1       8.589   4.077 -11.667  1.00  0.00     0.064 A 
ATOM     65  C   UNL     1       9.697   4.700 -11.074  1.00  0.00     0.173 A 
ATOM     66  C   UNL     1       7.842   4.814 -12.599  1.00  0.00     0.173 A 
ATOM     67  F   UNL     1      10.433   4.046 -10.163  1.00  0.00    -0.203 F 
ATOM     68  C   UNL     1      10.031   6.016 -11.387  1.00  0.00     0.198 A 
ATOM     69  C   UNL     1       8.198   6.118 -12.933  1.00  0.00     0.198 A 
ATOM     70  F   UNL     1       6.772   4.266 -13.194  1.00  0.00    -0.203 F 
ATOM     71  F   UNL     1      11.066   6.606 -10.774  1.00  0.00    -0.200 F 
ATOM     72  C   UNL     1       9.287   6.720 -12.323  1.00  0.00     0.200 A 
ATOM     73  F   UNL     1       7.485   6.791 -13.846  1.00  0.00    -0.200 F 
ATOM     74  F   UNL     1       9.618   7.981 -12.632  1.00  0.00    -0.200 F 
ENDBRANCH  50  64
BRANCH  51  75
ATOM     75  C   UNL     1       5.570  -5.196  -9.313  1.00  0.00     0.064 A 
ATOM     76  C   UNL     1       6.416  -6.313  -9.313  1.00  0.00     0.173 A 
ATOM     77  C   UNL     1       4.211  -5.409  -9.034  1.00  0.00     0.173 A 
ATOM     78  F   UNL     1       7.719  -6.166  -9.595  1.00  0.00    -0.203 F 
ATOM     79  C   UNL     1       5.921  -7.593  -9.070  1.00  0.00     0.198 A 
ATOM     80  C   UNL     1       3.723  -6.686  -8.758  1.00  0.00     0.198 A 
ATOM     81  F   UNL     1       3.357  -4.376  -9.019  1.00  0.00    -0.203 F 
ATOM     82  F   UNL     1       6.744  -8.649  -9.129  1.00  0.00    -0.200 F 
ATOM     83  C   UNL     1       4.576  -7.778  -8.787  1.00  0.00     0.200 A 
ATOM     84  F   UNL     1       2.425  -6.857  -8.471  1.00  0.00    -0.200 F 
ATOM     85  F   UNL     1       4.101  -9.008  -8.551  1.00  0.00    -0.200 F 
ENDBRANCH  51  75
BRANCH  63  86
ATOM     86  C   UNL     1       8.215  -2.257 -15.066  1.00  0.00     0.064 A 
ATOM     87  C   UNL     1       7.196  -2.580 -15.973  1.00  0.00     0.173 A 
ATOM     88  C   UNL     1       9.545  -2.383 -15.497  1.00  0.00     0.173 A 
ATOM     89  F   UNL     1       5.910  -2.489 -15.603  1.00  0.00    -0.203 F 
ATOM     90  C   UNL     1       7.498  -3.026 -17.256  1.00  0.00     0.198 A 
ATOM     91  C   UNL     1       9.842  -2.796 -16.791  1.00  0.00     0.198 A 
ATOM     92  F   UNL     1      10.556  -2.077 -14.670  1.00  0.00    -0.203 F 
ATOM     93  F   UNL     1       6.509  -3.369 -18.093  1.00  0.00    -0.200 F 
ATOM     94  C   UNL     1       8.819  -3.124 -17.668  1.00  0.00     0.200 A 
ATOM     95  F   UNL     1      11.119  -2.871 -17.193  1.00  0.00    -0.200 F 
ATOM     96  F   UNL     1       9.107  -3.536 -18.910  1.00  0.00    -0.200 F 
ENDBRANCH  63  86
ENDBRANCH  37  38
ENDBRANCH  30  32
ENDBRANCH  29  30
ENDBRANCH  28  29
ENDBRANCH  27  28
ENDBRANCH  26  27
ENDBRANCH   1  26
TORSDOF 17
