REMARK SMILES O=C(OCCOCCOC(=O)[C@]1([NH2+]C2CC2)CC[C@@H](SCCCO)C1)c1ccc(-c2c3nc(c(-c4c(F)c(F)c(F)c(F)c4F)c4ccc([nH]4)c(-c4c(F)c(F)c(F)c(F)c4F)c4nc(c(-c5c(F)c(F)c(F)c(F)c5F)c5ccc2[nH]5)C=C4)C=C3)cc1
REMARK SMILES IDX 7 1 6 2 5 3 4 4 3 5 2 6 1 7 26 8 27 9 88 10 28 11 87 12
REMARK SMILES IDX 29 13 30 14 31 15 81 16 32 17 86 18 80 19 82 20 33 21 85 22
REMARK SMILES IDX 79 23 78 24 34 26 66 27 46 28 65 29 47 30 50 31 64 32 83 33
REMARK SMILES IDX 48 34 49 35 63 37 84 38 51 39 35 40 36 41 44 42 37 43 38 44
REMARK SMILES IDX 42 45 45 46 39 47 40 48 43 49 41 50 67 51 68 52 76 53 69 54
REMARK SMILES IDX 70 55 74 56 77 57 71 58 72 59 75 60 73 61 52 62 53 63 61 64
REMARK SMILES IDX 54 65 55 66 59 67 62 68 56 69 57 70 60 71 58 72 8 73 9 74
REMARK SMILES IDX 10 75 11 76 12 77 17 78 25 79 18 80 19 81 13 82 14 85 15 86
REMARK SMILES IDX 16 87 20 88 21 89 22 90 23 91 24 92
REMARK H PARENT 82 25 50 36 13 83 13 84 24 93
REMARK Flexibility Score: inf
ROOT
ATOM      1  C   UNL     1       8.335   3.186  -4.554  1.00  0.00     0.202 C 
ENDROOT
BRANCH   1   2
ATOM      2  O   UNL     1       7.856   3.258  -3.209  1.00  0.00    -0.374 OA
BRANCH   2   3
ATOM      3  C   UNL     1       6.649   3.992  -2.994  1.00  0.00     0.202 C 
BRANCH   3   4
ATOM      4  C   UNL     1       6.878   5.414  -2.479  1.00  0.00     0.261 C 
BRANCH   4   5
ATOM      5  O   UNL     1       7.726   6.147  -3.373  1.00  0.00    -0.460 OA
BRANCH   5   6
ATOM      6  C   UNL     1       9.071   6.039  -3.478  1.00  0.00     0.338 C 
ATOM      7  O   UNL     1       9.616   6.449  -4.500  1.00  0.00    -0.246 OA
BRANCH   6   8
ATOM      8  C   UNL     1       9.947   5.501  -2.389  1.00  0.00     0.060 A 
ATOM      9  C   UNL     1       9.590   4.524  -1.455  1.00  0.00     0.016 A 
ATOM     10  C   UNL     1      11.272   5.970  -2.374  1.00  0.00     0.016 A 
ATOM     11  C   UNL     1      10.495   4.019  -0.545  1.00  0.00     0.010 A 
ATOM     12  C   UNL     1      12.195   5.478  -1.452  1.00  0.00     0.010 A 
ATOM     13  C   UNL     1      11.793   4.503  -0.535  1.00  0.00    -0.014 A 
BRANCH  13  14
ATOM     14  C   UNL     1      12.627   4.082   0.592  1.00  0.00     0.031 A 
ATOM     15  C   UNL     1      12.701   5.002   1.765  1.00  0.00     0.074 A 
ATOM     16  C   UNL     1      13.112   2.830   0.614  1.00  0.00     0.049 A 
ATOM     17  N   UNL     1      13.370   4.876   2.875  1.00  0.00    -0.248 NA
ATOM     18  C   UNL     1      11.882   6.226   1.685  1.00  0.00     0.031 C 
ATOM     19  C   UNL     1      12.902   1.827  -0.433  1.00  0.00     0.029 A 
ATOM     20  N   UNL     1      13.840   2.176   1.566  1.00  0.00    -0.354 N 
ATOM     21  C   UNL     1      13.081   6.017   3.610  1.00  0.00     0.074 A 
ATOM     22  C   UNL     1      12.175   6.824   2.828  1.00  0.00     0.031 C 
ATOM     23  C   UNL     1      13.485   0.677  -0.059  1.00  0.00     0.029 A 
ATOM     24  C   UNL     1      14.165   0.891   1.213  1.00  0.00     0.049 A 
ATOM     25  H   UNL     1      14.105   2.586   2.420  1.00  0.00     0.167 HD
ATOM     26  C   UNL     1      13.556   6.351   4.830  1.00  0.00     0.037 A 
ATOM     27  C   UNL     1      14.965   0.016   1.846  1.00  0.00     0.037 A 
ATOM     28  C   UNL     1      14.463   5.511   5.561  1.00  0.00     0.049 A 
ATOM     29  C   UNL     1      15.586   0.467   3.142  1.00  0.00     0.074 A 
ATOM     30  C   UNL     1      15.095   5.752   6.763  1.00  0.00     0.029 A 
ATOM     31  N   UNL     1      14.867   4.248   5.135  1.00  0.00    -0.354 N 
ATOM     32  N   UNL     1      15.399   1.587   3.803  1.00  0.00    -0.248 NA
ATOM     33  C   UNL     1      16.539  -0.452   3.772  1.00  0.00     0.031 C 
ATOM     34  C   UNL     1      15.925   4.659   7.037  1.00  0.00     0.029 A 
ATOM     35  C   UNL     1      15.759   3.706   6.040  1.00  0.00     0.049 A 
ATOM     36  H   UNL     1      14.562   3.807   4.309  1.00  0.00     0.167 HD
ATOM     37  C   UNL     1      16.191   1.501   4.938  1.00  0.00     0.074 A 
ATOM     38  C   UNL     1      16.845   0.206   4.881  1.00  0.00     0.031 C 
ATOM     39  C   UNL     1      16.370   2.402   5.936  1.00  0.00     0.037 A 
BRANCH  26  40
ATOM     40  C   UNL     1      13.178   7.701   5.361  1.00  0.00     0.064 A 
ATOM     41  C   UNL     1      11.871   8.009   5.768  1.00  0.00     0.173 A 
ATOM     42  C   UNL     1      14.133   8.728   5.398  1.00  0.00     0.173 A 
ATOM     43  F   UNL     1      10.909   7.075   5.715  1.00  0.00    -0.203 F 
ATOM     44  C   UNL     1      11.527   9.302   6.158  1.00  0.00     0.198 A 
ATOM     45  C   UNL     1      13.794  10.011   5.818  1.00  0.00     0.198 A 
ATOM     46  F   UNL     1      15.394   8.494   5.004  1.00  0.00    -0.203 F 
ATOM     47  F   UNL     1      10.257   9.591   6.472  1.00  0.00    -0.200 F 
ATOM     48  C   UNL     1      12.490  10.301   6.186  1.00  0.00     0.200 A 
ATOM     49  F   UNL     1      14.726  10.974   5.844  1.00  0.00    -0.200 F 
ATOM     50  F   UNL     1      12.155  11.547   6.550  1.00  0.00    -0.200 F 
ENDBRANCH  26  40
BRANCH  27  51
ATOM     51  C   UNL     1      15.267  -1.310   1.244  1.00  0.00     0.064 A 
ATOM     52  C   UNL     1      14.906  -2.503   1.884  1.00  0.00     0.173 A 
ATOM     53  C   UNL     1      15.947  -1.415   0.018  1.00  0.00     0.173 A 
ATOM     54  F   UNL     1      14.272  -2.464   3.065  1.00  0.00    -0.203 F 
ATOM     55  C   UNL     1      15.232  -3.744   1.337  1.00  0.00     0.198 A 
ATOM     56  C   UNL     1      16.242  -2.655  -0.544  1.00  0.00     0.198 A 
ATOM     57  F   UNL     1      16.322  -0.308  -0.640  1.00  0.00    -0.203 F 
ATOM     58  F   UNL     1      14.922  -4.868   1.998  1.00  0.00    -0.200 F 
ATOM     59  C   UNL     1      15.895  -3.819   0.121  1.00  0.00     0.200 A 
ATOM     60  F   UNL     1      16.870  -2.719  -1.726  1.00  0.00    -0.200 F 
ATOM     61  F   UNL     1      16.210  -5.012  -0.403  1.00  0.00    -0.200 F 
ENDBRANCH  27  51
BRANCH  39  62
ATOM     62  C   UNL     1      17.271   1.988   7.060  1.00  0.00     0.064 A 
ATOM     63  C   UNL     1      18.660   1.894   6.895  1.00  0.00     0.173 A 
ATOM     64  C   UNL     1      16.734   1.730   8.330  1.00  0.00     0.173 A 
ATOM     65  F   UNL     1      19.215   2.116   5.694  1.00  0.00    -0.203 F 
ATOM     66  C   UNL     1      19.478   1.527   7.958  1.00  0.00     0.198 A 
ATOM     67  C   UNL     1      17.559   1.401   9.399  1.00  0.00     0.198 A 
ATOM     68  F   UNL     1      15.411   1.818   8.536  1.00  0.00    -0.203 F 
ATOM     69  F   UNL     1      20.797   1.388   7.769  1.00  0.00    -0.200 F 
ATOM     70  C   UNL     1      18.928   1.291   9.210  1.00  0.00     0.200 A 
ATOM     71  F   UNL     1      17.028   1.193  10.611  1.00  0.00    -0.200 F 
ATOM     72  F   UNL     1      19.719   0.950  10.236  1.00  0.00    -0.200 F 
ENDBRANCH  39  62
ENDBRANCH  13  14
ENDBRANCH   6   8
ENDBRANCH   5   6
ENDBRANCH   4   5
ENDBRANCH   3   4
ENDBRANCH   2   3
ENDBRANCH   1   2
BRANCH   1  73
ATOM     73  C   UNL     1       8.264   1.743  -5.039  1.00  0.00     0.261 C 
BRANCH  73  74
ATOM     74  O   UNL     1       6.900   1.326  -4.940  1.00  0.00    -0.459 OA
BRANCH  74  75
ATOM     75  C   UNL     1       6.537   0.835  -3.721  1.00  0.00     0.368 C 
ATOM     76  O   UNL     1       7.332   0.400  -2.888  1.00  0.00    -0.245 OA
BRANCH  75  77
ATOM     77  C   UNL     1       4.998   0.779  -3.593  1.00  0.00     0.195 C 
ATOM     78  C   UNL     1       4.612  -0.627  -4.063  1.00  0.00     0.082 C 
ATOM     79  C   UNL     1       4.217   1.716  -4.552  1.00  0.00     0.095 C 
ATOM     80  C   UNL     1       4.352  -0.500  -5.576  1.00  0.00     0.022 C 
ATOM     81  C   UNL     1       4.154   0.988  -5.885  1.00  0.00     0.053 C 
BRANCH  77  82
ATOM     82  N   UNL     1       4.544   1.171  -2.230  1.00  0.00    -0.330 N 
ATOM     83  H   UNL     1       3.526   1.107  -2.219  1.00  0.00     0.347 HD
ATOM     84  H   UNL     1       4.929   2.105  -2.091  1.00  0.00     0.347 HD
BRANCH  82  85
ATOM     85  C   UNL     1       5.044   0.394  -1.093  1.00  0.00     0.183 C 
ATOM     86  C   UNL     1       5.929   1.040  -0.063  1.00  0.00     0.071 C 
ATOM     87  C   UNL     1       4.495   0.762   0.265  1.00  0.00     0.071 C 
ENDBRANCH  82  85
ENDBRANCH  77  82
BRANCH  81  88
ATOM     88  S   UNL     1       2.786   1.404  -7.034  1.00  0.00    -0.158 SA
BRANCH  88  89
ATOM     89  C   UNL     1       1.263   1.523  -6.019  1.00  0.00     0.072 C 
BRANCH  89  90
ATOM     90  C   UNL     1       0.623   0.181  -5.664  1.00  0.00     0.039 C 
BRANCH  90  91
ATOM     91  C   UNL     1       1.041  -0.340  -4.305  1.00  0.00     0.157 C 
BRANCH  91  92
ATOM     92  O   UNL     1       0.489   0.426  -3.247  1.00  0.00    -0.396 OA
ATOM     93  H   UNL     1       0.804   1.341  -3.312  1.00  0.00     0.210 HD
ENDBRANCH  91  92
ENDBRANCH  90  91
ENDBRANCH  89  90
ENDBRANCH  88  89
ENDBRANCH  81  88
ENDBRANCH  75  77
ENDBRANCH  74  75
ENDBRANCH  73  74
ENDBRANCH   1  73
TORSDOF 21
