REMARK SMILES O=C(OCCOCCOC(=O)c1cc(NS(=O)(=O)c2ccc3c(c2)OCCCO3)ccc1N1CCSCC1)c1ccc(-c2c3nc(c(-c4c(F)c(F)c(F)c(F)c4F)c4ccc([nH]4)c(-c4c(F)c(F)c(F)c(F)c4F)c4nc(c(-c5c(F)c(F)c(F)c(F)c5F)c5ccc2[nH]5)C=C4)C=C3)cc1
REMARK SMILES IDX 8 1 7 2 6 3 5 4 4 5 3 6 2 7 1 8 39 9 40 10 101 11 41 12
REMARK SMILES IDX 100 13 42 14 43 15 44 16 94 17 45 18 99 19 93 20 95 21 46 22
REMARK SMILES IDX 98 23 92 24 91 25 47 27 79 28 59 29 78 30 60 31 63 32 77 33
REMARK SMILES IDX 96 34 61 35 62 36 76 38 97 39 64 40 48 41 49 42 57 43 50 44
REMARK SMILES IDX 51 45 55 46 58 47 52 48 53 49 56 50 54 51 80 52 81 53 89 54
REMARK SMILES IDX 82 55 83 56 87 57 90 58 84 59 85 60 88 61 86 62 65 63 66 64
REMARK SMILES IDX 74 65 67 66 68 67 72 68 75 69 69 70 70 71 73 72 71 73 9 74
REMARK SMILES IDX 10 75 11 76 12 77 13 78 32 79 14 80 31 81 30 82 33 83 34 84
REMARK SMILES IDX 38 85 35 86 37 87 36 88 15 89 16 91 17 92 18 93 19 94 20 95
REMARK SMILES IDX 24 96 21 97 23 98 22 99 25 100 26 101 27 102 29 104 28 105
REMARK H PARENT 95 26 63 37 15 90
REMARK Flexibility Score: 90.00
ROOT
ATOM      1  C   UNL     1       2.466  -1.866   2.704  1.00  0.00     0.261 C 
ENDROOT
BRANCH   1   2
ATOM      2  C   UNL     1       2.310  -1.045   1.439  1.00  0.00     0.202 C 
BRANCH   2   3
ATOM      3  O   UNL     1       3.580  -0.480   1.113  1.00  0.00    -0.374 OA
BRANCH   3   4
ATOM      4  C   UNL     1       3.710   0.926   1.299  1.00  0.00     0.202 C 
BRANCH   4   5
ATOM      5  C   UNL     1       3.721   1.680  -0.031  1.00  0.00     0.261 C 
BRANCH   5   6
ATOM      6  O   UNL     1       2.476   1.519  -0.721  1.00  0.00    -0.460 OA
BRANCH   6   7
ATOM      7  C   UNL     1       2.076   0.416  -1.392  1.00  0.00     0.338 C 
ATOM      8  O   UNL     1       0.869   0.213  -1.526  1.00  0.00    -0.246 OA
BRANCH   7   9
ATOM      9  C   UNL     1       3.014  -0.539  -2.060  1.00  0.00     0.060 A 
ATOM     10  C   UNL     1       4.241  -0.981  -1.553  1.00  0.00     0.016 A 
ATOM     11  C   UNL     1       2.523  -1.153  -3.224  1.00  0.00     0.016 A 
ATOM     12  C   UNL     1       4.911  -2.058  -2.109  1.00  0.00     0.010 A 
ATOM     13  C   UNL     1       3.203  -2.221  -3.809  1.00  0.00     0.010 A 
ATOM     14  C   UNL     1       4.380  -2.694  -3.222  1.00  0.00    -0.014 A 
BRANCH  14  15
ATOM     15  C   UNL     1       5.127  -3.815  -3.799  1.00  0.00     0.031 A 
ATOM     16  C   UNL     1       6.010  -3.533  -4.964  1.00  0.00     0.074 A 
ATOM     17  C   UNL     1       5.048  -5.027  -3.223  1.00  0.00     0.049 A 
ATOM     18  N   UNL     1       6.652  -4.366  -5.733  1.00  0.00    -0.248 NA
ATOM     19  C   UNL     1       6.202  -2.113  -5.309  1.00  0.00     0.031 C 
ATOM     20  C   UNL     1       4.307  -5.331  -1.996  1.00  0.00     0.029 A 
ATOM     21  N   UNL     1       5.596  -6.226  -3.589  1.00  0.00    -0.354 N 
ATOM     22  C   UNL     1       7.288  -3.577  -6.678  1.00  0.00     0.074 A 
ATOM     23  C   UNL     1       6.976  -2.198  -6.380  1.00  0.00     0.031 C 
ATOM     24  C   UNL     1       4.432  -6.641  -1.723  1.00  0.00     0.029 A 
ATOM     25  C   UNL     1       5.198  -7.271  -2.792  1.00  0.00     0.049 A 
ATOM     26  H   UNL     1       6.215  -6.329  -4.348  1.00  0.00     0.167 HD
ATOM     27  C   UNL     1       8.046  -3.994  -7.713  1.00  0.00     0.037 A 
ATOM     28  C   UNL     1       5.388  -8.593  -2.962  1.00  0.00     0.037 A 
ATOM     29  C   UNL     1       8.337  -5.379  -7.959  1.00  0.00     0.049 A 
ATOM     30  C   UNL     1       6.159  -9.031  -4.183  1.00  0.00     0.074 A 
ATOM     31  C   UNL     1       9.083  -5.939  -8.977  1.00  0.00     0.029 A 
ATOM     32  N   UNL     1       7.878  -6.425  -7.166  1.00  0.00    -0.354 N 
ATOM     33  N   UNL     1       6.743  -8.295  -5.101  1.00  0.00    -0.248 NA
ATOM     34  C   UNL     1       6.278 -10.476  -4.411  1.00  0.00     0.031 C 
ATOM     35  C   UNL     1       9.023  -7.328  -8.836  1.00  0.00     0.029 A 
ATOM     36  C   UNL     1       8.291  -7.633  -7.697  1.00  0.00     0.049 A 
ATOM     37  H   UNL     1       7.340  -6.321  -6.349  1.00  0.00     0.167 HD
ATOM     38  C   UNL     1       7.307  -9.183  -6.005  1.00  0.00     0.074 A 
ATOM     39  C   UNL     1       7.022 -10.514  -5.507  1.00  0.00     0.031 C 
ATOM     40  C   UNL     1       7.986  -8.932  -7.152  1.00  0.00     0.037 A 
BRANCH  27  41
ATOM     41  C   UNL     1       8.526  -2.962  -8.685  1.00  0.00     0.064 A 
ATOM     42  C   UNL     1       9.541  -2.049  -8.370  1.00  0.00     0.173 A 
ATOM     43  C   UNL     1       7.957  -2.898  -9.966  1.00  0.00     0.173 A 
ATOM     44  F   UNL     1      10.096  -2.048  -7.148  1.00  0.00    -0.203 F 
ATOM     45  C   UNL     1       9.963  -1.102  -9.301  1.00  0.00     0.198 A 
ATOM     46  C   UNL     1       8.398  -1.968 -10.902  1.00  0.00     0.198 A 
ATOM     47  F   UNL     1       6.971  -3.741 -10.311  1.00  0.00    -0.203 F 
ATOM     48  F   UNL     1      10.907  -0.210  -8.967  1.00  0.00    -0.200 F 
ATOM     49  C   UNL     1       9.398  -1.069 -10.568  1.00  0.00     0.200 A 
ATOM     50  F   UNL     1       7.853  -1.942 -12.126  1.00  0.00    -0.200 F 
ATOM     51  F   UNL     1       9.812  -0.163 -11.465  1.00  0.00    -0.200 F 
ENDBRANCH  27  41
BRANCH  28  52
ATOM     52  C   UNL     1       4.772  -9.585  -2.037  1.00  0.00     0.064 A 
ATOM     53  C   UNL     1       5.557 -10.485  -1.302  1.00  0.00     0.173 A 
ATOM     54  C   UNL     1       3.377  -9.697  -1.914  1.00  0.00     0.173 A 
ATOM     55  F   UNL     1       6.894 -10.440  -1.397  1.00  0.00    -0.203 F 
ATOM     56  C   UNL     1       4.973 -11.479  -0.516  1.00  0.00     0.198 A 
ATOM     57  C   UNL     1       2.795 -10.666  -1.097  1.00  0.00     0.198 A 
ATOM     58  F   UNL     1       2.571  -8.869  -2.595  1.00  0.00    -0.203 F 
ATOM     59  F   UNL     1       5.748 -12.372   0.114  1.00  0.00    -0.200 F 
ATOM     60  C   UNL     1       3.593 -11.567  -0.412  1.00  0.00     0.200 A 
ATOM     61  F   UNL     1       1.461 -10.736  -0.991  1.00  0.00    -0.200 F 
ATOM     62  F   UNL     1       3.034 -12.530   0.333  1.00  0.00    -0.200 F 
ENDBRANCH  28  52
BRANCH  40  63
ATOM     63  C   UNL     1       8.473 -10.120  -7.924  1.00  0.00     0.064 A 
ATOM     64  C   UNL     1       7.589 -10.934  -8.645  1.00  0.00     0.173 A 
ATOM     65  C   UNL     1       9.845 -10.398  -8.001  1.00  0.00     0.173 A 
ATOM     66  F   UNL     1       6.266 -10.714  -8.585  1.00  0.00    -0.203 F 
ATOM     67  C   UNL     1       8.062 -11.997  -9.405  1.00  0.00     0.198 A 
ATOM     68  C   UNL     1      10.317 -11.440  -8.791  1.00  0.00     0.198 A 
ATOM     69  F   UNL     1      10.729  -9.640  -7.334  1.00  0.00    -0.203 F 
ATOM     70  F   UNL     1       7.198 -12.790 -10.054  1.00  0.00    -0.200 F 
ATOM     71  C   UNL     1       9.425 -12.242  -9.488  1.00  0.00     0.200 A 
ATOM     72  F   UNL     1      11.635 -11.662  -8.886  1.00  0.00    -0.200 F 
ATOM     73  F   UNL     1       9.880 -13.254 -10.239  1.00  0.00    -0.200 F 
ENDBRANCH  40  63
ENDBRANCH  14  15
ENDBRANCH   7   9
ENDBRANCH   6   7
ENDBRANCH   5   6
ENDBRANCH   4   5
ENDBRANCH   3   4
ENDBRANCH   2   3
ENDBRANCH   1   2
BRANCH   1  74
ATOM     74  O   UNL     1       3.025  -1.006   3.704  1.00  0.00    -0.460 OA
BRANCH  74  75
ATOM     75  C   UNL     1       4.348  -1.177   3.935  1.00  0.00     0.340 C 
ATOM     76  O   UNL     1       5.104  -1.987   3.436  1.00  0.00    -0.246 OA
BRANCH  75  77
ATOM     77  C   UNL     1       4.800  -0.147   4.878  1.00  0.00     0.085 A 
ATOM     78  C   UNL     1       5.791   0.710   4.386  1.00  0.00     0.044 A 
ATOM     79  C   UNL     1       4.286   0.015   6.163  1.00  0.00     0.052 A 
ATOM     80  C   UNL     1       6.410   1.663   5.175  1.00  0.00     0.050 A 
ATOM     81  C   UNL     1       4.893   1.011   6.952  1.00  0.00     0.029 A 
ATOM     82  C   UNL     1       5.949   1.813   6.476  1.00  0.00     0.029 A 
BRANCH  79  83
ATOM     83  N   UNL     1       3.181  -0.661   6.680  1.00  0.00    -0.369 N 
ATOM     84  C   UNL     1       3.028  -2.113   6.463  1.00  0.00     0.127 C 
ATOM     85  C   UNL     1       1.924   0.110   6.575  1.00  0.00     0.127 C 
ATOM     86  C   UNL     1       2.200  -2.751   7.574  1.00  0.00     0.091 C 
ATOM     87  C   UNL     1       0.960  -0.278   7.694  1.00  0.00     0.091 C 
ATOM     88  S   UNL     1       0.511  -2.050   7.665  1.00  0.00    -0.158 SA
ENDBRANCH  79  83
BRANCH  80  89
ATOM     89  N   UNL     1       7.329   2.612   4.625  1.00  0.00    -0.280 N 
ATOM     90  H   UNL     1       7.158   3.571   4.764  1.00  0.00     0.180 HD
BRANCH  89  91
ATOM     91  S   UNL     1       8.696   2.149   3.744  1.00  0.00     0.262 S 
ATOM     92  O   UNL     1       9.346   3.387   3.360  1.00  0.00    -0.201 OA
ATOM     93  O   UNL     1       9.419   1.153   4.504  1.00  0.00    -0.201 OA
BRANCH  91  94
ATOM     94  C   UNL     1       8.125   1.384   2.245  1.00  0.00     0.091 A 
ATOM     95  C   UNL     1       8.031   2.111   1.048  1.00  0.00     0.026 A 
ATOM     96  C   UNL     1       7.946  -0.006   2.257  1.00  0.00     0.072 A 
ATOM     97  C   UNL     1       7.907   1.417  -0.159  1.00  0.00     0.052 A 
ATOM     98  C   UNL     1       7.690  -0.661   1.074  1.00  0.00     0.162 A 
ATOM     99  C   UNL     1       7.847   0.026  -0.121  1.00  0.00     0.161 A 
BRANCH  98 100
ATOM    100  O   UNL     1       7.416  -1.994   1.024  1.00  0.00    -0.490 OA
BRANCH 100 101
ATOM    101  C   UNL     1       8.612  -2.753   1.113  1.00  0.00     0.233 C 
BRANCH 101 102
ATOM    102  C   UNL     1       9.544  -2.597  -0.093  1.00  0.00     0.083 CG0
ATOM    103  G   UNL     1       9.613  -1.224  -0.778  1.00  0.00     0.000 G0
ENDBRANCH 101 102
ENDBRANCH 100 101
ENDBRANCH  98 100
BRANCH  99 104
ATOM    104  O   UNL     1       8.323  -0.698  -1.195  1.00  0.00    -0.490 OA
BRANCH 104 105
ATOM    105  C   UNL     1       9.613  -1.224  -0.778  1.00  0.00     0.233 CG0
ATOM    106  G   UNL     1       9.544  -2.597  -0.093  1.00  0.00     0.000 G0
ENDBRANCH 104 105
ENDBRANCH  99 104
ENDBRANCH  91  94
ENDBRANCH  89  91
ENDBRANCH  80  89
ENDBRANCH  75  77
ENDBRANCH  74  75
ENDBRANCH   1  74
TORSDOF 18
