REMARK SMILES C[C@H](C(=O)OCCOCCOC(=O)c1ccc(-c2c3nc(c(-c4c(F)c(F)c(F)c(F)c4F)c4ccc([nH]4)c(-c4c(F)c(F)c(F)c(F)c4F)c4nc(c(-c5c(F)c(F)c(F)c(F)c5F)c5ccc2[nH]5)C=C4)C=C3)cc1)[C@H](C)[NH+]1CCN(c2ccccc2Cl)CC1
REMARK SMILES IDX 7 1 6 2 5 3 3 4 4 5 2 6 1 7 77 8 78 9 79 10 80 11 91 12
REMARK SMILES IDX 81 14 90 15 82 16 83 17 84 18 88 19 85 20 87 21 89 22 86 23
REMARK SMILES IDX 8 24 9 25 10 26 11 27 12 28 13 29 14 30 15 31 76 32 16 33
REMARK SMILES IDX 75 34 17 35 18 36 19 37 69 38 20 39 74 40 68 41 70 42 21 43
REMARK SMILES IDX 73 44 67 45 66 46 22 48 54 49 34 50 53 51 35 52 38 53 52 54
REMARK SMILES IDX 71 55 36 56 37 57 51 59 72 60 39 61 23 62 24 63 32 64 25 65
REMARK SMILES IDX 26 66 30 67 33 68 27 69 28 70 31 71 29 72 55 73 56 74 64 75
REMARK SMILES IDX 57 76 58 77 62 78 65 79 59 80 60 81 63 82 61 83 40 84 41 85
REMARK SMILES IDX 49 86 42 87 43 88 47 89 50 90 44 91 45 92 48 93 46 94
REMARK H PARENT 79 13 70 47 38 58
REMARK Flexibility Score: inf
ROOT
ATOM      1  C   UNL     1       2.518  -2.136  -1.599  1.00  0.00     0.202 C 
ENDROOT
BRANCH   1   2
ATOM      2  C   UNL     1       1.264  -1.477  -2.164  1.00  0.00     0.261 C 
BRANCH   2   3
ATOM      3  O   UNL     1       0.365  -1.165  -1.083  1.00  0.00    -0.463 OA
BRANCH   3   4
ATOM      4  C   UNL     1      -0.945  -1.358  -1.329  1.00  0.00     0.314 C 
ATOM      5  O   UNL     1      -1.378  -1.679  -2.434  1.00  0.00    -0.252 OA
BRANCH   4   6
ATOM      6  C   UNL     1      -1.880  -1.207  -0.113  1.00  0.00     0.154 C 
ATOM      7  C   UNL     1      -2.697  -2.510  -0.051  1.00  0.00     0.026 C 
BRANCH   6   8
ATOM      8  C   UNL     1      -1.447  -0.411   1.226  1.00  0.00     0.195 C 
ATOM      9  C   UNL     1      -0.132   0.380   1.061  1.00  0.00     0.076 C 
BRANCH   8  10
ATOM     10  N   UNL     1      -1.736  -0.788   2.641  1.00  0.00    -0.329 N 
ATOM     11  C   UNL     1      -2.408  -2.037   2.991  1.00  0.00     0.284 C 
ATOM     12  C   UNL     1      -0.760  -0.504   3.723  1.00  0.00     0.284 C 
ATOM     13  H   UNL     1      -2.438  -0.049   2.605  1.00  0.00     0.348 HD
ATOM     14  C   UNL     1      -1.419  -3.219   3.057  1.00  0.00     0.178 C 
ATOM     15  C   UNL     1       0.259  -1.640   4.024  1.00  0.00     0.178 C 
ATOM     16  N   UNL     1      -0.395  -2.962   4.075  1.00  0.00    -0.359 N 
BRANCH  16  17
ATOM     17  C   UNL     1       0.267  -4.055   4.631  1.00  0.00     0.056 A 
ATOM     18  C   UNL     1       0.658  -5.141   3.821  1.00  0.00     0.027 A 
ATOM     19  C   UNL     1       0.514  -4.178   6.015  1.00  0.00     0.064 A 
ATOM     20  C   UNL     1       1.265  -6.285   4.349  1.00  0.00     0.002 A 
ATOM     21  C   UNL     1       1.111  -5.331   6.548  1.00  0.00     0.023 A 
ATOM     22  Cl  UNL     1      -0.006  -2.975   7.149  1.00  0.00    -0.082 Cl
ATOM     23  C   UNL     1       1.486  -6.383   5.716  1.00  0.00     0.002 A 
ENDBRANCH  16  17
ENDBRANCH   8  10
ENDBRANCH   6   8
ENDBRANCH   4   6
ENDBRANCH   3   4
ENDBRANCH   2   3
ENDBRANCH   1   2
BRANCH   1  24
ATOM     24  O   UNL     1       2.283  -3.415  -1.007  1.00  0.00    -0.374 OA
BRANCH  24  25
ATOM     25  C   UNL     1       1.706  -3.428   0.302  1.00  0.00     0.202 C 
BRANCH  25  26
ATOM     26  C   UNL     1       2.691  -3.102   1.426  1.00  0.00     0.261 C 
BRANCH  26  27
ATOM     27  O   UNL     1       3.054  -1.710   1.402  1.00  0.00    -0.460 OA
BRANCH  27  28
ATOM     28  C   UNL     1       4.381  -1.479   1.359  1.00  0.00     0.338 C 
ATOM     29  O   UNL     1       5.285  -2.297   1.512  1.00  0.00    -0.246 OA
BRANCH  28  30
ATOM     30  C   UNL     1       4.641  -0.112   0.885  1.00  0.00     0.060 A 
ATOM     31  C   UNL     1       5.434   0.015  -0.261  1.00  0.00     0.016 A 
ATOM     32  C   UNL     1       4.196   1.019   1.574  1.00  0.00     0.016 A 
ATOM     33  C   UNL     1       5.852   1.272  -0.680  1.00  0.00     0.010 A 
ATOM     34  C   UNL     1       4.620   2.286   1.150  1.00  0.00     0.010 A 
ATOM     35  C   UNL     1       5.489   2.412   0.050  1.00  0.00    -0.014 A 
BRANCH  35  36
ATOM     36  C   UNL     1       6.169   3.693  -0.264  1.00  0.00     0.031 A 
ATOM     37  C   UNL     1       7.325   4.136   0.592  1.00  0.00     0.074 A 
ATOM     38  C   UNL     1       5.831   4.397  -1.359  1.00  0.00     0.049 A 
ATOM     39  N   UNL     1       8.120   5.166   0.448  1.00  0.00    -0.248 NA
ATOM     40  C   UNL     1       7.631   3.302   1.765  1.00  0.00     0.031 C 
ATOM     41  C   UNL     1       4.758   4.046  -2.287  1.00  0.00     0.029 A 
ATOM     42  N   UNL     1       6.370   5.545  -1.884  1.00  0.00    -0.354 N 
ATOM     43  C   UNL     1       9.017   5.102   1.507  1.00  0.00     0.074 A 
ATOM     44  C   UNL     1       8.648   3.955   2.307  1.00  0.00     0.031 C 
ATOM     45  C   UNL     1       4.725   4.954  -3.277  1.00  0.00     0.029 A 
ATOM     46  C   UNL     1       5.755   5.963  -3.038  1.00  0.00     0.049 A 
ATOM     47  H   UNL     1       7.126   6.023  -1.472  1.00  0.00     0.167 HD
ATOM     48  C   UNL     1      10.064   5.917   1.778  1.00  0.00     0.037 A 
ATOM     49  C   UNL     1       5.995   7.042  -3.809  1.00  0.00     0.037 A 
ATOM     50  C   UNL     1      10.436   7.053   0.975  1.00  0.00     0.049 A 
ATOM     51  C   UNL     1       7.124   7.972  -3.445  1.00  0.00     0.074 A 
ATOM     52  C   UNL     1      11.495   7.925   1.153  1.00  0.00     0.029 A 
ATOM     53  N   UNL     1       9.752   7.479  -0.154  1.00  0.00    -0.354 N 
ATOM     54  N   UNL     1       7.991   7.881  -2.465  1.00  0.00    -0.248 NA
ATOM     55  C   UNL     1       7.312   9.153  -4.300  1.00  0.00     0.031 C 
ATOM     56  C   UNL     1      11.418   8.913   0.166  1.00  0.00     0.029 A 
ATOM     57  C   UNL     1      10.347   8.622  -0.663  1.00  0.00     0.049 A 
ATOM     58  H   UNL     1       8.961   7.035  -0.536  1.00  0.00     0.167 HD
ATOM     59  C   UNL     1       8.841   8.971  -2.602  1.00  0.00     0.074 A 
ATOM     60  C   UNL     1       8.396   9.702  -3.770  1.00  0.00     0.031 C 
ATOM     61  C   UNL     1       9.896   9.334  -1.832  1.00  0.00     0.037 A 
BRANCH  48  62
ATOM     62  C   UNL     1      10.870   5.627   3.011  1.00  0.00     0.064 A 
ATOM     63  C   UNL     1      11.722   4.516   3.095  1.00  0.00     0.173 A 
ATOM     64  C   UNL     1      10.819   6.498   4.110  1.00  0.00     0.173 A 
ATOM     65  F   UNL     1      11.799   3.645   2.077  1.00  0.00    -0.203 F 
ATOM     66  C   UNL     1      12.473   4.274   4.243  1.00  0.00     0.198 A 
ATOM     67  C   UNL     1      11.594   6.269   5.244  1.00  0.00     0.198 A 
ATOM     68  F   UNL     1      10.024   7.578   4.081  1.00  0.00    -0.203 F 
ATOM     69  F   UNL     1      13.246   3.181   4.318  1.00  0.00    -0.200 F 
ATOM     70  C   UNL     1      12.414   5.154   5.313  1.00  0.00     0.200 A 
ATOM     71  F   UNL     1      11.545   7.129   6.271  1.00  0.00    -0.200 F 
ATOM     72  F   UNL     1      13.145   4.925   6.413  1.00  0.00    -0.200 F 
ENDBRANCH  48  62
BRANCH  49  73
ATOM     73  C   UNL     1       5.149   7.307  -5.003  1.00  0.00     0.064 A 
ATOM     74  C   UNL     1       5.677   7.236  -6.299  1.00  0.00     0.173 A 
ATOM     75  C   UNL     1       3.799   7.662  -4.868  1.00  0.00     0.173 A 
ATOM     76  F   UNL     1       6.970   6.926  -6.480  1.00  0.00    -0.203 F 
ATOM     77  C   UNL     1       4.893   7.528  -7.413  1.00  0.00     0.198 A 
ATOM     78  C   UNL     1       3.007   7.924  -5.984  1.00  0.00     0.198 A 
ATOM     79  F   UNL     1       3.244   7.747  -3.650  1.00  0.00    -0.203 F 
ATOM     80  F   UNL     1       5.436   7.501  -8.638  1.00  0.00    -0.200 F 
ATOM     81  C   UNL     1       3.557   7.866  -7.256  1.00  0.00     0.200 A 
ATOM     82  F   UNL     1       1.714   8.238  -5.827  1.00  0.00    -0.200 F 
ATOM     83  F   UNL     1       2.803   8.145  -8.327  1.00  0.00    -0.200 F 
ENDBRANCH  49  73
BRANCH  61  84
ATOM     84  C   UNL     1      10.666  10.557  -2.244  1.00  0.00     0.064 A 
ATOM     85  C   UNL     1      10.129  11.846  -2.115  1.00  0.00     0.173 A 
ATOM     86  C   UNL     1      11.975  10.438  -2.736  1.00  0.00     0.173 A 
ATOM     87  F   UNL     1       8.877  12.013  -1.662  1.00  0.00    -0.203 F 
ATOM     88  C   UNL     1      10.864  12.969  -2.488  1.00  0.00     0.198 A 
ATOM     89  C   UNL     1      12.719  11.564  -3.077  1.00  0.00     0.198 A 
ATOM     90  F   UNL     1      12.540   9.229  -2.872  1.00  0.00    -0.203 F 
ATOM     91  F   UNL     1      10.311  14.187  -2.402  1.00  0.00    -0.200 F 
ATOM     92  C   UNL     1      12.160  12.828  -2.961  1.00  0.00     0.200 A 
ATOM     93  F   UNL     1      13.976  11.427  -3.519  1.00  0.00    -0.200 F 
ATOM     94  F   UNL     1      12.868  13.910  -3.312  1.00  0.00    -0.200 F 
ENDBRANCH  61  84
ENDBRANCH  35  36
ENDBRANCH  28  30
ENDBRANCH  27  28
ENDBRANCH  26  27
ENDBRANCH  25  26
ENDBRANCH  24  25
ENDBRANCH   1  24
TORSDOF 17
