REMARK SMILES O=C(OCCOCCOC(=O)c1ccc(-c2c3nc(c(-c4c(F)c(F)c(F)c(F)c4F)c4ccc([nH]4)c(-c4c(F)c(F)c(F)c(F)c4F)c4nc(c(-c5c(F)c(F)c(F)c(F)c5F)c5ccc2[nH]5)C=C4)C=C3)cc1)C1=NN(c2ccc(S(=O)(=O)[O-])cc2)C(=O)/C1=C\Nc1ccccc1
REMARK SMILES IDX 6 1 5 2 4 3 3 4 2 5 1 6 75 7 76 8 90 9 77 10 88 11 91 12
REMARK SMILES IDX 89 13 78 14 79 15 87 16 80 17 86 18 81 19 82 20 83 21 84 22
REMARK SMILES IDX 85 23 92 24 93 26 94 27 98 28 95 29 97 30 96 31 7 32 8 33
REMARK SMILES IDX 9 34 10 35 11 36 12 37 13 38 74 39 14 40 73 41 15 42 16 43
REMARK SMILES IDX 17 44 67 45 18 46 72 47 66 48 68 49 19 50 71 51 65 52 64 53
REMARK SMILES IDX 20 55 52 56 32 57 51 58 33 59 36 60 50 61 69 62 34 63 35 64
REMARK SMILES IDX 49 66 70 67 37 68 21 69 22 70 30 71 23 72 24 73 28 74 31 75
REMARK SMILES IDX 25 76 26 77 29 78 27 79 53 80 54 81 62 82 55 83 56 84 60 85
REMARK SMILES IDX 63 86 57 87 58 88 61 89 59 90 38 91 39 92 47 93 40 94 41 95
REMARK SMILES IDX 45 96 48 97 42 98 43 99 46 100 44 101
REMARK H PARENT 92 25 68 54 36 65
REMARK Flexibility Score: inf
ROOT
ATOM      1  O   UNL     1       3.429   1.239   0.445  1.00  0.00    -0.374 OA
ENDROOT
BRANCH   1   2
ATOM      2  C   UNL     1       4.084   1.068  -0.802  1.00  0.00     0.202 C 
BRANCH   2   3
ATOM      3  C   UNL     1       4.247  -0.423  -1.096  1.00  0.00     0.261 C 
BRANCH   3   4
ATOM      4  O   UNL     1       3.046  -1.139  -0.793  1.00  0.00    -0.458 OA
BRANCH   4   5
ATOM      5  C   UNL     1       2.632  -1.177   0.488  1.00  0.00     0.359 C 
ATOM      6  O   UNL     1       1.450  -1.099   0.800  1.00  0.00    -0.244 OA
BRANCH   5   7
ATOM      7  C   UNL     1       3.605  -1.669   1.530  1.00  0.00     0.183 C 
ATOM      8  N   UNL     1       3.561  -2.955   1.759  1.00  0.00    -0.157 NA
ATOM      9  C   UNL     1       4.472  -0.954   2.511  1.00  0.00     0.093 C 
ATOM     10  N   UNL     1       4.237  -3.157   2.939  1.00  0.00    -0.196 N 
ATOM     11  C   UNL     1       4.948  -2.047   3.398  1.00  0.00     0.282 C 
ATOM     12  C   UNL     1       4.814   0.308   2.823  1.00  0.00     0.099 C 
ATOM     13  O   UNL     1       5.709  -1.935   4.345  1.00  0.00    -0.267 OA
BRANCH  10  14
ATOM     14  C   UNL     1       3.685  -4.166   3.758  1.00  0.00     0.069 A 
ATOM     15  C   UNL     1       3.093  -5.294   3.168  1.00  0.00     0.030 A 
ATOM     16  C   UNL     1       3.548  -3.961   5.138  1.00  0.00     0.030 A 
ATOM     17  C   UNL     1       2.404  -6.221   3.948  1.00  0.00     0.021 A 
ATOM     18  C   UNL     1       2.833  -4.867   5.920  1.00  0.00     0.021 A 
ATOM     19  C   UNL     1       2.284  -6.001   5.322  1.00  0.00     0.054 A 
BRANCH  19  20
ATOM     20  S   UNL     1       1.431  -7.201   6.296  1.00  0.00     0.124 S 
ATOM     21  O   UNL     1       0.068  -7.276   5.822  1.00  0.00    -0.237 OA
ATOM     22  O   UNL     1       2.277  -8.371   6.381  1.00  0.00    -0.237 OA
ATOM     23  O   UNL     1       1.379  -6.595   7.791  1.00  0.00    -0.744 OA
ENDBRANCH  19  20
ENDBRANCH  10  14
BRANCH  12  24
ATOM     24  N   UNL     1       5.720   0.774   3.767  1.00  0.00    -0.361 N 
ATOM     25  H   UNL     1       6.145   0.104   4.349  1.00  0.00     0.166 HD
BRANCH  24  26
ATOM     26  C   UNL     1       6.086   2.121   3.965  1.00  0.00     0.038 A 
ATOM     27  C   UNL     1       7.424   2.511   3.821  1.00  0.00     0.026 A 
ATOM     28  C   UNL     1       5.130   3.122   4.186  1.00  0.00     0.026 A 
ATOM     29  C   UNL     1       7.790   3.864   3.855  1.00  0.00     0.002 A 
ATOM     30  C   UNL     1       5.492   4.475   4.229  1.00  0.00     0.002 A 
ATOM     31  C   UNL     1       6.821   4.847   4.050  1.00  0.00     0.000 A 
ENDBRANCH  24  26
ENDBRANCH  12  24
ENDBRANCH   5   7
ENDBRANCH   4   5
ENDBRANCH   3   4
ENDBRANCH   2   3
ENDBRANCH   1   2
BRANCH   1  32
ATOM     32  C   UNL     1       2.172   1.913   0.478  1.00  0.00     0.202 C 
BRANCH  32  33
ATOM     33  C   UNL     1       2.278   3.148   1.371  1.00  0.00     0.261 C 
BRANCH  33  34
ATOM     34  O   UNL     1       2.970   4.178   0.665  1.00  0.00    -0.460 OA
BRANCH  34  35
ATOM     35  C   UNL     1       4.310   4.028   0.579  1.00  0.00     0.338 C 
ATOM     36  O   UNL     1       5.040   3.336   1.264  1.00  0.00    -0.246 OA
BRANCH  35  37
ATOM     37  C   UNL     1       4.753   4.617  -0.686  1.00  0.00     0.060 A 
ATOM     38  C   UNL     1       5.912   4.099  -1.286  1.00  0.00     0.016 A 
ATOM     39  C   UNL     1       3.976   5.587  -1.319  1.00  0.00     0.016 A 
ATOM     40  C   UNL     1       6.298   4.550  -2.537  1.00  0.00     0.010 A 
ATOM     41  C   UNL     1       4.353   6.030  -2.568  1.00  0.00     0.010 A 
ATOM     42  C   UNL     1       5.523   5.529  -3.160  1.00  0.00    -0.014 A 
BRANCH  42  43
ATOM     43  C   UNL     1       5.988   6.210  -4.370  1.00  0.00     0.031 A 
ATOM     44  C   UNL     1       6.526   7.590  -4.201  1.00  0.00     0.074 A 
ATOM     45  C   UNL     1       5.764   5.652  -5.567  1.00  0.00     0.049 A 
ATOM     46  N   UNL     1       6.721   8.518  -5.093  1.00  0.00    -0.248 NA
ATOM     47  C   UNL     1       6.834   7.997  -2.817  1.00  0.00     0.031 C 
ATOM     48  C   UNL     1       5.234   4.307  -5.785  1.00  0.00     0.029 A 
ATOM     49  N   UNL     1       5.895   6.179  -6.820  1.00  0.00    -0.354 N 
ATOM     50  C   UNL     1       7.139   9.630  -4.378  1.00  0.00     0.074 A 
ATOM     51  C   UNL     1       7.134   9.274  -2.977  1.00  0.00     0.031 C 
ATOM     52  C   UNL     1       5.042   4.128  -7.102  1.00  0.00     0.029 A 
ATOM     53  C   UNL     1       5.386   5.365  -7.798  1.00  0.00     0.049 A 
ATOM     54  H   UNL     1       6.311   7.053  -7.002  1.00  0.00     0.167 HD
ATOM     55  C   UNL     1       7.489  10.841  -4.865  1.00  0.00     0.037 A 
ATOM     56  C   UNL     1       5.178   5.626  -9.101  1.00  0.00     0.037 A 
ATOM     57  C   UNL     1       7.463  11.149  -6.269  1.00  0.00     0.049 A 
ATOM     58  C   UNL     1       5.557   6.984  -9.624  1.00  0.00     0.074 A 
ATOM     59  C   UNL     1       7.843  12.313  -6.906  1.00  0.00     0.029 A 
ATOM     60  N   UNL     1       7.009  10.277  -7.253  1.00  0.00    -0.354 N 
ATOM     61  N   UNL     1       6.007   8.027  -8.965  1.00  0.00    -0.248 NA
ATOM     62  C   UNL     1       5.407   7.203 -11.066  1.00  0.00     0.031 C 
ATOM     63  C   UNL     1       7.557  12.169  -8.268  1.00  0.00     0.029 A 
ATOM     64  C   UNL     1       7.071  10.888  -8.492  1.00  0.00     0.049 A 
ATOM     65  H   UNL     1       6.690   9.360  -7.091  1.00  0.00     0.167 HD
ATOM     66  C   UNL     1       6.227   9.016  -9.913  1.00  0.00     0.074 A 
ATOM     67  C   UNL     1       5.857   8.444 -11.194  1.00  0.00     0.031 C 
ATOM     68  C   UNL     1       6.699  10.277  -9.746  1.00  0.00     0.037 A 
BRANCH  55  69
ATOM     69  C   UNL     1       7.869  11.901  -3.872  1.00  0.00     0.064 A 
ATOM     70  C   UNL     1       9.006  11.786  -3.057  1.00  0.00     0.173 A 
ATOM     71  C   UNL     1       7.062  13.037  -3.708  1.00  0.00     0.173 A 
ATOM     72  F   UNL     1       9.804  10.711  -3.155  1.00  0.00    -0.203 F 
ATOM     73  C   UNL     1       9.292  12.740  -2.083  1.00  0.00     0.198 A 
ATOM     74  C   UNL     1       7.373  14.009  -2.761  1.00  0.00     0.198 A 
ATOM     75  F   UNL     1       5.960  13.199  -4.456  1.00  0.00    -0.203 F 
ATOM     76  F   UNL     1      10.337  12.565  -1.262  1.00  0.00    -0.200 F 
ATOM     77  C   UNL     1       8.478  13.853  -1.939  1.00  0.00     0.200 A 
ATOM     78  F   UNL     1       6.591  15.090  -2.632  1.00  0.00    -0.200 F 
ATOM     79  F   UNL     1       8.751  14.768  -0.999  1.00  0.00    -0.200 F 
ENDBRANCH  55  69
BRANCH  56  80
ATOM     80  C   UNL     1       4.587   4.576  -9.966  1.00  0.00     0.064 A 
ATOM     81  C   UNL     1       5.369   3.904 -10.914  1.00  0.00     0.173 A 
ATOM     82  C   UNL     1       3.252   4.171  -9.815  1.00  0.00     0.173 A 
ATOM     83  F   UNL     1       6.648   4.261 -11.098  1.00  0.00    -0.203 F 
ATOM     84  C   UNL     1       4.838   2.870 -11.682  1.00  0.00     0.198 A 
ATOM     85  C   UNL     1       2.729   3.120 -10.565  1.00  0.00     0.198 A 
ATOM     86  F   UNL     1       2.466   4.771  -8.909  1.00  0.00    -0.203 F 
ATOM     87  F   UNL     1       5.602   2.258 -12.596  1.00  0.00    -0.200 F 
ATOM     88  C   UNL     1       3.521   2.473 -11.501  1.00  0.00     0.200 A 
ATOM     89  F   UNL     1       1.464   2.724 -10.369  1.00  0.00    -0.200 F 
ATOM     90  F   UNL     1       3.018   1.464 -12.225  1.00  0.00    -0.200 F 
ENDBRANCH  56  80
BRANCH  68  91
ATOM     91  C   UNL     1       6.892  11.107 -10.981  1.00  0.00     0.064 A 
ATOM     92  C   UNL     1       5.809  11.642 -11.692  1.00  0.00     0.173 A 
ATOM     93  C   UNL     1       8.189  11.438 -11.404  1.00  0.00     0.173 A 
ATOM     94  F   UNL     1       4.552  11.343 -11.334  1.00  0.00    -0.203 F 
ATOM     95  C   UNL     1       6.019  12.469 -12.792  1.00  0.00     0.198 A 
ATOM     96  C   UNL     1       8.394  12.292 -12.482  1.00  0.00     0.198 A 
ATOM     97  F   UNL     1       9.258  10.958 -10.750  1.00  0.00    -0.203 F 
ATOM     98  F   UNL     1       4.971  12.940 -13.482  1.00  0.00    -0.200 F 
ATOM     99  C   UNL     1       7.309  12.803 -13.178  1.00  0.00     0.200 A 
ATOM    100  F   UNL     1       9.640  12.630 -12.839  1.00  0.00    -0.200 F 
ATOM    101  F   UNL     1       7.507  13.617 -14.224  1.00  0.00    -0.200 F 
ENDBRANCH  68  91
ENDBRANCH  42  43
ENDBRANCH  35  37
ENDBRANCH  34  35
ENDBRANCH  33  34
ENDBRANCH  32  33
ENDBRANCH   1  32
TORSDOF 18
