REMARK SMILES O=C(OCCOCCOC(=O)[C@H]1CC[C@@H](CNc2cccc(F)c2[N+](=O)[O-])O1)c1ccc(-c2c3nc(c(-c4c(F)c(F)c(F)c(F)c4F)c4ccc([nH]4)c(-c4c(F)c(F)c(F)c(F)c4F)c4nc(c(-c5c(F)c(F)c(F)c(F)c5F)c5ccc2[nH]5)C=C4)C=C3)cc1
REMARK SMILES IDX 7 1 6 2 5 3 4 4 3 5 2 6 1 7 29 8 30 9 91 10 31 11 90 12
REMARK SMILES IDX 32 13 33 14 34 15 84 16 35 17 89 18 83 19 85 20 36 21 88 22
REMARK SMILES IDX 82 23 81 24 37 26 69 27 49 28 68 29 50 30 53 31 67 32 86 33
REMARK SMILES IDX 51 34 52 35 66 37 87 38 54 39 38 40 39 41 47 42 40 43 41 44
REMARK SMILES IDX 45 45 48 46 42 47 43 48 46 49 44 50 70 51 71 52 79 53 72 54
REMARK SMILES IDX 73 55 77 56 80 57 74 58 75 59 78 60 76 61 55 62 56 63 64 64
REMARK SMILES IDX 57 65 58 66 62 67 65 68 59 69 60 70 63 71 61 72 8 73 9 74
REMARK SMILES IDX 10 75 11 76 12 77 13 78 28 79 14 80 15 81 16 82 17 83 18 85
REMARK SMILES IDX 19 86 24 87 20 88 22 89 21 90 23 91 25 92 26 93 27 94
REMARK H PARENT 85 25 53 36 17 84
REMARK Flexibility Score: inf
ROOT
ATOM      1  C   UNL     1       4.807   1.150   6.782  1.00  0.00     0.202 C 
ENDROOT
BRANCH   1   2
ATOM      2  O   UNL     1       3.680   0.742   6.000  1.00  0.00    -0.374 OA
BRANCH   2   3
ATOM      3  C   UNL     1       3.005   1.771   5.277  1.00  0.00     0.202 C 
BRANCH   3   4
ATOM      4  C   UNL     1       1.964   2.568   6.063  1.00  0.00     0.261 C 
BRANCH   4   5
ATOM      5  O   UNL     1       2.590   3.215   7.186  1.00  0.00    -0.460 OA
BRANCH   5   6
ATOM      6  C   UNL     1       2.419   2.938   8.499  1.00  0.00     0.338 C 
ATOM      7  O   UNL     1       2.943   3.655   9.346  1.00  0.00    -0.246 OA
BRANCH   6   8
ATOM      8  C   UNL     1       1.619   1.773   8.963  1.00  0.00     0.060 A 
ATOM      9  C   UNL     1       1.568   0.558   8.280  1.00  0.00     0.016 A 
ATOM     10  C   UNL     1       0.983   1.865  10.210  1.00  0.00     0.016 A 
ATOM     11  C   UNL     1       0.858  -0.519   8.769  1.00  0.00     0.010 A 
ATOM     12  C   UNL     1       0.319   0.759  10.749  1.00  0.00     0.010 A 
ATOM     13  C   UNL     1       0.264  -0.436  10.023  1.00  0.00    -0.014 A 
BRANCH  13  14
ATOM     14  C   UNL     1      -0.389  -1.650  10.532  1.00  0.00     0.031 A 
ATOM     15  C   UNL     1      -1.875  -1.744  10.486  1.00  0.00     0.074 A 
ATOM     16  C   UNL     1       0.387  -2.694  10.877  1.00  0.00     0.049 A 
ATOM     17  N   UNL     1      -2.649  -2.699  10.922  1.00  0.00    -0.248 NA
ATOM     18  C   UNL     1      -2.591  -0.627   9.845  1.00  0.00     0.031 C 
ATOM     19  C   UNL     1       1.853  -2.711  10.802  1.00  0.00     0.029 A 
ATOM     20  N   UNL     1       0.065  -3.949  11.316  1.00  0.00    -0.354 N 
ATOM     21  C   UNL     1      -3.941  -2.286  10.639  1.00  0.00     0.074 A 
ATOM     22  C   UNL     1      -3.855  -1.005   9.976  1.00  0.00     0.031 C 
ATOM     23  C   UNL     1       2.297  -3.926  11.154  1.00  0.00     0.029 A 
ATOM     24  C   UNL     1       1.161  -4.739  11.567  1.00  0.00     0.049 A 
ATOM     25  H   UNL     1      -0.862  -4.256  11.440  1.00  0.00     0.167 HD
ATOM     26  C   UNL     1      -5.090  -2.932  10.934  1.00  0.00     0.037 A 
ATOM     27  C   UNL     1       1.229  -5.963  12.121  1.00  0.00     0.037 A 
ATOM     28  C   UNL     1      -5.126  -4.212  11.585  1.00  0.00     0.049 A 
ATOM     29  C   UNL     1      -0.064  -6.609  12.536  1.00  0.00     0.074 A 
ATOM     30  C   UNL     1      -6.224  -4.944  11.990  1.00  0.00     0.029 A 
ATOM     31  N   UNL     1      -3.998  -4.949  11.922  1.00  0.00    -0.354 N 
ATOM     32  N   UNL     1      -1.292  -6.183  12.347  1.00  0.00    -0.248 NA
ATOM     33  C   UNL     1       0.028  -7.875  13.272  1.00  0.00     0.031 C 
ATOM     34  C   UNL     1      -5.759  -6.107  12.612  1.00  0.00     0.029 A 
ATOM     35  C   UNL     1      -4.372  -6.117  12.559  1.00  0.00     0.049 A 
ATOM     36  H   UNL     1      -3.069  -4.679  11.735  1.00  0.00     0.167 HD
ATOM     37  C   UNL     1      -2.118  -7.118  12.948  1.00  0.00     0.074 A 
ATOM     38  C   UNL     1      -1.253  -8.154  13.480  1.00  0.00     0.031 C 
ATOM     39  C   UNL     1      -3.467  -7.116  13.070  1.00  0.00     0.037 A 
BRANCH  26  40
ATOM     40  C   UNL     1      -6.379  -2.240  10.625  1.00  0.00     0.064 A 
ATOM     41  C   UNL     1      -7.124  -1.658  11.662  1.00  0.00     0.173 A 
ATOM     42  C   UNL     1      -6.899  -2.181   9.326  1.00  0.00     0.173 A 
ATOM     43  F   UNL     1      -6.662  -1.680  12.921  1.00  0.00    -0.203 F 
ATOM     44  C   UNL     1      -8.353  -1.057  11.410  1.00  0.00     0.198 A 
ATOM     45  C   UNL     1      -8.121  -1.563   9.075  1.00  0.00     0.198 A 
ATOM     46  F   UNL     1      -6.209  -2.700   8.299  1.00  0.00    -0.203 F 
ATOM     47  F   UNL     1      -9.056  -0.524  12.419  1.00  0.00    -0.200 F 
ATOM     48  C   UNL     1      -8.851  -1.009  10.117  1.00  0.00     0.200 A 
ATOM     49  F   UNL     1      -8.592  -1.495   7.821  1.00  0.00    -0.200 F 
ATOM     50  F   UNL     1     -10.032  -0.424   9.874  1.00  0.00    -0.200 F 
ENDBRANCH  26  40
BRANCH  27  51
ATOM     51  C   UNL     1       2.550  -6.592  12.393  1.00  0.00     0.064 A 
ATOM     52  C   UNL     1       3.461  -6.006  13.288  1.00  0.00     0.173 A 
ATOM     53  C   UNL     1       2.938  -7.782  11.764  1.00  0.00     0.173 A 
ATOM     54  F   UNL     1       3.141  -4.869  13.925  1.00  0.00    -0.203 F 
ATOM     55  C   UNL     1       4.714  -6.568  13.521  1.00  0.00     0.198 A 
ATOM     56  C   UNL     1       4.181  -8.362  12.024  1.00  0.00     0.198 A 
ATOM     57  F   UNL     1       2.100  -8.397  10.918  1.00  0.00    -0.203 F 
ATOM     58  F   UNL     1       5.574  -5.961  14.351  1.00  0.00    -0.200 F 
ATOM     59  C   UNL     1       5.070  -7.750  12.894  1.00  0.00     0.200 A 
ATOM     60  F   UNL     1       4.512  -9.521  11.438  1.00  0.00    -0.200 F 
ATOM     61  F   UNL     1       6.267  -8.303  13.135  1.00  0.00    -0.200 F 
ENDBRANCH  27  51
BRANCH  39  62
ATOM     62  C   UNL     1      -4.085  -8.255  13.816  1.00  0.00     0.064 A 
ATOM     63  C   UNL     1      -4.804  -9.245  13.134  1.00  0.00     0.173 A 
ATOM     64  C   UNL     1      -4.058  -8.294  15.217  1.00  0.00     0.173 A 
ATOM     65  F   UNL     1      -4.862  -9.237  11.794  1.00  0.00    -0.203 F 
ATOM     66  C   UNL     1      -5.502 -10.223  13.833  1.00  0.00     0.198 A 
ATOM     67  C   UNL     1      -4.737  -9.288  15.911  1.00  0.00     0.198 A 
ATOM     68  F   UNL     1      -3.369  -7.371  15.905  1.00  0.00    -0.203 F 
ATOM     69  F   UNL     1      -6.221 -11.136  13.166  1.00  0.00    -0.200 F 
ATOM     70  C   UNL     1      -5.469 -10.243  15.220  1.00  0.00     0.200 A 
ATOM     71  F   UNL     1      -4.690  -9.319  17.250  1.00  0.00    -0.200 F 
ATOM     72  F   UNL     1      -6.146 -11.184  15.892  1.00  0.00    -0.200 F 
ENDBRANCH  39  62
ENDBRANCH  13  14
ENDBRANCH   6   8
ENDBRANCH   5   6
ENDBRANCH   4   5
ENDBRANCH   3   4
ENDBRANCH   2   3
ENDBRANCH   1   2
BRANCH   1  73
ATOM     73  C   UNL     1       5.987   0.224   6.476  1.00  0.00     0.261 C 
BRANCH  73  74
ATOM     74  O   UNL     1       6.470   0.506   5.153  1.00  0.00    -0.461 OA
BRANCH  74  75
ATOM     75  C   UNL     1       5.891  -0.177   4.122  1.00  0.00     0.335 C 
ATOM     76  O   UNL     1       5.136  -1.127   4.235  1.00  0.00    -0.249 OA
BRANCH  75  77
ATOM     77  C   UNL     1       6.237   0.492   2.777  1.00  0.00     0.228 C 
ATOM     78  C   UNL     1       5.233   1.581   2.446  1.00  0.00     0.047 C 
ATOM     79  O   UNL     1       7.522   1.131   2.746  1.00  0.00    -0.361 OA
ATOM     80  C   UNL     1       5.853   2.793   3.098  1.00  0.00     0.037 C 
ATOM     81  C   UNL     1       7.347   2.556   2.913  1.00  0.00     0.138 C 
BRANCH  81  82
ATOM     82  C   UNL     1       8.203   3.050   4.096  1.00  0.00     0.145 C 
BRANCH  82  83
ATOM     83  N   UNL     1       7.812   4.387   4.516  1.00  0.00    -0.377 N 
ATOM     84  H   UNL     1       7.603   5.042   3.811  1.00  0.00     0.160 HD
BRANCH  83  85
ATOM     85  C   UNL     1       7.710   4.810   5.833  1.00  0.00     0.116 A 
ATOM     86  C   UNL     1       8.421   4.168   6.862  1.00  0.00     0.033 A 
ATOM     87  C   UNL     1       6.831   5.845   6.227  1.00  0.00     0.327 A 
ATOM     88  C   UNL     1       8.284   4.548   8.204  1.00  0.00     0.006 A 
ATOM     89  C   UNL     1       6.699   6.233   7.561  1.00  0.00     0.202 A 
ATOM     90  C   UNL     1       7.424   5.584   8.553  1.00  0.00     0.047 A 
ATOM     91  F   UNL     1       5.900   7.246   7.923  1.00  0.00    -0.199 F 
BRANCH  87  92
ATOM     92  N   UNL     1       5.992   6.509   5.245  1.00  0.00     0.068 N 
ATOM     93  O   UNL     1       6.502   6.787   4.146  1.00  0.00    -0.258 OA
ATOM     94  O   UNL     1       4.807   6.717   5.537  1.00  0.00    -0.258 OA
ENDBRANCH  87  92
ENDBRANCH  83  85
ENDBRANCH  82  83
ENDBRANCH  81  82
ENDBRANCH  75  77
ENDBRANCH  74  75
ENDBRANCH  73  74
ENDBRANCH   1  73
TORSDOF 18
