REMARK SMILES O=C(OCCOCCOC(=O)c1cccc2c1cc(Br)c1ccccc12)c1ccc(-c2c3nc(c(-c4c(F)c(F)c(F)c(F)c4F)c4ccc([nH]4)c(-c4c(F)c(F)c(F)c(F)c4F)c4nc(c(-c5c(F)c(F)c(F)c(F)c5F)c5ccc2[nH]5)C=C4)C=C3)cc1
REMARK SMILES IDX 5 1 4 2 3 3 2 4 1 5 27 6 28 7 89 8 29 9 88 10 30 11 31 12
REMARK SMILES IDX 32 13 82 14 33 15 87 16 81 17 83 18 34 19 86 20 80 21 79 22
REMARK SMILES IDX 35 24 67 25 47 26 66 27 48 28 51 29 65 30 84 31 49 32 50 33
REMARK SMILES IDX 64 35 85 36 52 37 36 38 37 39 45 40 38 41 39 42 43 43 46 44
REMARK SMILES IDX 40 45 41 46 44 47 42 48 68 49 69 50 77 51 70 52 71 53 75 54
REMARK SMILES IDX 78 55 72 56 73 57 76 58 74 59 53 60 54 61 62 62 55 63 56 64
REMARK SMILES IDX 60 65 63 66 57 67 58 68 61 69 59 70 6 71 7 72 8 73 9 74
REMARK SMILES IDX 10 75 11 76 12 77 13 78 17 79 14 80 16 81 18 82 15 83 26 84
REMARK SMILES IDX 19 85 21 86 25 87 20 88 22 89 24 90 23 91
REMARK H PARENT 83 23 51 34
REMARK Flexibility Score: inf
ROOT
ATOM      1  C   UNL     1       4.051  -1.333  -0.058  1.00  0.00     0.202 C 
ENDROOT
BRANCH   1   2
ATOM      2  C   UNL     1       4.003  -0.490   1.216  1.00  0.00     0.261 C 
BRANCH   2   3
ATOM      3  O   UNL     1       2.695   0.049   1.443  1.00  0.00    -0.460 OA
BRANCH   3   4
ATOM      4  C   UNL     1       2.094   1.093   0.829  1.00  0.00     0.338 C 
ATOM      5  O   UNL     1       0.882   1.230   1.006  1.00  0.00    -0.246 OA
BRANCH   4   6
ATOM      6  C   UNL     1       2.783   2.123  -0.028  1.00  0.00     0.060 A 
ATOM      7  C   UNL     1       2.007   3.249  -0.373  1.00  0.00     0.016 A 
ATOM      8  C   UNL     1       4.072   2.050  -0.565  1.00  0.00     0.016 A 
ATOM      9  C   UNL     1       2.477   4.222  -1.259  1.00  0.00     0.010 A 
ATOM     10  C   UNL     1       4.548   3.008  -1.457  1.00  0.00     0.010 A 
ATOM     11  C   UNL     1       3.746   4.086  -1.820  1.00  0.00    -0.014 A 
BRANCH  11  12
ATOM     12  C   UNL     1       4.305   5.090  -2.737  1.00  0.00     0.031 A 
ATOM     13  C   UNL     1       4.282   4.868  -4.215  1.00  0.00     0.074 A 
ATOM     14  C   UNL     1       4.946   6.135  -2.192  1.00  0.00     0.049 A 
ATOM     15  N   UNL     1       4.731   5.638  -5.171  1.00  0.00    -0.248 NA
ATOM     16  C   UNL     1       3.695   3.602  -4.681  1.00  0.00     0.031 C 
ATOM     17  C   UNL     1       5.083   6.369  -0.754  1.00  0.00     0.029 A 
ATOM     18  N   UNL     1       5.622   7.170  -2.772  1.00  0.00    -0.354 N 
ATOM     19  C   UNL     1       4.453   4.970  -6.354  1.00  0.00     0.074 A 
ATOM     20  C   UNL     1       3.856   3.701  -5.994  1.00  0.00     0.031 C 
ATOM     21  C   UNL     1       5.808   7.480  -0.562  1.00  0.00     0.029 A 
ATOM     22  C   UNL     1       6.179   8.029  -1.862  1.00  0.00     0.049 A 
ATOM     23  H   UNL     1       5.702   7.286  -3.747  1.00  0.00     0.167 HD
ATOM     24  C   UNL     1       4.665   5.398  -7.622  1.00  0.00     0.037 A 
ATOM     25  C   UNL     1       6.897   9.146  -2.063  1.00  0.00     0.037 A 
ATOM     26  C   UNL     1       5.313   6.647  -7.940  1.00  0.00     0.049 A 
ATOM     27  C   UNL     1       7.130   9.600  -3.473  1.00  0.00     0.074 A 
ATOM     28  C   UNL     1       5.547   7.215  -9.179  1.00  0.00     0.029 A 
ATOM     29  N   UNL     1       5.857   7.512  -6.996  1.00  0.00    -0.354 N 
ATOM     30  N   UNL     1       6.772   9.021  -4.594  1.00  0.00    -0.248 NA
ATOM     31  C   UNL     1       7.841  10.870  -3.645  1.00  0.00     0.031 C 
ATOM     32  C   UNL     1       6.272   8.399  -8.987  1.00  0.00     0.029 A 
ATOM     33  C   UNL     1       6.447   8.597  -7.626  1.00  0.00     0.049 A 
ATOM     34  H   UNL     1       5.826   7.374  -6.022  1.00  0.00     0.167 HD
ATOM     35  C   UNL     1       7.205   9.856  -5.611  1.00  0.00     0.074 A 
ATOM     36  C   UNL     1       7.829  10.998  -4.965  1.00  0.00     0.031 C 
ATOM     37  C   UNL     1       7.098   9.697  -6.954  1.00  0.00     0.037 A 
BRANCH  24  38
ATOM     38  C   UNL     1       4.182   4.519  -8.742  1.00  0.00     0.064 A 
ATOM     39  C   UNL     1       2.811   4.303  -8.961  1.00  0.00     0.173 A 
ATOM     40  C   UNL     1       5.085   3.909  -9.627  1.00  0.00     0.173 A 
ATOM     41  F   UNL     1       1.901   4.855  -8.144  1.00  0.00    -0.203 F 
ATOM     42  C   UNL     1       2.365   3.488  -9.999  1.00  0.00     0.198 A 
ATOM     43  C   UNL     1       4.634   3.118 -10.683  1.00  0.00     0.198 A 
ATOM     44  F   UNL     1       6.406   4.084  -9.474  1.00  0.00    -0.203 F 
ATOM     45  F   UNL     1       1.053   3.260 -10.155  1.00  0.00    -0.200 F 
ATOM     46  C   UNL     1       3.276   2.901 -10.863  1.00  0.00     0.200 A 
ATOM     47  F   UNL     1       5.515   2.563 -11.527  1.00  0.00    -0.200 F 
ATOM     48  F   UNL     1       2.846   2.123 -11.866  1.00  0.00    -0.200 F 
ENDBRANCH  24  38
BRANCH  25  49
ATOM     49  C   UNL     1       7.328   9.933  -0.884  1.00  0.00     0.064 A 
ATOM     50  C   UNL     1       6.631  11.091  -0.519  1.00  0.00     0.173 A 
ATOM     51  C   UNL     1       8.341   9.477  -0.029  1.00  0.00     0.173 A 
ATOM     52  F   UNL     1       5.657  11.563  -1.312  1.00  0.00    -0.203 F 
ATOM     53  C   UNL     1       6.923  11.761   0.666  1.00  0.00     0.198 A 
ATOM     54  C   UNL     1       8.619  10.137   1.167  1.00  0.00     0.198 A 
ATOM     55  F   UNL     1       9.021   8.360  -0.327  1.00  0.00    -0.203 F 
ATOM     56  F   UNL     1       6.238  12.864   0.995  1.00  0.00    -0.200 F 
ATOM     57  C   UNL     1       7.908  11.276   1.514  1.00  0.00     0.200 A 
ATOM     58  F   UNL     1       9.555   9.654   1.995  1.00  0.00    -0.200 F 
ATOM     59  F   UNL     1       8.163  11.900   2.672  1.00  0.00    -0.200 F 
ENDBRANCH  25  49
BRANCH  37  60
ATOM     60  C   UNL     1       7.698  10.779  -7.802  1.00  0.00     0.064 A 
ATOM     61  C   UNL     1       9.088  10.935  -7.908  1.00  0.00     0.173 A 
ATOM     62  C   UNL     1       6.879  11.663  -8.519  1.00  0.00     0.173 A 
ATOM     63  F   UNL     1       9.912  10.123  -7.228  1.00  0.00    -0.203 F 
ATOM     64  C   UNL     1       9.636  11.959  -8.674  1.00  0.00     0.198 A 
ATOM     65  C   UNL     1       7.431  12.668  -9.308  1.00  0.00     0.198 A 
ATOM     66  F   UNL     1       5.543  11.552  -8.455  1.00  0.00    -0.203 F 
ATOM     67  F   UNL     1      10.965  12.126  -8.713  1.00  0.00    -0.200 F 
ATOM     68  C   UNL     1       8.808  12.821  -9.377  1.00  0.00     0.200 A 
ATOM     69  F   UNL     1       6.630  13.493  -9.996  1.00  0.00    -0.200 F 
ATOM     70  F   UNL     1       9.337  13.809 -10.111  1.00  0.00    -0.200 F 
ENDBRANCH  37  60
ENDBRANCH  11  12
ENDBRANCH   4   6
ENDBRANCH   3   4
ENDBRANCH   2   3
ENDBRANCH   1   2
BRANCH   1  71
ATOM     71  O   UNL     1       3.550  -0.644  -1.201  1.00  0.00    -0.374 OA
BRANCH  71  72
ATOM     72  C   UNL     1       2.404  -1.244  -1.808  1.00  0.00     0.202 C 
BRANCH  72  73
ATOM     73  C   UNL     1       2.810  -2.186  -2.941  1.00  0.00     0.261 C 
BRANCH  73  74
ATOM     74  O   UNL     1       3.519  -3.314  -2.400  1.00  0.00    -0.460 OA
BRANCH  74  75
ATOM     75  C   UNL     1       4.868  -3.325  -2.562  1.00  0.00     0.338 C 
ATOM     76  O   UNL     1       5.533  -2.542  -3.216  1.00  0.00    -0.246 OA
BRANCH  75  77
ATOM     77  C   UNL     1       5.416  -4.402  -1.692  1.00  0.00     0.067 A 
ATOM     78  C   UNL     1       4.752  -5.635  -1.731  1.00  0.00     0.016 A 
ATOM     79  C   UNL     1       6.510  -4.175  -0.799  1.00  0.00    -0.002 A 
ATOM     80  C   UNL     1       5.146  -6.651  -0.883  1.00  0.00     0.002 A 
ATOM     81  C   UNL     1       6.919  -5.214   0.078  1.00  0.00    -0.010 A 
ATOM     82  C   UNL     1       7.187  -2.943  -0.706  1.00  0.00     0.026 A 
ATOM     83  C   UNL     1       6.206  -6.439  -0.001  1.00  0.00     0.009 A 
ATOM     84  C   UNL     1       7.996  -4.994   1.019  1.00  0.00    -0.009 A 
ATOM     85  C   UNL     1       8.155  -2.693   0.269  1.00  0.00     0.026 A 
ATOM     86  C   UNL     1       8.586  -3.707   1.144  1.00  0.00    -0.004 A 
ATOM     87  C   UNL     1       8.512  -6.018   1.857  1.00  0.00     0.009 A 
ATOM     88  Br  UNL     1       8.819  -0.904   0.341  1.00  0.00    -0.050 Br
ATOM     89  C   UNL     1       9.585  -3.497   2.129  1.00  0.00     0.010 A 
ATOM     90  C   UNL     1       9.523  -5.795   2.795  1.00  0.00     0.001 A 
ATOM     91  C   UNL     1      10.048  -4.526   2.944  1.00  0.00     0.001 A 
ENDBRANCH  75  77
ENDBRANCH  74  75
ENDBRANCH  73  74
ENDBRANCH  72  73
ENDBRANCH  71  72
ENDBRANCH   1  71
TORSDOF 14
