REMARK SMILES O=C(OCCOCCOC(=O)[C@@H]1[C@H](C(=O)NCc2ccncc2)[C@H]2C=C[C@@H]1O2)c1ccc(-c2c3nc(c(-c4c(F)c(F)c(F)c(F)c4F)c4ccc([nH]4)c(-c4c(F)c(F)c(F)c(F)c4F)c4nc(c(-c5c(F)c(F)c(F)c(F)c5F)c5ccc2[nH]5)C=C4)C=C3)cc1
REMARK SMILES IDX 7 1 6 2 5 3 4 4 3 5 2 6 1 7 29 8 30 9 91 10 31 11 90 12
REMARK SMILES IDX 32 13 33 14 34 15 84 16 35 17 89 18 83 19 85 20 36 21 88 22
REMARK SMILES IDX 82 23 81 24 37 26 69 27 49 28 68 29 50 30 53 31 67 32 86 33
REMARK SMILES IDX 51 34 52 35 66 37 87 38 54 39 38 40 39 41 47 42 40 43 41 44
REMARK SMILES IDX 45 45 48 46 42 47 43 48 46 49 44 50 70 51 71 52 79 53 72 54
REMARK SMILES IDX 73 55 77 56 80 57 74 58 75 59 78 60 76 61 55 62 56 63 64 64
REMARK SMILES IDX 57 65 58 66 62 67 65 68 59 69 60 70 63 71 61 72 8 73 9 74
REMARK SMILES IDX 10 75 11 76 12 77 13 78 27 79 24 80 26 81 28 82 25 83 14 84
REMARK SMILES IDX 15 85 16 86 17 88 18 89 19 90 23 91 20 92 22 93 21 94
REMARK H PARENT 85 25 53 36 16 87
REMARK Flexibility Score: inf
ROOT
ATOM      1  C   UNL     1       3.231  -0.685  -1.052  1.00  0.00     0.202 C 
ENDROOT
BRANCH   1   2
ATOM      2  O   UNL     1       4.539  -0.643  -0.475  1.00  0.00    -0.374 OA
BRANCH   2   3
ATOM      3  C   UNL     1       4.779  -1.119   0.840  1.00  0.00     0.202 C 
BRANCH   3   4
ATOM      4  C   UNL     1       4.456  -0.143   1.964  1.00  0.00     0.261 C 
BRANCH   4   5
ATOM      5  O   UNL     1       3.080   0.250   1.907  1.00  0.00    -0.460 OA
BRANCH   5   6
ATOM      6  C   UNL     1       2.646   1.503   1.625  1.00  0.00     0.338 C 
ATOM      7  O   UNL     1       1.653   1.933   2.205  1.00  0.00    -0.246 OA
BRANCH   6   8
ATOM      8  C   UNL     1       3.179   2.268   0.448  1.00  0.00     0.060 A 
ATOM      9  C   UNL     1       4.442   2.105  -0.135  1.00  0.00     0.016 A 
ATOM     10  C   UNL     1       2.292   3.175  -0.160  1.00  0.00     0.016 A 
ATOM     11  C   UNL     1       4.799   2.756  -1.308  1.00  0.00     0.010 A 
ATOM     12  C   UNL     1       2.675   3.915  -1.282  1.00  0.00     0.010 A 
ATOM     13  C   UNL     1       3.948   3.723  -1.829  1.00  0.00    -0.014 A 
BRANCH  13  14
ATOM     14  C   UNL     1       4.586   4.778  -2.630  1.00  0.00     0.031 A 
ATOM     15  C   UNL     1       5.267   5.867  -1.851  1.00  0.00     0.074 A 
ATOM     16  C   UNL     1       4.654   4.705  -3.966  1.00  0.00     0.049 A 
ATOM     17  N   UNL     1       5.891   6.933  -2.269  1.00  0.00    -0.248 NA
ATOM     18  C   UNL     1       5.266   5.713  -0.383  1.00  0.00     0.031 C 
ATOM     19  C   UNL     1       4.142   3.607  -4.783  1.00  0.00     0.029 A 
ATOM     20  N   UNL     1       5.190   5.583  -4.868  1.00  0.00    -0.354 N 
ATOM     21  C   UNL     1       6.342   7.570  -1.121  1.00  0.00     0.074 A 
ATOM     22  C   UNL     1       5.936   6.778   0.011  1.00  0.00     0.031 C 
ATOM     23  C   UNL     1       4.363   3.895  -6.078  1.00  0.00     0.029 A 
ATOM     24  C   UNL     1       4.985   5.214  -6.172  1.00  0.00     0.049 A 
ATOM     25  H   UNL     1       5.676   6.399  -4.606  1.00  0.00     0.167 HD
ATOM     26  C   UNL     1       7.016   8.736  -1.024  1.00  0.00     0.037 A 
ATOM     27  C   UNL     1       5.234   5.907  -7.300  1.00  0.00     0.037 A 
ATOM     28  C   UNL     1       7.340   9.537  -2.167  1.00  0.00     0.049 A 
ATOM     29  C   UNL     1       5.863   7.273  -7.169  1.00  0.00     0.074 A 
ATOM     30  C   UNL     1       7.939  10.778  -2.215  1.00  0.00     0.029 A 
ATOM     31  N   UNL     1       7.056   9.167  -3.477  1.00  0.00    -0.354 N 
ATOM     32  N   UNL     1       6.248   7.907  -6.085  1.00  0.00    -0.248 NA
ATOM     33  C   UNL     1       6.085   8.025  -8.410  1.00  0.00     0.031 C 
ATOM     34  C   UNL     1       7.958  11.189  -3.552  1.00  0.00     0.029 A 
ATOM     35  C   UNL     1       7.444  10.169  -4.343  1.00  0.00     0.049 A 
ATOM     36  H   UNL     1       6.639   8.316  -3.746  1.00  0.00     0.167 HD
ATOM     37  C   UNL     1       6.785   9.114  -6.511  1.00  0.00     0.074 A 
ATOM     38  C   UNL     1       6.673   9.124  -7.957  1.00  0.00     0.031 C 
ATOM     39  C   UNL     1       7.327  10.121  -5.781  1.00  0.00     0.037 A 
BRANCH  26  40
ATOM     40  C   UNL     1       7.310   9.232   0.361  1.00  0.00     0.064 A 
ATOM     41  C   UNL     1       8.220   8.580   1.210  1.00  0.00     0.173 A 
ATOM     42  C   UNL     1       6.594  10.320   0.882  1.00  0.00     0.173 A 
ATOM     43  F   UNL     1       8.898   7.506   0.777  1.00  0.00    -0.203 F 
ATOM     44  C   UNL     1       8.367   8.972   2.539  1.00  0.00     0.198 A 
ATOM     45  C   UNL     1       6.770  10.731   2.200  1.00  0.00     0.198 A 
ATOM     46  F   UNL     1       5.699  10.967   0.121  1.00  0.00    -0.203 F 
ATOM     47  F   UNL     1       9.174   8.280   3.355  1.00  0.00    -0.200 F 
ATOM     48  C   UNL     1       7.644  10.048   3.032  1.00  0.00     0.200 A 
ATOM     49  F   UNL     1       6.071  11.771   2.674  1.00  0.00    -0.200 F 
ATOM     50  F   UNL     1       7.772  10.412   4.315  1.00  0.00    -0.200 F 
ENDBRANCH  26  40
BRANCH  27  51
ATOM     51  C   UNL     1       4.842   5.343  -8.618  1.00  0.00     0.064 A 
ATOM     52  C   UNL     1       5.800   4.973  -9.571  1.00  0.00     0.173 A 
ATOM     53  C   UNL     1       3.491   5.144  -8.947  1.00  0.00     0.173 A 
ATOM     54  F   UNL     1       7.104   5.165  -9.320  1.00  0.00    -0.203 F 
ATOM     55  C   UNL     1       5.423   4.431 -10.800  1.00  0.00     0.198 A 
ATOM     56  C   UNL     1       3.117   4.576 -10.163  1.00  0.00     0.198 A 
ATOM     57  F   UNL     1       2.531   5.487  -8.076  1.00  0.00    -0.203 F 
ATOM     58  F   UNL     1       6.359   4.118 -11.707  1.00  0.00    -0.200 F 
ATOM     59  C   UNL     1       4.083   4.224 -11.091  1.00  0.00     0.200 A 
ATOM     60  F   UNL     1       1.821   4.369 -10.434  1.00  0.00    -0.200 F 
ATOM     61  F   UNL     1       3.723   3.693 -12.268  1.00  0.00    -0.200 F 
ENDBRANCH  27  51
BRANCH  39  62
ATOM     62  C   UNL     1       7.899  11.289  -6.528  1.00  0.00     0.064 A 
ATOM     63  C   UNL     1       7.082  12.253  -7.131  1.00  0.00     0.173 A 
ATOM     64  C   UNL     1       9.287  11.496  -6.536  1.00  0.00     0.173 A 
ATOM     65  F   UNL     1       5.750  12.093  -7.154  1.00  0.00    -0.203 F 
ATOM     66  C   UNL     1       7.637  13.383  -7.725  1.00  0.00     0.198 A 
ATOM     67  C   UNL     1       9.835  12.641  -7.101  1.00  0.00     0.198 A 
ATOM     68  F   UNL     1      10.107  10.605  -5.957  1.00  0.00    -0.203 F 
ATOM     69  F   UNL     1       6.842  14.282  -8.322  1.00  0.00    -0.200 F 
ATOM     70  C   UNL     1       9.010  13.582  -7.698  1.00  0.00     0.200 A 
ATOM     71  F   UNL     1      11.159  12.842  -7.053  1.00  0.00    -0.200 F 
ATOM     72  F   UNL     1       9.539  14.684  -8.246  1.00  0.00    -0.200 F 
ENDBRANCH  39  62
ENDBRANCH  13  14
ENDBRANCH   6   8
ENDBRANCH   5   6
ENDBRANCH   4   5
ENDBRANCH   3   4
ENDBRANCH   2   3
ENDBRANCH   1   2
BRANCH   1  73
ATOM     73  C   UNL     1       2.348  -1.873  -0.733  1.00  0.00     0.261 C 
BRANCH  73  74
ATOM     74  O   UNL     1       2.991  -3.144  -0.676  1.00  0.00    -0.463 OA
BRANCH  74  75
ATOM     75  C   UNL     1       4.178  -3.413  -1.263  1.00  0.00     0.312 C 
ATOM     76  O   UNL     1       4.744  -2.757  -2.127  1.00  0.00    -0.252 OA
BRANCH  75  77
ATOM     77  C   UNL     1       4.780  -4.637  -0.655  1.00  0.00     0.147 C 
ATOM     78  C   UNL     1       4.933  -5.806  -1.645  1.00  0.00     0.128 C 
ATOM     79  C   UNL     1       3.881  -5.257   0.430  1.00  0.00     0.157 C 
ATOM     80  C   UNL     1       4.022  -6.871  -1.019  1.00  0.00     0.155 C 
ATOM     81  C   UNL     1       4.599  -6.365   1.135  1.00  0.00     0.004 C 
ATOM     82  O   UNL     1       2.994  -6.048  -0.410  1.00  0.00    -0.365 OA
ATOM     83  C   UNL     1       4.669  -7.371   0.252  1.00  0.00     0.004 C 
BRANCH  78  84
ATOM     84  C   UNL     1       4.784  -5.588  -3.147  1.00  0.00     0.227 C 
ATOM     85  O   UNL     1       5.751  -5.893  -3.863  1.00  0.00    -0.275 OA
ATOM     86  N   UNL     1       3.719  -5.104  -3.820  1.00  0.00    -0.352 N 
ATOM     87  H   UNL     1       3.905  -4.998  -4.781  1.00  0.00     0.163 HD
BRANCH  86  88
ATOM     88  C   UNL     1       2.367  -4.702  -3.477  1.00  0.00     0.151 C 
BRANCH  88  89
ATOM     89  C   UNL     1       1.986  -3.310  -3.959  1.00  0.00    -0.026 A 
ATOM     90  C   UNL     1       2.909  -2.367  -4.429  1.00  0.00     0.025 A 
ATOM     91  C   UNL     1       0.649  -2.897  -3.860  1.00  0.00     0.025 A 
ATOM     92  C   UNL     1       2.481  -1.076  -4.718  1.00  0.00     0.111 A 
ATOM     93  C   UNL     1       0.314  -1.585  -4.178  1.00  0.00     0.111 A 
ATOM     94  N   UNL     1       1.204  -0.660  -4.590  1.00  0.00    -0.265 NA
ENDBRANCH  88  89
ENDBRANCH  86  88
ENDBRANCH  78  84
ENDBRANCH  75  77
ENDBRANCH  74  75
ENDBRANCH  73  74
ENDBRANCH   1  73
TORSDOF 17
