REMARK SMILES CC(C)c1cc(N2CCC(C(=O)OCCOCCOC(=O)c3ccc(-c4c5nc(c(-c6c(F)c(F)c(F)c(F)c6F)c6ccc([nH]6)c(-c6c(F)c(F)c(F)c(F)c6F)c6nc(c(-c7c(F)c(F)c(F)c(F)c7F)c7ccc4[nH]7)C=C6)C=C5)cc3)CC2)nc(-c2ccc(F)cc2)n1
REMARK SMILES IDX 16 1 15 2 14 3 13 4 11 5 12 6 10 7 7 8 8 9 86 10 9 11 85 12
REMARK SMILES IDX 6 13 4 14 5 15 96 16 88 17 87 18 2 19 1 20 3 21 89 22 90 23
REMARK SMILES IDX 95 24 91 25 94 26 92 27 93 28 17 29 18 30 19 31 20 32 21 33
REMARK SMILES IDX 22 34 23 35 84 36 24 37 83 38 25 39 26 40 27 41 77 42 28 43
REMARK SMILES IDX 82 44 76 45 78 46 29 47 81 48 75 49 74 50 30 52 62 53 42 54
REMARK SMILES IDX 61 55 43 56 46 57 60 58 79 59 44 60 45 61 59 63 80 64 47 65
REMARK SMILES IDX 31 66 32 67 40 68 33 69 34 70 38 71 41 72 35 73 36 74 39 75
REMARK SMILES IDX 37 76 63 77 64 78 72 79 65 80 66 81 70 82 73 83 67 84 68 85
REMARK SMILES IDX 71 86 69 87 48 88 49 89 57 90 50 91 51 92 55 93 58 94 52 95
REMARK SMILES IDX 53 96 56 97 54 98
REMARK H PARENT 78 51 46 62
REMARK Flexibility Score: inf
ROOT
ATOM      1  O   UNL     1     -10.029  -3.813  -1.432  1.00  0.00    -0.374 OA
ENDROOT
BRANCH   1   2
ATOM      2  C   UNL     1     -10.220  -3.022  -0.257  1.00  0.00     0.202 C 
BRANCH   2   3
ATOM      3  C   UNL     1      -9.234  -3.278   0.886  1.00  0.00     0.261 C 
BRANCH   3   4
ATOM      4  O   UNL     1      -7.937  -2.743   0.563  1.00  0.00    -0.463 OA
BRANCH   4   5
ATOM      5  C   UNL     1      -6.893  -3.608   0.623  1.00  0.00     0.309 C 
ATOM      6  O   UNL     1      -6.953  -4.757   1.041  1.00  0.00    -0.252 OA
BRANCH   5   7
ATOM      7  C   UNL     1      -5.597  -2.994   0.129  1.00  0.00     0.103 C 
ATOM      8  N   UNL     1      -3.673  -0.924  -0.032  1.00  0.00    -0.356 N 
ATOM      9  C   UNL     1      -4.433  -1.213  -1.235  1.00  0.00     0.119 C 
ATOM     10  C   UNL     1      -3.415  -2.000   0.905  1.00  0.00     0.119 C 
ATOM     11  C   UNL     1      -5.774  -1.817  -0.844  1.00  0.00     0.037 C 
ATOM     12  C   UNL     1      -4.753  -2.589   1.340  1.00  0.00     0.037 C 
BRANCH   8  13
ATOM     13  C   UNL     1      -2.903   0.214  -0.054  1.00  0.00     0.132 A 
ATOM     14  C   UNL     1      -0.826   1.348  -0.132  1.00  0.00     0.049 A 
ATOM     15  C   UNL     1      -1.523   0.156  -0.062  1.00  0.00     0.071 A 
ATOM     16  N   UNL     1      -1.472   2.534  -0.157  1.00  0.00    -0.233 NA
ATOM     17  C   UNL     1      -2.816   2.497  -0.117  1.00  0.00     0.161 A 
ATOM     18  N   UNL     1      -3.557   1.382  -0.089  1.00  0.00    -0.211 NA
BRANCH  14  19
ATOM     19  C   UNL     1       0.690   1.423  -0.171  1.00  0.00     0.032 C 
ATOM     20  C   UNL     1       1.422   0.090   0.025  1.00  0.00     0.014 C 
ATOM     21  C   UNL     1       1.149   2.068  -1.483  1.00  0.00     0.014 C 
ENDBRANCH  14  19
BRANCH  17  22
ATOM     22  C   UNL     1      -3.534   3.773  -0.059  1.00  0.00     0.019 A 
ATOM     23  C   UNL     1      -3.271   4.802  -0.981  1.00  0.00     0.015 A 
ATOM     24  C   UNL     1      -4.513   3.999   0.930  1.00  0.00     0.015 A 
ATOM     25  C   UNL     1      -3.967   6.012  -0.921  1.00  0.00     0.040 A 
ATOM     26  C   UNL     1      -5.196   5.215   1.002  1.00  0.00     0.040 A 
ATOM     27  C   UNL     1      -4.918   6.209   0.073  1.00  0.00     0.123 A 
ATOM     28  F   UNL     1      -5.577   7.373   0.135  1.00  0.00    -0.207 F 
ENDBRANCH  17  22
ENDBRANCH   8  13
ENDBRANCH   5   7
ENDBRANCH   4   5
ENDBRANCH   3   4
ENDBRANCH   2   3
ENDBRANCH   1   2
BRANCH   1  29
ATOM     29  C   UNL     1      -8.931  -3.468  -2.275  1.00  0.00     0.202 C 
BRANCH  29  30
ATOM     30  C   UNL     1      -9.160  -2.289  -3.229  1.00  0.00     0.261 C 
BRANCH  30  31
ATOM     31  O   UNL     1      -9.469  -1.068  -2.533  1.00  0.00    -0.460 OA
BRANCH  31  32
ATOM     32  C   UNL     1     -10.730  -0.617  -2.728  1.00  0.00     0.338 C 
ATOM     33  O   UNL     1     -11.568  -1.069  -3.499  1.00  0.00    -0.246 OA
BRANCH  32  34
ATOM     34  C   UNL     1     -11.068   0.436  -1.755  1.00  0.00     0.060 A 
ATOM     35  C   UNL     1     -12.223   0.244  -0.988  1.00  0.00     0.016 A 
ATOM     36  C   UNL     1     -10.344   1.628  -1.659  1.00  0.00     0.016 A 
ATOM     37  C   UNL     1     -12.691   1.264  -0.164  1.00  0.00     0.010 A 
ATOM     38  C   UNL     1     -10.821   2.656  -0.833  1.00  0.00     0.010 A 
ATOM     39  C   UNL     1     -12.017   2.492  -0.110  1.00  0.00    -0.014 A 
BRANCH  39  40
ATOM     40  C   UNL     1     -12.655   3.623   0.609  1.00  0.00     0.031 A 
ATOM     41  C   UNL     1     -13.450   4.638  -0.166  1.00  0.00     0.074 A 
ATOM     42  C   UNL     1     -12.601   3.695   1.951  1.00  0.00     0.049 A 
ATOM     43  N   UNL     1     -14.155   5.652   0.271  1.00  0.00    -0.248 NA
ATOM     44  C   UNL     1     -13.461   4.487  -1.630  1.00  0.00     0.031 C 
ATOM     45  C   UNL     1     -11.889   2.758   2.818  1.00  0.00     0.029 A 
ATOM     46  N   UNL     1     -13.168   4.594   2.820  1.00  0.00    -0.354 N 
ATOM     47  C   UNL     1     -14.702   6.249  -0.858  1.00  0.00     0.074 A 
ATOM     48  C   UNL     1     -14.218   5.509  -2.004  1.00  0.00     0.031 C 
ATOM     49  C   UNL     1     -12.064   3.129   4.098  1.00  0.00     0.029 A 
ATOM     50  C   UNL     1     -12.886   4.338   4.139  1.00  0.00     0.049 A 
ATOM     51  H   UNL     1     -13.724   5.351   2.526  1.00  0.00     0.167 HD
ATOM     52  C   UNL     1     -15.544   7.307  -0.931  1.00  0.00     0.037 A 
ATOM     53  C   UNL     1     -13.246   5.006   5.251  1.00  0.00     0.037 A 
ATOM     54  C   UNL     1     -16.024   8.050   0.204  1.00  0.00     0.049 A 
ATOM     55  C   UNL     1     -14.134   6.218   5.133  1.00  0.00     0.074 A 
ATOM     56  C   UNL     1     -16.884   9.135   0.227  1.00  0.00     0.029 A 
ATOM     57  N   UNL     1     -15.680   7.786   1.521  1.00  0.00    -0.354 N 
ATOM     58  N   UNL     1     -14.672   6.752   4.064  1.00  0.00    -0.248 NA
ATOM     59  C   UNL     1     -14.472   6.915   6.384  1.00  0.00     0.031 C 
ATOM     60  C   UNL     1     -17.029   9.553   1.554  1.00  0.00     0.029 A 
ATOM     61  C   UNL     1     -16.295   8.700   2.363  1.00  0.00     0.049 A 
ATOM     62  H   UNL     1     -15.087   7.058   1.815  1.00  0.00     0.167 HD
ATOM     63  C   UNL     1     -15.426   7.828   4.513  1.00  0.00     0.074 A 
ATOM     64  C   UNL     1     -15.297   7.858   5.954  1.00  0.00     0.031 C 
ATOM     65  C   UNL     1     -16.158   8.716   3.796  1.00  0.00     0.037 A 
BRANCH  52  66
ATOM     66  C   UNL     1     -16.003   7.734  -2.294  1.00  0.00     0.064 A 
ATOM     67  C   UNL     1     -16.950   6.990  -3.014  1.00  0.00     0.173 A 
ATOM     68  C   UNL     1     -15.538   8.930  -2.861  1.00  0.00     0.173 A 
ATOM     69  F   UNL     1     -17.416   5.833  -2.519  1.00  0.00    -0.203 F 
ATOM     70  C   UNL     1     -17.403   7.420  -4.258  1.00  0.00     0.198 A 
ATOM     71  C   UNL     1     -16.011   9.369  -4.094  1.00  0.00     0.198 A 
ATOM     72  F   UNL     1     -14.636   9.681  -2.210  1.00  0.00    -0.203 F 
ATOM     73  F   UNL     1     -18.286   6.679  -4.941  1.00  0.00    -0.200 F 
ATOM     74  C   UNL     1     -16.940   8.613  -4.793  1.00  0.00     0.200 A 
ATOM     75  F   UNL     1     -15.571  10.528  -4.605  1.00  0.00    -0.200 F 
ATOM     76  F   UNL     1     -17.387   9.033  -5.985  1.00  0.00    -0.200 F 
ENDBRANCH  52  66
BRANCH  53  77
ATOM     77  C   UNL     1     -12.766   4.554   6.583  1.00  0.00     0.064 A 
ATOM     78  C   UNL     1     -13.652   4.034   7.537  1.00  0.00     0.173 A 
ATOM     79  C   UNL     1     -11.416   4.674   6.944  1.00  0.00     0.173 A 
ATOM     80  F   UNL     1     -14.958   3.925   7.248  1.00  0.00    -0.203 F 
ATOM     81  C   UNL     1     -13.211   3.676   8.809  1.00  0.00     0.198 A 
ATOM     82  C   UNL     1     -10.971   4.290   8.207  1.00  0.00     0.198 A 
ATOM     83  F   UNL     1     -10.528   5.169   6.069  1.00  0.00    -0.203 F 
ATOM     84  F   UNL     1     -14.089   3.235   9.720  1.00  0.00    -0.200 F 
ATOM     85  C   UNL     1     -11.871   3.801   9.142  1.00  0.00     0.200 A 
ATOM     86  F   UNL     1      -9.674   4.403   8.521  1.00  0.00    -0.200 F 
ATOM     87  F   UNL     1     -11.448   3.461  10.367  1.00  0.00    -0.200 F 
ENDBRANCH  53  77
BRANCH  65  88
ATOM     88  C   UNL     1     -16.892   9.777   4.564  1.00  0.00     0.064 A 
ATOM     89  C   UNL     1     -16.213  10.838   5.181  1.00  0.00     0.173 A 
ATOM     90  C   UNL     1     -18.290   9.741   4.671  1.00  0.00     0.173 A 
ATOM     91  F   UNL     1     -14.874  10.910   5.120  1.00  0.00    -0.203 F 
ATOM     92  C   UNL     1     -16.904  11.805   5.907  1.00  0.00     0.198 A 
ATOM     93  C   UNL     1     -18.981  10.725   5.374  1.00  0.00     0.198 A 
ATOM     94  F   UNL     1     -18.988   8.752   4.093  1.00  0.00    -0.203 F 
ATOM     95  F   UNL     1     -16.230  12.778   6.535  1.00  0.00    -0.200 F 
ATOM     96  C   UNL     1     -18.287  11.750   5.999  1.00  0.00     0.200 A 
ATOM     97  F   UNL     1     -20.318  10.677   5.452  1.00  0.00    -0.200 F 
ATOM     98  F   UNL     1     -18.950  12.680   6.699  1.00  0.00    -0.200 F 
ENDBRANCH  65  88
ENDBRANCH  39  40
ENDBRANCH  32  34
ENDBRANCH  31  32
ENDBRANCH  30  31
ENDBRANCH  29  30
ENDBRANCH   1  29
TORSDOF 17
