REMARK SMILES COC(=O)[C@H]1CCN(C(=O)N2C[C@@H](C)[C@@H](C(=O)OCCOCCOC(=O)c3ccc(-c4c5nc(c(-c6c(F)c(F)c(F)c(F)c6F)c6ccc([nH]6)c(-c6c(F)c(F)c(F)c(F)c6F)c6nc(c(-c7c(F)c(F)c(F)c(F)c7F)c7ccc4[nH]7)C=C6)C=C5)cc3)C2)C1
REMARK SMILES IDX 20 1 19 2 18 3 16 4 17 5 15 6 11 7 12 8 90 9 13 10 14 11
REMARK SMILES IDX 9 12 10 13 8 14 5 15 6 16 91 17 7 18 3 19 4 20 2 21 1 22
REMARK SMILES IDX 21 23 22 24 23 25 24 26 25 27 26 28 27 29 28 30 89 31 29 32
REMARK SMILES IDX 88 33 30 34 31 35 32 36 82 37 33 38 87 39 81 40 83 41 34 42
REMARK SMILES IDX 86 43 80 44 79 45 35 47 67 48 47 49 66 50 48 51 51 52 65 53
REMARK SMILES IDX 84 54 49 55 50 56 64 58 85 59 52 60 36 61 37 62 45 63 38 64
REMARK SMILES IDX 39 65 43 66 46 67 40 68 41 69 44 70 42 71 68 72 69 73 77 74
REMARK SMILES IDX 70 75 71 76 75 77 78 78 72 79 73 80 76 81 74 82 53 83 54 84
REMARK SMILES IDX 62 85 55 86 56 87 60 88 63 89 57 90 58 91 61 92 59 93
REMARK H PARENT 83 46 51 57
REMARK Flexibility Score: inf
ROOT
ATOM      1  C   UNL     1      -7.509   8.292   3.051  1.00  0.00     0.202 C 
ENDROOT
BRANCH   1   2
ATOM      2  C   UNL     1      -7.735   6.793   2.850  1.00  0.00     0.261 C 
BRANCH   2   3
ATOM      3  O   UNL     1      -6.510   6.040   2.793  1.00  0.00    -0.463 OA
BRANCH   3   4
ATOM      4  C   UNL     1      -6.226   5.492   1.582  1.00  0.00     0.311 C 
ATOM      5  O   UNL     1      -6.843   5.714   0.548  1.00  0.00    -0.252 OA
BRANCH   4   6
ATOM      6  C   UNL     1      -5.071   4.524   1.635  1.00  0.00     0.123 C 
ATOM      7  N   UNL     1      -3.067   4.291   2.815  1.00  0.00    -0.323 N 
ATOM      8  C   UNL     1      -4.072   3.702   3.674  1.00  0.00     0.125 C 
ATOM      9  C   UNL     1      -3.717   5.197   1.893  1.00  0.00     0.137 C 
ATOM     10  C   UNL     1      -5.171   3.373   2.672  1.00  0.00     0.021 C 
ATOM     11  C   UNL     1      -6.516   3.102   3.322  1.00  0.00     0.010 C 
BRANCH   7  12
ATOM     12  C   UNL     1      -1.708   4.191   2.923  1.00  0.00     0.320 C 
ATOM     13  O   UNL     1      -0.973   5.145   2.672  1.00  0.00    -0.248 OA
BRANCH  12  14
ATOM     14  N   UNL     1      -1.206   2.958   3.267  1.00  0.00    -0.324 N 
ATOM     15  C   UNL     1       0.424   1.281   3.690  1.00  0.00     0.120 C 
ATOM     16  C   UNL     1      -0.985   0.683   3.695  1.00  0.00     0.039 C 
ATOM     17  C   UNL     1       0.188   2.791   3.660  1.00  0.00     0.136 C 
ATOM     18  C   UNL     1      -1.762   1.677   2.865  1.00  0.00     0.122 C 
BRANCH  15  19
ATOM     19  C   UNL     1       1.233   0.864   4.890  1.00  0.00     0.310 C 
ATOM     20  O   UNL     1       0.790   0.286   5.872  1.00  0.00    -0.252 OA
BRANCH  19  21
ATOM     21  O   UNL     1       2.543   1.188   4.701  1.00  0.00    -0.469 OA
ATOM     22  C   UNL     1       3.401   0.743   5.753  1.00  0.00     0.282 C 
ENDBRANCH  19  21
ENDBRANCH  15  19
ENDBRANCH  12  14
ENDBRANCH   7  12
ENDBRANCH   4   6
ENDBRANCH   3   4
ENDBRANCH   2   3
ENDBRANCH   1   2
BRANCH   1  23
ATOM     23  O   UNL     1      -6.831   8.972   2.000  1.00  0.00    -0.374 OA
BRANCH  23  24
ATOM     24  C   UNL     1      -5.409   8.854   1.970  1.00  0.00     0.202 C 
BRANCH  24  25
ATOM     25  C   UNL     1      -4.642   9.724   2.974  1.00  0.00     0.261 C 
BRANCH  25  26
ATOM     26  O   UNL     1      -4.853   9.296   4.335  1.00  0.00    -0.460 OA
BRANCH  26  27
ATOM     27  C   UNL     1      -5.517  10.176   5.118  1.00  0.00     0.338 C 
ATOM     28  O   UNL     1      -5.894  11.302   4.821  1.00  0.00    -0.246 OA
BRANCH  27  29
ATOM     29  C   UNL     1      -5.906   9.532   6.386  1.00  0.00     0.060 A 
ATOM     30  C   UNL     1      -7.261   9.562   6.743  1.00  0.00     0.016 A 
ATOM     31  C   UNL     1      -4.959   8.974   7.248  1.00  0.00     0.016 A 
ATOM     32  C   UNL     1      -7.670   9.064   7.979  1.00  0.00     0.010 A 
ATOM     33  C   UNL     1      -5.371   8.486   8.493  1.00  0.00     0.010 A 
ATOM     34  C   UNL     1      -6.723   8.551   8.875  1.00  0.00    -0.014 A 
BRANCH  34  35
ATOM     35  C   UNL     1      -7.136   8.175  10.249  1.00  0.00     0.031 A 
ATOM     36  C   UNL     1      -6.927   9.147  11.376  1.00  0.00     0.074 A 
ATOM     37  C   UNL     1      -7.705   6.981  10.486  1.00  0.00     0.049 A 
ATOM     38  N   UNL     1      -7.176   9.004  12.653  1.00  0.00    -0.248 NA
ATOM     39  C   UNL     1      -6.365  10.458  11.015  1.00  0.00     0.031 C 
ATOM     40  C   UNL     1      -7.995   5.970   9.472  1.00  0.00     0.029 A 
ATOM     41  N   UNL     1      -8.133   6.414  11.661  1.00  0.00    -0.354 N 
ATOM     42  C   UNL     1      -6.802  10.201  13.248  1.00  0.00     0.074 A 
ATOM     43  C   UNL     1      -6.284  11.052  12.197  1.00  0.00     0.031 C 
ATOM     44  C   UNL     1      -8.541   4.897  10.071  1.00  0.00     0.029 A 
ATOM     45  C   UNL     1      -8.608   5.135  11.512  1.00  0.00     0.049 A 
ATOM     46  H   UNL     1      -8.102   6.880  12.528  1.00  0.00     0.167 HD
ATOM     47  C   UNL     1      -6.889  10.560  14.551  1.00  0.00     0.037 A 
ATOM     48  C   UNL     1      -9.025   4.249  12.437  1.00  0.00     0.037 A 
ATOM     49  C   UNL     1      -7.400   9.713  15.596  1.00  0.00     0.049 A 
ATOM     50  C   UNL     1      -9.031   4.642  13.890  1.00  0.00     0.074 A 
ATOM     51  C   UNL     1      -7.557   9.999  16.942  1.00  0.00     0.029 A 
ATOM     52  N   UNL     1      -7.827   8.406  15.414  1.00  0.00    -0.354 N 
ATOM     53  N   UNL     1      -8.704   5.786  14.440  1.00  0.00    -0.248 NA
ATOM     54  C   UNL     1      -9.460   3.617  14.853  1.00  0.00     0.031 C 
ATOM     55  C   UNL     1      -8.032   8.849  17.581  1.00  0.00     0.029 A 
ATOM     56  C   UNL     1      -8.216   7.861  16.628  1.00  0.00     0.049 A 
ATOM     57  H   UNL     1      -7.851   7.935  14.550  1.00  0.00     0.167 HD
ATOM     58  C   UNL     1      -8.905   5.627  15.805  1.00  0.00     0.074 A 
ATOM     59  C   UNL     1      -9.399   4.279  16.000  1.00  0.00     0.031 C 
ATOM     60  C   UNL     1      -8.700   6.516  16.807  1.00  0.00     0.037 A 
BRANCH  47  61
ATOM     61  C   UNL     1      -6.400  11.928  14.927  1.00  0.00     0.064 A 
ATOM     62  C   UNL     1      -7.123  13.084  14.596  1.00  0.00     0.173 A 
ATOM     63  C   UNL     1      -5.217  12.080  15.665  1.00  0.00     0.173 A 
ATOM     64  F   UNL     1      -8.254  12.991  13.882  1.00  0.00    -0.203 F 
ATOM     65  C   UNL     1      -6.667  14.344  14.973  1.00  0.00     0.198 A 
ATOM     66  C   UNL     1      -4.777  13.340  16.060  1.00  0.00     0.198 A 
ATOM     67  F   UNL     1      -4.492  11.005  16.010  1.00  0.00    -0.203 F 
ATOM     68  F   UNL     1      -7.353  15.438  14.614  1.00  0.00    -0.200 F 
ATOM     69  C   UNL     1      -5.498  14.471  15.710  1.00  0.00     0.200 A 
ATOM     70  F   UNL     1      -3.654  13.460  16.782  1.00  0.00    -0.200 F 
ATOM     71  F   UNL     1      -5.065  15.685  16.078  1.00  0.00    -0.200 F 
ENDBRANCH  47  61
BRANCH  48  72
ATOM     72  C   UNL     1      -9.452   2.889  12.019  1.00  0.00     0.064 A 
ATOM     73  C   UNL     1     -10.793   2.491  12.111  1.00  0.00     0.173 A 
ATOM     74  C   UNL     1      -8.525   1.955  11.531  1.00  0.00     0.173 A 
ATOM     75  F   UNL     1     -11.710   3.340  12.596  1.00  0.00    -0.203 F 
ATOM     76  C   UNL     1     -11.188   1.207  11.743  1.00  0.00     0.198 A 
ATOM     77  C   UNL     1      -8.926   0.681  11.139  1.00  0.00     0.198 A 
ATOM     78  F   UNL     1      -7.230   2.286  11.427  1.00  0.00    -0.203 F 
ATOM     79  F   UNL     1     -12.469   0.839  11.878  1.00  0.00    -0.200 F 
ATOM     80  C   UNL     1     -10.256   0.305  11.251  1.00  0.00     0.200 A 
ATOM     81  F   UNL     1      -8.025  -0.184  10.654  1.00  0.00    -0.200 F 
ATOM     82  F   UNL     1     -10.639  -0.928  10.893  1.00  0.00    -0.200 F 
ENDBRANCH  48  72
BRANCH  60  83
ATOM     83  C   UNL     1      -9.021   6.068  18.202  1.00  0.00     0.064 A 
ATOM     84  C   UNL     1      -8.202   5.158  18.886  1.00  0.00     0.173 A 
ATOM     85  C   UNL     1     -10.138   6.584  18.878  1.00  0.00     0.173 A 
ATOM     86  F   UNL     1      -7.132   4.624  18.277  1.00  0.00    -0.203 F 
ATOM     87  C   UNL     1      -8.501   4.764  20.188  1.00  0.00     0.198 A 
ATOM     88  C   UNL     1     -10.418   6.209  20.189  1.00  0.00     0.198 A 
ATOM     89  F   UNL     1     -10.950   7.461  18.270  1.00  0.00    -0.203 F 
ATOM     90  F   UNL     1      -7.728   3.861  20.807  1.00  0.00    -0.200 F 
ATOM     91  C   UNL     1      -9.604   5.295  20.840  1.00  0.00     0.200 A 
ATOM     92  F   UNL     1     -11.478   6.731  20.822  1.00  0.00    -0.200 F 
ATOM     93  F   UNL     1      -9.886   4.920  22.096  1.00  0.00    -0.200 F 
ENDBRANCH  60  83
ENDBRANCH  34  35
ENDBRANCH  27  29
ENDBRANCH  26  27
ENDBRANCH  25  26
ENDBRANCH  24  25
ENDBRANCH  23  24
ENDBRANCH   1  23
TORSDOF 18
