REMARK SMILES Cc1cccc(CC(=O)N2CCC3(CCC(=O)N([C@H](C)C(=O)OCCOCCOC(=O)c4ccc(-c5c6nc(c(-c7c(F)c(F)c(F)c(F)c7F)c7ccc([nH]7)c(-c7c(F)c(F)c(F)c(F)c7F)c7nc(c(-c8c(F)c(F)c(F)c(F)c8F)c8ccc5[nH]8)C=C7)C=C6)cc4)C3)CC2)c1
REMARK SMILES IDX 25 1 24 2 23 3 21 4 22 5 19 6 20 7 18 8 8 9 9 10 10 11 11 12
REMARK SMILES IDX 97 13 12 14 96 15 13 16 14 17 95 18 15 19 16 20 17 21 7 22
REMARK SMILES IDX 6 23 1 24 2 25 3 26 98 27 4 28 5 29 26 30 27 31 28 32 29 33
REMARK SMILES IDX 30 34 31 35 32 36 33 37 94 38 34 39 93 40 35 41 36 42 37 43
REMARK SMILES IDX 87 44 38 45 92 46 86 47 88 48 39 49 91 50 85 51 84 52 40 54
REMARK SMILES IDX 72 55 52 56 71 57 53 58 56 59 70 60 89 61 54 62 55 63 69 65
REMARK SMILES IDX 90 66 57 67 41 68 42 69 50 70 43 71 44 72 48 73 51 74 45 75
REMARK SMILES IDX 46 76 49 77 47 78 73 79 74 80 82 81 75 82 76 83 80 84 83 85
REMARK SMILES IDX 77 86 78 87 81 88 79 89 58 90 59 91 67 92 60 93 61 94 65 95
REMARK SMILES IDX 68 96 62 97 63 98 66 99 64 100
REMARK H PARENT 88 53 56 64
REMARK Flexibility Score: inf
ROOT
ATOM      1  C   UNL     1      -2.273   4.995  -6.459  1.00  0.00     0.202 C 
ENDROOT
BRANCH   1   2
ATOM      2  C   UNL     1      -1.913   5.808  -7.676  1.00  0.00     0.261 C 
BRANCH   2   3
ATOM      3  O   UNL     1      -0.693   6.574  -7.627  1.00  0.00    -0.462 OA
BRANCH   3   4
ATOM      4  C   UNL     1      -0.074   6.930  -6.479  1.00  0.00     0.328 C 
ATOM      5  O   UNL     1      -0.446   7.817  -5.721  1.00  0.00    -0.250 OA
BRANCH   4   6
ATOM      6  C   UNL     1       1.248   6.195  -6.325  1.00  0.00     0.192 C 
ATOM      7  C   UNL     1       1.071   4.750  -5.872  1.00  0.00     0.044 C 
BRANCH   6   8
ATOM      8  N   UNL     1       2.095   6.329  -7.525  1.00  0.00    -0.329 N 
ATOM      9  C   UNL     1       8.195   5.257  -6.958  1.00  0.00     0.226 C 
ATOM     10  O   UNL     1       8.418   4.067  -6.701  1.00  0.00    -0.275 OA
ATOM     11  N   UNL     1       7.119   5.617  -7.757  1.00  0.00    -0.342 N 
ATOM     12  C   UNL     1       6.028   4.666  -7.895  1.00  0.00     0.120 C 
ATOM     13  C   UNL     1       6.907   6.868  -8.487  1.00  0.00     0.120 C 
ATOM     14  C   UNL     1       4.762   5.325  -7.371  1.00  0.00     0.030 C 
ATOM     15  C   UNL     1       5.661   7.592  -7.981  1.00  0.00     0.030 C 
ATOM     16  C   UNL     1       4.436   6.665  -8.100  1.00  0.00    -0.008 C 
ATOM     17  C   UNL     1       4.055   6.507  -9.584  1.00  0.00     0.019 C 
ATOM     18  C   UNL     1       3.200   7.280  -7.448  1.00  0.00     0.127 C 
ATOM     19  C   UNL     1       2.876   5.583  -9.771  1.00  0.00     0.101 C 
ATOM     20  C   UNL     1       1.810   5.631  -8.698  1.00  0.00     0.223 C 
ATOM     21  O   UNL     1       0.802   4.944  -8.864  1.00  0.00    -0.275 OA
BRANCH   9  22
ATOM     22  C   UNL     1       8.982   6.314  -6.194  1.00  0.00     0.135 C 
BRANCH  22  23
ATOM     23  C   UNL     1       9.513   7.482  -6.975  1.00  0.00    -0.038 A 
ATOM     24  C   UNL     1       8.781  11.210  -7.251  1.00  0.00     0.044 C 
ATOM     25  C   UNL     1       9.355   9.851  -7.516  1.00  0.00    -0.051 A 
ATOM     26  C   UNL     1      10.149   9.626  -8.646  1.00  0.00     0.003 A 
ATOM     27  C   UNL     1       9.067   8.779  -6.666  1.00  0.00     0.007 A 
ATOM     28  C   UNL     1      10.650   8.351  -8.923  1.00  0.00     0.001 A 
ATOM     29  C   UNL     1      10.341   7.280  -8.087  1.00  0.00     0.004 A 
ENDBRANCH  22  23
ENDBRANCH   9  22
ENDBRANCH   6   8
ENDBRANCH   4   6
ENDBRANCH   3   4
ENDBRANCH   2   3
ENDBRANCH   1   2
BRANCH   1  30
ATOM     30  O   UNL     1      -2.321   5.871  -5.350  1.00  0.00    -0.374 OA
BRANCH  30  31
ATOM     31  C   UNL     1      -2.619   5.286  -4.095  1.00  0.00     0.202 C 
BRANCH  31  32
ATOM     32  C   UNL     1      -4.013   4.649  -4.052  1.00  0.00     0.261 C 
BRANCH  32  33
ATOM     33  O   UNL     1      -5.026   5.662  -4.239  1.00  0.00    -0.460 OA
BRANCH  33  34
ATOM     34  C   UNL     1      -5.510   5.795  -5.505  1.00  0.00     0.338 C 
ATOM     35  O   UNL     1      -5.987   4.888  -6.175  1.00  0.00    -0.246 OA
BRANCH  34  36
ATOM     36  C   UNL     1      -5.137   7.130  -6.059  1.00  0.00     0.060 A 
ATOM     37  C   UNL     1      -5.295   7.410  -7.431  1.00  0.00     0.016 A 
ATOM     38  C   UNL     1      -4.329   7.949  -5.279  1.00  0.00     0.016 A 
ATOM     39  C   UNL     1      -4.517   8.409  -8.047  1.00  0.00     0.010 A 
ATOM     40  C   UNL     1      -3.468   8.816  -5.913  1.00  0.00     0.010 A 
ATOM     41  C   UNL     1      -3.536   9.052  -7.298  1.00  0.00    -0.014 A 
BRANCH  41  42
ATOM     42  C   UNL     1      -2.481   9.951  -7.782  1.00  0.00     0.031 A 
ATOM     43  C   UNL     1      -2.395  11.305  -7.173  1.00  0.00     0.074 A 
ATOM     44  C   UNL     1      -1.410   9.482  -8.469  1.00  0.00     0.049 A 
ATOM     45  N   UNL     1      -1.517  12.190  -7.492  1.00  0.00    -0.248 NA
ATOM     46  C   UNL     1      -3.327  11.797  -6.163  1.00  0.00     0.031 C 
ATOM     47  C   UNL     1      -0.039   9.999  -8.408  1.00  0.00     0.029 A 
ATOM     48  N   UNL     1      -1.309   8.415  -9.371  1.00  0.00    -0.354 N 
ATOM     49  C   UNL     1      -1.538  13.185  -6.543  1.00  0.00     0.074 A 
ATOM     50  C   UNL     1      -2.753  12.949  -5.808  1.00  0.00     0.031 C 
ATOM     51  C   UNL     1       0.696   9.455  -9.388  1.00  0.00     0.029 A 
ATOM     52  C   UNL     1      -0.198   8.664 -10.204  1.00  0.00     0.049 A 
ATOM     53  H   UNL     1      -1.905   7.634  -9.416  1.00  0.00     0.167 HD
ATOM     54  C   UNL     1      -0.449  14.004  -6.459  1.00  0.00     0.037 A 
ATOM     55  C   UNL     1      -0.319   8.728 -11.557  1.00  0.00     0.037 A 
ATOM     56  C   UNL     1       0.474  13.734  -7.576  1.00  0.00     0.049 A 
ATOM     57  C   UNL     1       0.033  10.106 -12.035  1.00  0.00     0.074 A 
ATOM     58  C   UNL     1       1.709  13.112  -7.675  1.00  0.00     0.029 A 
ATOM     59  N   UNL     1       0.004  13.867  -8.884  1.00  0.00    -0.354 N 
ATOM     60  N   UNL     1       0.018  11.138 -11.235  1.00  0.00    -0.248 NA
ATOM     61  C   UNL     1       0.503  10.444 -13.371  1.00  0.00     0.031 C 
ATOM     62  C   UNL     1       1.959  12.850  -9.052  1.00  0.00     0.029 A 
ATOM     63  C   UNL     1       0.892  13.332  -9.795  1.00  0.00     0.049 A 
ATOM     64  H   UNL     1      -0.853  14.287  -9.125  1.00  0.00     0.167 HD
ATOM     65  C   UNL     1       0.507  12.230 -11.880  1.00  0.00     0.074 A 
ATOM     66  C   UNL     1       0.770  11.757 -13.227  1.00  0.00     0.031 C 
ATOM     67  C   UNL     1       0.649  13.423 -11.235  1.00  0.00     0.037 A 
BRANCH  54  68
ATOM     68  C   UNL     1      -0.097  14.942  -5.309  1.00  0.00     0.064 A 
ATOM     69  C   UNL     1       1.164  15.586  -5.276  1.00  0.00     0.173 A 
ATOM     70  C   UNL     1      -0.905  15.225  -4.188  1.00  0.00     0.173 A 
ATOM     71  F   UNL     1       2.050  15.445  -6.271  1.00  0.00    -0.203 F 
ATOM     72  C   UNL     1       1.578  16.401  -4.213  1.00  0.00     0.198 A 
ATOM     73  C   UNL     1      -0.495  16.045  -3.129  1.00  0.00     0.198 A 
ATOM     74  F   UNL     1      -2.134  14.736  -4.043  1.00  0.00    -0.203 F 
ATOM     75  F   UNL     1       2.796  16.960  -4.239  1.00  0.00    -0.200 F 
ATOM     76  C   UNL     1       0.748  16.629  -3.137  1.00  0.00     0.200 A 
ATOM     77  F   UNL     1      -1.327  16.255  -2.098  1.00  0.00    -0.200 F 
ATOM     78  F   UNL     1       1.140  17.407  -2.119  1.00  0.00    -0.200 F 
ENDBRANCH  54  68
BRANCH  55  79
ATOM     79  C   UNL     1      -1.346   7.772 -12.056  1.00  0.00     0.064 A 
ATOM     80  C   UNL     1      -0.982   6.408 -11.993  1.00  0.00     0.173 A 
ATOM     81  C   UNL     1      -2.711   8.080 -11.958  1.00  0.00     0.173 A 
ATOM     82  F   UNL     1       0.310   6.060 -12.107  1.00  0.00    -0.203 F 
ATOM     83  C   UNL     1      -1.909   5.427 -11.647  1.00  0.00     0.198 A 
ATOM     84  C   UNL     1      -3.636   7.091 -11.608  1.00  0.00     0.198 A 
ATOM     85  F   UNL     1      -3.121   9.355 -12.018  1.00  0.00    -0.203 F 
ATOM     86  F   UNL     1      -1.509   4.163 -11.444  1.00  0.00    -0.200 F 
ATOM     87  C   UNL     1      -3.226   5.780 -11.404  1.00  0.00     0.200 A 
ATOM     88  F   UNL     1      -4.910   7.426 -11.356  1.00  0.00    -0.200 F 
ATOM     89  F   UNL     1      -4.086   4.871 -10.921  1.00  0.00    -0.200 F 
ENDBRANCH  55  79
BRANCH  67  90
ATOM     90  C   UNL     1       0.650  14.771 -11.910  1.00  0.00     0.064 A 
ATOM     91  C   UNL     1       0.166  14.990 -13.211  1.00  0.00     0.173 A 
ATOM     92  C   UNL     1       0.970  15.942 -11.180  1.00  0.00     0.173 A 
ATOM     93  F   UNL     1      -0.295  13.989 -13.971  1.00  0.00    -0.203 F 
ATOM     94  C   UNL     1       0.074  16.269 -13.762  1.00  0.00     0.198 A 
ATOM     95  C   UNL     1       0.806  17.220 -11.708  1.00  0.00     0.198 A 
ATOM     96  F   UNL     1       1.414  15.892  -9.916  1.00  0.00    -0.203 F 
ATOM     97  F   UNL     1      -0.348  16.413 -15.026  1.00  0.00    -0.200 F 
ATOM     98  C   UNL     1       0.378  17.383 -13.007  1.00  0.00     0.200 A 
ATOM     99  F   UNL     1       1.041  18.291 -10.937  1.00  0.00    -0.200 F 
ATOM    100  F   UNL     1       0.235  18.610 -13.522  1.00  0.00    -0.200 F 
ENDBRANCH  67  90
ENDBRANCH  41  42
ENDBRANCH  34  36
ENDBRANCH  33  34
ENDBRANCH  32  33
ENDBRANCH  31  32
ENDBRANCH  30  31
ENDBRANCH   1  30
TORSDOF 17
