REMARK SMILES Cc1oc(C)c(C(=O)Nc2cc(C(=O)OCCOCCOC(=O)c3ccc(-c4c5nc(c(-c6c(F)c(F)c(F)c(F)c6F)c6ccc([nH]6)c(-c6c(F)c(F)c(F)c(F)c6F)c6nc(c(-c7c(F)c(F)c(F)c(F)c7F)c7ccc4[nH]7)C=C6)C=C5)cc3)ccc2Cl)c1C
REMARK SMILES IDX 18 1 17 2 16 3 15 4 13 5 14 6 12 7 10 8 11 9 89 10 88 11
REMARK SMILES IDX 90 12 87 13 9 14 7 15 8 16 6 18 1 19 2 20 3 21 91 22 4 23
REMARK SMILES IDX 92 24 5 25 19 26 20 27 21 28 22 29 23 30 24 31 25 32 86 33
REMARK SMILES IDX 26 34 85 35 27 36 28 37 29 38 79 39 30 40 84 41 78 42 80 43
REMARK SMILES IDX 31 44 83 45 77 46 76 47 32 49 64 50 44 51 63 52 45 53 48 54
REMARK SMILES IDX 62 55 81 56 46 57 47 58 61 60 82 61 49 62 33 63 34 64 42 65
REMARK SMILES IDX 35 66 36 67 40 68 43 69 37 70 38 71 41 72 39 73 65 74 66 75
REMARK SMILES IDX 74 76 67 77 68 78 72 79 75 80 69 81 70 82 73 83 71 84 50 85
REMARK SMILES IDX 51 86 59 87 52 88 53 89 57 90 60 91 54 92 55 93 58 94 56 95
REMARK H PARENT 9 17 80 48 48 59
REMARK Flexibility Score: inf
ROOT
ATOM      1  O   UNL     1      -7.768   2.335   1.634  1.00  0.00    -0.374 OA
ENDROOT
BRANCH   1   2
ATOM      2  C   UNL     1      -6.926   3.465   1.871  1.00  0.00     0.202 C 
BRANCH   2   3
ATOM      3  C   UNL     1      -5.452   3.230   2.199  1.00  0.00     0.261 C 
BRANCH   3   4
ATOM      4  O   UNL     1      -4.748   2.688   1.069  1.00  0.00    -0.460 OA
BRANCH   4   5
ATOM      5  C   UNL     1      -4.262   1.448   1.268  1.00  0.00     0.338 C 
ATOM      6  O   UNL     1      -4.239   0.823   2.324  1.00  0.00    -0.246 OA
BRANCH   5   7
ATOM      7  C   UNL     1      -3.886   0.811  -0.008  1.00  0.00     0.062 A 
ATOM      8  C   UNL     1      -3.401  -1.326  -1.031  1.00  0.00     0.061 A 
ATOM      9  C   UNL     1      -4.101  -0.571  -0.092  1.00  0.00     0.043 A 
ATOM     10  C   UNL     1      -2.648  -0.671  -2.018  1.00  0.00     0.064 A 
ATOM     11  C   UNL     1      -2.559   0.731  -2.016  1.00  0.00     0.023 A 
ATOM     12  Cl  UNL     1      -1.854  -1.535  -3.282  1.00  0.00    -0.082 Cl
ATOM     13  C   UNL     1      -3.152   1.478  -0.991  1.00  0.00     0.017 A 
BRANCH   8  14
ATOM     14  N   UNL     1      -3.429  -2.712  -0.819  1.00  0.00    -0.320 N 
ATOM     15  C   UNL     1      -2.394  -3.570  -0.483  1.00  0.00     0.259 C 
ATOM     16  O   UNL     1      -2.681  -4.764  -0.384  1.00  0.00    -0.269 OA
ATOM     17  H   UNL     1      -4.311  -3.137  -0.923  1.00  0.00     0.170 HD
BRANCH  15  18
ATOM     18  C   UNL     1      -1.040  -3.076  -0.231  1.00  0.00     0.084 A 
ATOM     19  C   UNL     1       1.822  -0.756   0.075  1.00  0.00     0.088 C 
ATOM     20  C   UNL     1       0.808  -1.828   0.029  1.00  0.00     0.104 A 
ATOM     21  O   UNL     1       1.218  -3.059  -0.358  1.00  0.00    -0.466 OA
ATOM     22  C   UNL     1      -0.531  -1.864   0.362  1.00  0.00     0.003 A 
ATOM     23  C   UNL     1       0.107  -3.847  -0.397  1.00  0.00     0.114 A 
ATOM     24  C   UNL     1      -1.196  -0.827   1.181  1.00  0.00     0.049 C 
ATOM     25  C   UNL     1       0.375  -5.292  -0.570  1.00  0.00     0.088 C 
ENDBRANCH  15  18
ENDBRANCH   8  14
ENDBRANCH   5   7
ENDBRANCH   4   5
ENDBRANCH   3   4
ENDBRANCH   2   3
ENDBRANCH   1   2
BRANCH   1  26
ATOM     26  C   UNL     1      -7.466   1.395   0.613  1.00  0.00     0.202 C 
BRANCH  26  27
ATOM     27  C   UNL     1      -7.536   1.828  -0.846  1.00  0.00     0.261 C 
BRANCH  27  28
ATOM     28  O   UNL     1      -6.801   3.009  -1.129  1.00  0.00    -0.460 OA
BRANCH  28  29
ATOM     29  C   UNL     1      -7.580   4.113  -1.168  1.00  0.00     0.338 C 
ATOM     30  O   UNL     1      -8.703   4.242  -0.706  1.00  0.00    -0.246 OA
BRANCH  29  31
ATOM     31  C   UNL     1      -6.954   5.113  -2.033  1.00  0.00     0.060 A 
ATOM     32  C   UNL     1      -7.692   6.279  -2.243  1.00  0.00     0.016 A 
ATOM     33  C   UNL     1      -5.874   4.753  -2.854  1.00  0.00     0.016 A 
ATOM     34  C   UNL     1      -7.506   6.955  -3.424  1.00  0.00     0.010 A 
ATOM     35  C   UNL     1      -5.690   5.430  -4.035  1.00  0.00     0.010 A 
ATOM     36  C   UNL     1      -6.575   6.457  -4.344  1.00  0.00    -0.014 A 
BRANCH  36  37
ATOM     37  C   UNL     1      -6.490   7.124  -5.622  1.00  0.00     0.031 A 
ATOM     38  C   UNL     1      -5.928   8.485  -5.506  1.00  0.00     0.074 A 
ATOM     39  C   UNL     1      -6.837   6.534  -6.780  1.00  0.00     0.049 A 
ATOM     40  N   UNL     1      -6.542   9.603  -5.693  1.00  0.00    -0.248 NA
ATOM     41  C   UNL     1      -4.583   8.619  -4.924  1.00  0.00     0.031 C 
ATOM     42  C   UNL     1      -7.168   5.133  -7.041  1.00  0.00     0.029 A 
ATOM     43  N   UNL     1      -6.883   7.093  -8.017  1.00  0.00    -0.354 N 
ATOM     44  C   UNL     1      -5.600  10.590  -5.436  1.00  0.00     0.074 A 
ATOM     45  C   UNL     1      -4.486   9.942  -4.796  1.00  0.00     0.031 C 
ATOM     46  C   UNL     1      -7.148   4.913  -8.377  1.00  0.00     0.029 A 
ATOM     47  C   UNL     1      -6.939   6.178  -9.059  1.00  0.00     0.049 A 
ATOM     48  H   UNL     1      -6.878   8.067  -8.162  1.00  0.00     0.167 HD
ATOM     49  C   UNL     1      -5.709  11.817  -6.009  1.00  0.00     0.037 A 
ATOM     50  C   UNL     1      -6.718   6.472 -10.366  1.00  0.00     0.037 A 
ATOM     51  C   UNL     1      -7.061  12.078  -6.434  1.00  0.00     0.049 A 
ATOM     52  C   UNL     1      -6.932   7.939 -10.527  1.00  0.00     0.074 A 
ATOM     53  C   UNL     1      -8.275  12.135  -5.775  1.00  0.00     0.029 A 
ATOM     54  N   UNL     1      -7.370  11.923  -7.764  1.00  0.00    -0.354 N 
ATOM     55  N   UNL     1      -8.099   8.512 -10.403  1.00  0.00    -0.248 NA
ATOM     56  C   UNL     1      -5.783   8.811 -10.313  1.00  0.00     0.031 C 
ATOM     57  C   UNL     1      -9.201  11.500  -6.655  1.00  0.00     0.029 A 
ATOM     58  C   UNL     1      -8.519  11.172  -7.826  1.00  0.00     0.049 A 
ATOM     59  H   UNL     1      -6.865  12.282  -8.528  1.00  0.00     0.167 HD
ATOM     60  C   UNL     1      -7.849   9.674  -9.688  1.00  0.00     0.074 A 
ATOM     61  C   UNL     1      -6.396   9.831  -9.704  1.00  0.00     0.031 C 
ATOM     62  C   UNL     1      -8.804  10.242  -8.893  1.00  0.00     0.037 A 
BRANCH  49  63
ATOM     63  C   UNL     1      -4.521  12.589  -6.515  1.00  0.00     0.064 A 
ATOM     64  C   UNL     1      -4.700  13.912  -6.958  1.00  0.00     0.173 A 
ATOM     65  C   UNL     1      -3.285  11.992  -6.855  1.00  0.00     0.173 A 
ATOM     66  F   UNL     1      -5.848  14.563  -6.715  1.00  0.00    -0.203 F 
ATOM     67  C   UNL     1      -3.741  14.560  -7.739  1.00  0.00     0.198 A 
ATOM     68  C   UNL     1      -2.309  12.662  -7.585  1.00  0.00     0.198 A 
ATOM     69  F   UNL     1      -3.015  10.707  -6.602  1.00  0.00    -0.203 F 
ATOM     70  F   UNL     1      -4.006  15.773  -8.244  1.00  0.00    -0.200 F 
ATOM     71  C   UNL     1      -2.548  13.934  -8.055  1.00  0.00     0.200 A 
ATOM     72  F   UNL     1      -1.170  12.027  -7.897  1.00  0.00    -0.200 F 
ATOM     73  F   UNL     1      -1.654  14.531  -8.852  1.00  0.00    -0.200 F 
ENDBRANCH  49  63
BRANCH  50  74
ATOM     74  C   UNL     1      -5.967   5.659 -11.357  1.00  0.00     0.064 A 
ATOM     75  C   UNL     1      -6.010   5.960 -12.729  1.00  0.00     0.173 A 
ATOM     76  C   UNL     1      -4.977   4.740 -10.953  1.00  0.00     0.173 A 
ATOM     77  F   UNL     1      -6.884   6.864 -13.193  1.00  0.00    -0.203 F 
ATOM     78  C   UNL     1      -5.108   5.388 -13.636  1.00  0.00     0.198 A 
ATOM     79  C   UNL     1      -4.083   4.167 -11.858  1.00  0.00     0.198 A 
ATOM     80  F   UNL     1      -4.790   4.451  -9.658  1.00  0.00    -0.203 F 
ATOM     81  F   UNL     1      -5.142   5.744 -14.928  1.00  0.00    -0.200 F 
ATOM     82  C   UNL     1      -4.140   4.499 -13.198  1.00  0.00     0.200 A 
ATOM     83  F   UNL     1      -3.127   3.340 -11.413  1.00  0.00    -0.200 F 
ATOM     84  F   UNL     1      -3.240   3.997 -14.054  1.00  0.00    -0.200 F 
ENDBRANCH  50  74
BRANCH  62  85
ATOM     85  C   UNL     1     -10.207   9.703  -8.966  1.00  0.00     0.064 A 
ATOM     86  C   UNL     1     -10.560   8.380  -8.643  1.00  0.00     0.173 A 
ATOM     87  C   UNL     1     -11.252  10.603  -9.214  1.00  0.00     0.173 A 
ATOM     88  F   UNL     1      -9.630   7.485  -8.287  1.00  0.00    -0.203 F 
ATOM     89  C   UNL     1     -11.895   7.973  -8.613  1.00  0.00     0.198 A 
ATOM     90  C   UNL     1     -12.584  10.204  -9.145  1.00  0.00     0.198 A 
ATOM     91  F   UNL     1     -10.980  11.892  -9.470  1.00  0.00    -0.203 F 
ATOM     92  F   UNL     1     -12.204   6.704  -8.309  1.00  0.00    -0.200 F 
ATOM     93  C   UNL     1     -12.905   8.888  -8.856  1.00  0.00     0.200 A 
ATOM     94  F   UNL     1     -13.558  11.106  -9.329  1.00  0.00    -0.200 F 
ATOM     95  F   UNL     1     -14.189   8.510  -8.783  1.00  0.00    -0.200 F 
ENDBRANCH  62  85
ENDBRANCH  36  37
ENDBRANCH  29  31
ENDBRANCH  28  29
ENDBRANCH  27  28
ENDBRANCH  26  27
ENDBRANCH   1  26
TORSDOF 16
