REMARK SMILES Nn1c(S[C@@H](C(=O)OCCOCCOC(=O)c2ccc(-c3c4nc(c(-c5c(F)c(F)c(F)c(F)c5F)c5ccc([nH]5)c(-c5c(F)c(F)c(F)c(F)c5F)c5nc(c(-c6c(F)c(F)c(F)c(F)c6F)c6ccc3[nH]6)C=C5)C=C4)cc2)c2ccccc2)nc2ccc(Br)cc2c1=O
REMARK SMILES IDX 10 1 9 2 8 3 6 4 7 5 5 6 4 7 3 8 2 9 94 10 86 11 93 12 95 13
REMARK SMILES IDX 87 14 92 15 88 16 90 17 89 18 91 19 1 20 80 23 81 24 85 25
REMARK SMILES IDX 82 26 84 27 83 28 11 29 12 30 13 31 14 32 15 33 16 34 17 35
REMARK SMILES IDX 18 36 79 37 19 38 78 39 20 40 21 41 22 42 72 43 23 44 77 45
REMARK SMILES IDX 71 46 73 47 24 48 76 49 70 50 69 51 25 53 57 54 37 55 56 56
REMARK SMILES IDX 38 57 41 58 55 59 74 60 39 61 40 62 54 64 75 65 42 66 26 67
REMARK SMILES IDX 27 68 35 69 28 70 29 71 33 72 36 73 30 74 31 75 34 76 32 77
REMARK SMILES IDX 58 78 59 79 67 80 60 81 61 82 65 83 68 84 62 85 63 86 66 87
REMARK SMILES IDX 64 88 43 89 44 90 52 91 45 92 46 93 50 94 53 95 47 96 48 97
REMARK SMILES IDX 51 98 49 99
REMARK H PARENT 1 21 1 22 73 52 41 63
REMARK Flexibility Score: inf
ROOT
ATOM      1  C   UNL     1       4.270   1.534   2.304  1.00  0.00     0.202 C 
ENDROOT
BRANCH   1   2
ATOM      2  C   UNL     1       4.611   0.535   1.186  1.00  0.00     0.261 C 
BRANCH   2   3
ATOM      3  O   UNL     1       3.777   0.603  -0.001  1.00  0.00    -0.462 OA
BRANCH   3   4
ATOM      4  C   UNL     1       3.089  -0.546  -0.305  1.00  0.00     0.324 C 
ATOM      5  O   UNL     1       3.009  -1.468   0.502  1.00  0.00    -0.251 OA
BRANCH   4   6
ATOM      6  C   UNL     1       2.506  -0.592  -1.748  1.00  0.00     0.194 C 
BRANCH   6   7
ATOM      7  S   UNL     1       1.837   1.002  -2.266  1.00  0.00    -0.066 SA
BRANCH   7   8
ATOM      8  C   UNL     1       0.291   1.400  -1.542  1.00  0.00     0.191 A 
ATOM      9  N   UNL     1      -0.369   0.696  -0.527  1.00  0.00    -0.202 N 
ATOM     10  C   UNL     1      -1.489   1.232   0.129  1.00  0.00     0.280 A 
ATOM     11  N   UNL     1      -0.181   2.516  -2.011  1.00  0.00    -0.222 NA
ATOM     12  C   UNL     1      -2.004   2.506  -0.383  1.00  0.00     0.069 A 
ATOM     13  O   UNL     1      -2.010   0.702   1.110  1.00  0.00    -0.267 OA
ATOM     14  C   UNL     1      -1.352   3.064  -1.478  1.00  0.00     0.079 A 
ATOM     15  C   UNL     1      -3.106   3.131   0.211  1.00  0.00     0.031 A 
ATOM     16  C   UNL     1      -1.855   4.249  -2.021  1.00  0.00     0.030 A 
ATOM     17  C   UNL     1      -3.581   4.320  -0.331  1.00  0.00     0.018 A 
ATOM     18  C   UNL     1      -2.971   4.876  -1.455  1.00  0.00     0.018 A 
ATOM     19  Br  UNL     1      -5.061   5.187   0.461  1.00  0.00    -0.051 Br
BRANCH   9  20
ATOM     20  N   UNL     1       0.003  -0.587  -0.076  1.00  0.00    -0.334 N 
ATOM     21  H   UNL     1       0.777  -1.045  -0.476  1.00  0.00     0.178 HD
ATOM     22  H   UNL     1      -0.512  -1.026   0.640  1.00  0.00     0.178 HD
ENDBRANCH   9  20
ENDBRANCH   7   8
ENDBRANCH   6   7
BRANCH   6  23
ATOM     23  C   UNL     1       1.663  -1.843  -2.066  1.00  0.00    -0.023 A 
ATOM     24  C   UNL     1       2.075  -3.098  -1.580  1.00  0.00     0.005 A 
ATOM     25  C   UNL     1       0.425  -1.792  -2.736  1.00  0.00     0.005 A 
ATOM     26  C   UNL     1       1.199  -4.184  -1.549  1.00  0.00     0.000 A 
ATOM     27  C   UNL     1      -0.458  -2.874  -2.694  1.00  0.00     0.000 A 
ATOM     28  C   UNL     1      -0.085  -4.056  -2.063  1.00  0.00     0.000 A 
ENDBRANCH   6  23
ENDBRANCH   4   6
ENDBRANCH   3   4
ENDBRANCH   2   3
ENDBRANCH   1   2
BRANCH   1  29
ATOM     29  O   UNL     1       3.082   1.358   3.074  1.00  0.00    -0.374 OA
BRANCH  29  30
ATOM     30  C   UNL     1       1.851   1.292   2.377  1.00  0.00     0.202 C 
BRANCH  30  31
ATOM     31  C   UNL     1       1.309   2.567   1.728  1.00  0.00     0.261 C 
BRANCH  31  32
ATOM     32  O   UNL     1       2.297   3.490   1.314  1.00  0.00    -0.460 OA
BRANCH  32  33
ATOM     33  C   UNL     1       2.445   4.539   2.149  1.00  0.00     0.338 C 
ATOM     34  O   UNL     1       1.798   4.820   3.141  1.00  0.00    -0.246 OA
BRANCH  33  35
ATOM     35  C   UNL     1       3.676   5.208   1.734  1.00  0.00     0.060 A 
ATOM     36  C   UNL     1       3.812   5.706   0.435  1.00  0.00     0.016 A 
ATOM     37  C   UNL     1       4.722   5.263   2.657  1.00  0.00     0.016 A 
ATOM     38  C   UNL     1       5.013   6.298   0.066  1.00  0.00     0.010 A 
ATOM     39  C   UNL     1       5.918   5.859   2.288  1.00  0.00     0.010 A 
ATOM     40  C   UNL     1       6.058   6.399   1.001  1.00  0.00    -0.014 A 
BRANCH  40  41
ATOM     41  C   UNL     1       7.249   7.212   0.696  1.00  0.00     0.031 A 
ATOM     42  C   UNL     1       8.573   6.574   0.432  1.00  0.00     0.074 A 
ATOM     43  C   UNL     1       7.109   8.549   0.736  1.00  0.00     0.049 A 
ATOM     44  N   UNL     1       9.724   7.145   0.190  1.00  0.00    -0.248 NA
ATOM     45  C   UNL     1       8.618   5.104   0.453  1.00  0.00     0.031 C 
ATOM     46  C   UNL     1       5.854   9.249   1.025  1.00  0.00     0.029 A 
ATOM     47  N   UNL     1       8.017   9.554   0.546  1.00  0.00    -0.354 N 
ATOM     48  C   UNL     1      10.630   6.109   0.020  1.00  0.00     0.074 A 
ATOM     49  C   UNL     1       9.906   4.873   0.231  1.00  0.00     0.031 C 
ATOM     50  C   UNL     1       6.068  10.571   0.972  1.00  0.00     0.029 A 
ATOM     51  C   UNL     1       7.478  10.808   0.688  1.00  0.00     0.049 A 
ATOM     52  H   UNL     1       8.963   9.393   0.328  1.00  0.00     0.167 HD
ATOM     53  C   UNL     1      11.942   6.198  -0.300  1.00  0.00     0.037 A 
ATOM     54  C   UNL     1       8.065  12.015   0.606  1.00  0.00     0.037 A 
ATOM     55  C   UNL     1      12.638   7.446  -0.490  1.00  0.00     0.049 A 
ATOM     56  C   UNL     1       9.532  12.079   0.294  1.00  0.00     0.074 A 
ATOM     57  C   UNL     1      13.959   7.650  -0.848  1.00  0.00     0.029 A 
ATOM     58  N   UNL     1      12.070   8.703  -0.324  1.00  0.00    -0.354 N 
ATOM     59  N   UNL     1      10.370  11.096   0.068  1.00  0.00    -0.248 NA
ATOM     60  C   UNL     1      10.135  13.415   0.223  1.00  0.00     0.031 C 
ATOM     61  C   UNL     1      14.204   9.026  -0.844  1.00  0.00     0.029 A 
ATOM     62  C   UNL     1      13.022   9.685  -0.544  1.00  0.00     0.049 A 
ATOM     63  H   UNL     1      11.130   8.870  -0.086  1.00  0.00     0.167 HD
ATOM     64  C   UNL     1      11.595  11.692  -0.190  1.00  0.00     0.074 A 
ATOM     65  C   UNL     1      11.384  13.124  -0.115  1.00  0.00     0.031 C 
ATOM     66  C   UNL     1      12.788  11.107  -0.459  1.00  0.00     0.037 A 
BRANCH  53  67
ATOM     67  C   UNL     1      12.713   4.921  -0.471  1.00  0.00     0.064 A 
ATOM     68  C   UNL     1      12.486   4.071  -1.564  1.00  0.00     0.173 A 
ATOM     69  C   UNL     1      13.741   4.580   0.421  1.00  0.00     0.173 A 
ATOM     70  F   UNL     1      11.509   4.345  -2.442  1.00  0.00    -0.203 F 
ATOM     71  C   UNL     1      13.249   2.921  -1.750  1.00  0.00     0.198 A 
ATOM     72  C   UNL     1      14.522   3.444   0.216  1.00  0.00     0.198 A 
ATOM     73  F   UNL     1      14.004   5.359   1.481  1.00  0.00    -0.203 F 
ATOM     74  F   UNL     1      12.991   2.107  -2.783  1.00  0.00    -0.200 F 
ATOM     75  C   UNL     1      14.273   2.614  -0.866  1.00  0.00     0.200 A 
ATOM     76  F   UNL     1      15.520   3.157   1.063  1.00  0.00    -0.200 F 
ATOM     77  F   UNL     1      15.018   1.516  -1.057  1.00  0.00    -0.200 F 
ENDBRANCH  53  67
BRANCH  54  78
ATOM     78  C   UNL     1       7.246  13.240   0.787  1.00  0.00     0.064 A 
ATOM     79  C   UNL     1       6.976  14.085  -0.298  1.00  0.00     0.173 A 
ATOM     80  C   UNL     1       6.675  13.565   2.026  1.00  0.00     0.173 A 
ATOM     81  F   UNL     1       7.509  13.822  -1.500  1.00  0.00    -0.203 F 
ATOM     82  C   UNL     1       6.175  15.214  -0.147  1.00  0.00     0.198 A 
ATOM     83  C   UNL     1       5.849  14.678   2.168  1.00  0.00     0.198 A 
ATOM     84  F   UNL     1       6.892  12.781   3.093  1.00  0.00    -0.203 F 
ATOM     85  F   UNL     1       5.958  16.022  -1.194  1.00  0.00    -0.200 F 
ATOM     86  C   UNL     1       5.604  15.504   1.083  1.00  0.00     0.200 A 
ATOM     87  F   UNL     1       5.282  14.942   3.354  1.00  0.00    -0.200 F 
ATOM     88  F   UNL     1       4.819  16.581   1.222  1.00  0.00    -0.200 F 
ENDBRANCH  54  78
BRANCH  66  89
ATOM     89  C   UNL     1      13.959  12.014  -0.701  1.00  0.00     0.064 A 
ATOM     90  C   UNL     1      14.550  12.739   0.343  1.00  0.00     0.173 A 
ATOM     91  C   UNL     1      14.538  12.105  -1.976  1.00  0.00     0.173 A 
ATOM     92  F   UNL     1      14.024  12.697   1.577  1.00  0.00    -0.203 F 
ATOM     93  C   UNL     1      15.669  13.535   0.117  1.00  0.00     0.198 A 
ATOM     94  C   UNL     1      15.677  12.875  -2.192  1.00  0.00     0.198 A 
ATOM     95  F   UNL     1      14.014  11.426  -3.008  1.00  0.00    -0.203 F 
ATOM     96  F   UNL     1      16.194  14.251   1.121  1.00  0.00    -0.200 F 
ATOM     97  C   UNL     1      16.238  13.593  -1.147  1.00  0.00     0.200 A 
ATOM     98  F   UNL     1      16.236  12.915  -3.409  1.00  0.00    -0.200 F 
ATOM     99  F   UNL     1      17.328  14.344  -1.358  1.00  0.00    -0.200 F 
ENDBRANCH  66  89
ENDBRANCH  40  41
ENDBRANCH  33  35
ENDBRANCH  32  33
ENDBRANCH  31  32
ENDBRANCH  30  31
ENDBRANCH  29  30
ENDBRANCH   1  29
TORSDOF 18
