REMARK SMILES O=C(CSc1ccccc1C(=O)OCCOCCOC(=O)c1ccc(-c2c3nc(c(-c4c(F)c(F)c(F)c(F)c4F)c4ccc([nH]4)c(-c4c(F)c(F)c(F)c(F)c4F)c4nc(c(-c5c(F)c(F)c(F)c(F)c5F)c5ccc2[nH]5)C=C4)C=C3)cc1)c1ccc(Cl)cc1
REMARK SMILES IDX 15 1 14 2 13 3 11 4 12 5 10 6 5 7 6 8 7 9 9 10 8 11 4 12
REMARK SMILES IDX 3 13 2 14 1 15 85 16 86 17 91 18 87 19 90 20 88 21 89 22
REMARK SMILES IDX 16 23 17 24 18 25 19 26 20 27 21 28 22 29 23 30 84 31 24 32
REMARK SMILES IDX 83 33 25 34 26 35 27 36 77 37 28 38 82 39 76 40 78 41 29 42
REMARK SMILES IDX 81 43 75 44 74 45 30 47 62 48 42 49 61 50 43 51 46 52 60 53
REMARK SMILES IDX 79 54 44 55 45 56 59 58 80 59 47 60 31 61 32 62 40 63 33 64
REMARK SMILES IDX 34 65 38 66 41 67 35 68 36 69 39 70 37 71 63 72 64 73 72 74
REMARK SMILES IDX 65 75 66 76 70 77 73 78 67 79 68 80 71 81 69 82 48 83 49 84
REMARK SMILES IDX 57 85 50 86 51 87 55 88 58 89 52 90 53 91 56 92 54 93
REMARK H PARENT 78 46 46 57
REMARK Flexibility Score: inf
ROOT
ATOM      1  C   UNL     1       6.157  -4.312   1.037  1.00  0.00     0.202 C 
ENDROOT
BRANCH   1   2
ATOM      2  C   UNL     1       4.994  -3.450   0.533  1.00  0.00     0.261 C 
BRANCH   2   3
ATOM      3  O   UNL     1       4.439  -2.559   1.507  1.00  0.00    -0.460 OA
BRANCH   3   4
ATOM      4  C   UNL     1       3.130  -2.752   1.799  1.00  0.00     0.339 C 
ATOM      5  O   UNL     1       2.391  -3.589   1.301  1.00  0.00    -0.246 OA
BRANCH   4   6
ATOM      6  C   UNL     1       2.696  -1.897   2.928  1.00  0.00     0.073 A 
ATOM      7  C   UNL     1       2.891  -0.506   3.000  1.00  0.00     0.022 A 
ATOM      8  C   UNL     1       2.359   0.185   4.104  1.00  0.00     0.016 A 
ATOM      9  C   UNL     1       1.679  -0.490   5.123  1.00  0.00     0.001 A 
ATOM     10  C   UNL     1       2.011  -2.569   3.959  1.00  0.00     0.017 A 
ATOM     11  C   UNL     1       1.519  -1.870   5.060  1.00  0.00     0.001 A 
BRANCH   7  12
ATOM     12  S   UNL     1       3.910   0.436   1.871  1.00  0.00    -0.117 SA
BRANCH  12  13
ATOM     13  C   UNL     1       2.686   1.142   0.730  1.00  0.00     0.156 C 
BRANCH  13  14
ATOM     14  C   UNL     1       1.977   0.113  -0.122  1.00  0.00     0.173 C 
ATOM     15  O   UNL     1       0.776  -0.107   0.046  1.00  0.00    -0.293 OA
BRANCH  14  16
ATOM     16  C   UNL     1       2.694  -0.610  -1.225  1.00  0.00     0.018 A 
ATOM     17  C   UNL     1       4.080  -0.547  -1.416  1.00  0.00     0.013 A 
ATOM     18  C   UNL     1       1.932  -1.421  -2.082  1.00  0.00     0.013 A 
ATOM     19  C   UNL     1       4.694  -1.334  -2.400  1.00  0.00     0.021 A 
ATOM     20  C   UNL     1       2.545  -2.199  -3.070  1.00  0.00     0.021 A 
ATOM     21  C   UNL     1       3.928  -2.171  -3.207  1.00  0.00     0.041 A 
ATOM     22  Cl  UNL     1       4.704  -3.194  -4.350  1.00  0.00    -0.084 Cl
ENDBRANCH  14  16
ENDBRANCH  13  14
ENDBRANCH  12  13
ENDBRANCH   7  12
ENDBRANCH   4   6
ENDBRANCH   3   4
ENDBRANCH   2   3
ENDBRANCH   1   2
BRANCH   1  23
ATOM     23  O   UNL     1       6.090  -4.837   2.352  1.00  0.00    -0.374 OA
BRANCH  23  24
ATOM     24  C   UNL     1       6.074  -3.922   3.445  1.00  0.00     0.202 C 
BRANCH  24  25
ATOM     25  C   UNL     1       7.191  -2.872   3.552  1.00  0.00     0.261 C 
BRANCH  25  26
ATOM     26  O   UNL     1       7.193  -1.879   2.505  1.00  0.00    -0.460 OA
BRANCH  26  27
ATOM     27  C   UNL     1       8.319  -1.831   1.755  1.00  0.00     0.338 C 
ATOM     28  O   UNL     1       9.274  -2.594   1.797  1.00  0.00    -0.246 OA
BRANCH  27  29
ATOM     29  C   UNL     1       8.264  -0.726   0.784  1.00  0.00     0.060 A 
ATOM     30  C   UNL     1       8.320  -1.014  -0.586  1.00  0.00     0.016 A 
ATOM     31  C   UNL     1       8.365   0.590   1.236  1.00  0.00     0.016 A 
ATOM     32  C   UNL     1       8.515   0.020  -1.510  1.00  0.00     0.010 A 
ATOM     33  C   UNL     1       8.568   1.618   0.312  1.00  0.00     0.010 A 
ATOM     34  C   UNL     1       8.677   1.339  -1.062  1.00  0.00    -0.014 A 
BRANCH  34  35
ATOM     35  C   UNL     1       9.092   2.429  -1.983  1.00  0.00     0.031 A 
ATOM     36  C   UNL     1      10.530   2.871  -1.996  1.00  0.00     0.074 A 
ATOM     37  C   UNL     1       8.190   3.069  -2.748  1.00  0.00     0.049 A 
ATOM     38  N   UNL     1      11.075   3.920  -2.558  1.00  0.00    -0.248 NA
ATOM     39  C   UNL     1      11.480   2.015  -1.269  1.00  0.00     0.031 C 
ATOM     40  C   UNL     1       6.780   2.711  -2.870  1.00  0.00     0.029 A 
ATOM     41  N   UNL     1       8.327   4.183  -3.542  1.00  0.00    -0.354 N 
ATOM     42  C   UNL     1      12.425   3.863  -2.238  1.00  0.00     0.074 A 
ATOM     43  C   UNL     1      12.615   2.683  -1.420  1.00  0.00     0.031 C 
ATOM     44  C   UNL     1       6.172   3.608  -3.665  1.00  0.00     0.029 A 
ATOM     45  C   UNL     1       7.139   4.628  -4.067  1.00  0.00     0.049 A 
ATOM     46  H   UNL     1       9.193   4.618  -3.716  1.00  0.00     0.167 HD
ATOM     47  C   UNL     1      13.415   4.718  -2.591  1.00  0.00     0.037 A 
ATOM     48  C   UNL     1       6.858   5.753  -4.755  1.00  0.00     0.037 A 
ATOM     49  C   UNL     1      13.225   5.892  -3.403  1.00  0.00     0.049 A 
ATOM     50  C   UNL     1       7.960   6.737  -5.064  1.00  0.00     0.074 A 
ATOM     51  C   UNL     1      14.170   6.814  -3.822  1.00  0.00     0.029 A 
ATOM     52  N   UNL     1      12.006   6.310  -3.912  1.00  0.00    -0.354 N 
ATOM     53  N   UNL     1       9.234   6.675  -4.764  1.00  0.00    -0.248 NA
ATOM     54  C   UNL     1       7.582   7.950  -5.806  1.00  0.00     0.031 C 
ATOM     55  C   UNL     1      13.513   7.818  -4.539  1.00  0.00     0.029 A 
ATOM     56  C   UNL     1      12.170   7.489  -4.622  1.00  0.00     0.049 A 
ATOM     57  H   UNL     1      11.150   5.840  -3.788  1.00  0.00     0.167 HD
ATOM     58  C   UNL     1       9.815   7.811  -5.317  1.00  0.00     0.074 A 
ATOM     59  C   UNL     1       8.754   8.549  -5.967  1.00  0.00     0.031 C 
ATOM     60  C   UNL     1      11.113   8.199  -5.295  1.00  0.00     0.037 A 
BRANCH  47  61
ATOM     61  C   UNL     1      14.796   4.437  -2.073  1.00  0.00     0.064 A 
ATOM     62  C   UNL     1      15.562   3.365  -2.554  1.00  0.00     0.173 A 
ATOM     63  C   UNL     1      15.379   5.281  -1.115  1.00  0.00     0.173 A 
ATOM     64  F   UNL     1      15.049   2.523  -3.464  1.00  0.00    -0.203 F 
ATOM     65  C   UNL     1      16.850   3.134  -2.076  1.00  0.00     0.198 A 
ATOM     66  C   UNL     1      16.677   5.065  -0.662  1.00  0.00     0.198 A 
ATOM     67  F   UNL     1      14.693   6.326  -0.628  1.00  0.00    -0.203 F 
ATOM     68  F   UNL     1      17.547   2.078  -2.518  1.00  0.00    -0.200 F 
ATOM     69  C   UNL     1      17.409   3.988  -1.137  1.00  0.00     0.200 A 
ATOM     70  F   UNL     1      17.221   5.901   0.234  1.00  0.00    -0.200 F 
ATOM     71  F   UNL     1      18.651   3.769  -0.685  1.00  0.00    -0.200 F 
ENDBRANCH  47  61
BRANCH  48  72
ATOM     72  C   UNL     1       5.462   6.030  -5.184  1.00  0.00     0.064 A 
ATOM     73  C   UNL     1       5.109   6.021  -6.541  1.00  0.00     0.173 A 
ATOM     74  C   UNL     1       4.458   6.330  -4.252  1.00  0.00     0.173 A 
ATOM     75  F   UNL     1       6.040   5.766  -7.472  1.00  0.00    -0.203 F 
ATOM     76  C   UNL     1       3.812   6.322  -6.950  1.00  0.00     0.198 A 
ATOM     77  C   UNL     1       3.154   6.601  -4.659  1.00  0.00     0.198 A 
ATOM     78  F   UNL     1       4.742   6.352  -2.941  1.00  0.00    -0.203 F 
ATOM     79  F   UNL     1       3.514   6.355  -8.255  1.00  0.00    -0.200 F 
ATOM     80  C   UNL     1       2.833   6.605  -6.008  1.00  0.00     0.200 A 
ATOM     81  F   UNL     1       2.209   6.862  -3.745  1.00  0.00    -0.200 F 
ATOM     82  F   UNL     1       1.585   6.891  -6.402  1.00  0.00    -0.200 F 
ENDBRANCH  48  72
BRANCH  60  83
ATOM     83  C   UNL     1      11.491   9.439  -6.055  1.00  0.00     0.064 A 
ATOM     84  C   UNL     1      11.161  10.722  -5.596  1.00  0.00     0.173 A 
ATOM     85  C   UNL     1      12.266   9.338  -7.221  1.00  0.00     0.173 A 
ATOM     86  F   UNL     1      10.411  10.874  -4.495  1.00  0.00    -0.203 F 
ATOM     87  C   UNL     1      11.585  11.858  -6.284  1.00  0.00     0.198 A 
ATOM     88  C   UNL     1      12.711  10.475  -7.889  1.00  0.00     0.198 A 
ATOM     89  F   UNL     1      12.614   8.133  -7.699  1.00  0.00    -0.203 F 
ATOM     90  F   UNL     1      11.232  13.075  -5.845  1.00  0.00    -0.200 F 
ATOM     91  C   UNL     1      12.368  11.734  -7.422  1.00  0.00     0.200 A 
ATOM     92  F   UNL     1      13.481  10.352  -8.980  1.00  0.00    -0.200 F 
ATOM     93  F   UNL     1      12.790  12.828  -8.070  1.00  0.00    -0.200 F 
ENDBRANCH  60  83
ENDBRANCH  34  35
ENDBRANCH  27  29
ENDBRANCH  26  27
ENDBRANCH  25  26
ENDBRANCH  24  25
ENDBRANCH  23  24
ENDBRANCH   1  23
TORSDOF 18
