REMARK SMILES O=C(OCCOCCOC(=O)[C@H]1C[C@H](O)CN1C(=O)CS[C@H]1CCS(=O)(=O)C1)c1ccc(-c2c3nc(c(-c4c(F)c(F)c(F)c(F)c4F)c4ccc([nH]4)c(-c4c(F)c(F)c(F)c(F)c4F)c4nc(c(-c5c(F)c(F)c(F)c(F)c5F)c5ccc2[nH]5)C=C4)C=C3)cc1
REMARK SMILES IDX 7 1 6 2 5 3 4 4 3 5 2 6 1 7 29 8 30 9 91 10 31 11 90 12
REMARK SMILES IDX 32 13 33 14 34 15 84 16 35 17 89 18 83 19 85 20 36 21 88 22
REMARK SMILES IDX 82 23 81 24 37 26 69 27 49 28 68 29 50 30 53 31 67 32 86 33
REMARK SMILES IDX 51 34 52 35 66 37 87 38 54 39 38 40 39 41 47 42 40 43 41 44
REMARK SMILES IDX 45 45 48 46 42 47 43 48 46 49 44 50 70 51 71 52 79 53 72 54
REMARK SMILES IDX 73 55 77 56 80 57 74 58 75 59 78 60 76 61 55 62 56 63 64 64
REMARK SMILES IDX 57 65 58 66 62 67 65 68 59 69 60 70 63 71 61 72 8 73 9 74
REMARK SMILES IDX 10 75 11 76 12 77 13 78 17 79 14 80 16 81 18 82 19 83 20 84
REMARK SMILES IDX 21 85 22 86 23 87 28 88 24 89 25 90 26 91 27 92 15 93
REMARK H PARENT 85 25 53 36 15 94
REMARK Flexibility Score: inf
ROOT
ATOM      1  C   UNL     1       1.713   0.679  -5.996  1.00  0.00     0.202 C 
ENDROOT
BRANCH   1   2
ATOM      2  O   UNL     1       0.972  -0.495  -5.672  1.00  0.00    -0.374 OA
BRANCH   2   3
ATOM      3  C   UNL     1       0.263  -1.277  -6.625  1.00  0.00     0.202 C 
BRANCH   3   4
ATOM      4  C   UNL     1      -0.361  -0.651  -7.883  1.00  0.00     0.261 C 
BRANCH   4   5
ATOM      5  O   UNL     1      -0.094   0.753  -8.096  1.00  0.00    -0.460 OA
BRANCH   5   6
ATOM      6  C   UNL     1      -0.936   1.780  -7.791  1.00  0.00     0.338 C 
ATOM      7  O   UNL     1      -0.808   2.886  -8.298  1.00  0.00    -0.246 OA
BRANCH   6   8
ATOM      8  C   UNL     1      -2.001   1.540  -6.795  1.00  0.00     0.060 A 
ATOM      9  C   UNL     1      -1.728   0.754  -5.694  1.00  0.00     0.016 A 
ATOM     10  C   UNL     1      -3.267   2.106  -6.900  1.00  0.00     0.016 A 
ATOM     11  C   UNL     1      -2.714   0.215  -4.924  1.00  0.00     0.010 A 
ATOM     12  C   UNL     1      -4.238   1.775  -5.946  1.00  0.00     0.010 A 
ATOM     13  C   UNL     1      -3.967   0.785  -4.984  1.00  0.00    -0.014 A 
BRANCH  13  14
ATOM     14  C   UNL     1      -4.952   0.240  -4.042  1.00  0.00     0.031 A 
ATOM     15  C   UNL     1      -6.120  -0.492  -4.607  1.00  0.00     0.074 A 
ATOM     16  C   UNL     1      -4.671   0.240  -2.722  1.00  0.00     0.049 A 
ATOM     17  N   UNL     1      -7.173  -0.957  -3.999  1.00  0.00    -0.248 NA
ATOM     18  C   UNL     1      -6.097  -0.741  -6.059  1.00  0.00     0.031 C 
ATOM     19  C   UNL     1      -3.436   0.760  -2.113  1.00  0.00     0.029 A 
ATOM     20  N   UNL     1      -5.363  -0.264  -1.658  1.00  0.00    -0.354 N 
ATOM     21  C   UNL     1      -7.972  -1.484  -5.002  1.00  0.00     0.074 A 
ATOM     22  C   UNL     1      -7.279  -1.300  -6.255  1.00  0.00     0.031 C 
ATOM     23  C   UNL     1      -3.435   0.488  -0.802  1.00  0.00     0.029 A 
ATOM     24  C   UNL     1      -4.724  -0.083  -0.455  1.00  0.00     0.049 A 
ATOM     25  H   UNL     1      -6.234  -0.714  -1.745  1.00  0.00     0.167 HD
ATOM     26  C   UNL     1      -9.193  -2.045  -4.862  1.00  0.00     0.037 A 
ATOM     27  C   UNL     1      -5.174  -0.291   0.793  1.00  0.00     0.037 A 
ATOM     28  C   UNL     1      -9.817  -2.211  -3.579  1.00  0.00     0.049 A 
ATOM     29  C   UNL     1      -6.581  -0.800   0.921  1.00  0.00     0.074 A 
ATOM     30  C   UNL     1     -11.081  -2.676  -3.278  1.00  0.00     0.029 A 
ATOM     31  N   UNL     1      -9.195  -1.912  -2.368  1.00  0.00    -0.354 N 
ATOM     32  N   UNL     1      -7.413  -1.168  -0.027  1.00  0.00    -0.248 NA
ATOM     33  C   UNL     1      -7.129  -0.888   2.276  1.00  0.00     0.031 C 
ATOM     34  C   UNL     1     -11.242  -2.607  -1.889  1.00  0.00     0.029 A 
ATOM     35  C   UNL     1     -10.057  -2.161  -1.317  1.00  0.00     0.049 A 
ATOM     36  H   UNL     1      -8.276  -1.573  -2.276  1.00  0.00     0.167 HD
ATOM     37  C   UNL     1      -8.580  -1.547   0.613  1.00  0.00     0.074 A 
ATOM     38  C   UNL     1      -8.336  -1.381   2.036  1.00  0.00     0.031 C 
ATOM     39  C   UNL     1      -9.749  -1.985   0.083  1.00  0.00     0.037 A 
BRANCH  26  40
ATOM     40  C   UNL     1      -9.930  -2.376  -6.125  1.00  0.00     0.064 A 
ATOM     41  C   UNL     1      -9.523  -3.405  -6.988  1.00  0.00     0.173 A 
ATOM     42  C   UNL     1     -11.010  -1.575  -6.527  1.00  0.00     0.173 A 
ATOM     43  F   UNL     1      -8.469  -4.173  -6.673  1.00  0.00    -0.203 F 
ATOM     44  C   UNL     1     -10.139  -3.588  -8.225  1.00  0.00     0.198 A 
ATOM     45  C   UNL     1     -11.644  -1.782  -7.749  1.00  0.00     0.198 A 
ATOM     46  F   UNL     1     -11.429  -0.565  -5.750  1.00  0.00    -0.203 F 
ATOM     47  F   UNL     1      -9.675  -4.519  -9.071  1.00  0.00    -0.200 F 
ATOM     48  C   UNL     1     -11.199  -2.778  -8.603  1.00  0.00     0.200 A 
ATOM     49  F   UNL     1     -12.666  -0.995  -8.113  1.00  0.00    -0.200 F 
ATOM     50  F   UNL     1     -11.775  -2.941  -9.802  1.00  0.00    -0.200 F 
ENDBRANCH  26  40
BRANCH  27  51
ATOM     51  C   UNL     1      -4.340   0.065   1.973  1.00  0.00     0.064 A 
ATOM     52  C   UNL     1      -3.922  -0.909   2.889  1.00  0.00     0.173 A 
ATOM     53  C   UNL     1      -3.936   1.390   2.212  1.00  0.00     0.173 A 
ATOM     54  F   UNL     1      -4.293  -2.187   2.722  1.00  0.00    -0.203 F 
ATOM     55  C   UNL     1      -3.149  -0.572   4.001  1.00  0.00     0.198 A 
ATOM     56  C   UNL     1      -3.135   1.721   3.304  1.00  0.00     0.198 A 
ATOM     57  F   UNL     1      -4.304   2.369   1.372  1.00  0.00    -0.203 F 
ATOM     58  F   UNL     1      -2.804  -1.518   4.885  1.00  0.00    -0.200 F 
ATOM     59  C   UNL     1      -2.750   0.741   4.203  1.00  0.00     0.200 A 
ATOM     60  F   UNL     1      -2.739   2.989   3.482  1.00  0.00    -0.200 F 
ATOM     61  F   UNL     1      -2.005   1.062   5.269  1.00  0.00    -0.200 F 
ENDBRANCH  27  51
BRANCH  39  62
ATOM     62  C   UNL     1     -10.822  -2.354   1.058  1.00  0.00     0.064 A 
ATOM     63  C   UNL     1     -11.530  -1.381   1.777  1.00  0.00     0.173 A 
ATOM     64  C   UNL     1     -11.177  -3.700   1.230  1.00  0.00     0.173 A 
ATOM     65  F   UNL     1     -11.209  -0.084   1.657  1.00  0.00    -0.203 F 
ATOM     66  C   UNL     1     -12.546  -1.747   2.653  1.00  0.00     0.198 A 
ATOM     67  C   UNL     1     -12.217  -4.058   2.079  1.00  0.00     0.198 A 
ATOM     68  F   UNL     1     -10.528  -4.662   0.557  1.00  0.00    -0.203 F 
ATOM     69  F   UNL     1     -13.180  -0.808   3.369  1.00  0.00    -0.200 F 
ATOM     70  C   UNL     1     -12.895  -3.083   2.794  1.00  0.00     0.200 A 
ATOM     71  F   UNL     1     -12.565  -5.346   2.200  1.00  0.00    -0.200 F 
ATOM     72  F   UNL     1     -13.886  -3.431   3.627  1.00  0.00    -0.200 F 
ENDBRANCH  39  62
ENDBRANCH  13  14
ENDBRANCH   6   8
ENDBRANCH   5   6
ENDBRANCH   4   5
ENDBRANCH   3   4
ENDBRANCH   2   3
ENDBRANCH   1   2
BRANCH   1  73
ATOM     73  C   UNL     1       2.878   0.785  -5.006  1.00  0.00     0.261 C 
BRANCH  73  74
ATOM     74  O   UNL     1       3.844  -0.215  -5.361  1.00  0.00    -0.462 OA
BRANCH  74  75
ATOM     75  C   UNL     1       3.455  -1.497  -5.061  1.00  0.00     0.329 C 
ATOM     76  O   UNL     1       2.650  -1.814  -4.195  1.00  0.00    -0.250 OA
BRANCH  75  77
ATOM     77  C   UNL     1       3.990  -2.456  -6.130  1.00  0.00     0.197 C 
ATOM     78  C   UNL     1       3.336  -2.212  -7.495  1.00  0.00     0.070 C 
ATOM     79  N   UNL     1       5.407  -2.217  -6.329  1.00  0.00    -0.325 N 
ATOM     80  C   UNL     1       4.400  -1.708  -8.447  1.00  0.00     0.136 C 
ATOM     81  C   UNL     1       5.700  -1.752  -7.668  1.00  0.00     0.152 C 
BRANCH  79  82
ATOM     82  C   UNL     1       6.258  -2.478  -5.272  1.00  0.00     0.233 C 
ATOM     83  O   UNL     1       5.818  -2.932  -4.213  1.00  0.00    -0.274 OA
BRANCH  82  84
ATOM     84  C   UNL     1       7.739  -2.182  -5.418  1.00  0.00     0.169 C 
BRANCH  84  85
ATOM     85  S   UNL     1       8.701  -3.722  -5.690  1.00  0.00    -0.148 SA
BRANCH  85  86
ATOM     86  C   UNL     1       8.113  -4.146  -7.348  1.00  0.00     0.063 C 
ATOM     87  C   UNL     1       8.681  -3.182  -8.404  1.00  0.00     0.031 C 
ATOM     88  C   UNL     1       8.478  -5.529  -7.861  1.00  0.00     0.151 C 
ATOM     89  C   UNL     1       8.156  -3.665  -9.753  1.00  0.00     0.138 C 
ATOM     90  S   UNL     1       7.926  -5.427  -9.567  1.00  0.00     0.151 S 
ATOM     91  O   UNL     1       6.501  -5.685  -9.597  1.00  0.00    -0.229 OA
ATOM     92  O   UNL     1       8.866  -6.119 -10.424  1.00  0.00    -0.229 OA
ENDBRANCH  85  86
ENDBRANCH  84  85
ENDBRANCH  82  84
ENDBRANCH  79  82
BRANCH  80  93
ATOM     93  O   UNL     1       4.447  -2.525  -9.614  1.00  0.00    -0.391 OA
ATOM     94  H   UNL     1       4.627  -3.443  -9.359  1.00  0.00     0.211 HD
ENDBRANCH  80  93
ENDBRANCH  75  77
ENDBRANCH  74  75
ENDBRANCH  73  74
ENDBRANCH   1  73
TORSDOF 19
