REMARK SMILES COc1ccc(-c2ccc(CCC(=O)OCCOCCOC(=O)c3ccc(-c4c5nc(c(-c6c(F)c(F)c(F)c(F)c6F)c6ccc([nH]6)c(-c6c(F)c(F)c(F)c(F)c6F)c6nc(c(-c7c(F)c(F)c(F)c(F)c7F)c7ccc4[nH]7)C=C6)C=C5)cc3)n2-c2ccc(C(C)=O)cc2)cc1
REMARK SMILES IDX 17 1 16 2 15 3 13 4 14 5 12 6 11 7 10 8 7 9 8 10 87 11 9 12
REMARK SMILES IDX 6 13 3 14 4 15 98 16 5 17 97 18 2 19 1 20 88 21 89 22 96 23
REMARK SMILES IDX 90 24 95 25 91 26 92 27 93 28 94 29 18 30 19 31 20 32 21 33
REMARK SMILES IDX 22 34 23 35 24 36 25 37 86 38 26 39 85 40 27 41 28 42 29 43
REMARK SMILES IDX 79 44 30 45 84 46 78 47 80 48 31 49 83 50 77 51 76 52 32 54
REMARK SMILES IDX 64 55 44 56 63 57 45 58 48 59 62 60 81 61 46 62 47 63 61 65
REMARK SMILES IDX 82 66 49 67 33 68 34 69 42 70 35 71 36 72 40 73 43 74 37 75
REMARK SMILES IDX 38 76 41 77 39 78 65 79 66 80 74 81 67 82 68 83 72 84 75 85
REMARK SMILES IDX 69 86 70 87 73 88 71 89 50 90 51 91 59 92 52 93 53 94 57 95
REMARK SMILES IDX 60 96 54 97 55 98 58 99 56 100
REMARK H PARENT 80 53 48 64
REMARK Flexibility Score: inf
ROOT
ATOM      1  C   UNL     1       5.278 -11.341  -0.482  1.00  0.00     0.202 C 
ENDROOT
BRANCH   1   2
ATOM      2  C   UNL     1       5.780 -10.354  -1.538  1.00  0.00     0.261 C 
BRANCH   2   3
ATOM      3  O   UNL     1       4.695  -9.572  -2.078  1.00  0.00    -0.463 OA
BRANCH   3   4
ATOM      4  C   UNL     1       4.199  -9.938  -3.284  1.00  0.00     0.306 C 
ATOM      5  O   UNL     1       4.678 -10.808  -3.999  1.00  0.00    -0.252 OA
BRANCH   4   6
ATOM      6  C   UNL     1       2.957  -9.154  -3.661  1.00  0.00     0.129 C 
BRANCH   6   7
ATOM      7  C   UNL     1       1.784  -9.164  -2.670  1.00  0.00     0.066 C 
BRANCH   7   8
ATOM      8  C   UNL     1       1.917  -8.182  -1.535  1.00  0.00     0.024 A 
ATOM      9  C   UNL     1       1.830  -6.210  -0.428  1.00  0.00     0.053 A 
ATOM     10  C   UNL     1       2.674  -7.051   0.271  1.00  0.00     0.029 A 
ATOM     11  N   UNL     1       1.290  -6.940  -1.486  1.00  0.00    -0.314 N 
ATOM     12  C   UNL     1       2.687  -8.288  -0.392  1.00  0.00     0.024 A 
BRANCH   9  13
ATOM     13  C   UNL     1       1.484  -4.835  -0.082  1.00  0.00    -0.001 A 
ATOM     14  C   UNL     1       0.850  -2.175   0.500  1.00  0.00     0.118 A 
ATOM     15  C   UNL     1      -0.120  -3.168   0.628  1.00  0.00     0.047 A 
ATOM     16  C   UNL     1       2.153  -2.516   0.137  1.00  0.00     0.047 A 
ATOM     17  C   UNL     1       0.193  -4.496   0.334  1.00  0.00     0.014 A 
ATOM     18  C   UNL     1       2.468  -3.844  -0.153  1.00  0.00     0.014 A 
BRANCH  14  19
ATOM     19  O   UNL     1       0.451  -0.901   0.798  1.00  0.00    -0.497 OA
ATOM     20  C   UNL     1       0.981   0.089  -0.081  1.00  0.00     0.278 C 
ENDBRANCH  14  19
ENDBRANCH   9  13
BRANCH  11  21
ATOM     21  C   UNL     1       0.261  -6.501  -2.354  1.00  0.00     0.046 A 
ATOM     22  C   UNL     1      -0.920  -7.245  -2.444  1.00  0.00     0.027 A 
ATOM     23  C   UNL     1       0.413  -5.318  -3.073  1.00  0.00     0.027 A 
ATOM     24  C   UNL     1      -1.959  -6.802  -3.269  1.00  0.00     0.014 A 
ATOM     25  C   UNL     1      -0.619  -4.893  -3.911  1.00  0.00     0.014 A 
ATOM     26  C   UNL     1      -1.815  -5.626  -4.016  1.00  0.00     0.017 A 
BRANCH  26  27
ATOM     27  C   UNL     1      -2.868  -5.094  -4.936  1.00  0.00     0.159 C 
ATOM     28  C   UNL     1      -4.228  -5.737  -5.026  1.00  0.00     0.093 C 
ATOM     29  O   UNL     1      -2.617  -4.103  -5.623  1.00  0.00    -0.295 OA
ENDBRANCH  26  27
ENDBRANCH  11  21
ENDBRANCH   7   8
ENDBRANCH   6   7
ENDBRANCH   4   6
ENDBRANCH   3   4
ENDBRANCH   2   3
ENDBRANCH   1   2
BRANCH   1  30
ATOM     30  O   UNL     1       4.667 -12.531  -0.990  1.00  0.00    -0.374 OA
BRANCH  30  31
ATOM     31  C   UNL     1       3.318 -12.445  -1.435  1.00  0.00     0.202 C 
BRANCH  31  32
ATOM     32  C   UNL     1       2.248 -12.647  -0.377  1.00  0.00     0.261 C 
BRANCH  32  33
ATOM     33  O   UNL     1       2.224 -11.541   0.514  1.00  0.00    -0.460 OA
BRANCH  33  34
ATOM     34  C   UNL     1       2.980 -11.717   1.619  1.00  0.00     0.338 C 
ATOM     35  O   UNL     1       3.808 -12.580   1.827  1.00  0.00    -0.246 OA
BRANCH  34  36
ATOM     36  C   UNL     1       2.483 -10.818   2.661  1.00  0.00     0.060 A 
ATOM     37  C   UNL     1       3.060 -11.033   3.913  1.00  0.00     0.016 A 
ATOM     38  C   UNL     1       1.216 -10.240   2.492  1.00  0.00     0.016 A 
ATOM     39  C   UNL     1       2.243 -10.945   5.007  1.00  0.00     0.010 A 
ATOM     40  C   UNL     1       0.383 -10.194   3.579  1.00  0.00     0.010 A 
ATOM     41  C   UNL     1       0.899 -10.597   4.813  1.00  0.00    -0.014 A 
BRANCH  41  42
ATOM     42  C   UNL     1       0.111 -10.382   6.015  1.00  0.00     0.031 A 
ATOM     43  C   UNL     1       0.416  -8.941   6.511  1.00  0.00     0.074 A 
ATOM     44  C   UNL     1      -0.611 -11.474   6.434  1.00  0.00     0.049 A 
ATOM     45  N   UNL     1       0.333  -8.439   7.698  1.00  0.00    -0.248 NA
ATOM     46  C   UNL     1       0.959  -7.911   5.561  1.00  0.00     0.031 C 
ATOM     47  C   UNL     1      -0.770 -12.759   5.696  1.00  0.00     0.029 A 
ATOM     48  N   UNL     1      -1.351 -11.746   7.564  1.00  0.00    -0.354 N 
ATOM     49  C   UNL     1       0.558  -7.046   7.600  1.00  0.00     0.074 A 
ATOM     50  C   UNL     1       1.060  -6.800   6.291  1.00  0.00     0.031 C 
ATOM     51  C   UNL     1      -1.451 -13.674   6.431  1.00  0.00     0.029 A 
ATOM     52  C   UNL     1      -1.822 -13.089   7.705  1.00  0.00     0.049 A 
ATOM     53  H   UNL     1      -1.544 -11.054   8.237  1.00  0.00     0.167 HD
ATOM     54  C   UNL     1       0.152  -6.182   8.574  1.00  0.00     0.037 A 
ATOM     55  C   UNL     1      -2.417 -13.669   8.803  1.00  0.00     0.037 A 
ATOM     56  C   UNL     1      -0.366  -6.933   9.665  1.00  0.00     0.049 A 
ATOM     57  C   UNL     1      -2.638 -12.527   9.695  1.00  0.00     0.074 A 
ATOM     58  C   UNL     1       0.273  -7.720  10.585  1.00  0.00     0.029 A 
ATOM     59  N   UNL     1      -1.693  -7.284   9.591  1.00  0.00    -0.354 N 
ATOM     60  N   UNL     1      -3.551 -11.623   9.509  1.00  0.00    -0.248 NA
ATOM     61  C   UNL     1      -1.683 -12.300  10.785  1.00  0.00     0.031 C 
ATOM     62  C   UNL     1      -0.557  -8.855  10.634  1.00  0.00     0.029 A 
ATOM     63  C   UNL     1      -1.793  -8.576  10.038  1.00  0.00     0.049 A 
ATOM     64  H   UNL     1      -2.432  -6.715   9.276  1.00  0.00     0.167 HD
ATOM     65  C   UNL     1      -3.055 -10.575  10.241  1.00  0.00     0.074 A 
ATOM     66  C   UNL     1      -2.161 -11.143  11.230  1.00  0.00     0.031 C 
ATOM     67  C   UNL     1      -2.951  -9.347   9.668  1.00  0.00     0.037 A 
BRANCH  54  68
ATOM     68  C   UNL     1      -0.087  -4.702   8.599  1.00  0.00     0.064 A 
ATOM     69  C   UNL     1      -0.303  -4.105   9.867  1.00  0.00     0.173 A 
ATOM     70  C   UNL     1      -0.522  -3.973   7.487  1.00  0.00     0.173 A 
ATOM     71  F   UNL     1       0.148  -4.689  10.989  1.00  0.00    -0.203 F 
ATOM     72  C   UNL     1      -1.085  -2.965  10.020  1.00  0.00     0.198 A 
ATOM     73  C   UNL     1      -1.255  -2.792   7.643  1.00  0.00     0.198 A 
ATOM     74  F   UNL     1      -0.350  -4.435   6.242  1.00  0.00    -0.203 F 
ATOM     75  F   UNL     1      -1.423  -2.549  11.248  1.00  0.00    -0.200 F 
ATOM     76  C   UNL     1      -1.583  -2.323   8.905  1.00  0.00     0.200 A 
ATOM     77  F   UNL     1      -1.723  -2.156   6.560  1.00  0.00    -0.200 F 
ATOM     78  F   UNL     1      -2.407  -1.276   9.046  1.00  0.00    -0.200 F 
ENDBRANCH  54  68
BRANCH  55  79
ATOM     79  C   UNL     1      -2.834 -15.017   9.376  1.00  0.00     0.064 A 
ATOM     80  C   UNL     1      -2.947 -16.227   8.683  1.00  0.00     0.173 A 
ATOM     81  C   UNL     1      -3.100 -15.138  10.779  1.00  0.00     0.173 A 
ATOM     82  F   UNL     1      -2.850 -16.259   7.348  1.00  0.00    -0.203 F 
ATOM     83  C   UNL     1      -3.188 -17.452   9.353  1.00  0.00     0.198 A 
ATOM     84  C   UNL     1      -3.273 -16.349  11.447  1.00  0.00     0.198 A 
ATOM     85  F   UNL     1      -3.211 -14.069  11.576  1.00  0.00    -0.203 F 
ATOM     86  F   UNL     1      -3.300 -18.588   8.649  1.00  0.00    -0.200 F 
ATOM     87  C   UNL     1      -3.303 -17.517  10.734  1.00  0.00     0.200 A 
ATOM     88  F   UNL     1      -3.397 -16.358  12.784  1.00  0.00    -0.200 F 
ATOM     89  F   UNL     1      -3.458 -18.686  11.370  1.00  0.00    -0.200 F 
ENDBRANCH  55  79
BRANCH  67  90
ATOM     90  C   UNL     1      -3.870  -9.115   8.478  1.00  0.00     0.064 A 
ATOM     91  C   UNL     1      -5.260  -9.224   8.647  1.00  0.00     0.173 A 
ATOM     92  C   UNL     1      -3.436  -8.896   7.158  1.00  0.00     0.173 A 
ATOM     93  F   UNL     1      -5.769  -9.395   9.876  1.00  0.00    -0.203 F 
ATOM     94  C   UNL     1      -6.147  -9.150   7.568  1.00  0.00     0.198 A 
ATOM     95  C   UNL     1      -4.319  -8.828   6.074  1.00  0.00     0.198 A 
ATOM     96  F   UNL     1      -2.146  -8.722   6.885  1.00  0.00    -0.203 F 
ATOM     97  F   UNL     1      -7.465  -9.253   7.782  1.00  0.00    -0.200 F 
ATOM     98  C   UNL     1      -5.677  -8.960   6.280  1.00  0.00     0.200 A 
ATOM     99  F   UNL     1      -3.847  -8.623   4.833  1.00  0.00    -0.200 F 
ATOM    100  F   UNL     1      -6.529  -8.877   5.248  1.00  0.00    -0.200 F 
ENDBRANCH  67  90
ENDBRANCH  41  42
ENDBRANCH  34  36
ENDBRANCH  33  34
ENDBRANCH  32  33
ENDBRANCH  31  32
ENDBRANCH  30  31
ENDBRANCH   1  30
TORSDOF 20
