REMARK SMILES COc1ccc(S(=O)(=O)N2CCCC[C@@H]2C(=O)OCCOCCOC(=O)c2ccc(-c3c4nc(c(-c5c(F)c(F)c(F)c(F)c5F)c5ccc([nH]5)c(-c5c(F)c(F)c(F)c(F)c5F)c5nc(c(-c6c(F)c(F)c(F)c(F)c6F)c6ccc3[nH]6)C=C5)C=C4)cc2)cc1C
REMARK SMILES IDX 20 1 19 2 18 3 16 4 17 5 15 6 10 7 11 8 12 9 14 10 13 11
REMARK SMILES IDX 7 12 8 13 9 14 6 15 3 16 4 17 91 18 5 19 90 20 92 21 2 22
REMARK SMILES IDX 1 23 21 24 22 25 23 26 24 27 25 28 26 29 27 30 28 31 89 32
REMARK SMILES IDX 29 33 88 34 30 35 31 36 32 37 82 38 33 39 87 40 81 41 83 42
REMARK SMILES IDX 34 43 86 44 80 45 79 46 35 48 67 49 47 50 66 51 48 52 51 53
REMARK SMILES IDX 65 54 84 55 49 56 50 57 64 59 85 60 52 61 36 62 37 63 45 64
REMARK SMILES IDX 38 65 39 66 43 67 46 68 40 69 41 70 44 71 42 72 68 73 69 74
REMARK SMILES IDX 77 75 70 76 71 77 75 78 78 79 72 80 73 81 76 82 74 83 53 84
REMARK SMILES IDX 54 85 62 86 55 87 56 88 60 89 63 90 57 91 58 92 61 93 59 94
REMARK H PARENT 83 47 51 58
REMARK Flexibility Score: inf
ROOT
ATOM      1  C   UNL     1       6.817  -7.106   4.452  1.00  0.00     0.202 C 
ENDROOT
BRANCH   1   2
ATOM      2  C   UNL     1       5.646  -8.004   4.061  1.00  0.00     0.261 C 
BRANCH   2   3
ATOM      3  O   UNL     1       5.046  -7.631   2.805  1.00  0.00    -0.462 OA
BRANCH   3   4
ATOM      4  C   UNL     1       4.384  -6.433   2.753  1.00  0.00     0.324 C 
ATOM      5  O   UNL     1       3.796  -5.911   3.690  1.00  0.00    -0.250 OA
BRANCH   4   6
ATOM      6  C   UNL     1       4.611  -5.753   1.400  1.00  0.00     0.183 C 
ATOM      7  N   UNL     1       3.718  -6.208   0.284  1.00  0.00    -0.184 NA
ATOM      8  C   UNL     1       4.183  -6.068  -1.116  1.00  0.00     0.103 C 
ATOM      9  C   UNL     1       5.650  -6.418  -1.270  1.00  0.00     0.017 C 
ATOM     10  C   UNL     1       6.116  -5.881   1.075  1.00  0.00     0.032 C 
ATOM     11  C   UNL     1       6.480  -5.544  -0.353  1.00  0.00     0.004 C 
BRANCH   7  12
ATOM     12  S   UNL     1       2.030  -5.977   0.480  1.00  0.00     0.243 S 
ATOM     13  O   UNL     1       1.692  -6.481   1.789  1.00  0.00    -0.207 OA
ATOM     14  O   UNL     1       1.369  -6.459  -0.707  1.00  0.00    -0.207 OA
BRANCH  12  15
ATOM     15  C   UNL     1       1.682  -4.237   0.583  1.00  0.00     0.083 A 
ATOM     16  C   UNL     1       1.066  -1.556   1.015  1.00  0.00     0.121 A 
ATOM     17  C   UNL     1       0.102  -2.534   1.259  1.00  0.00     0.048 A 
ATOM     18  C   UNL     1       2.363  -1.910   0.618  1.00  0.00    -0.008 A 
ATOM     19  C   UNL     1       0.412  -3.877   1.057  1.00  0.00     0.025 A 
ATOM     20  C   UNL     1       2.640  -3.256   0.338  1.00  0.00     0.029 A 
ATOM     21  C   UNL     1       3.475  -0.911   0.500  1.00  0.00     0.048 C 
BRANCH  16  22
ATOM     22  O   UNL     1       0.698  -0.258   1.247  1.00  0.00    -0.496 OA
ATOM     23  C   UNL     1       0.635   0.483   0.027  1.00  0.00     0.278 C 
ENDBRANCH  16  22
ENDBRANCH  12  15
ENDBRANCH   7  12
ENDBRANCH   4   6
ENDBRANCH   3   4
ENDBRANCH   2   3
ENDBRANCH   1   2
BRANCH   1  24
ATOM     24  O   UNL     1       6.288  -5.877   4.933  1.00  0.00    -0.374 OA
BRANCH  24  25
ATOM     25  C   UNL     1       7.226  -4.918   5.406  1.00  0.00     0.202 C 
BRANCH  25  26
ATOM     26  C   UNL     1       8.008  -5.353   6.656  1.00  0.00     0.261 C 
BRANCH  26  27
ATOM     27  O   UNL     1       7.090  -5.608   7.734  1.00  0.00    -0.460 OA
BRANCH  27  28
ATOM     28  C   UNL     1       6.875  -6.921   8.012  1.00  0.00     0.338 C 
ATOM     29  O   UNL     1       7.743  -7.766   8.152  1.00  0.00    -0.246 OA
BRANCH  28  30
ATOM     30  C   UNL     1       5.428  -7.232   7.841  1.00  0.00     0.060 A 
ATOM     31  C   UNL     1       4.996  -8.571   7.825  1.00  0.00     0.016 A 
ATOM     32  C   UNL     1       4.569  -6.224   7.410  1.00  0.00     0.016 A 
ATOM     33  C   UNL     1       3.751  -8.904   7.266  1.00  0.00     0.010 A 
ATOM     34  C   UNL     1       3.392  -6.569   6.775  1.00  0.00     0.010 A 
ATOM     35  C   UNL     1       2.974  -7.905   6.680  1.00  0.00    -0.014 A 
BRANCH  35  36
ATOM     36  C   UNL     1       1.783  -8.127   5.850  1.00  0.00     0.031 A 
ATOM     37  C   UNL     1       0.489  -7.478   6.214  1.00  0.00     0.074 A 
ATOM     38  C   UNL     1       1.887  -8.671   4.612  1.00  0.00     0.049 A 
ATOM     39  N   UNL     1      -0.653  -7.769   5.682  1.00  0.00    -0.248 NA
ATOM     40  C   UNL     1       0.369  -6.429   7.220  1.00  0.00     0.031 C 
ATOM     41  C   UNL     1       0.933  -8.489   3.521  1.00  0.00     0.029 A 
ATOM     42  N   UNL     1       2.870  -9.504   4.036  1.00  0.00    -0.354 N 
ATOM     43  C   UNL     1      -1.523  -6.735   5.951  1.00  0.00     0.074 A 
ATOM     44  C   UNL     1      -0.869  -5.980   6.993  1.00  0.00     0.031 C 
ATOM     45  C   UNL     1       1.195  -9.351   2.531  1.00  0.00     0.029 A 
ATOM     46  C   UNL     1       2.205 -10.249   3.030  1.00  0.00     0.049 A 
ATOM     47  H   UNL     1       3.821  -9.557   4.282  1.00  0.00     0.167 HD
ATOM     48  C   UNL     1      -2.627  -6.568   5.160  1.00  0.00     0.037 A 
ATOM     49  C   UNL     1       2.091 -11.604   3.059  1.00  0.00     0.037 A 
ATOM     50  C   UNL     1      -2.681  -7.584   4.097  1.00  0.00     0.049 A 
ATOM     51  C   UNL     1       0.652 -12.041   3.036  1.00  0.00     0.074 A 
ATOM     52  C   UNL     1      -2.487  -7.536   2.724  1.00  0.00     0.029 A 
ATOM     53  N   UNL     1      -2.708  -8.938   4.432  1.00  0.00    -0.354 N 
ATOM     54  N   UNL     1      -0.321 -11.255   3.406  1.00  0.00    -0.248 NA
ATOM     55  C   UNL     1       0.170 -13.331   2.561  1.00  0.00     0.031 C 
ATOM     56  C   UNL     1      -2.427  -8.867   2.235  1.00  0.00     0.029 A 
ATOM     57  C   UNL     1      -2.579  -9.729   3.308  1.00  0.00     0.049 A 
ATOM     58  H   UNL     1      -2.805  -9.283   5.348  1.00  0.00     0.167 HD
ATOM     59  C   UNL     1      -1.522 -11.853   3.162  1.00  0.00     0.074 A 
ATOM     60  C   UNL     1      -1.164 -13.170   2.669  1.00  0.00     0.031 C 
ATOM     61  C   UNL     1      -2.691 -11.182   3.381  1.00  0.00     0.037 A 
BRANCH  48  62
ATOM     62  C   UNL     1      -3.555  -5.355   5.172  1.00  0.00     0.064 A 
ATOM     63  C   UNL     1      -4.403  -5.066   4.075  1.00  0.00     0.173 A 
ATOM     64  C   UNL     1      -3.669  -4.434   6.232  1.00  0.00     0.173 A 
ATOM     65  F   UNL     1      -4.518  -5.898   3.033  1.00  0.00    -0.203 F 
ATOM     66  C   UNL     1      -5.197  -3.914   4.006  1.00  0.00     0.198 A 
ATOM     67  C   UNL     1      -4.423  -3.256   6.144  1.00  0.00     0.198 A 
ATOM     68  F   UNL     1      -3.134  -4.673   7.432  1.00  0.00    -0.203 F 
ATOM     69  F   UNL     1      -5.980  -3.709   2.937  1.00  0.00    -0.200 F 
ATOM     70  C   UNL     1      -5.182  -2.992   5.027  1.00  0.00     0.200 A 
ATOM     71  F   UNL     1      -4.423  -2.392   7.170  1.00  0.00    -0.200 F 
ATOM     72  F   UNL     1      -5.926  -1.880   4.956  1.00  0.00    -0.200 F 
ENDBRANCH  48  62
BRANCH  49  73
ATOM     73  C   UNL     1       3.256 -12.248   3.708  1.00  0.00     0.064 A 
ATOM     74  C   UNL     1       4.478 -12.181   3.007  1.00  0.00     0.173 A 
ATOM     75  C   UNL     1       3.312 -12.401   5.099  1.00  0.00     0.173 A 
ATOM     76  F   UNL     1       4.477 -12.021   1.674  1.00  0.00    -0.203 F 
ATOM     77  C   UNL     1       5.694 -12.115   3.681  1.00  0.00     0.198 A 
ATOM     78  C   UNL     1       4.537 -12.342   5.770  1.00  0.00     0.198 A 
ATOM     79  F   UNL     1       2.183 -12.455   5.821  1.00  0.00    -0.203 F 
ATOM     80  F   UNL     1       6.829 -11.901   2.998  1.00  0.00    -0.200 F 
ATOM     81  C   UNL     1       5.719 -12.158   5.065  1.00  0.00     0.200 A 
ATOM     82  F   UNL     1       4.566 -12.356   7.111  1.00  0.00    -0.200 F 
ATOM     83  F   UNL     1       6.873 -11.966   5.719  1.00  0.00    -0.200 F 
ENDBRANCH  49  73
BRANCH  61  84
ATOM     84  C   UNL     1      -4.059 -11.791   3.583  1.00  0.00     0.064 A 
ATOM     85  C   UNL     1      -4.278 -13.141   3.902  1.00  0.00     0.173 A 
ATOM     86  C   UNL     1      -5.210 -10.962   3.650  1.00  0.00     0.173 A 
ATOM     87  F   UNL     1      -3.273 -14.020   3.978  1.00  0.00    -0.203 F 
ATOM     88  C   UNL     1      -5.547 -13.630   4.226  1.00  0.00     0.198 A 
ATOM     89  C   UNL     1      -6.461 -11.442   4.033  1.00  0.00     0.198 A 
ATOM     90  F   UNL     1      -5.159  -9.649   3.388  1.00  0.00    -0.203 F 
ATOM     91  F   UNL     1      -5.702 -14.933   4.495  1.00  0.00    -0.200 F 
ATOM     92  C   UNL     1      -6.632 -12.779   4.310  1.00  0.00     0.200 A 
ATOM     93  F   UNL     1      -7.489 -10.591   4.159  1.00  0.00    -0.200 F 
ATOM     94  F   UNL     1      -7.832 -13.244   4.681  1.00  0.00    -0.200 F 
ENDBRANCH  61  84
ENDBRANCH  35  36
ENDBRANCH  28  30
ENDBRANCH  27  28
ENDBRANCH  26  27
ENDBRANCH  25  26
ENDBRANCH  24  25
ENDBRANCH   1  24
TORSDOF 17
