REMARK SMILES O=C(OCCOCCOC(=O)c1ncoc1-c1cc(F)cc(F)c1)c1ccc(-c2c3nc(c(-c4c(F)c(F)c(F)c(F)c4F)c4ccc([nH]4)c(-c4c(F)c(F)c(F)c(F)c4F)c4nc(c(-c5c(F)c(F)c(F)c(F)c5F)c5ccc2[nH]5)C=C4)C=C3)cc1
REMARK SMILES IDX 5 1 4 2 3 3 2 4 1 5 25 6 26 7 87 8 27 9 86 10 28 11 29 12
REMARK SMILES IDX 30 13 80 14 31 15 85 16 79 17 81 18 32 19 84 20 78 21 77 22
REMARK SMILES IDX 33 24 65 25 45 26 64 27 46 28 49 29 63 30 82 31 47 32 48 33
REMARK SMILES IDX 62 35 83 36 50 37 34 38 35 39 43 40 36 41 37 42 41 43 44 44
REMARK SMILES IDX 38 45 39 46 42 47 40 48 66 49 67 50 75 51 68 52 69 53 73 54
REMARK SMILES IDX 76 55 70 56 71 57 74 58 72 59 51 60 52 61 60 62 53 63 54 64
REMARK SMILES IDX 58 65 61 66 55 67 56 68 59 69 57 70 6 71 7 72 8 73 9 74
REMARK SMILES IDX 10 75 11 76 12 77 13 78 16 79 14 80 15 81 17 82 18 83 24 84
REMARK SMILES IDX 19 85 22 86 20 87 21 88 23 89
REMARK H PARENT 81 23 49 34
REMARK Flexibility Score: inf
ROOT
ATOM      1  C   UNL     1       3.771  -0.691  -1.290  1.00  0.00     0.202 C 
ENDROOT
BRANCH   1   2
ATOM      2  C   UNL     1       3.145  -0.944   0.084  1.00  0.00     0.261 C 
BRANCH   2   3
ATOM      3  O   UNL     1       1.820  -0.383   0.148  1.00  0.00    -0.460 OA
BRANCH   3   4
ATOM      4  C   UNL     1       1.406   0.557   1.035  1.00  0.00     0.338 C 
ATOM      5  O   UNL     1       0.210   0.695   1.271  1.00  0.00    -0.246 OA
BRANCH   4   6
ATOM      6  C   UNL     1       2.379   1.436   1.744  1.00  0.00     0.060 A 
ATOM      7  C   UNL     1       3.567   1.871   1.160  1.00  0.00     0.016 A 
ATOM      8  C   UNL     1       2.051   1.914   3.020  1.00  0.00     0.016 A 
ATOM      9  C   UNL     1       4.477   2.645   1.863  1.00  0.00     0.010 A 
ATOM     10  C   UNL     1       2.920   2.780   3.699  1.00  0.00     0.010 A 
ATOM     11  C   UNL     1       4.151   3.133   3.128  1.00  0.00    -0.014 A 
BRANCH  11  12
ATOM     12  C   UNL     1       5.131   3.994   3.826  1.00  0.00     0.031 A 
ATOM     13  C   UNL     1       5.807   3.491   5.064  1.00  0.00     0.074 A 
ATOM     14  C   UNL     1       5.485   5.174   3.279  1.00  0.00     0.049 A 
ATOM     15  N   UNL     1       6.630   4.112   5.866  1.00  0.00    -0.248 NA
ATOM     16  C   UNL     1       5.526   2.098   5.450  1.00  0.00     0.031 C 
ATOM     17  C   UNL     1       4.956   5.711   2.022  1.00  0.00     0.029 A 
ATOM     18  N   UNL     1       6.399   6.114   3.679  1.00  0.00    -0.354 N 
ATOM     19  C   UNL     1       6.929   3.206   6.873  1.00  0.00     0.074 A 
ATOM     20  C   UNL     1       6.209   1.987   6.581  1.00  0.00     0.031 C 
ATOM     21  C   UNL     1       5.602   6.848   1.722  1.00  0.00     0.029 A 
ATOM     22  C   UNL     1       6.520   7.169   2.808  1.00  0.00     0.049 A 
ATOM     23  H   UNL     1       6.920   6.039   4.511  1.00  0.00     0.167 HD
ATOM     24  C   UNL     1       7.728   3.390   7.949  1.00  0.00     0.037 A 
ATOM     25  C   UNL     1       7.264   8.288   2.896  1.00  0.00     0.037 A 
ATOM     26  C   UNL     1       8.459   4.601   8.203  1.00  0.00     0.049 A 
ATOM     27  C   UNL     1       8.099   8.491   4.130  1.00  0.00     0.074 A 
ATOM     28  C   UNL     1       9.253   4.923   9.288  1.00  0.00     0.029 A 
ATOM     29  N   UNL     1       8.496   5.687   7.338  1.00  0.00    -0.354 N 
ATOM     30  N   UNL     1       8.294   7.672   5.135  1.00  0.00    -0.248 NA
ATOM     31  C   UNL     1       8.781   9.784   4.265  1.00  0.00     0.031 C 
ATOM     32  C   UNL     1       9.752   6.215   9.091  1.00  0.00     0.029 A 
ATOM     33  C   UNL     1       9.292   6.686   7.870  1.00  0.00     0.049 A 
ATOM     34  H   UNL     1       8.026   5.738   6.475  1.00  0.00     0.167 HD
ATOM     35  C   UNL     1       9.107   8.351   6.028  1.00  0.00     0.074 A 
ATOM     36  C   UNL     1       9.398   9.640   5.431  1.00  0.00     0.031 C 
ATOM     37  C   UNL     1       9.556   7.956   7.244  1.00  0.00     0.037 A 
BRANCH  24  38
ATOM     38  C   UNL     1       7.804   2.277   8.948  1.00  0.00     0.064 A 
ATOM     39  C   UNL     1       7.121   2.380  10.169  1.00  0.00     0.173 A 
ATOM     40  C   UNL     1       8.548   1.115   8.706  1.00  0.00     0.173 A 
ATOM     41  F   UNL     1       6.391   3.471  10.445  1.00  0.00    -0.203 F 
ATOM     42  C   UNL     1       7.182   1.359  11.113  1.00  0.00     0.198 A 
ATOM     43  C   UNL     1       8.592   0.086   9.644  1.00  0.00     0.198 A 
ATOM     44  F   UNL     1       9.199   0.960   7.543  1.00  0.00    -0.203 F 
ATOM     45  F   UNL     1       6.527   1.482  12.276  1.00  0.00    -0.200 F 
ATOM     46  C   UNL     1       7.913   0.211  10.848  1.00  0.00     0.200 A 
ATOM     47  F   UNL     1       9.276  -1.035   9.376  1.00  0.00    -0.200 F 
ATOM     48  F   UNL     1       7.953  -0.782  11.747  1.00  0.00    -0.200 F 
ENDBRANCH  24  38
BRANCH  25  49
ATOM     49  C   UNL     1       7.209   9.309   1.817  1.00  0.00     0.064 A 
ATOM     50  C   UNL     1       6.035  10.034   1.557  1.00  0.00     0.173 A 
ATOM     51  C   UNL     1       8.323   9.567   1.008  1.00  0.00     0.173 A 
ATOM     52  F   UNL     1       4.941   9.831   2.305  1.00  0.00    -0.203 F 
ATOM     53  C   UNL     1       5.970  10.954   0.513  1.00  0.00     0.198 A 
ATOM     54  C   UNL     1       8.266  10.509  -0.019  1.00  0.00     0.198 A 
ATOM     55  F   UNL     1       9.477   8.921   1.230  1.00  0.00    -0.203 F 
ATOM     56  F   UNL     1       4.824  11.602   0.265  1.00  0.00    -0.200 F 
ATOM     57  C   UNL     1       7.086  11.194  -0.272  1.00  0.00     0.200 A 
ATOM     58  F   UNL     1       9.355  10.759  -0.759  1.00  0.00    -0.200 F 
ATOM     59  F   UNL     1       7.028  12.090  -1.267  1.00  0.00    -0.200 F 
ENDBRANCH  25  49
BRANCH  37  60
ATOM     60  C   UNL     1      10.393   8.929   8.011  1.00  0.00     0.064 A 
ATOM     61  C   UNL     1      11.777   8.743   8.127  1.00  0.00     0.173 A 
ATOM     62  C   UNL     1       9.803   9.993   8.706  1.00  0.00     0.173 A 
ATOM     63  F   UNL     1      12.380   7.733   7.482  1.00  0.00    -0.203 F 
ATOM     64  C   UNL     1      12.542   9.582   8.931  1.00  0.00     0.198 A 
ATOM     65  C   UNL     1      10.574  10.841   9.494  1.00  0.00     0.198 A 
ATOM     66  F   UNL     1       8.483  10.213   8.611  1.00  0.00    -0.203 F 
ATOM     67  F   UNL     1      13.860   9.371   9.054  1.00  0.00    -0.200 F 
ATOM     68  C   UNL     1      11.940  10.629   9.614  1.00  0.00     0.200 A 
ATOM     69  F   UNL     1       9.995  11.863  10.141  1.00  0.00    -0.200 F 
ATOM     70  F   UNL     1      12.678  11.435  10.389  1.00  0.00    -0.200 F 
ENDBRANCH  37  60
ENDBRANCH  11  12
ENDBRANCH   4   6
ENDBRANCH   3   4
ENDBRANCH   2   3
ENDBRANCH   1   2
BRANCH   1  71
ATOM     71  O   UNL     1       3.650   0.658  -1.731  1.00  0.00    -0.374 OA
BRANCH  71  72
ATOM     72  C   UNL     1       2.596   0.899  -2.663  1.00  0.00     0.202 C 
BRANCH  72  73
ATOM     73  C   UNL     1       3.188   1.188  -4.045  1.00  0.00     0.261 C 
BRANCH  73  74
ATOM     74  O   UNL     1       3.790  -0.003  -4.582  1.00  0.00    -0.458 OA
BRANCH  74  75
ATOM     75  C   UNL     1       5.095  -0.230  -4.247  1.00  0.00     0.361 C 
ATOM     76  O   UNL     1       5.836   0.581  -3.703  1.00  0.00    -0.244 OA
BRANCH  75  77
ATOM     77  C   UNL     1       5.473  -1.609  -4.504  1.00  0.00     0.194 A 
ATOM     78  N   UNL     1       4.944  -2.387  -5.526  1.00  0.00    -0.209 NA
ATOM     79  C   UNL     1       6.301  -2.395  -3.721  1.00  0.00     0.169 A 
ATOM     80  C   UNL     1       5.483  -3.567  -5.331  1.00  0.00     0.309 A 
ATOM     81  O   UNL     1       6.303  -3.658  -4.251  1.00  0.00    -0.443 OA
BRANCH  79  82
ATOM     82  C   UNL     1       7.022  -2.240  -2.473  1.00  0.00     0.026 A 
ATOM     83  C   UNL     1       6.564  -2.902  -1.324  1.00  0.00     0.051 A 
ATOM     84  C   UNL     1       8.141  -1.409  -2.375  1.00  0.00     0.051 A 
ATOM     85  C   UNL     1       7.195  -2.695  -0.100  1.00  0.00     0.126 A 
ATOM     86  C   UNL     1       8.776  -1.246  -1.144  1.00  0.00     0.126 A 
ATOM     87  F   UNL     1       6.699  -3.278   0.999  1.00  0.00    -0.207 F 
ATOM     88  C   UNL     1       8.306  -1.873   0.002  1.00  0.00     0.078 A 
ATOM     89  F   UNL     1       9.858  -0.461  -1.062  1.00  0.00    -0.207 F 
ENDBRANCH  79  82
ENDBRANCH  75  77
ENDBRANCH  74  75
ENDBRANCH  73  74
ENDBRANCH  72  73
ENDBRANCH  71  72
ENDBRANCH   1  71
TORSDOF 15
