REMARK SMILES COc1cccc(-c2c([C@H]3c4ccccc4C(=O)N3CC(=O)OCCOCCOC(=O)c3ccc(-c4c5nc(c(-c6c(F)c(F)c(F)c(F)c6F)c6ccc([nH]6)c(-c6c(F)c(F)c(F)c(F)c6F)c6nc(c(-c7c(F)c(F)c(F)c(F)c7F)c7ccc4[nH]7)C=C6)C=C5)cc3)c3ccccc3n2C)c1
REMARK SMILES IDX 25 1 24 2 23 3 21 4 22 5 20 6 19 7 10 8 11 9 12 10 16 11
REMARK SMILES IDX 17 12 13 13 15 14 18 15 14 16 9 17 8 18 101 19 95 20 100 21
REMARK SMILES IDX 102 22 96 23 99 24 97 25 98 26 7 27 3 28 4 29 103 30 5 31
REMARK SMILES IDX 6 32 2 33 1 34 26 35 27 36 28 37 29 38 30 39 31 40 32 41
REMARK SMILES IDX 33 42 94 43 34 44 93 45 35 46 36 47 37 48 87 49 38 50 92 51
REMARK SMILES IDX 86 52 88 53 39 54 91 55 85 56 84 57 40 59 72 60 52 61 71 62
REMARK SMILES IDX 53 63 56 64 70 65 89 66 54 67 55 68 69 70 90 71 57 72 41 73
REMARK SMILES IDX 42 74 50 75 43 76 44 77 48 78 51 79 45 80 46 81 49 82 47 83
REMARK SMILES IDX 73 84 74 85 82 86 75 87 76 88 80 89 83 90 77 91 78 92 81 93
REMARK SMILES IDX 79 94 58 95 59 96 67 97 60 98 61 99 65 100 68 101 62 102
REMARK SMILES IDX 63 103 66 104 64 105
REMARK H PARENT 88 58 56 69
REMARK Flexibility Score: inf
ROOT
ATOM      1  C   UNL     1       8.556  -1.821  -1.569  1.00  0.00     0.202 C 
ENDROOT
BRANCH   1   2
ATOM      2  C   UNL     1       8.323  -2.115  -0.083  1.00  0.00     0.261 C 
BRANCH   2   3
ATOM      3  O   UNL     1       7.127  -1.488   0.399  1.00  0.00    -0.462 OA
BRANCH   3   4
ATOM      4  C   UNL     1       7.300  -0.686   1.475  1.00  0.00     0.325 C 
ATOM      5  O   UNL     1       8.334  -0.611   2.136  1.00  0.00    -0.250 OA
BRANCH   4   6
ATOM      6  C   UNL     1       6.179   0.324   1.674  1.00  0.00     0.243 C 
BRANCH   6   7
ATOM      7  N   UNL     1       4.794   0.184   1.191  1.00  0.00    -0.316 N 
ATOM      8  C   UNL     1       3.997   1.403   1.361  1.00  0.00     0.150 C 
ATOM      9  C   UNL     1       3.383   1.149   2.711  1.00  0.00    -0.008 A 
ATOM     10  C   UNL     1       3.217   2.029   3.769  1.00  0.00     0.007 A 
ATOM     11  C   UNL     1       3.346  -0.229   2.938  1.00  0.00     0.045 A 
ATOM     12  C   UNL     1       4.133  -0.868   1.866  1.00  0.00     0.255 C 
ATOM     13  C   UNL     1       3.003   1.495   5.044  1.00  0.00     0.000 A 
ATOM     14  C   UNL     1       3.096  -0.781   4.181  1.00  0.00     0.014 A 
ATOM     15  O   UNL     1       4.372  -2.055   1.794  1.00  0.00    -0.269 OA
ATOM     16  C   UNL     1       2.927   0.104   5.247  1.00  0.00     0.001 A 
BRANCH   8  17
ATOM     17  C   UNL     1       2.845   1.648   0.393  1.00  0.00     0.013 A 
ATOM     18  C   UNL     1       2.181   2.880   0.260  1.00  0.00     0.055 A 
ATOM     19  N   UNL     1       1.074   2.683  -0.540  1.00  0.00    -0.343 N 
ATOM     20  C   UNL     1       2.291   0.824  -0.650  1.00  0.00     0.006 A 
ATOM     21  C   UNL     1       1.202   1.491  -1.219  1.00  0.00     0.049 A 
ATOM     22  C   UNL     1      -0.027   3.607  -0.715  1.00  0.00     0.150 C 
ATOM     23  C   UNL     1       2.636  -0.420  -1.204  1.00  0.00     0.011 A 
ATOM     24  C   UNL     1       0.456   0.953  -2.287  1.00  0.00     0.027 A 
ATOM     25  C   UNL     1       1.921  -0.958  -2.283  1.00  0.00     0.001 A 
ATOM     26  C   UNL     1       0.838  -0.279  -2.814  1.00  0.00     0.002 A 
BRANCH  18  27
ATOM     27  C   UNL     1       2.622   4.174   0.790  1.00  0.00     0.002 A 
ATOM     28  C   UNL     1       4.514   5.666   1.134  1.00  0.00     0.119 A 
ATOM     29  C   UNL     1       3.728   6.439   1.986  1.00  0.00     0.046 A 
ATOM     30  C   UNL     1       3.934   4.581   0.487  1.00  0.00     0.056 A 
ATOM     31  C   UNL     1       2.395   6.096   2.228  1.00  0.00     0.005 A 
ATOM     32  C   UNL     1       1.848   4.949   1.651  1.00  0.00     0.010 A 
BRANCH  28  33
ATOM     33  O   UNL     1       5.826   6.037   1.028  1.00  0.00    -0.497 OA
ATOM     34  C   UNL     1       6.717   5.071   0.474  1.00  0.00     0.278 C 
ENDBRANCH  28  33
ENDBRANCH  18  27
ENDBRANCH   8  17
ENDBRANCH   6   7
ENDBRANCH   4   6
ENDBRANCH   3   4
ENDBRANCH   2   3
ENDBRANCH   1   2
BRANCH   1  35
ATOM     35  O   UNL     1       8.591  -0.445  -1.947  1.00  0.00    -0.374 OA
BRANCH  35  36
ATOM     36  C   UNL     1       7.377   0.307  -1.874  1.00  0.00     0.202 C 
BRANCH  36  37
ATOM     37  C   UNL     1       6.158  -0.243  -2.622  1.00  0.00     0.261 C 
BRANCH  37  38
ATOM     38  O   UNL     1       5.652  -1.451  -2.019  1.00  0.00    -0.460 OA
BRANCH  38  39
ATOM     39  C   UNL     1       5.435  -2.474  -2.874  1.00  0.00     0.338 C 
ATOM     40  O   UNL     1       5.574  -2.456  -4.088  1.00  0.00    -0.246 OA
BRANCH  39  41
ATOM     41  C   UNL     1       5.109  -3.725  -2.159  1.00  0.00     0.060 A 
ATOM     42  C   UNL     1       5.813  -4.878  -2.520  1.00  0.00     0.016 A 
ATOM     43  C   UNL     1       4.024  -3.816  -1.288  1.00  0.00     0.016 A 
ATOM     44  C   UNL     1       5.375  -6.127  -2.083  1.00  0.00     0.010 A 
ATOM     45  C   UNL     1       3.562  -5.061  -0.876  1.00  0.00     0.010 A 
ATOM     46  C   UNL     1       4.210  -6.221  -1.312  1.00  0.00    -0.014 A 
BRANCH  46  47
ATOM     47  C   UNL     1       3.586  -7.529  -1.047  1.00  0.00     0.031 A 
ATOM     48  C   UNL     1       2.638  -8.104  -2.057  1.00  0.00     0.074 A 
ATOM     49  C   UNL     1       3.810  -8.141   0.125  1.00  0.00     0.049 A 
ATOM     50  N   UNL     1       2.010  -9.251  -2.044  1.00  0.00    -0.248 NA
ATOM     51  C   UNL     1       2.345  -7.270  -3.235  1.00  0.00     0.031 C 
ATOM     52  C   UNL     1       4.659  -7.620   1.195  1.00  0.00     0.029 A 
ATOM     53  N   UNL     1       3.316  -9.316   0.621  1.00  0.00    -0.354 N 
ATOM     54  C   UNL     1       1.275  -9.291  -3.221  1.00  0.00     0.074 A 
ATOM     55  C   UNL     1       1.494  -8.035  -3.904  1.00  0.00     0.031 C 
ATOM     56  C   UNL     1       4.604  -8.462   2.240  1.00  0.00     0.029 A 
ATOM     57  C   UNL     1       3.723  -9.578   1.903  1.00  0.00     0.049 A 
ATOM     58  H   UNL     1       2.726  -9.915   0.108  1.00  0.00     0.167 HD
ATOM     59  C   UNL     1       0.501 -10.299  -3.689  1.00  0.00     0.037 A 
ATOM     60  C   UNL     1       3.413 -10.609   2.709  1.00  0.00     0.037 A 
ATOM     61  C   UNL     1       0.264 -11.524  -2.971  1.00  0.00     0.049 A 
ATOM     62  C   UNL     1       2.541 -11.710   2.174  1.00  0.00     0.074 A 
ATOM     63  C   UNL     1      -0.450 -12.639  -3.370  1.00  0.00     0.029 A 
ATOM     64  N   UNL     1       0.721 -11.778  -1.685  1.00  0.00    -0.354 N 
ATOM     65  N   UNL     1       1.956 -11.808   1.004  1.00  0.00    -0.248 NA
ATOM     66  C   UNL     1       2.310 -12.858   3.060  1.00  0.00     0.031 C 
ATOM     67  C   UNL     1      -0.464 -13.550  -2.307  1.00  0.00     0.029 A 
ATOM     68  C   UNL     1       0.281 -13.022  -1.264  1.00  0.00     0.049 A 
ATOM     69  H   UNL     1       1.277 -11.165  -1.152  1.00  0.00     0.167 HD
ATOM     70  C   UNL     1       1.313 -13.037   0.999  1.00  0.00     0.074 A 
ATOM     71  C   UNL     1       1.587 -13.653   2.283  1.00  0.00     0.031 C 
ATOM     72  C   UNL     1       0.570 -13.609   0.020  1.00  0.00     0.037 A 
BRANCH  59  73
ATOM     73  C   UNL     1      -0.137 -10.120  -5.035  1.00  0.00     0.064 A 
ATOM     74  C   UNL     1       0.627 -10.149  -6.213  1.00  0.00     0.173 A 
ATOM     75  C   UNL     1      -1.526  -9.970  -5.159  1.00  0.00     0.173 A 
ATOM     76  F   UNL     1       1.960 -10.283  -6.151  1.00  0.00    -0.203 F 
ATOM     77  C   UNL     1       0.025 -10.014  -7.462  1.00  0.00     0.198 A 
ATOM     78  C   UNL     1      -2.126  -9.858  -6.411  1.00  0.00     0.198 A 
ATOM     79  F   UNL     1      -2.303  -9.940  -4.066  1.00  0.00    -0.203 F 
ATOM     80  F   UNL     1       0.779 -10.010  -8.571  1.00  0.00    -0.200 F 
ATOM     81  C   UNL     1      -1.351  -9.875  -7.561  1.00  0.00     0.200 A 
ATOM     82  F   UNL     1      -3.458  -9.735  -6.506  1.00  0.00    -0.200 F 
ATOM     83  F   UNL     1      -1.929  -9.755  -8.764  1.00  0.00    -0.200 F 
ENDBRANCH  59  73
BRANCH  60  84
ATOM     84  C   UNL     1       3.981 -10.660   4.077  1.00  0.00     0.064 A 
ATOM     85  C   UNL     1       5.013 -11.552   4.393  1.00  0.00     0.173 A 
ATOM     86  C   UNL     1       3.531  -9.793   5.083  1.00  0.00     0.173 A 
ATOM     87  F   UNL     1       5.465 -12.409   3.465  1.00  0.00    -0.203 F 
ATOM     88  C   UNL     1       5.567 -11.586   5.671  1.00  0.00     0.198 A 
ATOM     89  C   UNL     1       4.100  -9.813   6.354  1.00  0.00     0.198 A 
ATOM     90  F   UNL     1       2.550  -8.916   4.825  1.00  0.00    -0.203 F 
ATOM     91  F   UNL     1       6.533 -12.469   5.956  1.00  0.00    -0.200 F 
ATOM     92  C   UNL     1       5.114 -10.712   6.648  1.00  0.00     0.200 A 
ATOM     93  F   UNL     1       3.669  -8.959   7.293  1.00  0.00    -0.200 F 
ATOM     94  F   UNL     1       5.654 -10.739   7.875  1.00  0.00    -0.200 F 
ENDBRANCH  60  84
BRANCH  72  95
ATOM     95  C   UNL     1       0.026 -14.979   0.293  1.00  0.00     0.064 A 
ATOM     96  C   UNL     1      -1.043 -15.182   1.177  1.00  0.00     0.173 A 
ATOM     97  C   UNL     1       0.562 -16.097  -0.363  1.00  0.00     0.173 A 
ATOM     98  F   UNL     1      -1.578 -14.144   1.839  1.00  0.00    -0.203 F 
ATOM     99  C   UNL     1      -1.541 -16.460   1.413  1.00  0.00     0.198 A 
ATOM    100  C   UNL     1       0.045 -17.370  -0.145  1.00  0.00     0.198 A 
ATOM    101  F   UNL     1       1.582 -15.953  -1.223  1.00  0.00    -0.203 F 
ATOM    102  F   UNL     1      -2.533 -16.638   2.296  1.00  0.00    -0.200 F 
ATOM    103  C   UNL     1      -1.001 -17.551   0.748  1.00  0.00     0.200 A 
ATOM    104  F   UNL     1       0.560 -18.422  -0.796  1.00  0.00    -0.200 F 
ATOM    105  F   UNL     1      -1.484 -18.780   0.974  1.00  0.00    -0.200 F 
ENDBRANCH  72  95
ENDBRANCH  46  47
ENDBRANCH  39  41
ENDBRANCH  38  39
ENDBRANCH  37  38
ENDBRANCH  36  37
ENDBRANCH  35  36
ENDBRANCH   1  35
TORSDOF 18
