REMARK SMILES O=C1C[C@@H](C(=O)OCCOCCOC(=O)c2ccc(-c3c4nc(c(-c5c(F)c(F)c(F)c(F)c5F)c5ccc([nH]5)c(-c5c(F)c(F)c(F)c(F)c5F)c5nc(c(-c6c(F)c(F)c(F)c(F)c6F)c6ccc3[nH]6)C=C5)C=C4)cc2)C2(CC[NH+](Cc3c[nH]nc3-c3ccc(Cl)cc3)CC2)N1
REMARK SMILES IDX 9 1 8 2 7 3 5 4 6 5 4 6 1 7 2 8 3 9 98 10 79 11 80 13 97 14
REMARK SMILES IDX 81 15 96 16 82 17 83 19 84 20 85 21 88 22 86 23 87 24 89 26
REMARK SMILES IDX 90 27 95 28 91 29 94 30 92 31 93 32 10 33 11 34 12 35 13 36
REMARK SMILES IDX 14 37 15 38 16 39 17 40 78 41 18 42 77 43 19 44 20 45 21 46
REMARK SMILES IDX 71 47 22 48 76 49 70 50 72 51 23 52 75 53 69 54 68 55 24 57
REMARK SMILES IDX 56 58 36 59 55 60 37 61 40 62 54 63 73 64 38 65 39 66 53 68
REMARK SMILES IDX 74 69 41 70 25 71 26 72 34 73 27 74 28 75 32 76 35 77 29 78
REMARK SMILES IDX 30 79 33 80 31 81 57 82 58 83 66 84 59 85 60 86 64 87 67 88
REMARK SMILES IDX 61 89 62 90 65 91 63 92 42 93 43 94 51 95 44 96 45 97 49 98
REMARK SMILES IDX 52 99 46 100 47 101 50 102 48 103
REMARK H PARENT 98 12 82 18 86 25 72 56 40 67
REMARK Flexibility Score: inf
ROOT
ATOM      1  C   UNL     1       3.277   3.222  -4.364  1.00  0.00     0.202 C 
ENDROOT
BRANCH   1   2
ATOM      2  C   UNL     1       2.595   1.963  -3.815  1.00  0.00     0.261 C 
BRANCH   2   3
ATOM      3  O   UNL     1       3.092   1.504  -2.543  1.00  0.00    -0.463 OA
BRANCH   3   4
ATOM      4  C   UNL     1       3.913   0.426  -2.594  1.00  0.00     0.311 C 
ATOM      5  O   UNL     1       4.339  -0.070  -3.632  1.00  0.00    -0.252 OA
BRANCH   4   6
ATOM      6  C   UNL     1       4.181  -0.232  -1.253  1.00  0.00     0.134 C 
ATOM      7  O   UNL     1       1.032  -0.773   0.342  1.00  0.00    -0.275 OA
ATOM      8  C   UNL     1       2.163  -0.481   0.001  1.00  0.00     0.221 C 
ATOM      9  C   UNL     1       3.013  -1.209  -1.007  1.00  0.00     0.117 C 
ATOM     10  N   UNL     1       2.903   0.550   0.524  1.00  0.00    -0.349 N 
ATOM     11  C   UNL     1       4.281   0.573   0.063  1.00  0.00     0.064 C 
ATOM     12  H   UNL     1       2.535   1.212   1.153  1.00  0.00     0.164 HD
ATOM     13  C   UNL     1       4.763   2.026  -0.012  1.00  0.00     0.091 C 
ATOM     14  C   UNL     1       5.136  -0.233   1.088  1.00  0.00     0.091 C 
ATOM     15  C   UNL     1       6.277   2.164  -0.084  1.00  0.00     0.264 C 
ATOM     16  C   UNL     1       6.633   0.099   1.105  1.00  0.00     0.264 C 
ATOM     17  N   UNL     1       6.955   1.513   1.018  1.00  0.00    -0.331 N 
ATOM     18  H   UNL     1       7.944   1.521   0.769  1.00  0.00     0.348 HD
BRANCH  17  19
ATOM     19  C   UNL     1       7.123   2.278   2.264  1.00  0.00     0.303 C 
BRANCH  19  20
ATOM     20  C   UNL     1       5.897   2.426   3.110  1.00  0.00     0.052 A 
ATOM     21  C   UNL     1       5.349   1.453   3.928  1.00  0.00     0.115 A 
ATOM     22  C   UNL     1       5.114   3.595   3.412  1.00  0.00     0.101 A 
ATOM     23  N   UNL     1       4.238   1.990   4.494  1.00  0.00    -0.285 N 
ATOM     24  N   UNL     1       4.074   3.281   4.205  1.00  0.00    -0.175 NA
ATOM     25  H   UNL     1       3.616   1.477   5.059  1.00  0.00     0.189 HD
BRANCH  22  26
ATOM     26  C   UNL     1       5.305   5.001   3.046  1.00  0.00     0.003 A 
ATOM     27  C   UNL     1       5.243   5.974   4.059  1.00  0.00     0.012 A 
ATOM     28  C   UNL     1       5.491   5.422   1.727  1.00  0.00     0.012 A 
ATOM     29  C   UNL     1       5.360   7.334   3.760  1.00  0.00     0.021 A 
ATOM     30  C   UNL     1       5.619   6.784   1.425  1.00  0.00     0.021 A 
ATOM     31  C   UNL     1       5.543   7.733   2.441  1.00  0.00     0.041 A 
ATOM     32  Cl  UNL     1       5.651   9.406   2.058  1.00  0.00    -0.084 Cl
ENDBRANCH  22  26
ENDBRANCH  19  20
ENDBRANCH  17  19
ENDBRANCH   4   6
ENDBRANCH   3   4
ENDBRANCH   2   3
ENDBRANCH   1   2
BRANCH   1  33
ATOM     33  O   UNL     1       4.662   3.115  -4.681  1.00  0.00    -0.374 OA
BRANCH  33  34
ATOM     34  C   UNL     1       5.594   3.194  -3.602  1.00  0.00     0.202 C 
BRANCH  34  35
ATOM     35  C   UNL     1       5.690   4.563  -2.923  1.00  0.00     0.261 C 
BRANCH  35  36
ATOM     36  O   UNL     1       4.493   4.828  -2.169  1.00  0.00    -0.460 OA
BRANCH  36  37
ATOM     37  C   UNL     1       4.249   6.145  -1.996  1.00  0.00     0.338 C 
ATOM     38  O   UNL     1       5.035   7.063  -2.146  1.00  0.00    -0.246 OA
BRANCH  37  39
ATOM     39  C   UNL     1       2.811   6.350  -1.768  1.00  0.00     0.060 A 
ATOM     40  C   UNL     1       2.042   6.786  -2.852  1.00  0.00     0.016 A 
ATOM     41  C   UNL     1       2.255   6.249  -0.492  1.00  0.00     0.016 A 
ATOM     42  C   UNL     1       0.724   7.189  -2.648  1.00  0.00     0.010 A 
ATOM     43  C   UNL     1       0.931   6.653  -0.289  1.00  0.00     0.010 A 
ATOM     44  C   UNL     1       0.175   7.168  -1.357  1.00  0.00    -0.014 A 
BRANCH  44  45
ATOM     45  C   UNL     1      -1.135   7.822  -1.119  1.00  0.00     0.031 A 
ATOM     46  C   UNL     1      -1.170   9.229  -0.591  1.00  0.00     0.074 A 
ATOM     47  C   UNL     1      -2.281   7.184  -1.415  1.00  0.00     0.049 A 
ATOM     48  N   UNL     1      -2.198  10.012  -0.379  1.00  0.00    -0.248 NA
ATOM     49  C   UNL     1       0.127   9.838  -0.256  1.00  0.00     0.031 C 
ATOM     50  C   UNL     1      -2.376   5.822  -1.932  1.00  0.00     0.029 A 
ATOM     51  N   UNL     1      -3.584   7.603  -1.318  1.00  0.00    -0.354 N 
ATOM     52  C   UNL     1      -1.674  11.202   0.108  1.00  0.00     0.074 A 
ATOM     53  C   UNL     1      -0.239  11.029   0.195  1.00  0.00     0.031 C 
ATOM     54  C   UNL     1      -3.672   5.511  -2.103  1.00  0.00     0.029 A 
ATOM     55  C   UNL     1      -4.496   6.649  -1.695  1.00  0.00     0.049 A 
ATOM     56  H   UNL     1      -3.841   8.501  -1.009  1.00  0.00     0.167 HD
ATOM     57  C   UNL     1      -2.328  12.340   0.441  1.00  0.00     0.037 A 
ATOM     58  C   UNL     1      -5.842   6.688  -1.702  1.00  0.00     0.037 A 
ATOM     59  C   UNL     1      -3.754  12.512   0.357  1.00  0.00     0.049 A 
ATOM     60  C   UNL     1      -6.550   7.954  -1.297  1.00  0.00     0.074 A 
ATOM     61  C   UNL     1      -4.506  13.643   0.626  1.00  0.00     0.029 A 
ATOM     62  N   UNL     1      -4.647  11.517  -0.011  1.00  0.00    -0.354 N 
ATOM     63  N   UNL     1      -6.041   9.098  -0.907  1.00  0.00    -0.248 NA
ATOM     64  C   UNL     1      -8.019   7.938  -1.344  1.00  0.00     0.031 C 
ATOM     65  C   UNL     1      -5.858  13.317   0.467  1.00  0.00     0.029 A 
ATOM     66  C   UNL     1      -5.945  11.997   0.054  1.00  0.00     0.049 A 
ATOM     67  H   UNL     1      -4.396  10.603  -0.280  1.00  0.00     0.167 HD
ATOM     68  C   UNL     1      -7.121   9.941  -0.682  1.00  0.00     0.074 A 
ATOM     69  C   UNL     1      -8.314   9.182  -0.994  1.00  0.00     0.031 C 
ATOM     70  C   UNL     1      -7.123  11.228  -0.255  1.00  0.00     0.037 A 
BRANCH  57  71
ATOM     71  C   UNL     1      -1.504  13.489   0.946  1.00  0.00     0.064 A 
ATOM     72  C   UNL     1      -0.682  14.236   0.089  1.00  0.00     0.173 A 
ATOM     73  C   UNL     1      -1.564  13.866   2.295  1.00  0.00     0.173 A 
ATOM     74  F   UNL     1      -0.583  13.909  -1.208  1.00  0.00    -0.203 F 
ATOM     75  C   UNL     1       0.069  15.305   0.572  1.00  0.00     0.198 A 
ATOM     76  C   UNL     1      -0.831  14.951   2.769  1.00  0.00     0.198 A 
ATOM     77  F   UNL     1      -2.340  13.188   3.154  1.00  0.00    -0.203 F 
ATOM     78  F   UNL     1       0.879  15.981  -0.256  1.00  0.00    -0.200 F 
ATOM     79  C   UNL     1      -0.010  15.665   1.909  1.00  0.00     0.200 A 
ATOM     80  F   UNL     1      -0.917  15.305   4.059  1.00  0.00    -0.200 F 
ATOM     81  F   UNL     1       0.709  16.698   2.370  1.00  0.00    -0.200 F 
ENDBRANCH  57  71
BRANCH  58  82
ATOM     82  C   UNL     1      -6.608   5.485  -2.116  1.00  0.00     0.064 A 
ATOM     83  C   UNL     1      -7.305   5.449  -3.331  1.00  0.00     0.173 A 
ATOM     84  C   UNL     1      -6.649   4.341  -1.304  1.00  0.00     0.173 A 
ATOM     85  F   UNL     1      -7.315   6.527  -4.129  1.00  0.00    -0.203 F 
ATOM     86  C   UNL     1      -8.023   4.318  -3.714  1.00  0.00     0.198 A 
ATOM     87  C   UNL     1      -7.347   3.203  -1.700  1.00  0.00     0.198 A 
ATOM     88  F   UNL     1      -5.999   4.328  -0.131  1.00  0.00    -0.203 F 
ATOM     89  F   UNL     1      -8.710   4.322  -4.864  1.00  0.00    -0.200 F 
ATOM     90  C   UNL     1      -8.037   3.194  -2.902  1.00  0.00     0.200 A 
ATOM     91  F   UNL     1      -7.350   2.115  -0.917  1.00  0.00    -0.200 F 
ATOM     92  F   UNL     1      -8.722   2.104  -3.276  1.00  0.00    -0.200 F 
ENDBRANCH  58  82
BRANCH  70  93
ATOM     93  C   UNL     1      -8.456  11.903  -0.113  1.00  0.00     0.064 A 
ATOM     94  C   UNL     1      -9.329  11.587   0.938  1.00  0.00     0.173 A 
ATOM     95  C   UNL     1      -8.844  12.909  -1.012  1.00  0.00     0.173 A 
ATOM     96  F   UNL     1      -9.010  10.623   1.814  1.00  0.00    -0.203 F 
ATOM     97  C   UNL     1     -10.553  12.238   1.071  1.00  0.00     0.198 A 
ATOM     98  C   UNL     1     -10.056  13.576  -0.860  1.00  0.00     0.198 A 
ATOM     99  F   UNL     1      -8.041  13.253  -2.030  1.00  0.00    -0.203 F 
ATOM    100  F   UNL     1     -11.390  11.892   2.058  1.00  0.00    -0.200 F 
ATOM    101  C   UNL     1     -10.912  13.236   0.177  1.00  0.00     0.200 A 
ATOM    102  F   UNL     1     -10.397  14.547  -1.718  1.00  0.00    -0.200 F 
ATOM    103  F   UNL     1     -12.088  13.866   0.310  1.00  0.00    -0.200 F 
ENDBRANCH  70  93
ENDBRANCH  44  45
ENDBRANCH  37  39
ENDBRANCH  36  37
ENDBRANCH  35  36
ENDBRANCH  34  35
ENDBRANCH  33  34
ENDBRANCH   1  33
TORSDOF 17
