REMARK SMILES O=C(OCCOCCOC(=O)c1cccc(/C=N/NC(=S)Nc2ccccc2)c1O)c1ccc(-c2c3nc(c(-c4c(F)c(F)c(F)c(F)c4F)c4ccc([nH]4)c(-c4c(F)c(F)c(F)c(F)c4F)c4nc(c(-c5c(F)c(F)c(F)c(F)c5F)c5ccc2[nH]5)C=C4)C=C3)cc1
REMARK SMILES IDX 7 1 6 2 5 3 4 4 3 5 2 6 1 7 31 8 32 9 93 10 33 11 92 12
REMARK SMILES IDX 34 13 35 14 36 15 86 16 37 17 91 18 85 19 87 20 38 21 90 22
REMARK SMILES IDX 84 23 83 24 39 26 71 27 51 28 70 29 52 30 55 31 69 32 88 33
REMARK SMILES IDX 53 34 54 35 68 37 89 38 56 39 40 40 41 41 49 42 42 43 43 44
REMARK SMILES IDX 47 45 50 46 44 47 45 48 48 49 46 50 72 51 73 52 81 53 74 54
REMARK SMILES IDX 75 55 79 56 82 57 76 58 77 59 80 60 78 61 57 62 58 63 66 64
REMARK SMILES IDX 59 65 60 66 64 67 67 68 61 69 62 70 65 71 63 72 8 73 9 74
REMARK SMILES IDX 10 75 11 76 12 77 13 78 29 79 14 80 16 81 15 82 30 83 17 85
REMARK SMILES IDX 18 86 19 87 20 89 21 90 22 91 23 93 24 94 28 95 25 96 27 97
REMARK SMILES IDX 26 98
REMARK H PARENT 87 25 55 36 30 84 19 88 22 92
REMARK Flexibility Score: inf
ROOT
ATOM      1  C   UNL     1       2.770   0.054  -1.955  1.00  0.00     0.202 C 
ENDROOT
BRANCH   1   2
ATOM      2  O   UNL     1       4.077  -0.115  -1.399  1.00  0.00    -0.374 OA
BRANCH   2   3
ATOM      3  C   UNL     1       4.316  -1.321  -0.671  1.00  0.00     0.202 C 
BRANCH   3   4
ATOM      4  C   UNL     1       3.951  -1.232   0.811  1.00  0.00     0.261 C 
BRANCH   4   5
ATOM      5  O   UNL     1       2.542  -0.971   0.957  1.00  0.00    -0.460 OA
BRANCH   5   6
ATOM      6  C   UNL     1       1.938   0.217   1.190  1.00  0.00     0.338 C 
ATOM      7  O   UNL     1       0.711   0.279   1.212  1.00  0.00    -0.246 OA
BRANCH   6   8
ATOM      8  C   UNL     1       2.703   1.462   1.464  1.00  0.00     0.060 A 
ATOM      9  C   UNL     1       3.891   1.799   0.820  1.00  0.00     0.016 A 
ATOM     10  C   UNL     1       2.153   2.384   2.364  1.00  0.00     0.016 A 
ATOM     11  C   UNL     1       4.567   2.964   1.091  1.00  0.00     0.010 A 
ATOM     12  C   UNL     1       2.810   3.589   2.628  1.00  0.00     0.010 A 
ATOM     13  C   UNL     1       4.030   3.863   1.998  1.00  0.00    -0.014 A 
BRANCH  13  14
ATOM     14  C   UNL     1       4.899   4.982   2.370  1.00  0.00     0.031 A 
ATOM     15  C   UNL     1       5.626   4.881   3.670  1.00  0.00     0.074 A 
ATOM     16  C   UNL     1       5.179   5.924   1.455  1.00  0.00     0.049 A 
ATOM     17  N   UNL     1       6.422   5.738   4.243  1.00  0.00    -0.248 NA
ATOM     18  C   UNL     1       5.443   3.627   4.423  1.00  0.00     0.031 C 
ATOM     19  C   UNL     1       4.652   5.953   0.086  1.00  0.00     0.029 A 
ATOM     20  N   UNL     1       6.013   7.003   1.513  1.00  0.00    -0.354 N 
ATOM     21  C   UNL     1       6.787   5.154   5.447  1.00  0.00     0.074 A 
ATOM     22  C   UNL     1       6.140   3.866   5.521  1.00  0.00     0.031 C 
ATOM     23  C   UNL     1       5.202   6.984  -0.574  1.00  0.00     0.029 A 
ATOM     24  C   UNL     1       6.040   7.734   0.352  1.00  0.00     0.049 A 
ATOM     25  H   UNL     1       6.543   7.234   2.310  1.00  0.00     0.167 HD
ATOM     26  C   UNL     1       7.580   5.679   6.407  1.00  0.00     0.037 A 
ATOM     27  C   UNL     1       6.647   8.906   0.101  1.00  0.00     0.037 A 
ATOM     28  C   UNL     1       8.207   6.965   6.270  1.00  0.00     0.049 A 
ATOM     29  C   UNL     1       7.429   9.526   1.227  1.00  0.00     0.074 A 
ATOM     30  C   UNL     1       8.971   7.663   7.182  1.00  0.00     0.029 A 
ATOM     31  N   UNL     1       8.130   7.748   5.121  1.00  0.00    -0.354 N 
ATOM     32  N   UNL     1       7.684   9.040   2.421  1.00  0.00    -0.248 NA
ATOM     33  C   UNL     1       7.986  10.859   0.986  1.00  0.00     0.031 C 
ATOM     34  C   UNL     1       9.307   8.895   6.606  1.00  0.00     0.029 A 
ATOM     35  C   UNL     1       8.815   8.934   5.308  1.00  0.00     0.049 A 
ATOM     36  H   UNL     1       7.657   7.494   4.296  1.00  0.00     0.167 HD
ATOM     37  C   UNL     1       8.456   9.992   3.067  1.00  0.00     0.074 A 
ATOM     38  C   UNL     1       8.634  11.081   2.122  1.00  0.00     0.031 C 
ATOM     39  C   UNL     1       8.972   9.978   4.322  1.00  0.00     0.037 A 
BRANCH  26  40
ATOM     40  C   UNL     1       7.684   4.912   7.693  1.00  0.00     0.064 A 
ATOM     41  C   UNL     1       8.332   3.670   7.782  1.00  0.00     0.173 A 
ATOM     42  C   UNL     1       7.035   5.392   8.841  1.00  0.00     0.173 A 
ATOM     43  F   UNL     1       8.937   3.144   6.706  1.00  0.00    -0.203 F 
ATOM     44  C   UNL     1       8.282   2.917   8.955  1.00  0.00     0.198 A 
ATOM     45  C   UNL     1       7.017   4.654  10.021  1.00  0.00     0.198 A 
ATOM     46  F   UNL     1       6.388   6.567   8.810  1.00  0.00    -0.203 F 
ATOM     47  F   UNL     1       8.829   1.694   8.989  1.00  0.00    -0.200 F 
ATOM     48  C   UNL     1       7.626   3.410  10.073  1.00  0.00     0.200 A 
ATOM     49  F   UNL     1       6.382   5.134  11.099  1.00  0.00    -0.200 F 
ATOM     50  F   UNL     1       7.560   2.676  11.192  1.00  0.00    -0.200 F 
ENDBRANCH  26  40
BRANCH  27  51
ATOM     51  C   UNL     1       6.491   9.571  -1.220  1.00  0.00     0.064 A 
ATOM     52  C   UNL     1       7.591   9.783  -2.061  1.00  0.00     0.173 A 
ATOM     53  C   UNL     1       5.236  10.008  -1.674  1.00  0.00     0.173 A 
ATOM     54  F   UNL     1       8.816   9.401  -1.671  1.00  0.00    -0.203 F 
ATOM     55  C   UNL     1       7.445  10.418  -3.295  1.00  0.00     0.198 A 
ATOM     56  C   UNL     1       5.085  10.613  -2.920  1.00  0.00     0.198 A 
ATOM     57  F   UNL     1       4.146   9.834  -0.911  1.00  0.00    -0.203 F 
ATOM     58  F   UNL     1       8.521  10.645  -4.060  1.00  0.00    -0.200 F 
ATOM     59  C   UNL     1       6.191  10.825  -3.726  1.00  0.00     0.200 A 
ATOM     60  F   UNL     1       3.869  10.989  -3.338  1.00  0.00    -0.200 F 
ATOM     61  F   UNL     1       6.051  11.429  -4.914  1.00  0.00    -0.200 F 
ENDBRANCH  27  51
BRANCH  39  62
ATOM     62  C   UNL     1       9.828  11.146   4.708  1.00  0.00     0.064 A 
ATOM     63  C   UNL     1       9.285  12.415   4.950  1.00  0.00     0.173 A 
ATOM     64  C   UNL     1      11.209  10.971   4.881  1.00  0.00     0.173 A 
ATOM     65  F   UNL     1       7.972  12.632   4.780  1.00  0.00    -0.203 F 
ATOM     66  C   UNL     1      10.101  13.477   5.324  1.00  0.00     0.198 A 
ATOM     67  C   UNL     1      12.015  12.025   5.293  1.00  0.00     0.198 A 
ATOM     68  F   UNL     1      11.771   9.771   4.669  1.00  0.00    -0.203 F 
ATOM     69  F   UNL     1       9.573  14.696   5.497  1.00  0.00    -0.200 F 
ATOM     70  C   UNL     1      11.463  13.279   5.505  1.00  0.00     0.200 A 
ATOM     71  F   UNL     1      13.326  11.827   5.487  1.00  0.00    -0.200 F 
ATOM     72  F   UNL     1      12.245  14.300   5.879  1.00  0.00    -0.200 F 
ENDBRANCH  39  62
ENDBRANCH  13  14
ENDBRANCH   6   8
ENDBRANCH   5   6
ENDBRANCH   4   5
ENDBRANCH   3   4
ENDBRANCH   2   3
ENDBRANCH   1   2
BRANCH   1  73
ATOM     73  C   UNL     1       2.884   0.056  -3.473  1.00  0.00     0.261 C 
BRANCH  73  74
ATOM     74  O   UNL     1       3.401  -1.225  -3.857  1.00  0.00    -0.460 OA
BRANCH  74  75
ATOM     75  C   UNL     1       4.756  -1.322  -3.809  1.00  0.00     0.342 C 
ATOM     76  O   UNL     1       5.552  -0.404  -3.825  1.00  0.00    -0.246 OA
BRANCH  75  77
ATOM     77  C   UNL     1       5.152  -2.743  -3.670  1.00  0.00     0.102 A 
ATOM     78  C   UNL     1       6.452  -2.999  -3.202  1.00  0.00     0.019 A 
ATOM     79  C   UNL     1       4.350  -3.805  -4.084  1.00  0.00     0.138 A 
ATOM     80  C   UNL     1       6.982  -4.288  -3.256  1.00  0.00     0.002 A 
ATOM     81  C   UNL     1       4.949  -5.036  -4.314  1.00  0.00     0.037 A 
ATOM     82  C   UNL     1       6.255  -5.294  -3.889  1.00  0.00     0.014 A 
BRANCH  79  83
ATOM     83  O   UNL     1       3.019  -3.700  -4.374  1.00  0.00    -0.506 OA
ATOM     84  H   UNL     1       2.572  -2.888  -4.235  1.00  0.00     0.293 HD
ENDBRANCH  79  83
BRANCH  81  85
ATOM     85  C   UNL     1       4.334  -5.815  -5.404  1.00  0.00     0.145 C 
ATOM     86  N   UNL     1       5.067  -6.099  -6.431  1.00  0.00    -0.181 NA
BRANCH  86  87
ATOM     87  N   UNL     1       4.457  -6.571  -7.548  1.00  0.00    -0.254 N 
ATOM     88  H   UNL     1       4.953  -7.285  -8.010  1.00  0.00     0.193 HD
BRANCH  87  89
ATOM     89  C   UNL     1       3.286  -6.233  -8.138  1.00  0.00     0.191 C 
ATOM     90  S   UNL     1       2.626  -7.331  -9.225  1.00  0.00    -0.039 S 
BRANCH  89  91
ATOM     91  N   UNL     1       2.584  -5.102  -7.907  1.00  0.00    -0.331 N 
ATOM     92  H   UNL     1       1.611  -5.226  -7.993  1.00  0.00     0.169 HD
BRANCH  91  93
ATOM     93  C   UNL     1       2.948  -3.784  -7.570  1.00  0.00     0.040 A 
ATOM     94  C   UNL     1       1.899  -2.897  -7.274  1.00  0.00     0.026 A 
ATOM     95  C   UNL     1       4.254  -3.300  -7.578  1.00  0.00     0.026 A 
ATOM     96  C   UNL     1       2.156  -1.564  -6.938  1.00  0.00     0.002 A 
ATOM     97  C   UNL     1       4.513  -1.963  -7.247  1.00  0.00     0.002 A 
ATOM     98  C   UNL     1       3.467  -1.098  -6.926  1.00  0.00     0.000 A 
ENDBRANCH  91  93
ENDBRANCH  89  91
ENDBRANCH  87  89
ENDBRANCH  86  87
ENDBRANCH  81  85
ENDBRANCH  75  77
ENDBRANCH  74  75
ENDBRANCH  73  74
ENDBRANCH   1  73
TORSDOF 20
