REMARK SMILES N#CCC[NH2+]C1(C(=O)OCCOCCOC(=O)c2ccc(-c3c4nc(c(-c5c(F)c(F)c(F)c(F)c5F)c5ccc([nH]5)c(-c5c(F)c(F)c(F)c(F)c5F)c5nc(c(-c6c(F)c(F)c(F)c(F)c6F)c6ccc3[nH]6)C=C5)C=C4)cc2)CC1
REMARK SMILES IDX 11 1 10 2 9 3 7 4 8 5 6 6 81 7 82 8 5 9 4 12 3 13 2 14 1 15
REMARK SMILES IDX 12 16 13 17 14 18 15 19 16 20 17 21 18 22 19 23 80 24 20 25
REMARK SMILES IDX 79 26 21 27 22 28 23 29 73 30 24 31 78 32 72 33 74 34 25 35
REMARK SMILES IDX 77 36 71 37 70 38 26 40 58 41 38 42 57 43 39 44 42 45 56 46
REMARK SMILES IDX 75 47 40 48 41 49 55 51 76 52 43 53 27 54 28 55 36 56 29 57
REMARK SMILES IDX 30 58 34 59 37 60 31 61 32 62 35 63 33 64 59 65 60 66 68 67
REMARK SMILES IDX 61 68 62 69 66 70 69 71 63 72 64 73 67 74 65 75 44 76 45 77
REMARK SMILES IDX 53 78 46 79 47 80 51 81 54 82 48 83 49 84 52 85 50 86
REMARK H PARENT 5 10 5 11 74 39 42 50
REMARK Flexibility Score: inf
ROOT
ATOM      1  C   UNL     1       7.280   2.534  -4.139  1.00  0.00     0.202 C 
ENDROOT
BRANCH   1   2
ATOM      2  C   UNL     1       7.554   1.024  -4.112  1.00  0.00     0.261 C 
BRANCH   2   3
ATOM      3  O   UNL     1       6.375   0.272  -4.411  1.00  0.00    -0.459 OA
BRANCH   3   4
ATOM      4  C   UNL     1       6.112  -0.749  -3.550  1.00  0.00     0.368 C 
ATOM      5  O   UNL     1       6.921  -1.285  -2.801  1.00  0.00    -0.245 OA
BRANCH   4   6
ATOM      6  C   UNL     1       4.637  -1.096  -3.518  1.00  0.00     0.194 C 
ATOM      7  C   UNL     1       4.188  -2.434  -4.050  1.00  0.00     0.088 C 
ATOM      8  C   UNL     1       3.884  -1.193  -4.835  1.00  0.00     0.088 C 
BRANCH   6   9
ATOM      9  N   UNL     1       3.892  -0.459  -2.390  1.00  0.00    -0.331 N 
ATOM     10  H   UNL     1       4.097   0.540  -2.397  1.00  0.00     0.347 HD
ATOM     11  H   UNL     1       2.904  -0.663  -2.542  1.00  0.00     0.347 HD
BRANCH   9  12
ATOM     12  C   UNL     1       4.229  -0.988  -1.062  1.00  0.00     0.276 C 
BRANCH  12  13
ATOM     13  C   UNL     1       3.718  -0.061   0.049  1.00  0.00     0.181 C 
BRANCH  13  14
ATOM     14  C   UNL     1       2.198  -0.061   0.049  1.00  0.00     0.068 C 
ATOM     15  N   UNL     1       0.937  -0.061   0.049  1.00  0.00    -0.198 NA
ENDBRANCH  13  14
ENDBRANCH  12  13
ENDBRANCH   9  12
ENDBRANCH   6   9
ENDBRANCH   4   6
ENDBRANCH   3   4
ENDBRANCH   2   3
ENDBRANCH   1   2
BRANCH   1  16
ATOM     16  O   UNL     1       6.181   3.033  -3.384  1.00  0.00    -0.374 OA
BRANCH  16  17
ATOM     17  C   UNL     1       4.859   2.664  -3.780  1.00  0.00     0.202 C 
BRANCH  17  18
ATOM     18  C   UNL     1       4.330   3.127  -5.146  1.00  0.00     0.261 C 
BRANCH  18  19
ATOM     19  O   UNL     1       5.099   2.644  -6.262  1.00  0.00    -0.460 OA
BRANCH  19  20
ATOM     20  C   UNL     1       5.747   3.607  -6.963  1.00  0.00     0.338 C 
ATOM     21  O   UNL     1       5.730   4.810  -6.770  1.00  0.00    -0.246 OA
BRANCH  20  22
ATOM     22  C   UNL     1       6.662   2.982  -7.933  1.00  0.00     0.060 A 
ATOM     23  C   UNL     1       8.037   3.202  -7.779  1.00  0.00     0.016 A 
ATOM     24  C   UNL     1       6.173   2.278  -9.033  1.00  0.00     0.016 A 
ATOM     25  C   UNL     1       8.931   2.733  -8.738  1.00  0.00     0.010 A 
ATOM     26  C   UNL     1       7.071   1.820 -10.002  1.00  0.00     0.010 A 
ATOM     27  C   UNL     1       8.450   2.066  -9.871  1.00  0.00    -0.014 A 
BRANCH  27  28
ATOM     28  C   UNL     1       9.375   1.742 -10.984  1.00  0.00     0.031 A 
ATOM     29  C   UNL     1       9.377   2.614 -12.209  1.00  0.00     0.074 A 
ATOM     30  C   UNL     1      10.218   0.697 -10.892  1.00  0.00     0.049 A 
ATOM     31  N   UNL     1      10.036   2.470 -13.330  1.00  0.00    -0.248 NA
ATOM     32  C   UNL     1       8.521   3.810 -12.162  1.00  0.00     0.031 C 
ATOM     33  C   UNL     1      10.346  -0.185  -9.733  1.00  0.00     0.029 A 
ATOM     34  N   UNL     1      11.119   0.197 -11.798  1.00  0.00    -0.354 N 
ATOM     35  C   UNL     1       9.677   3.556 -14.119  1.00  0.00     0.074 A 
ATOM     36  C   UNL     1       8.712   4.327 -13.367  1.00  0.00     0.031 C 
ATOM     37  C   UNL     1      11.263  -1.129 -10.004  1.00  0.00     0.029 A 
ATOM     38  C   UNL     1      11.753  -0.944 -11.368  1.00  0.00     0.049 A 
ATOM     39  H   UNL     1      11.294   0.615 -12.672  1.00  0.00     0.167 HD
ATOM     40  C   UNL     1      10.126   3.886 -15.354  1.00  0.00     0.037 A 
ATOM     41  C   UNL     1      12.605  -1.759 -12.019  1.00  0.00     0.037 A 
ATOM     42  C   UNL     1      11.080   3.110 -16.102  1.00  0.00     0.049 A 
ATOM     43  C   UNL     1      12.998  -1.428 -13.439  1.00  0.00     0.074 A 
ATOM     44  C   UNL     1      11.585   3.349 -17.368  1.00  0.00     0.029 A 
ATOM     45  N   UNL     1      11.672   1.940 -15.649  1.00  0.00    -0.354 N 
ATOM     46  N   UNL     1      12.662  -0.397 -14.176  1.00  0.00    -0.248 NA
ATOM     47  C   UNL     1      13.892  -2.379 -14.117  1.00  0.00     0.031 C 
ATOM     48  C   UNL     1      12.446   2.298 -17.701  1.00  0.00     0.029 A 
ATOM     49  C   UNL     1      12.523   1.436 -16.619  1.00  0.00     0.049 A 
ATOM     50  H   UNL     1      11.512   1.529 -14.769  1.00  0.00     0.167 HD
ATOM     51  C   UNL     1      13.334  -0.553 -15.382  1.00  0.00     0.074 A 
ATOM     52  C   UNL     1      14.109  -1.771 -15.274  1.00  0.00     0.031 C 
ATOM     53  C   UNL     1      13.310   0.237 -16.483  1.00  0.00     0.037 A 
BRANCH  40  54
ATOM     54  C   UNL     1       9.585   5.138 -15.981  1.00  0.00     0.064 A 
ATOM     55  C   UNL     1       9.944   6.409 -15.507  1.00  0.00     0.173 A 
ATOM     56  C   UNL     1       8.747   5.069 -17.104  1.00  0.00     0.173 A 
ATOM     57  F   UNL     1      10.733   6.529 -14.428  1.00  0.00    -0.203 F 
ATOM     58  C   UNL     1       9.469   7.564 -16.123  1.00  0.00     0.198 A 
ATOM     59  C   UNL     1       8.299   6.226 -17.736  1.00  0.00     0.198 A 
ATOM     60  F   UNL     1       8.377   3.880 -17.601  1.00  0.00    -0.203 F 
ATOM     61  F   UNL     1       9.794   8.767 -15.629  1.00  0.00    -0.200 F 
ATOM     62  C   UNL     1       8.655   7.472 -17.242  1.00  0.00     0.200 A 
ATOM     63  F   UNL     1       7.525   6.136 -18.827  1.00  0.00    -0.200 F 
ATOM     64  F   UNL     1       8.212   8.585 -17.843  1.00  0.00    -0.200 F 
ENDBRANCH  40  54
BRANCH  41  65
ATOM     65  C   UNL     1      13.129  -2.988 -11.362  1.00  0.00     0.064 A 
ATOM     66  C   UNL     1      14.499  -3.143 -11.106  1.00  0.00     0.173 A 
ATOM     67  C   UNL     1      12.283  -4.059 -11.040  1.00  0.00     0.173 A 
ATOM     68  F   UNL     1      15.354  -2.158 -11.419  1.00  0.00    -0.203 F 
ATOM     69  C   UNL     1      15.007  -4.335 -10.592  1.00  0.00     0.198 A 
ATOM     70  C   UNL     1      12.787  -5.237 -10.491  1.00  0.00     0.198 A 
ATOM     71  F   UNL     1      10.964  -3.967 -11.264  1.00  0.00    -0.203 F 
ATOM     72  F   UNL     1      16.329  -4.482 -10.429  1.00  0.00    -0.200 F 
ATOM     73  C   UNL     1      14.150  -5.380 -10.283  1.00  0.00     0.200 A 
ATOM     74  F   UNL     1      11.953  -6.239 -10.181  1.00  0.00    -0.200 F 
ATOM     75  F   UNL     1      14.639  -6.530  -9.800  1.00  0.00    -0.200 F 
ENDBRANCH  41  65
BRANCH  53  76
ATOM     76  C   UNL     1      14.191  -0.153 -17.637  1.00  0.00     0.064 A 
ATOM     77  C   UNL     1      13.917  -1.276 -18.432  1.00  0.00     0.173 A 
ATOM     78  C   UNL     1      15.301   0.636 -17.977  1.00  0.00     0.173 A 
ATOM     79  F   UNL     1      12.877  -2.071 -18.141  1.00  0.00    -0.203 F 
ATOM     80  C   UNL     1      14.739  -1.610 -19.506  1.00  0.00     0.198 A 
ATOM     81  C   UNL     1      16.099   0.319 -19.072  1.00  0.00     0.198 A 
ATOM     82  F   UNL     1      15.603   1.726 -17.255  1.00  0.00    -0.203 F 
ATOM     83  F   UNL     1      14.488  -2.717 -20.218  1.00  0.00    -0.200 F 
ATOM     84  C   UNL     1      15.823  -0.808 -19.830  1.00  0.00     0.200 A 
ATOM     85  F   UNL     1      17.136   1.105 -19.394  1.00  0.00    -0.200 F 
ATOM     86  F   UNL     1      16.605  -1.126 -20.871  1.00  0.00    -0.200 F 
ENDBRANCH  53  76
ENDBRANCH  27  28
ENDBRANCH  20  22
ENDBRANCH  19  20
ENDBRANCH  18  19
ENDBRANCH  17  18
ENDBRANCH  16  17
ENDBRANCH   1  16
TORSDOF 18
