REMARK SMILES COc1ccc2c(c1)c(CC(=O)OCCOCCOC(=O)c1ccc(-c3c4nc(c(-c5c(F)c(F)c(F)c(F)c5F)c5ccc([nH]5)c(-c5c(F)c(F)c(F)c(F)c5F)c5nc(c(-c6c(F)c(F)c(F)c(F)c6F)c6ccc3[nH]6)C=C5)C=C4)cc1)c(C)n2C(=O)c1ccc(Cl)cc1
REMARK SMILES IDX 15 1 14 2 13 3 11 4 12 5 10 6 9 7 3 8 4 9 8 10 5 11 7 12
REMARK SMILES IDX 6 13 87 14 85 15 86 16 2 17 1 18 88 19 89 20 90 21 91 22
REMARK SMILES IDX 96 23 92 24 95 25 93 26 94 27 16 28 17 29 18 30 19 31 20 32
REMARK SMILES IDX 21 33 22 34 23 35 84 36 24 37 83 38 25 39 26 40 27 41 77 42
REMARK SMILES IDX 28 43 82 44 76 45 78 46 29 47 81 48 75 49 74 50 30 52 62 53
REMARK SMILES IDX 42 54 61 55 43 56 46 57 60 58 79 59 44 60 45 61 59 63 80 64
REMARK SMILES IDX 47 65 31 66 32 67 40 68 33 69 34 70 38 71 41 72 35 73 36 74
REMARK SMILES IDX 39 75 37 76 63 77 64 78 72 79 65 80 66 81 70 82 73 83 67 84
REMARK SMILES IDX 68 85 71 86 69 87 48 88 49 89 57 90 50 91 51 92 55 93 58 94
REMARK SMILES IDX 52 95 53 96 56 97 54 98
REMARK H PARENT 78 51 46 62
REMARK Flexibility Score: inf
ROOT
ATOM      1  C   UNL     1      -2.420   6.362   0.343  1.00  0.00     0.202 C 
ENDROOT
BRANCH   1   2
ATOM      2  C   UNL     1      -2.485   6.876   1.792  1.00  0.00     0.261 C 
BRANCH   2   3
ATOM      3  O   UNL     1      -1.758   6.094   2.756  1.00  0.00    -0.463 OA
BRANCH   3   4
ATOM      4  C   UNL     1      -2.543   5.411   3.632  1.00  0.00     0.310 C 
ATOM      5  O   UNL     1      -3.771   5.491   3.657  1.00  0.00    -0.252 OA
BRANCH   4   6
ATOM      6  C   UNL     1      -1.824   4.523   4.620  1.00  0.00     0.160 C 
BRANCH   6   7
ATOM      7  C   UNL     1      -0.344   4.268   4.482  1.00  0.00    -0.008 A 
ATOM      8  C   UNL     1       0.587   1.381   2.136  1.00  0.00     0.119 A 
ATOM      9  C   UNL     1       1.946   1.424   2.376  1.00  0.00     0.048 A 
ATOM     10  C   UNL     1      -0.257   2.223   2.868  1.00  0.00     0.057 A 
ATOM     11  C   UNL     1       2.477   2.329   3.303  1.00  0.00     0.031 A 
ATOM     12  C   UNL     1       0.263   3.222   3.727  1.00  0.00     0.008 A 
ATOM     13  C   UNL     1       1.643   3.268   3.951  1.00  0.00     0.057 A 
ATOM     14  N   UNL     1       1.905   4.298   4.878  1.00  0.00    -0.280 N 
ATOM     15  C   UNL     1       0.673   4.910   5.181  1.00  0.00     0.028 A 
ATOM     16  C   UNL     1       0.475   6.044   6.142  1.00  0.00     0.065 C 
BRANCH   8  17
ATOM     17  O   UNL     1      -0.040   0.614   1.195  1.00  0.00    -0.497 OA
ATOM     18  C   UNL     1       0.783  -0.153   0.321  1.00  0.00     0.278 C 
ENDBRANCH   8  17
BRANCH  14  19
ATOM     19  C   UNL     1       3.181   4.623   5.435  1.00  0.00     0.262 C 
ATOM     20  O   UNL     1       3.264   5.485   6.308  1.00  0.00    -0.268 OA
BRANCH  19  21
ATOM     21  C   UNL     1       4.456   3.975   5.088  1.00  0.00     0.040 A 
ATOM     22  C   UNL     1       5.083   4.255   3.869  1.00  0.00     0.015 A 
ATOM     23  C   UNL     1       5.016   3.065   5.992  1.00  0.00     0.015 A 
ATOM     24  C   UNL     1       6.234   3.546   3.516  1.00  0.00     0.021 A 
ATOM     25  C   UNL     1       6.174   2.370   5.638  1.00  0.00     0.021 A 
ATOM     26  C   UNL     1       6.766   2.598   4.395  1.00  0.00     0.041 A 
ATOM     27  Cl  UNL     1       8.149   1.687   3.930  1.00  0.00    -0.084 Cl
ENDBRANCH  19  21
ENDBRANCH  14  19
ENDBRANCH   6   7
ENDBRANCH   4   6
ENDBRANCH   3   4
ENDBRANCH   2   3
ENDBRANCH   1   2
BRANCH   1  28
ATOM     28  O   UNL     1      -2.516   4.972   0.062  1.00  0.00    -0.374 OA
BRANCH  28  29
ATOM     29  C   UNL     1      -1.471   4.129   0.546  1.00  0.00     0.202 C 
BRANCH  29  30
ATOM     30  C   UNL     1      -0.038   4.314   0.013  1.00  0.00     0.261 C 
BRANCH  30  31
ATOM     31  O   UNL     1       0.467   5.626   0.264  1.00  0.00    -0.460 OA
BRANCH  31  32
ATOM     32  C   UNL     1       1.215   6.140  -0.748  1.00  0.00     0.338 C 
ATOM     33  O   UNL     1       1.867   5.539  -1.582  1.00  0.00    -0.246 OA
BRANCH  32  34
ATOM     34  C   UNL     1       0.723   7.518  -0.885  1.00  0.00     0.060 A 
ATOM     35  C   UNL     1       0.665   8.347   0.237  1.00  0.00     0.016 A 
ATOM     36  C   UNL     1      -0.020   7.793  -2.046  1.00  0.00     0.016 A 
ATOM     37  C   UNL     1      -0.227   9.407   0.226  1.00  0.00     0.010 A 
ATOM     38  C   UNL     1      -0.926   8.844  -2.044  1.00  0.00     0.010 A 
ATOM     39  C   UNL     1      -1.055   9.624  -0.894  1.00  0.00    -0.014 A 
BRANCH  39  40
ATOM     40  C   UNL     1      -1.859  10.842  -0.887  1.00  0.00     0.031 A 
ATOM     41  C   UNL     1      -1.005  12.060  -0.901  1.00  0.00     0.074 A 
ATOM     42  C   UNL     1      -3.199  10.944  -0.978  1.00  0.00     0.049 A 
ATOM     43  N   UNL     1      -0.900  12.971   0.009  1.00  0.00    -0.248 NA
ATOM     44  C   UNL     1      -0.034  12.182  -2.000  1.00  0.00     0.031 C 
ATOM     45  C   UNL     1      -4.185   9.906  -1.271  1.00  0.00     0.029 A 
ATOM     46  N   UNL     1      -3.958  12.077  -0.895  1.00  0.00    -0.354 N 
ATOM     47  C   UNL     1       0.052  13.867  -0.468  1.00  0.00     0.074 A 
ATOM     48  C   UNL     1       0.654  13.256  -1.623  1.00  0.00     0.031 C 
ATOM     49  C   UNL     1      -5.378  10.490  -1.542  1.00  0.00     0.029 A 
ATOM     50  C   UNL     1      -5.270  11.924  -1.322  1.00  0.00     0.049 A 
ATOM     51  H   UNL     1      -3.604  12.932  -0.560  1.00  0.00     0.167 HD
ATOM     52  C   UNL     1       0.128  15.141   0.001  1.00  0.00     0.037 A 
ATOM     53  C   UNL     1      -6.166  12.921  -1.540  1.00  0.00     0.037 A 
ATOM     54  C   UNL     1      -0.497  15.265   1.290  1.00  0.00     0.049 A 
ATOM     55  C   UNL     1      -5.700  14.115  -0.792  1.00  0.00     0.074 A 
ATOM     56  C   UNL     1      -0.276  14.709   2.535  1.00  0.00     0.029 A 
ATOM     57  N   UNL     1      -1.749  15.823   1.354  1.00  0.00    -0.354 N 
ATOM     58  N   UNL     1      -5.697  14.213   0.507  1.00  0.00    -0.248 NA
ATOM     59  C   UNL     1      -4.859  15.072  -1.494  1.00  0.00     0.031 C 
ATOM     60  C   UNL     1      -1.572  14.542   3.105  1.00  0.00     0.029 A 
ATOM     61  C   UNL     1      -2.499  15.038   2.189  1.00  0.00     0.049 A 
ATOM     62  H   UNL     1      -2.051  16.636   0.888  1.00  0.00     0.167 HD
ATOM     63  C   UNL     1      -4.554  14.938   0.800  1.00  0.00     0.074 A 
ATOM     64  C   UNL     1      -4.136  15.526  -0.468  1.00  0.00     0.031 C 
ATOM     65  C   UNL     1      -3.901  14.766   1.985  1.00  0.00     0.037 A 
BRANCH  52  66
ATOM     66  C   UNL     1       0.446  16.331  -0.871  1.00  0.00     0.064 A 
ATOM     67  C   UNL     1       0.584  17.599  -0.274  1.00  0.00     0.173 A 
ATOM     68  C   UNL     1       0.320  16.334  -2.279  1.00  0.00     0.173 A 
ATOM     69  F   UNL     1       0.694  17.719   1.058  1.00  0.00    -0.203 F 
ATOM     70  C   UNL     1       0.511  18.778  -1.020  1.00  0.00     0.198 A 
ATOM     71  C   UNL     1       0.305  17.510  -3.025  1.00  0.00     0.198 A 
ATOM     72  F   UNL     1       0.091  15.220  -2.982  1.00  0.00    -0.203 F 
ATOM     73  F   UNL     1       0.509  19.961  -0.391  1.00  0.00    -0.200 F 
ATOM     74  C   UNL     1       0.364  18.732  -2.393  1.00  0.00     0.200 A 
ATOM     75  F   UNL     1       0.145  17.443  -4.354  1.00  0.00    -0.200 F 
ATOM     76  F   UNL     1       0.227  19.860  -3.102  1.00  0.00    -0.200 F 
ENDBRANCH  52  66
BRANCH  53  77
ATOM     77  C   UNL     1      -7.222  13.023  -2.578  1.00  0.00     0.064 A 
ATOM     78  C   UNL     1      -8.224  14.007  -2.499  1.00  0.00     0.173 A 
ATOM     79  C   UNL     1      -7.094  12.363  -3.815  1.00  0.00     0.173 A 
ATOM     80  F   UNL     1      -8.387  14.717  -1.373  1.00  0.00    -0.203 F 
ATOM     81  C   UNL     1      -9.021  14.337  -3.602  1.00  0.00     0.198 A 
ATOM     82  C   UNL     1      -7.895  12.687  -4.912  1.00  0.00     0.198 A 
ATOM     83  F   UNL     1      -6.120  11.464  -4.017  1.00  0.00    -0.203 F 
ATOM     84  F   UNL     1      -9.914  15.332  -3.508  1.00  0.00    -0.200 F 
ATOM     85  C   UNL     1      -8.847  13.685  -4.811  1.00  0.00     0.200 A 
ATOM     86  F   UNL     1      -7.690  12.075  -6.087  1.00  0.00    -0.200 F 
ATOM     87  F   UNL     1      -9.560  14.047  -5.886  1.00  0.00    -0.200 F 
ENDBRANCH  53  77
BRANCH  65  88
ATOM     88  C   UNL     1      -4.601  13.999   3.069  1.00  0.00     0.064 A 
ATOM     89  C   UNL     1      -4.939  12.638   2.970  1.00  0.00     0.173 A 
ATOM     90  C   UNL     1      -4.782  14.623   4.310  1.00  0.00     0.173 A 
ATOM     91  F   UNL     1      -4.706  11.948   1.846  1.00  0.00    -0.203 F 
ATOM     92  C   UNL     1      -5.462  11.945   4.061  1.00  0.00     0.198 A 
ATOM     93  C   UNL     1      -5.269  13.919   5.407  1.00  0.00     0.198 A 
ATOM     94  F   UNL     1      -4.428  15.908   4.474  1.00  0.00    -0.203 F 
ATOM     95  F   UNL     1      -5.776  10.647   3.944  1.00  0.00    -0.200 F 
ATOM     96  C   UNL     1      -5.615  12.584   5.281  1.00  0.00     0.200 A 
ATOM     97  F   UNL     1      -5.368  14.527   6.597  1.00  0.00    -0.200 F 
ATOM     98  F   UNL     1      -6.064  11.903   6.345  1.00  0.00    -0.200 F 
ENDBRANCH  65  88
ENDBRANCH  39  40
ENDBRANCH  32  34
ENDBRANCH  31  32
ENDBRANCH  30  31
ENDBRANCH  29  30
ENDBRANCH  28  29
ENDBRANCH   1  28
TORSDOF 18
