REMARK SMILES Cc1ccc(NC(=O)C[C@@H](C(=O)OCCOCCOC(=O)c2ccc(-c3c4nc(c(-c5c(F)c(F)c(F)c(F)c5F)c5ccc([nH]5)c(-c5c(F)c(F)c(F)c(F)c5F)c5nc(c(-c6c(F)c(F)c(F)c(F)c6F)c6ccc3[nH]6)C=C5)C=C4)cc2)[C@@H](C)c2ccccc2)cc1Br
REMARK SMILES IDX 15 1 14 2 13 3 11 4 12 5 10 6 9 7 7 8 6 9 8 11 5 12 1 13
REMARK SMILES IDX 2 14 3 15 94 16 4 17 93 18 95 19 85 20 86 21 87 22 88 23
REMARK SMILES IDX 92 24 89 25 91 26 90 27 16 28 17 29 18 30 19 31 20 32 21 33
REMARK SMILES IDX 22 34 23 35 84 36 24 37 83 38 25 39 26 40 27 41 77 42 28 43
REMARK SMILES IDX 82 44 76 45 78 46 29 47 81 48 75 49 74 50 30 52 62 53 42 54
REMARK SMILES IDX 61 55 43 56 46 57 60 58 79 59 44 60 45 61 59 63 80 64 47 65
REMARK SMILES IDX 31 66 32 67 40 68 33 69 34 70 38 71 41 72 35 73 36 74 39 75
REMARK SMILES IDX 37 76 63 77 64 78 72 79 65 80 66 81 70 82 73 83 67 84 68 85
REMARK SMILES IDX 71 86 69 87 48 88 49 89 57 90 50 91 51 92 55 93 58 94 52 95
REMARK SMILES IDX 53 96 56 97 54 98
REMARK H PARENT 6 10 78 51 46 62
REMARK Flexibility Score: inf
ROOT
ATOM      1  C   UNL     1       1.939  -0.349   0.384  1.00  0.00     0.202 C 
ENDROOT
BRANCH   1   2
ATOM      2  C   UNL     1       1.699   0.130  -1.735  1.00  0.00     0.261 C 
BRANCH   2   3
ATOM      3  O   UNL     1       1.795   1.661  -2.377  1.00  0.00    -0.463 OA
BRANCH   3   4
ATOM      4  C   UNL     1       0.850   2.365  -3.018  1.00  0.00     0.310 C 
ATOM      5  O   UNL     1       0.600   2.135  -4.196  1.00  0.00    -0.252 OA
BRANCH   4   6
ATOM      6  C   UNL     1       0.243   3.575  -2.237  1.00  0.00     0.116 C 
BRANCH   6   7
ATOM      7  C   UNL     1       0.908   4.128  -0.941  1.00  0.00     0.116 C 
BRANCH   7   8
ATOM      8  C   UNL     1       2.385   4.005  -0.655  1.00  0.00     0.225 C 
ATOM      9  N   UNL     1       2.959   2.824  -0.316  1.00  0.00    -0.326 N 
ATOM     10  H   UNL     1       3.890   2.884  -0.001  1.00  0.00     0.169 HD
ATOM     11  O   UNL     1       3.104   5.008  -0.672  1.00  0.00    -0.275 OA
BRANCH   9  12
ATOM     12  C   UNL     1       2.421   1.536  -0.349  1.00  0.00     0.042 A 
ATOM     13  C   UNL     1       0.893  -3.280  -0.882  1.00  0.00     0.045 C 
ATOM     14  C   UNL     1       1.292  -1.836  -0.999  1.00  0.00    -0.037 A 
ATOM     15  C   UNL     1       3.041  -1.433  -1.117  1.00  0.00     0.007 A 
ATOM     16  C   UNL     1       0.088  -0.573  -0.582  1.00  0.00     0.022 A 
ATOM     17  C   UNL     1       3.599   0.242  -0.800  1.00  0.00     0.026 A 
ATOM     18  C   UNL     1       0.654   1.124  -0.278  1.00  0.00     0.042 A 
ATOM     19  Br  UNL     1      -1.711  -1.081  -0.225  1.00  0.00    -0.050 Br
ENDBRANCH   9  12
ENDBRANCH   7   8
ENDBRANCH   6   7
BRANCH   6  20
ATOM     20  C   UNL     1      -1.313   3.436  -1.971  1.00  0.00     0.031 C 
ATOM     21  C   UNL     1      -1.970   4.783  -1.610  1.00  0.00     0.013 C 
BRANCH  20  22
ATOM     22  C   UNL     1      -2.067   2.679  -3.048  1.00  0.00    -0.044 A 
ATOM     23  C   UNL     1      -2.724   3.279  -4.121  1.00  0.00     0.004 A 
ATOM     24  C   UNL     1      -2.032   1.278  -3.003  1.00  0.00     0.004 A 
ATOM     25  C   UNL     1      -3.282   2.488  -5.132  1.00  0.00     0.000 A 
ATOM     26  C   UNL     1      -2.563   0.485  -4.012  1.00  0.00     0.000 A 
ATOM     27  C   UNL     1      -3.185   1.096  -5.088  1.00  0.00     0.000 A 
ENDBRANCH  20  22
ENDBRANCH   6  20
ENDBRANCH   4   6
ENDBRANCH   3   4
ENDBRANCH   2   3
ENDBRANCH   1   2
BRANCH   1  28
ATOM     28  O   UNL     1       0.905  -0.540   1.541  1.00  0.00    -0.374 OA
BRANCH  28  29
ATOM     29  C   UNL     1       0.396   0.492   2.388  1.00  0.00     0.202 C 
BRANCH  29  30
ATOM     30  C   UNL     1       1.299   1.393   3.240  1.00  0.00     0.261 C 
BRANCH  30  31
ATOM     31  O   UNL     1       2.669   1.460   2.873  1.00  0.00    -0.460 OA
BRANCH  31  32
ATOM     32  C   UNL     1       3.405   0.388   3.251  1.00  0.00     0.338 C 
ATOM     33  O   UNL     1       3.033  -0.586   3.879  1.00  0.00    -0.246 OA
BRANCH  32  34
ATOM     34  C   UNL     1       4.738   0.521   2.627  1.00  0.00     0.060 A 
ATOM     35  C   UNL     1       5.312  -0.602   2.018  1.00  0.00     0.016 A 
ATOM     36  C   UNL     1       5.411   1.746   2.643  1.00  0.00     0.016 A 
ATOM     37  C   UNL     1       6.595  -0.517   1.476  1.00  0.00     0.010 A 
ATOM     38  C   UNL     1       6.699   1.826   2.119  1.00  0.00     0.010 A 
ATOM     39  C   UNL     1       7.313   0.682   1.580  1.00  0.00    -0.014 A 
BRANCH  39  40
ATOM     40  C   UNL     1       8.782   0.680   1.400  1.00  0.00     0.031 A 
ATOM     41  C   UNL     1       9.630   0.463   2.623  1.00  0.00     0.074 A 
ATOM     42  C   UNL     1       9.355   0.886   0.203  1.00  0.00     0.049 A 
ATOM     43  N   UNL     1      10.931   0.476   2.751  1.00  0.00    -0.248 NA
ATOM     44  C   UNL     1       8.904   0.204   3.878  1.00  0.00     0.031 C 
ATOM     45  C   UNL     1       8.643   1.077  -1.057  1.00  0.00     0.029 A 
ATOM     46  N   UNL     1      10.681   0.984  -0.137  1.00  0.00    -0.354 N 
ATOM     47  C   UNL     1      11.177   0.231   4.096  1.00  0.00     0.074 A 
ATOM     48  C   UNL     1       9.893   0.111   4.750  1.00  0.00     0.031 C 
ATOM     49  C   UNL     1       9.543   1.283  -2.035  1.00  0.00     0.029 A 
ATOM     50  C   UNL     1      10.890   1.271  -1.463  1.00  0.00     0.049 A 
ATOM     51  H   UNL     1      11.414   0.860   0.509  1.00  0.00     0.167 HD
ATOM     52  C   UNL     1      12.367   0.110   4.729  1.00  0.00     0.037 A 
ATOM     53  C   UNL     1      12.038   1.516  -2.125  1.00  0.00     0.037 A 
ATOM     54  C   UNL     1      13.641   0.258   4.080  1.00  0.00     0.049 A 
ATOM     55  C   UNL     1      13.350   1.468  -1.378  1.00  0.00     0.074 A 
ATOM     56  C   UNL     1      14.906   0.138   4.628  1.00  0.00     0.029 A 
ATOM     57  N   UNL     1      13.812   0.582   2.742  1.00  0.00    -0.354 N 
ATOM     58  N   UNL     1      13.581   1.185  -0.118  1.00  0.00    -0.248 NA
ATOM     59  C   UNL     1      14.564   1.770  -2.151  1.00  0.00     0.031 C 
ATOM     60  C   UNL     1      15.840   0.466   3.640  1.00  0.00     0.029 A 
ATOM     61  C   UNL     1      15.162   0.706   2.455  1.00  0.00     0.049 A 
ATOM     62  H   UNL     1      13.083   0.707   2.093  1.00  0.00     0.167 HD
ATOM     63  C   UNL     1      14.962   1.236   0.041  1.00  0.00     0.074 A 
ATOM     64  C   UNL     1      15.517   1.566  -1.254  1.00  0.00     0.031 C 
ATOM     65  C   UNL     1      15.704   1.025   1.158  1.00  0.00     0.037 A 
BRANCH  52  66
ATOM     66  C   UNL     1      12.337  -0.150   6.208  1.00  0.00     0.064 A 
ATOM     67  C   UNL     1      11.869  -1.362   6.739  1.00  0.00     0.173 A 
ATOM     68  C   UNL     1      12.792   0.827   7.107  1.00  0.00     0.173 A 
ATOM     69  F   UNL     1      11.407  -2.323   5.926  1.00  0.00    -0.203 F 
ATOM     70  C   UNL     1      11.822  -1.570   8.116  1.00  0.00     0.198 A 
ATOM     71  C   UNL     1      12.779   0.600   8.480  1.00  0.00     0.198 A 
ATOM     72  F   UNL     1      13.251   2.003   6.654  1.00  0.00    -0.203 F 
ATOM     73  F   UNL     1      11.309  -2.709   8.601  1.00  0.00    -0.200 F 
ATOM     74  C   UNL     1      12.284  -0.593   8.984  1.00  0.00     0.200 A 
ATOM     75  F   UNL     1      13.241   1.540   9.316  1.00  0.00    -0.200 F 
ATOM     76  F   UNL     1      12.242  -0.796  10.308  1.00  0.00    -0.200 F 
ENDBRANCH  52  66
BRANCH  53  77
ATOM     77  C   UNL     1      12.009   1.834  -3.579  1.00  0.00     0.064 A 
ATOM     78  C   UNL     1      12.579   0.964  -4.520  1.00  0.00     0.173 A 
ATOM     79  C   UNL     1      11.445   3.026  -4.056  1.00  0.00     0.173 A 
ATOM     80  F   UNL     1      13.157  -0.176  -4.113  1.00  0.00    -0.203 F 
ATOM     81  C   UNL     1      12.607   1.285  -5.875  1.00  0.00     0.198 A 
ATOM     82  C   UNL     1      11.443   3.331  -5.415  1.00  0.00     0.198 A 
ATOM     83  F   UNL     1      10.891   3.897  -3.199  1.00  0.00    -0.203 F 
ATOM     84  F   UNL     1      13.211   0.462  -6.744  1.00  0.00    -0.200 F 
ATOM     85  C   UNL     1      12.034   2.465  -6.323  1.00  0.00     0.200 A 
ATOM     86  F   UNL     1      10.878   4.467  -5.845  1.00  0.00    -0.200 F 
ATOM     87  F   UNL     1      12.060   2.773  -7.627  1.00  0.00    -0.200 F 
ENDBRANCH  53  77
BRANCH  65  88
ATOM     88  C   UNL     1      17.202   1.088   1.026  1.00  0.00     0.064 A 
ATOM     89  C   UNL     1      17.879   2.291   0.779  1.00  0.00     0.173 A 
ATOM     90  C   UNL     1      17.975  -0.071   1.206  1.00  0.00     0.173 A 
ATOM     91  F   UNL     1      17.191   3.427   0.591  1.00  0.00    -0.203 F 
ATOM     92  C   UNL     1      19.269   2.326   0.683  1.00  0.00     0.198 A 
ATOM     93  C   UNL     1      19.365  -0.026   1.149  1.00  0.00     0.198 A 
ATOM     94  F   UNL     1      17.383  -1.248   1.457  1.00  0.00    -0.203 F 
ATOM     95  F   UNL     1      19.889   3.477   0.391  1.00  0.00    -0.200 F 
ATOM     96  C   UNL     1      20.011   1.170   0.878  1.00  0.00     0.200 A 
ATOM     97  F   UNL     1      20.080  -1.140   1.361  1.00  0.00    -0.200 F 
ATOM     98  F   UNL     1      21.348   1.209   0.799  1.00  0.00    -0.200 F 
ENDBRANCH  65  88
ENDBRANCH  39  40
ENDBRANCH  32  34
ENDBRANCH  31  32
ENDBRANCH  30  31
ENDBRANCH  29  30
ENDBRANCH  28  29
ENDBRANCH   1  28
TORSDOF 19
