REMARK SMILES CCN1CC(=O)N(C[C@@H]([NH3+])C(=O)OCCOCCOC(=O)c2ccc(-c3c4nc(c(-c5c(F)c(F)c(F)c(F)c5F)c5ccc([nH]5)c(-c5c(F)c(F)c(F)c(F)c5F)c5nc(c(-c6c(F)c(F)c(F)c(F)c6F)c6ccc3[nH]6)C=C5)C=C4)cc2)CC1=O
REMARK SMILES IDX 15 1 14 2 13 3 11 4 12 5 9 6 8 7 7 8 3 9 4 10 86 11 5 12
REMARK SMILES IDX 85 13 87 14 6 15 2 16 1 17 10 18 16 22 17 23 18 24 19 25
REMARK SMILES IDX 20 26 21 27 22 28 23 29 84 30 24 31 83 32 25 33 26 34 27 35
REMARK SMILES IDX 77 36 28 37 82 38 76 39 78 40 29 41 81 42 75 43 74 44 30 46
REMARK SMILES IDX 62 47 42 48 61 49 43 50 46 51 60 52 79 53 44 54 45 55 59 57
REMARK SMILES IDX 80 58 47 59 31 60 32 61 40 62 33 63 34 64 38 65 41 66 35 67
REMARK SMILES IDX 36 68 39 69 37 70 63 71 64 72 72 73 65 74 66 75 70 76 73 77
REMARK SMILES IDX 67 78 68 79 71 80 69 81 48 82 49 83 57 84 50 85 51 86 55 87
REMARK SMILES IDX 58 88 52 89 53 90 56 91 54 92
REMARK H PARENT 10 19 10 20 10 21 78 45 46 56
REMARK Flexibility Score: inf
ROOT
ATOM      1  C   UNL     1       6.496   7.734  -5.684  1.00  0.00     0.202 C 
ENDROOT
BRANCH   1   2
ATOM      2  C   UNL     1       5.009   8.092  -5.723  1.00  0.00     0.261 C 
BRANCH   2   3
ATOM      3  O   UNL     1       4.205   7.122  -5.031  1.00  0.00    -0.459 OA
BRANCH   3   4
ATOM      4  C   UNL     1       3.280   6.487  -5.794  1.00  0.00     0.366 C 
ATOM      5  O   UNL     1       3.039   6.749  -6.971  1.00  0.00    -0.245 OA
BRANCH   4   6
ATOM      6  C   UNL     1       2.491   5.397  -5.047  1.00  0.00     0.311 C 
BRANCH   6   7
ATOM      7  C   UNL     1       2.960   5.139  -3.598  1.00  0.00     0.197 C 
BRANCH   7   8
ATOM      8  N   UNL     1       2.252   4.039  -2.923  1.00  0.00    -0.325 N 
ATOM      9  N   UNL     1       1.142   2.216  -1.116  1.00  0.00    -0.332 N 
ATOM     10  C   UNL     1       1.835   1.688  -2.299  1.00  0.00     0.219 C 
ATOM     11  C   UNL     1       0.562   3.487  -1.188  1.00  0.00     0.242 C 
ATOM     12  C   UNL     1       2.717   2.734  -3.008  1.00  0.00     0.242 C 
ATOM     13  C   UNL     1       0.891   4.270  -2.455  1.00  0.00     0.220 C 
ATOM     14  O   UNL     1      -0.286   3.884  -0.390  1.00  0.00    -0.273 OA
ATOM     15  O   UNL     1       3.681   2.418  -3.703  1.00  0.00    -0.273 OA
BRANCH   9  16
ATOM     16  C   UNL     1       0.623   1.331  -0.074  1.00  0.00     0.116 C 
ATOM     17  C   UNL     1       1.240  -0.050   0.037  1.00  0.00     0.027 C 
ENDBRANCH   9  16
ENDBRANCH   7   8
ENDBRANCH   6   7
BRANCH   6  18
ATOM     18  N   UNL     1       1.047   5.755  -5.129  1.00  0.00    -0.344 N 
ATOM     19  H   UNL     1       0.892   6.652  -4.669  1.00  0.00     0.345 HD
ATOM     20  H   UNL     1       0.491   5.035  -4.667  1.00  0.00     0.345 HD
ATOM     21  H   UNL     1       0.768   5.823  -6.108  1.00  0.00     0.345 HD
ENDBRANCH   6  18
ENDBRANCH   4   6
ENDBRANCH   3   4
ENDBRANCH   2   3
ENDBRANCH   1   2
BRANCH   1  22
ATOM     22  O   UNL     1       6.858   6.472  -6.238  1.00  0.00    -0.374 OA
BRANCH  22  23
ATOM     23  C   UNL     1       6.584   5.301  -5.466  1.00  0.00     0.202 C 
BRANCH  23  24
ATOM     24  C   UNL     1       7.460   5.072  -4.227  1.00  0.00     0.261 C 
BRANCH  24  25
ATOM     25  O   UNL     1       7.257   6.079  -3.216  1.00  0.00    -0.460 OA
BRANCH  25  26
ATOM     26  C   UNL     1       8.361   6.798  -2.906  1.00  0.00     0.338 C 
ATOM     27  O   UNL     1       9.501   6.625  -3.320  1.00  0.00    -0.246 OA
BRANCH  26  28
ATOM     28  C   UNL     1       8.005   7.982  -2.104  1.00  0.00     0.060 A 
ATOM     29  C   UNL     1       8.405   9.232  -2.593  1.00  0.00     0.016 A 
ATOM     30  C   UNL     1       7.397   7.873  -0.851  1.00  0.00     0.016 A 
ATOM     31  C   UNL     1       8.256  10.370  -1.805  1.00  0.00     0.010 A 
ATOM     32  C   UNL     1       7.253   9.019  -0.057  1.00  0.00     0.010 A 
ATOM     33  C   UNL     1       7.721  10.265  -0.514  1.00  0.00    -0.014 A 
BRANCH  33  34
ATOM     34  C   UNL     1       7.809  11.436   0.395  1.00  0.00     0.031 A 
ATOM     35  C   UNL     1       8.944  11.517   1.379  1.00  0.00     0.074 A 
ATOM     36  C   UNL     1       6.935  12.453   0.293  1.00  0.00     0.049 A 
ATOM     37  N   UNL     1       9.251  12.473   2.219  1.00  0.00    -0.248 NA
ATOM     38  C   UNL     1       9.858  10.365   1.419  1.00  0.00     0.031 C 
ATOM     39  C   UNL     1       5.814  12.511  -0.641  1.00  0.00     0.029 A 
ATOM     40  N   UNL     1       6.864  13.638   0.982  1.00  0.00    -0.354 N 
ATOM     41  C   UNL     1      10.395  12.043   2.880  1.00  0.00     0.074 A 
ATOM     42  C   UNL     1      10.705  10.724   2.373  1.00  0.00     0.031 C 
ATOM     43  C   UNL     1       5.167  13.677  -0.471  1.00  0.00     0.029 A 
ATOM     44  C   UNL     1       5.817  14.437   0.595  1.00  0.00     0.049 A 
ATOM     45  H   UNL     1       7.504  13.892   1.686  1.00  0.00     0.167 HD
ATOM     46  C   UNL     1      11.130  12.694   3.813  1.00  0.00     0.037 A 
ATOM     47  C   UNL     1       5.428  15.642   1.054  1.00  0.00     0.037 A 
ATOM     48  C   UNL     1      10.823  14.005   4.324  1.00  0.00     0.049 A 
ATOM     49  C   UNL     1       6.226  16.318   2.138  1.00  0.00     0.074 A 
ATOM     50  C   UNL     1      11.513  14.751   5.264  1.00  0.00     0.029 A 
ATOM     51  N   UNL     1       9.726  14.763   3.941  1.00  0.00    -0.354 N 
ATOM     52  N   UNL     1       7.323  15.917   2.733  1.00  0.00    -0.248 NA
ATOM     53  C   UNL     1       5.734  17.621   2.606  1.00  0.00     0.031 C 
ATOM     54  C   UNL     1      10.810  15.942   5.481  1.00  0.00     0.029 A 
ATOM     55  C   UNL     1       9.708  15.958   4.642  1.00  0.00     0.049 A 
ATOM     56  H   UNL     1       9.059  14.491   3.270  1.00  0.00     0.167 HD
ATOM     57  C   UNL     1       7.665  16.925   3.625  1.00  0.00     0.074 A 
ATOM     58  C   UNL     1       6.668  17.966   3.480  1.00  0.00     0.031 C 
ATOM     59  C   UNL     1       8.710  16.985   4.488  1.00  0.00     0.037 A 
BRANCH  46  60
ATOM     60  C   UNL     1      12.334  11.984   4.358  1.00  0.00     0.064 A 
ATOM     61  C   UNL     1      13.493  11.806   3.588  1.00  0.00     0.173 A 
ATOM     62  C   UNL     1      12.337  11.494   5.673  1.00  0.00     0.173 A 
ATOM     63  F   UNL     1      13.535  12.244   2.321  1.00  0.00    -0.203 F 
ATOM     64  C   UNL     1      14.602  11.142   4.106  1.00  0.00     0.198 A 
ATOM     65  C   UNL     1      13.457  10.853   6.196  1.00  0.00     0.198 A 
ATOM     66  F   UNL     1      11.255  11.641   6.452  1.00  0.00    -0.203 F 
ATOM     67  F   UNL     1      15.682  10.943   3.337  1.00  0.00    -0.200 F 
ATOM     68  C   UNL     1      14.585  10.671   5.410  1.00  0.00     0.200 A 
ATOM     69  F   UNL     1      13.443  10.407   7.460  1.00  0.00    -0.200 F 
ATOM     70  F   UNL     1      15.654  10.033   5.908  1.00  0.00    -0.200 F 
ENDBRANCH  46  60
BRANCH  47  71
ATOM     71  C   UNL     1       4.223  16.297   0.484  1.00  0.00     0.064 A 
ATOM     72  C   UNL     1       4.331  17.452  -0.304  1.00  0.00     0.173 A 
ATOM     73  C   UNL     1       2.938  15.795   0.735  1.00  0.00     0.173 A 
ATOM     74  F   UNL     1       5.537  17.985  -0.547  1.00  0.00    -0.203 F 
ATOM     75  C   UNL     1       3.198  18.089  -0.805  1.00  0.00     0.198 A 
ATOM     76  C   UNL     1       1.807  16.418   0.210  1.00  0.00     0.198 A 
ATOM     77  F   UNL     1       2.781  14.695   1.486  1.00  0.00    -0.203 F 
ATOM     78  F   UNL     1       3.326  19.216  -1.518  1.00  0.00    -0.200 F 
ATOM     79  C   UNL     1       1.938  17.568  -0.553  1.00  0.00     0.200 A 
ATOM     80  F   UNL     1       0.592  15.907   0.450  1.00  0.00    -0.200 F 
ATOM     81  F   UNL     1       0.848  18.180  -1.036  1.00  0.00    -0.200 F 
ENDBRANCH  47  71
BRANCH  59  82
ATOM     82  C   UNL     1       8.841  18.227   5.321  1.00  0.00     0.064 A 
ATOM     83  C   UNL     1       7.958  18.503   6.376  1.00  0.00     0.173 A 
ATOM     84  C   UNL     1       9.873  19.145   5.073  1.00  0.00     0.173 A 
ATOM     85  F   UNL     1       6.945  17.664   6.645  1.00  0.00    -0.203 F 
ATOM     86  C   UNL     1       8.084  19.667   7.130  1.00  0.00     0.198 A 
ATOM     87  C   UNL     1      10.013  20.294   5.848  1.00  0.00     0.198 A 
ATOM     88  F   UNL     1      10.749  18.926   4.081  1.00  0.00    -0.203 F 
ATOM     89  F   UNL     1       7.196  19.936   8.097  1.00  0.00    -0.200 F 
ATOM     90  C   UNL     1       9.114  20.558   6.869  1.00  0.00     0.200 A 
ATOM     91  F   UNL     1      11.016  21.148   5.601  1.00  0.00    -0.200 F 
ATOM     92  F   UNL     1       9.232  21.678   7.595  1.00  0.00    -0.200 F 
ENDBRANCH  59  82
ENDBRANCH  33  34
ENDBRANCH  26  28
ENDBRANCH  25  26
ENDBRANCH  24  25
ENDBRANCH  23  24
ENDBRANCH  22  23
ENDBRANCH   1  22
TORSDOF 18
