REMARK SMILES Cn1ccnc(N[C@H]2C=C[C@H](C(=O)OCCOCCOC(=O)c3ccc(-c4c5nc(c(-c6c(F)c(F)c(F)c(F)c6F)c6ccc([nH]6)c(-c6c(F)c(F)c(F)c(F)c6F)c6nc(c(-c7c(F)c(F)c(F)c(F)c7F)c7ccc4[nH]7)C=C6)C=C5)cc3)C2)c1=O
REMARK SMILES IDX 17 1 16 2 15 3 14 4 12 5 13 6 11 7 8 8 9 9 86 10 10 11 7 12
REMARK SMILES IDX 6 14 1 15 2 16 3 17 87 18 4 19 88 20 5 21 18 22 19 23 20 24
REMARK SMILES IDX 21 25 22 26 23 27 24 28 85 29 25 30 84 31 26 32 27 33 28 34
REMARK SMILES IDX 78 35 29 36 83 37 77 38 79 39 30 40 82 41 76 42 75 43 31 45
REMARK SMILES IDX 63 46 43 47 62 48 44 49 47 50 61 51 80 52 45 53 46 54 60 56
REMARK SMILES IDX 81 57 48 58 32 59 33 60 41 61 34 62 35 63 39 64 42 65 36 66
REMARK SMILES IDX 37 67 40 68 38 69 64 70 65 71 73 72 66 73 67 74 71 75 74 76
REMARK SMILES IDX 68 77 69 78 72 79 70 80 49 81 50 82 58 83 51 84 52 85 56 86
REMARK SMILES IDX 59 87 53 88 54 89 57 90 55 91
REMARK H PARENT 7 13 79 44 47 55
REMARK Flexibility Score: inf
ROOT
ATOM      1  O   UNL     1      -4.143  -5.849  -3.764  1.00  0.00    -0.374 OA
ENDROOT
BRANCH   1   2
ATOM      2  C   UNL     1      -5.156  -6.312  -2.870  1.00  0.00     0.202 C 
BRANCH   2   3
ATOM      3  C   UNL     1      -4.724  -6.535  -1.419  1.00  0.00     0.261 C 
BRANCH   3   4
ATOM      4  O   UNL     1      -4.319  -5.292  -0.831  1.00  0.00    -0.463 OA
BRANCH   4   5
ATOM      5  C   UNL     1      -3.023  -5.234  -0.415  1.00  0.00     0.312 C 
ATOM      6  O   UNL     1      -2.273  -6.193  -0.291  1.00  0.00    -0.252 OA
BRANCH   5   7
ATOM      7  C   UNL     1      -2.614  -3.786  -0.203  1.00  0.00     0.124 C 
ATOM      8  C   UNL     1      -0.247  -3.495   0.271  1.00  0.00     0.105 C 
ATOM      9  C   UNL     1      -1.068  -3.344   1.505  1.00  0.00    -0.006 C 
ATOM     10  C   UNL     1      -1.253  -3.529  -0.878  1.00  0.00     0.048 C 
ATOM     11  C   UNL     1      -2.369  -3.520   1.250  1.00  0.00    -0.014 C 
BRANCH   8  12
ATOM     12  N   UNL     1       0.745  -2.466   0.159  1.00  0.00    -0.359 N 
ATOM     13  H   UNL     1       1.664  -2.813   0.108  1.00  0.00     0.162 HD
BRANCH  12  14
ATOM     14  C   UNL     1       0.674  -1.093   0.107  1.00  0.00     0.193 A 
ATOM     15  C   UNL     1      -1.648   1.967   0.017  1.00  0.00     0.153 C 
ATOM     16  N   UNL     1      -0.474   1.121   0.048  1.00  0.00    -0.314 N 
ATOM     17  C   UNL     1       0.788   1.660   0.033  1.00  0.00     0.109 A 
ATOM     18  C   UNL     1      -0.654  -0.262   0.068  1.00  0.00     0.293 A 
ATOM     19  C   UNL     1       1.867   0.873   0.048  1.00  0.00     0.131 A 
ATOM     20  O   UNL     1      -1.757  -0.789   0.032  1.00  0.00    -0.265 OA
ATOM     21  N   UNL     1       1.844  -0.493   0.087  1.00  0.00    -0.233 NA
ENDBRANCH  12  14
ENDBRANCH   8  12
ENDBRANCH   5   7
ENDBRANCH   4   5
ENDBRANCH   3   4
ENDBRANCH   2   3
ENDBRANCH   1   2
BRANCH   1  22
ATOM     22  C   UNL     1      -3.810  -4.460  -3.733  1.00  0.00     0.202 C 
BRANCH  22  23
ATOM     23  C   UNL     1      -4.804  -3.494  -4.388  1.00  0.00     0.261 C 
BRANCH  23  24
ATOM     24  O   UNL     1      -6.032  -3.393  -3.643  1.00  0.00    -0.460 OA
BRANCH  24  25
ATOM     25  C   UNL     1      -7.115  -3.917  -4.266  1.00  0.00     0.338 C 
ATOM     26  O   UNL     1      -7.172  -4.388  -5.388  1.00  0.00    -0.246 OA
BRANCH  25  27
ATOM     27  C   UNL     1      -8.240  -4.018  -3.318  1.00  0.00     0.060 A 
ATOM     28  C   UNL     1      -8.836  -5.276  -3.158  1.00  0.00     0.016 A 
ATOM     29  C   UNL     1      -8.770  -2.893  -2.684  1.00  0.00     0.016 A 
ATOM     30  C   UNL     1     -10.006  -5.404  -2.415  1.00  0.00     0.010 A 
ATOM     31  C   UNL     1      -9.951  -3.021  -1.946  1.00  0.00     0.010 A 
ATOM     32  C   UNL     1     -10.597  -4.267  -1.849  1.00  0.00    -0.014 A 
BRANCH  32  33
ATOM     33  C   UNL     1     -11.982  -4.358  -1.329  1.00  0.00     0.031 A 
ATOM     34  C   UNL     1     -13.114  -3.902  -2.209  1.00  0.00     0.074 A 
ATOM     35  C   UNL     1     -12.235  -4.878  -0.116  1.00  0.00     0.049 A 
ATOM     36  N   UNL     1     -14.399  -3.863  -1.962  1.00  0.00    -0.248 NA
ATOM     37  C   UNL     1     -12.745  -3.424  -3.552  1.00  0.00     0.031 C 
ATOM     38  C   UNL     1     -11.227  -5.395   0.807  1.00  0.00     0.029 A 
ATOM     39  N   UNL     1     -13.423  -5.053   0.547  1.00  0.00    -0.354 N 
ATOM     40  C   UNL     1     -14.987  -3.350  -3.111  1.00  0.00     0.074 A 
ATOM     41  C   UNL     1     -13.920  -3.062  -4.044  1.00  0.00     0.031 C 
ATOM     42  C   UNL     1     -11.840  -5.822   1.925  1.00  0.00     0.029 A 
ATOM     43  C   UNL     1     -13.277  -5.579   1.806  1.00  0.00     0.049 A 
ATOM     44  H   UNL     1     -14.297  -4.822   0.158  1.00  0.00     0.167 HD
ATOM     45  C   UNL     1     -16.301  -3.146  -3.368  1.00  0.00     0.037 A 
ATOM     46  C   UNL     1     -14.199  -5.818   2.759  1.00  0.00     0.037 A 
ATOM     47  C   UNL     1     -17.361  -3.440  -2.439  1.00  0.00     0.049 A 
ATOM     48  C   UNL     1     -15.649  -5.522   2.472  1.00  0.00     0.074 A 
ATOM     49  C   UNL     1     -18.725  -3.283  -2.608  1.00  0.00     0.029 A 
ATOM     50  N   UNL     1     -17.171  -3.947  -1.163  1.00  0.00    -0.354 N 
ATOM     51  N   UNL     1     -16.201  -5.056   1.378  1.00  0.00    -0.248 NA
ATOM     52  C   UNL     1     -16.606  -5.793   3.555  1.00  0.00     0.031 C 
ATOM     53  C   UNL     1     -19.358  -3.649  -1.416  1.00  0.00     0.029 A 
ATOM     54  C   UNL     1     -18.392  -4.088  -0.524  1.00  0.00     0.049 A 
ATOM     55  H   UNL     1     -16.298  -4.174  -0.768  1.00  0.00     0.167 HD
ATOM     56  C   UNL     1     -17.567  -5.010   1.627  1.00  0.00     0.074 A 
ATOM     57  C   UNL     1     -17.762  -5.505   2.973  1.00  0.00     0.031 C 
ATOM     58  C   UNL     1     -18.570  -4.597   0.812  1.00  0.00     0.037 A 
BRANCH  45  59
ATOM     59  C   UNL     1     -16.663  -2.553  -4.698  1.00  0.00     0.064 A 
ATOM     60  C   UNL     1     -16.544  -3.284  -5.890  1.00  0.00     0.173 A 
ATOM     61  C   UNL     1     -17.163  -1.245  -4.778  1.00  0.00     0.173 A 
ATOM     62  F   UNL     1     -16.057  -4.533  -5.870  1.00  0.00    -0.203 F 
ATOM     63  C   UNL     1     -16.887  -2.716  -7.115  1.00  0.00     0.198 A 
ATOM     64  C   UNL     1     -17.533  -0.691  -6.001  1.00  0.00     0.198 A 
ATOM     65  F   UNL     1     -17.300  -0.504  -3.668  1.00  0.00    -0.203 F 
ATOM     66  F   UNL     1     -16.719  -3.416  -8.246  1.00  0.00    -0.200 F 
ATOM     67  C   UNL     1     -17.387  -1.424  -7.169  1.00  0.00     0.200 A 
ATOM     68  F   UNL     1     -18.028   0.553  -6.049  1.00  0.00    -0.200 F 
ATOM     69  F   UNL     1     -17.723  -0.882  -8.347  1.00  0.00    -0.200 F 
ENDBRANCH  45  59
BRANCH  46  70
ATOM     70  C   UNL     1     -13.781  -6.360   4.078  1.00  0.00     0.064 A 
ATOM     71  C   UNL     1     -14.140  -7.655   4.476  1.00  0.00     0.173 A 
ATOM     72  C   UNL     1     -13.031  -5.586   4.976  1.00  0.00     0.173 A 
ATOM     73  F   UNL     1     -14.879  -8.424   3.663  1.00  0.00    -0.203 F 
ATOM     74  C   UNL     1     -13.783  -8.148   5.730  1.00  0.00     0.198 A 
ATOM     75  C   UNL     1     -12.649  -6.090   6.217  1.00  0.00     0.198 A 
ATOM     76  F   UNL     1     -12.664  -4.339   4.645  1.00  0.00    -0.203 F 
ATOM     77  F   UNL     1     -14.181  -9.371   6.104  1.00  0.00    -0.200 F 
ATOM     78  C   UNL     1     -13.033  -7.367   6.597  1.00  0.00     0.200 A 
ATOM     79  F   UNL     1     -11.915  -5.337   7.047  1.00  0.00    -0.200 F 
ATOM     80  F   UNL     1     -12.688  -7.842   7.801  1.00  0.00    -0.200 F 
ENDBRANCH  46  70
BRANCH  58  81
ATOM     81  C   UNL     1     -19.974  -4.708   1.334  1.00  0.00     0.064 A 
ATOM     82  C   UNL     1     -20.459  -3.857   2.338  1.00  0.00     0.173 A 
ATOM     83  C   UNL     1     -20.859  -5.650   0.787  1.00  0.00     0.173 A 
ATOM     84  F   UNL     1     -19.650  -2.948   2.902  1.00  0.00    -0.203 F 
ATOM     85  C   UNL     1     -21.771  -3.965   2.794  1.00  0.00     0.198 A 
ATOM     86  C   UNL     1     -22.178  -5.734   1.224  1.00  0.00     0.198 A 
ATOM     87  F   UNL     1     -20.447  -6.482  -0.182  1.00  0.00    -0.203 F 
ATOM     88  F   UNL     1     -22.199  -3.174   3.788  1.00  0.00    -0.200 F 
ATOM     89  C   UNL     1     -22.630  -4.897   2.232  1.00  0.00     0.200 A 
ATOM     90  F   UNL     1     -23.011  -6.625   0.668  1.00  0.00    -0.200 F 
ATOM     91  F   UNL     1     -23.894  -4.993   2.667  1.00  0.00    -0.200 F 
ENDBRANCH  58  81
ENDBRANCH  32  33
ENDBRANCH  25  27
ENDBRANCH  24  25
ENDBRANCH  23  24
ENDBRANCH  22  23
ENDBRANCH   1  22
TORSDOF 16
