REMARK SMILES CC1=NN(c2ccccc2)C(=O)/C1=C\c1ccc(-c2cc(C(=O)OCCOCCOC(=O)c3ccc(-c4c5nc(c(-c6c(F)c(F)c(F)c(F)c6F)c6ccc([nH]6)c(-c6c(F)c(F)c(F)c(F)c6F)c6nc(c(-c7c(F)c(F)c(F)c(F)c7F)c7ccc4[nH]7)C=C6)C=C5)cc3)ccc2Cl)o1
REMARK SMILES IDX 26 1 25 2 24 3 22 4 23 5 21 6 19 7 20 8 98 9 97 10 99 11
REMARK SMILES IDX 96 12 18 13 15 14 16 15 100 16 17 17 14 18 1 19 2 20 3 21
REMARK SMILES IDX 13 22 4 23 11 24 12 25 5 26 6 27 10 28 7 29 9 30 8 31 27 32
REMARK SMILES IDX 28 33 29 34 30 35 31 36 32 37 33 38 34 39 95 40 35 41 94 42
REMARK SMILES IDX 36 43 37 44 38 45 88 46 39 47 93 48 87 49 89 50 40 51 92 52
REMARK SMILES IDX 86 53 85 54 41 56 73 57 53 58 72 59 54 60 57 61 71 62 90 63
REMARK SMILES IDX 55 64 56 65 70 67 91 68 58 69 42 70 43 71 51 72 44 73 45 74
REMARK SMILES IDX 49 75 52 76 46 77 47 78 50 79 48 80 74 81 75 82 83 83 76 84
REMARK SMILES IDX 77 85 81 86 84 87 78 88 79 89 82 90 80 91 59 92 60 93 68 94
REMARK SMILES IDX 61 95 62 96 66 97 69 98 63 99 64 100 67 101 65 102
REMARK H PARENT 89 55 57 66
REMARK Flexibility Score: inf
ROOT
ATOM      1  C   UNL     1       4.838  -5.910  -7.424  1.00  0.00     0.202 C 
ENDROOT
BRANCH   1   2
ATOM      2  C   UNL     1       6.165  -5.518  -6.764  1.00  0.00     0.261 C 
BRANCH   2   3
ATOM      3  O   UNL     1       6.161  -5.821  -5.359  1.00  0.00    -0.460 OA
BRANCH   3   4
ATOM      4  C   UNL     1       6.163  -4.747  -4.529  1.00  0.00     0.338 C 
ATOM      5  O   UNL     1       6.318  -3.579  -4.837  1.00  0.00    -0.246 OA
BRANCH   4   6
ATOM      6  C   UNL     1       5.731  -5.188  -3.180  1.00  0.00     0.060 A 
ATOM      7  C   UNL     1       4.383  -4.750  -1.195  1.00  0.00     0.037 A 
ATOM      8  C   UNL     1       4.860  -4.357  -2.455  1.00  0.00     0.029 A 
ATOM      9  C   UNL     1       4.805  -5.987  -0.672  1.00  0.00     0.052 A 
ATOM     10  C   UNL     1       5.666  -6.816  -1.401  1.00  0.00     0.022 A 
ATOM     11  Cl  UNL     1       4.289  -6.560   0.879  1.00  0.00    -0.084 Cl
ATOM     12  C   UNL     1       6.127  -6.422  -2.656  1.00  0.00     0.017 A 
BRANCH   7  13
ATOM     13  C   UNL     1       3.546  -3.841  -0.429  1.00  0.00     0.136 A 
ATOM     14  C   UNL     1       1.694  -2.678  -0.040  1.00  0.00     0.128 A 
ATOM     15  C   UNL     1       2.564  -2.486   1.031  1.00  0.00     0.051 A 
ATOM     16  O   UNL     1       2.305  -3.547  -0.924  1.00  0.00    -0.457 OA
ATOM     17  C   UNL     1       3.748  -3.195   0.767  1.00  0.00     0.051 A 
BRANCH  14  18
ATOM     18  C   UNL     1       0.398  -2.105  -0.202  1.00  0.00     0.063 C 
ATOM     19  C   UNL     1      -2.362  -0.600   0.056  1.00  0.00     0.069 C 
ATOM     20  C   UNL     1      -0.997   0.001  -0.001  1.00  0.00     0.071 C 
ATOM     21  N   UNL     1      -0.762   1.277   0.167  1.00  0.00    -0.169 NA
ATOM     22  C   UNL     1       0.242  -0.773  -0.210  1.00  0.00     0.068 C 
ATOM     23  N   UNL     1       0.604   1.438  -0.039  1.00  0.00    -0.196 N 
ATOM     24  C   UNL     1       1.300   0.259  -0.313  1.00  0.00     0.280 C 
ATOM     25  O   UNL     1       2.477   0.079  -0.573  1.00  0.00    -0.267 OA
BRANCH  23  26
ATOM     26  C   UNL     1       1.160   2.731  -0.062  1.00  0.00     0.069 A 
ATOM     27  C   UNL     1       0.703   3.725   0.808  1.00  0.00     0.028 A 
ATOM     28  C   UNL     1       2.204   3.030  -0.949  1.00  0.00     0.028 A 
ATOM     29  C   UNL     1       1.315   4.982   0.821  1.00  0.00     0.002 A 
ATOM     30  C   UNL     1       2.780   4.300  -0.972  1.00  0.00     0.002 A 
ATOM     31  C   UNL     1       2.346   5.271  -0.074  1.00  0.00     0.000 A 
ENDBRANCH  23  26
ENDBRANCH  14  18
ENDBRANCH   7  13
ENDBRANCH   4   6
ENDBRANCH   3   4
ENDBRANCH   2   3
ENDBRANCH   1   2
BRANCH   1  32
ATOM     32  O   UNL     1       3.664  -5.202  -7.027  1.00  0.00    -0.374 OA
BRANCH  32  33
ATOM     33  C   UNL     1       3.100  -5.500  -5.752  1.00  0.00     0.202 C 
BRANCH  33  34
ATOM     34  C   UNL     1       2.283  -6.790  -5.607  1.00  0.00     0.261 C 
BRANCH  34  35
ATOM     35  O   UNL     1       3.021  -7.971  -5.960  1.00  0.00    -0.460 OA
BRANCH  35  36
ATOM     36  C   UNL     1       2.692  -8.480  -7.172  1.00  0.00     0.338 C 
ATOM     37  O   UNL     1       1.825  -8.083  -7.933  1.00  0.00    -0.246 OA
BRANCH  36  38
ATOM     38  C   UNL     1       3.648  -9.530  -7.563  1.00  0.00     0.060 A 
ATOM     39  C   UNL     1       4.268  -9.397  -8.811  1.00  0.00     0.016 A 
ATOM     40  C   UNL     1       3.852 -10.670  -6.784  1.00  0.00     0.016 A 
ATOM     41  C   UNL     1       5.037 -10.438  -9.320  1.00  0.00     0.010 A 
ATOM     42  C   UNL     1       4.627 -11.716  -7.297  1.00  0.00     0.010 A 
ATOM     43  C   UNL     1       5.182 -11.624  -8.587  1.00  0.00    -0.014 A 
BRANCH  43  44
ATOM     44  C   UNL     1       5.781 -12.810  -9.249  1.00  0.00     0.031 A 
ATOM     45  C   UNL     1       4.880 -13.915  -9.731  1.00  0.00     0.074 A 
ATOM     46  C   UNL     1       7.105 -12.873  -9.474  1.00  0.00     0.049 A 
ATOM     47  N   UNL     1       5.186 -15.030 -10.347  1.00  0.00    -0.248 NA
ATOM     48  C   UNL     1       3.441 -13.743  -9.482  1.00  0.00     0.031 C 
ATOM     49  C   UNL     1       8.075 -11.851  -9.087  1.00  0.00     0.029 A 
ATOM     50  N   UNL     1       7.860 -13.839 -10.090  1.00  0.00    -0.354 N 
ATOM     51  C   UNL     1       3.981 -15.691 -10.554  1.00  0.00     0.074 A 
ATOM     52  C   UNL     1       2.945 -14.875  -9.960  1.00  0.00     0.031 C 
ATOM     53  C   UNL     1       9.300 -12.243  -9.476  1.00  0.00     0.029 A 
ATOM     54  C   UNL     1       9.203 -13.557 -10.110  1.00  0.00     0.049 A 
ATOM     55  H   UNL     1       7.475 -14.657 -10.480  1.00  0.00     0.167 HD
ATOM     56  C   UNL     1       3.758 -16.864 -11.194  1.00  0.00     0.037 A 
ATOM     57  C   UNL     1      10.238 -14.285 -10.573  1.00  0.00     0.037 A 
ATOM     58  C   UNL     1       4.792 -17.671 -11.788  1.00  0.00     0.049 A 
ATOM     59  C   UNL     1       9.968 -15.618 -11.222  1.00  0.00     0.074 A 
ATOM     60  C   UNL     1       4.667 -18.863 -12.480  1.00  0.00     0.029 A 
ATOM     61  N   UNL     1       6.147 -17.373 -11.752  1.00  0.00    -0.354 N 
ATOM     62  N   UNL     1       8.824 -16.219 -11.444  1.00  0.00    -0.248 NA
ATOM     63  C   UNL     1      11.139 -16.371 -11.693  1.00  0.00     0.031 C 
ATOM     64  C   UNL     1       5.949 -19.319 -12.806  1.00  0.00     0.029 A 
ATOM     65  C   UNL     1       6.870 -18.376 -12.380  1.00  0.00     0.049 A 
ATOM     66  H   UNL     1       6.537 -16.568 -11.341  1.00  0.00     0.167 HD
ATOM     67  C   UNL     1       9.134 -17.402 -12.104  1.00  0.00     0.074 A 
ATOM     68  C   UNL     1      10.572 -17.421 -12.268  1.00  0.00     0.031 C 
ATOM     69  C   UNL     1       8.303 -18.385 -12.534  1.00  0.00     0.037 A 
BRANCH  56  70
ATOM     70  C   UNL     1       2.341 -17.361 -11.261  1.00  0.00     0.064 A 
ATOM     71  C   UNL     1       1.365 -16.719 -12.038  1.00  0.00     0.173 A 
ATOM     72  C   UNL     1       1.963 -18.519 -10.563  1.00  0.00     0.173 A 
ATOM     73  F   UNL     1       1.669 -15.601 -12.716  1.00  0.00    -0.203 F 
ATOM     74  C   UNL     1       0.058 -17.198 -12.089  1.00  0.00     0.198 A 
ATOM     75  C   UNL     1       0.664 -19.015 -10.643  1.00  0.00     0.198 A 
ATOM     76  F   UNL     1       2.856 -19.176  -9.809  1.00  0.00    -0.203 F 
ATOM     77  F   UNL     1      -0.870 -16.536 -12.794  1.00  0.00    -0.200 F 
ATOM     78  C   UNL     1      -0.289 -18.349 -11.398  1.00  0.00     0.200 A 
ATOM     79  F   UNL     1       0.335 -20.136  -9.988  1.00  0.00    -0.200 F 
ATOM     80  F   UNL     1      -1.545 -18.814 -11.455  1.00  0.00    -0.200 F 
ENDBRANCH  56  70
BRANCH  57  81
ATOM     81  C   UNL     1      11.628 -13.775 -10.434  1.00  0.00     0.064 A 
ATOM     82  C   UNL     1      12.391 -13.433 -11.559  1.00  0.00     0.173 A 
ATOM     83  C   UNL     1      12.231 -13.645  -9.174  1.00  0.00     0.173 A 
ATOM     84  F   UNL     1      11.869 -13.563 -12.787  1.00  0.00    -0.203 F 
ATOM     85  C   UNL     1      13.712 -13.006 -11.430  1.00  0.00     0.198 A 
ATOM     86  C   UNL     1      13.539 -13.185  -9.045  1.00  0.00     0.198 A 
ATOM     87  F   UNL     1      11.545 -13.959  -8.065  1.00  0.00    -0.203 F 
ATOM     88  F   UNL     1      14.437 -12.741 -12.526  1.00  0.00    -0.200 F 
ATOM     89  C   UNL     1      14.283 -12.877 -10.173  1.00  0.00     0.200 A 
ATOM     90  F   UNL     1      14.081 -13.048  -7.827  1.00  0.00    -0.200 F 
ATOM     91  F   UNL     1      15.551 -12.464 -10.050  1.00  0.00    -0.200 F 
ENDBRANCH  57  81
BRANCH  69  92
ATOM     92  C   UNL     1       8.930 -19.549 -13.254  1.00  0.00     0.064 A 
ATOM     93  C   UNL     1       9.757 -20.470 -12.593  1.00  0.00     0.173 A 
ATOM     94  C   UNL     1       8.687 -19.753 -14.622  1.00  0.00     0.173 A 
ATOM     95  F   UNL     1      10.032 -20.316 -11.289  1.00  0.00    -0.203 F 
ATOM     96  C   UNL     1      10.351 -21.524 -13.283  1.00  0.00     0.198 A 
ATOM     97  C   UNL     1       9.252 -20.831 -15.299  1.00  0.00     0.198 A 
ATOM     98  F   UNL     1       7.896 -18.910 -15.303  1.00  0.00    -0.203 F 
ATOM     99  F   UNL     1      11.193 -22.349 -12.644  1.00  0.00    -0.200 F 
ATOM    100  C   UNL     1      10.094 -21.707 -14.633  1.00  0.00     0.200 A 
ATOM    101  F   UNL     1       8.986 -21.016 -16.599  1.00  0.00    -0.200 F 
ATOM    102  F   UNL     1      10.666 -22.722 -15.294  1.00  0.00    -0.200 F 
ENDBRANCH  69  92
ENDBRANCH  43  44
ENDBRANCH  36  38
ENDBRANCH  35  36
ENDBRANCH  34  35
ENDBRANCH  33  34
ENDBRANCH  32  33
ENDBRANCH   1  32
TORSDOF 17
