REMARK SMILES CC1(C)[C@@]2(C(=O)OCCOCCOC(=O)c3ccc(-c4c5nc(c(-c6c(F)c(F)c(F)c(F)c6F)c6ccc([nH]6)c(-c6c(F)c(F)c(F)c(F)c6F)c6nc(c(-c7c(F)c(F)c(F)c(F)c7F)c7ccc4[nH]7)C=C6)C=C5)cc3)CC[C@]1(C)/C(=N/NC(=O)c1ccc(Cl)cc1)C2
REMARK SMILES IDX 10 1 9 2 8 3 7 4 5 5 6 6 4 7 1 8 2 9 3 10 81 11 79 12 95 13
REMARK SMILES IDX 80 14 82 15 83 16 84 17 85 18 86 19 87 21 88 22 89 23 94 24
REMARK SMILES IDX 90 25 93 26 91 27 92 28 11 29 12 30 13 31 14 32 15 33 16 34
REMARK SMILES IDX 17 35 78 36 18 37 77 38 19 39 20 40 21 41 71 42 22 43 76 44
REMARK SMILES IDX 70 45 72 46 23 47 75 48 69 49 68 50 24 52 56 53 36 54 55 55
REMARK SMILES IDX 37 56 40 57 54 58 73 59 38 60 39 61 53 63 74 64 41 65 25 66
REMARK SMILES IDX 26 67 34 68 27 69 28 70 32 71 35 72 29 73 30 74 33 75 31 76
REMARK SMILES IDX 57 77 58 78 66 79 59 80 60 81 64 82 67 83 61 84 62 85 65 86
REMARK SMILES IDX 63 87 42 88 43 89 51 90 44 91 45 92 49 93 52 94 46 95 47 96
REMARK SMILES IDX 50 97 48 98
REMARK H PARENT 85 20 72 51 40 62
REMARK Flexibility Score: inf
ROOT
ATOM      1  O   UNL     1      -1.974  -0.659   4.185  1.00  0.00    -0.374 OA
ENDROOT
BRANCH   1   2
ATOM      2  C   UNL     1      -2.879   0.199   3.485  1.00  0.00     0.202 C 
BRANCH   2   3
ATOM      3  C   UNL     1      -2.188   1.130   2.485  1.00  0.00     0.261 C 
BRANCH   3   4
ATOM      4  O   UNL     1      -1.742   0.394   1.329  1.00  0.00    -0.463 OA
BRANCH   4   5
ATOM      5  C   UNL     1      -0.397   0.208   1.209  1.00  0.00     0.313 C 
ATOM      6  O   UNL     1       0.444   0.659   1.971  1.00  0.00    -0.252 OA
BRANCH   5   7
ATOM      7  C   UNL     1      -0.090  -0.627  -0.018  1.00  0.00     0.079 C 
ATOM      8  C   UNL     1       2.432  -0.006  -0.260  1.00  0.00     0.013 C 
ATOM      9  C   UNL     1       1.370  -1.126  -0.200  1.00  0.00    -0.008 C 
ATOM     10  C   UNL     1       1.846  -2.131   0.874  1.00  0.00     0.013 C 
ATOM     11  C   UNL     1       1.039  -1.774  -1.586  1.00  0.00     0.014 C 
ATOM     12  C   UNL     1      -0.355   0.168  -1.334  1.00  0.00     0.021 C 
ATOM     13  C   UNL     1      -0.907  -1.945  -0.080  1.00  0.00     0.073 C 
ATOM     14  C   UNL     1       0.447  -0.609  -2.400  1.00  0.00     0.014 C 
ATOM     15  C   UNL     1       2.158  -2.540  -2.256  1.00  0.00     0.018 C 
ATOM     16  C   UNL     1      -0.206  -2.612  -1.230  1.00  0.00     0.046 C 
ATOM     17  N   UNL     1      -0.471  -3.704  -1.873  1.00  0.00    -0.181 NA
BRANCH  17  18
ATOM     18  N   UNL     1      -1.470  -4.572  -1.565  1.00  0.00    -0.243 N 
ATOM     19  C   UNL     1      -2.815  -4.444  -1.295  1.00  0.00     0.271 C 
ATOM     20  H   UNL     1      -1.162  -5.506  -1.525  1.00  0.00     0.194 HD
ATOM     21  O   UNL     1      -3.474  -5.436  -0.981  1.00  0.00    -0.267 OA
BRANCH  19  22
ATOM     22  C   UNL     1      -3.519  -3.157  -1.360  1.00  0.00     0.041 A 
ATOM     23  C   UNL     1      -4.276  -2.784  -0.239  1.00  0.00     0.015 A 
ATOM     24  C   UNL     1      -3.419  -2.305  -2.464  1.00  0.00     0.015 A 
ATOM     25  C   UNL     1      -4.849  -1.514  -0.183  1.00  0.00     0.021 A 
ATOM     26  C   UNL     1      -4.025  -1.044  -2.412  1.00  0.00     0.021 A 
ATOM     27  C   UNL     1      -4.715  -0.647  -1.264  1.00  0.00     0.041 A 
ATOM     28  Cl  UNL     1      -5.372   0.940  -1.155  1.00  0.00    -0.084 Cl
ENDBRANCH  19  22
ENDBRANCH  17  18
ENDBRANCH   5   7
ENDBRANCH   4   5
ENDBRANCH   3   4
ENDBRANCH   2   3
ENDBRANCH   1   2
BRANCH   1  29
ATOM     29  C   UNL     1      -1.686  -1.893   3.528  1.00  0.00     0.202 C 
BRANCH  29  30
ATOM     30  C   UNL     1      -2.561  -3.057   3.996  1.00  0.00     0.261 C 
BRANCH  30  31
ATOM     31  O   UNL     1      -3.912  -2.867   3.536  1.00  0.00    -0.460 OA
BRANCH  31  32
ATOM     32  C   UNL     1      -4.771  -2.405   4.474  1.00  0.00     0.338 C 
ATOM     33  O   UNL     1      -4.564  -2.272   5.668  1.00  0.00    -0.246 OA
BRANCH  32  34
ATOM     34  C   UNL     1      -5.992  -1.902   3.813  1.00  0.00     0.060 A 
ATOM     35  C   UNL     1      -6.530  -0.700   4.287  1.00  0.00     0.016 A 
ATOM     36  C   UNL     1      -6.616  -2.593   2.770  1.00  0.00     0.016 A 
ATOM     37  C   UNL     1      -7.724  -0.214   3.759  1.00  0.00     0.010 A 
ATOM     38  C   UNL     1      -7.802  -2.091   2.224  1.00  0.00     0.010 A 
ATOM     39  C   UNL     1      -8.387  -0.926   2.751  1.00  0.00    -0.014 A 
BRANCH  39  40
ATOM     40  C   UNL     1      -9.785  -0.562   2.411  1.00  0.00     0.031 A 
ATOM     41  C   UNL     1     -10.902  -1.395   2.978  1.00  0.00     0.074 A 
ATOM     42  C   UNL     1     -10.066   0.513   1.656  1.00  0.00     0.049 A 
ATOM     43  N   UNL     1     -12.197  -1.250   2.853  1.00  0.00    -0.248 NA
ATOM     44  C   UNL     1     -10.503  -2.556   3.790  1.00  0.00     0.031 C 
ATOM     45  C   UNL     1      -9.080   1.403   1.049  1.00  0.00     0.029 A 
ATOM     46  N   UNL     1     -11.277   1.035   1.271  1.00  0.00    -0.354 N 
ATOM     47  C   UNL     1     -12.762  -2.301   3.562  1.00  0.00     0.074 A 
ATOM     48  C   UNL     1     -11.673  -3.104   4.074  1.00  0.00     0.031 C 
ATOM     49  C   UNL     1      -9.726   2.361   0.360  1.00  0.00     0.029 A 
ATOM     50  C   UNL     1     -11.168   2.142   0.468  1.00  0.00     0.049 A 
ATOM     51  H   UNL     1     -12.141   0.651   1.546  1.00  0.00     0.167 HD
ATOM     52  C   UNL     1     -14.070  -2.567   3.787  1.00  0.00     0.037 A 
ATOM     53  C   UNL     1     -12.126   2.887  -0.118  1.00  0.00     0.037 A 
ATOM     54  C   UNL     1     -15.156  -1.764   3.296  1.00  0.00     0.049 A 
ATOM     55  C   UNL     1     -13.577   2.561   0.121  1.00  0.00     0.074 A 
ATOM     56  C   UNL     1     -16.513  -1.919   3.516  1.00  0.00     0.029 A 
ATOM     57  N   UNL     1     -15.006  -0.656   2.475  1.00  0.00    -0.354 N 
ATOM     58  N   UNL     1     -14.102   1.602   0.845  1.00  0.00    -0.248 NA
ATOM     59  C   UNL     1     -14.569   3.428  -0.531  1.00  0.00     0.031 C 
ATOM     60  C   UNL     1     -17.188  -0.933   2.788  1.00  0.00     0.029 A 
ATOM     61  C   UNL     1     -16.249  -0.136   2.153  1.00  0.00     0.049 A 
ATOM     62  H   UNL     1     -14.144  -0.294   2.167  1.00  0.00     0.167 HD
ATOM     63  C   UNL     1     -15.480   1.760   0.751  1.00  0.00     0.074 A 
ATOM     64  C   UNL     1     -15.710   2.916  -0.089  1.00  0.00     0.031 C 
ATOM     65  C   UNL     1     -16.464   1.014   1.311  1.00  0.00     0.037 A 
BRANCH  52  66
ATOM     66  C   UNL     1     -14.387  -3.794   4.588  1.00  0.00     0.064 A 
ATOM     67  C   UNL     1     -14.123  -3.865   5.965  1.00  0.00     0.173 A 
ATOM     68  C   UNL     1     -14.951  -4.918   3.968  1.00  0.00     0.173 A 
ATOM     69  F   UNL     1     -13.566  -2.822   6.600  1.00  0.00    -0.203 F 
ATOM     70  C   UNL     1     -14.375  -5.031   6.682  1.00  0.00     0.198 A 
ATOM     71  C   UNL     1     -15.229  -6.072   4.694  1.00  0.00     0.198 A 
ATOM     72  F   UNL     1     -15.224  -4.900   2.654  1.00  0.00    -0.203 F 
ATOM     73  F   UNL     1     -14.057  -5.098   7.982  1.00  0.00    -0.200 F 
ATOM     74  C   UNL     1     -14.931  -6.131   6.048  1.00  0.00     0.200 A 
ATOM     75  F   UNL     1     -15.774  -7.132   4.082  1.00  0.00    -0.200 F 
ATOM     76  F   UNL     1     -15.168  -7.255   6.738  1.00  0.00    -0.200 F 
ENDBRANCH  52  66
BRANCH  53  77
ATOM     77  C   UNL     1     -11.736   4.021  -0.994  1.00  0.00     0.064 A 
ATOM     78  C   UNL     1     -11.920   5.349  -0.589  1.00  0.00     0.173 A 
ATOM     79  C   UNL     1     -11.162   3.794  -2.254  1.00  0.00     0.173 A 
ATOM     80  F   UNL     1     -12.489   5.615   0.597  1.00  0.00    -0.203 F 
ATOM     81  C   UNL     1     -11.553   6.410  -1.415  1.00  0.00     0.198 A 
ATOM     82  C   UNL     1     -10.774   4.855  -3.069  1.00  0.00     0.198 A 
ATOM     83  F   UNL     1     -10.969   2.540  -2.688  1.00  0.00    -0.203 F 
ATOM     84  F   UNL     1     -11.770   7.671  -1.019  1.00  0.00    -0.200 F 
ATOM     85  C   UNL     1     -10.974   6.162  -2.651  1.00  0.00     0.200 A 
ATOM     86  F   UNL     1     -10.208   4.611  -4.258  1.00  0.00    -0.200 F 
ATOM     87  F   UNL     1     -10.614   7.182  -3.441  1.00  0.00    -0.200 F 
ENDBRANCH  53  77
BRANCH  65  88
ATOM     88  C   UNL     1     -17.883   1.427   1.049  1.00  0.00     0.064 A 
ATOM     89  C   UNL     1     -18.488   1.218  -0.199  1.00  0.00     0.173 A 
ATOM     90  C   UNL     1     -18.663   1.984   2.073  1.00  0.00     0.173 A 
ATOM     91  F   UNL     1     -17.780   0.701  -1.214  1.00  0.00    -0.203 F 
ATOM     92  C   UNL     1     -19.818   1.569  -0.416  1.00  0.00     0.198 A 
ATOM     93  C   UNL     1     -20.000   2.308   1.860  1.00  0.00     0.198 A 
ATOM     94  F   UNL     1     -18.134   2.196   3.287  1.00  0.00    -0.203 F 
ATOM     95  F   UNL     1     -20.366   1.395  -1.627  1.00  0.00    -0.200 F 
ATOM     96  C   UNL     1     -20.575   2.105   0.615  1.00  0.00     0.200 A 
ATOM     97  F   UNL     1     -20.734   2.814   2.861  1.00  0.00    -0.200 F 
ATOM     98  F   UNL     1     -21.858   2.432   0.406  1.00  0.00    -0.200 F 
ENDBRANCH  65  88
ENDBRANCH  39  40
ENDBRANCH  32  34
ENDBRANCH  31  32
ENDBRANCH  30  31
ENDBRANCH  29  30
ENDBRANCH   1  29
TORSDOF 16
