REMARK SMILES CCc1cccc(CC)c1NC(=O)C[C@@](C)(C(=O)OCCOCCOC(=O)c1ccc(-c2c3nc(c(-c4c(F)c(F)c(F)c(F)c4F)c4ccc([nH]4)c(-c4c(F)c(F)c(F)c(F)c4F)c4nc(c(-c5c(F)c(F)c(F)c(F)c5F)c5ccc2[nH]5)C=C4)C=C3)cc1)c1ccccc1
REMARK SMILES IDX 21 1 20 2 19 3 17 4 18 5 15 6 16 7 14 8 12 9 11 10 13 12
REMARK SMILES IDX 10 13 3 14 4 15 5 16 7 17 6 18 2 19 1 20 8 21 9 22 91 23
REMARK SMILES IDX 92 24 96 25 93 26 95 27 94 28 22 29 23 30 24 31 25 32 26 33
REMARK SMILES IDX 27 34 28 35 29 36 90 37 30 38 89 39 31 40 32 41 33 42 83 43
REMARK SMILES IDX 34 44 88 45 82 46 84 47 35 48 87 49 81 50 80 51 36 53 68 54
REMARK SMILES IDX 48 55 67 56 49 57 52 58 66 59 85 60 50 61 51 62 65 64 86 65
REMARK SMILES IDX 53 66 37 67 38 68 46 69 39 70 40 71 44 72 47 73 41 74 42 75
REMARK SMILES IDX 45 76 43 77 69 78 70 79 78 80 71 81 72 82 76 83 79 84 73 85
REMARK SMILES IDX 74 86 77 87 75 88 54 89 55 90 63 91 56 92 57 93 61 94 64 95
REMARK SMILES IDX 58 96 59 97 62 98 60 99
REMARK H PARENT 11 11 84 52 52 63
REMARK Flexibility Score: inf
ROOT
ATOM      1  C   UNL     1       5.857  -1.994  -8.793  1.00  0.00     0.202 C 
ENDROOT
BRANCH   1   2
ATOM      2  C   UNL     1       5.109  -2.272  -7.486  1.00  0.00     0.261 C 
BRANCH   2   3
ATOM      3  O   UNL     1       4.825  -1.121  -6.677  1.00  0.00    -0.463 OA
BRANCH   3   4
ATOM      4  C   UNL     1       5.394  -1.093  -5.434  1.00  0.00     0.316 C 
ATOM      5  O   UNL     1       6.179  -1.955  -5.052  1.00  0.00    -0.251 OA
BRANCH   4   6
ATOM      6  C   UNL     1       4.881   0.080  -4.535  1.00  0.00     0.099 C 
ATOM      7  C   UNL     1       4.381  -0.571  -3.222  1.00  0.00     0.029 C 
BRANCH   6   8
ATOM      8  C   UNL     1       3.728   0.836  -5.267  1.00  0.00     0.123 C 
BRANCH   8   9
ATOM      9  C   UNL     1       2.607   1.405  -4.437  1.00  0.00     0.225 C 
ATOM     10  N   UNL     1       1.629   0.764  -3.765  1.00  0.00    -0.326 N 
ATOM     11  H   UNL     1       1.163   1.445  -3.228  1.00  0.00     0.169 HD
ATOM     12  O   UNL     1       2.569   2.643  -4.317  1.00  0.00    -0.275 OA
BRANCH  10  13
ATOM     13  C   UNL     1       0.982  -0.473  -3.500  1.00  0.00     0.047 A 
ATOM     14  C   UNL     1       0.150  -0.454  -2.323  1.00  0.00    -0.024 A 
ATOM     15  C   UNL     1      -0.696  -1.540  -2.004  1.00  0.00     0.006 A 
ATOM     16  C   UNL     1      -0.758  -2.654  -2.808  1.00  0.00     0.001 A 
ATOM     17  C   UNL     1       0.980  -1.669  -4.258  1.00  0.00    -0.024 A 
ATOM     18  C   UNL     1       0.068  -2.709  -3.911  1.00  0.00     0.006 A 
BRANCH  14  19
ATOM     19  C   UNL     1       0.164   0.638  -1.254  1.00  0.00     0.034 C 
ATOM     20  C   UNL     1       0.996   0.225  -0.044  1.00  0.00     0.009 C 
ENDBRANCH  14  19
BRANCH  17  21
ATOM     21  C   UNL     1       1.816  -2.066  -5.446  1.00  0.00     0.034 C 
ATOM     22  C   UNL     1       2.738  -3.256  -5.145  1.00  0.00     0.009 C 
ENDBRANCH  17  21
ENDBRANCH  10  13
ENDBRANCH   8   9
ENDBRANCH   6   8
BRANCH   6  23
ATOM     23  C   UNL     1       6.062   0.983  -4.059  1.00  0.00    -0.030 A 
ATOM     24  C   UNL     1       7.229   0.388  -3.526  1.00  0.00     0.005 A 
ATOM     25  C   UNL     1       5.972   2.383  -3.964  1.00  0.00     0.005 A 
ATOM     26  C   UNL     1       8.230   1.136  -2.905  1.00  0.00     0.000 A 
ATOM     27  C   UNL     1       6.982   3.136  -3.347  1.00  0.00     0.000 A 
ATOM     28  C   UNL     1       8.103   2.513  -2.807  1.00  0.00     0.000 A 
ENDBRANCH   6  23
ENDBRANCH   4   6
ENDBRANCH   3   4
ENDBRANCH   2   3
ENDBRANCH   1   2
BRANCH   1  29
ATOM     29  O   UNL     1       6.851  -0.984  -8.832  1.00  0.00    -0.374 OA
BRANCH  29  30
ATOM     30  C   UNL     1       6.494   0.345  -8.474  1.00  0.00     0.202 C 
BRANCH  30  31
ATOM     31  C   UNL     1       5.382   1.073  -9.250  1.00  0.00     0.261 C 
BRANCH  31  32
ATOM     32  O   UNL     1       4.169   0.328  -9.461  1.00  0.00    -0.460 OA
BRANCH  32  33
ATOM     33  C   UNL     1       3.938  -0.006 -10.753  1.00  0.00     0.338 C 
ATOM     34  O   UNL     1       4.660   0.218 -11.720  1.00  0.00    -0.246 OA
BRANCH  33  35
ATOM     35  C   UNL     1       2.708  -0.802 -10.894  1.00  0.00     0.060 A 
ATOM     36  C   UNL     1       2.816  -2.105 -11.397  1.00  0.00     0.016 A 
ATOM     37  C   UNL     1       1.455  -0.211 -10.722  1.00  0.00     0.016 A 
ATOM     38  C   UNL     1       1.671  -2.804 -11.778  1.00  0.00     0.010 A 
ATOM     39  C   UNL     1       0.307  -0.912 -11.113  1.00  0.00     0.010 A 
ATOM     40  C   UNL     1       0.412  -2.195 -11.681  1.00  0.00    -0.014 A 
BRANCH  40  41
ATOM     41  C   UNL     1      -0.768  -2.832 -12.319  1.00  0.00     0.031 A 
ATOM     42  C   UNL     1      -1.208  -2.362 -13.681  1.00  0.00     0.074 A 
ATOM     43  C   UNL     1      -1.430  -3.830 -11.707  1.00  0.00     0.049 A 
ATOM     44  N   UNL     1      -2.236  -2.738 -14.399  1.00  0.00    -0.248 NA
ATOM     45  C   UNL     1      -0.375  -1.330 -14.321  1.00  0.00     0.031 C 
ATOM     46  C   UNL     1      -1.078  -4.406 -10.412  1.00  0.00     0.029 A 
ATOM     47  N   UNL     1      -2.546  -4.529 -12.096  1.00  0.00    -0.354 N 
ATOM     48  C   UNL     1      -2.183  -1.981 -15.563  1.00  0.00     0.074 A 
ATOM     49  C   UNL     1      -1.030  -1.113 -15.452  1.00  0.00     0.031 C 
ATOM     50  C   UNL     1      -1.970  -5.364 -10.104  1.00  0.00     0.029 A 
ATOM     51  C   UNL     1      -2.973  -5.444 -11.165  1.00  0.00     0.049 A 
ATOM     52  H   UNL     1      -2.998  -4.388 -12.959  1.00  0.00     0.167 HD
ATOM     53  C   UNL     1      -3.018  -2.012 -16.629  1.00  0.00     0.037 A 
ATOM     54  C   UNL     1      -4.064  -6.236 -11.161  1.00  0.00     0.037 A 
ATOM     55  C   UNL     1      -4.152  -2.888 -16.750  1.00  0.00     0.049 A 
ATOM     56  C   UNL     1      -5.013  -6.199 -12.332  1.00  0.00     0.074 A 
ATOM     57  C   UNL     1      -5.032  -3.018 -17.811  1.00  0.00     0.029 A 
ATOM     58  N   UNL     1      -4.567  -3.781 -15.775  1.00  0.00    -0.354 N 
ATOM     59  N   UNL     1      -4.934  -5.507 -13.443  1.00  0.00    -0.248 NA
ATOM     60  C   UNL     1      -6.206  -7.056 -12.248  1.00  0.00     0.031 C 
ATOM     61  C   UNL     1      -6.009  -3.954 -17.457  1.00  0.00     0.029 A 
ATOM     62  C   UNL     1      -5.708  -4.443 -16.197  1.00  0.00     0.049 A 
ATOM     63  H   UNL     1      -4.118  -3.923 -14.910  1.00  0.00     0.167 HD
ATOM     64  C   UNL     1      -6.039  -5.872 -14.201  1.00  0.00     0.074 A 
ATOM     65  C   UNL     1      -6.772  -6.851 -13.428  1.00  0.00     0.031 C 
ATOM     66  C   UNL     1      -6.413  -5.435 -15.428  1.00  0.00     0.037 A 
BRANCH  53  67
ATOM     67  C   UNL     1      -2.757  -1.052 -17.752  1.00  0.00     0.064 A 
ATOM     68  C   UNL     1      -1.703  -1.244 -18.657  1.00  0.00     0.173 A 
ATOM     69  C   UNL     1      -3.621   0.032 -17.969  1.00  0.00     0.173 A 
ATOM     70  F   UNL     1      -0.844  -2.260 -18.487  1.00  0.00    -0.203 F 
ATOM     71  C   UNL     1      -1.517  -0.378 -19.732  1.00  0.00     0.198 A 
ATOM     72  C   UNL     1      -3.447   0.881 -19.058  1.00  0.00     0.198 A 
ATOM     73  F   UNL     1      -4.648   0.254 -17.135  1.00  0.00    -0.203 F 
ATOM     74  F   UNL     1      -0.488  -0.564 -20.570  1.00  0.00    -0.200 F 
ATOM     75  C   UNL     1      -2.394   0.677 -19.936  1.00  0.00     0.200 A 
ATOM     76  F   UNL     1      -4.303   1.892 -19.261  1.00  0.00    -0.200 F 
ATOM     77  F   UNL     1      -2.224   1.500 -20.981  1.00  0.00    -0.200 F 
ENDBRANCH  53  67
BRANCH  54  78
ATOM     78  C   UNL     1      -4.343  -7.123 -10.000  1.00  0.00     0.064 A 
ATOM     79  C   UNL     1      -4.300  -8.518 -10.128  1.00  0.00     0.173 A 
ATOM     80  C   UNL     1      -4.707  -6.594  -8.753  1.00  0.00     0.173 A 
ATOM     81  F   UNL     1      -3.984  -9.072 -11.308  1.00  0.00    -0.203 F 
ATOM     82  C   UNL     1      -4.637  -9.350  -9.062  1.00  0.00     0.198 A 
ATOM     83  C   UNL     1      -5.014  -7.426  -7.679  1.00  0.00     0.198 A 
ATOM     84  F   UNL     1      -4.767  -5.266  -8.577  1.00  0.00    -0.203 F 
ATOM     85  F   UNL     1      -4.644 -10.679  -9.229  1.00  0.00    -0.200 F 
ATOM     86  C   UNL     1      -4.990  -8.804  -7.838  1.00  0.00     0.200 A 
ATOM     87  F   UNL     1      -5.345  -6.894  -6.495  1.00  0.00    -0.200 F 
ATOM     88  F   UNL     1      -5.319  -9.604  -6.814  1.00  0.00    -0.200 F 
ENDBRANCH  54  78
BRANCH  66  89
ATOM     89  C   UNL     1      -7.639  -6.048 -16.040  1.00  0.00     0.064 A 
ATOM     90  C   UNL     1      -8.927  -5.739 -15.578  1.00  0.00     0.173 A 
ATOM     91  C   UNL     1      -7.524  -6.917 -17.136  1.00  0.00     0.173 A 
ATOM     92  F   UNL     1      -9.089  -4.925 -14.524  1.00  0.00    -0.203 F 
ATOM     93  C   UNL     1     -10.054  -6.295 -16.179  1.00  0.00     0.198 A 
ATOM     94  C   UNL     1      -8.654  -7.448 -17.752  1.00  0.00     0.198 A 
ATOM     95  F   UNL     1      -6.315  -7.237 -17.620  1.00  0.00    -0.203 F 
ATOM     96  F   UNL     1     -11.273  -6.020 -15.694  1.00  0.00    -0.200 F 
ATOM     97  C   UNL     1      -9.917  -7.142 -17.269  1.00  0.00     0.200 A 
ATOM     98  F   UNL     1      -8.520  -8.254 -18.814  1.00  0.00    -0.200 F 
ATOM     99  F   UNL     1     -11.003  -7.668 -17.851  1.00  0.00    -0.200 F 
ENDBRANCH  66  89
ENDBRANCH  40  41
ENDBRANCH  33  35
ENDBRANCH  32  33
ENDBRANCH  31  32
ENDBRANCH  30  31
ENDBRANCH  29  30
ENDBRANCH   1  29
TORSDOF 20
