REMARK SMILES O=C(OCCOCCOC(=O)c1ccc(S(=O)(=O)NCc2ccn[nH]2)c(F)c1)c1ccc(-c2c3nc(c(-c4c(F)c(F)c(F)c(F)c4F)c4ccc([nH]4)c(-c4c(F)c(F)c(F)c(F)c4F)c4nc(c(-c5c(F)c(F)c(F)c(F)c5F)c5ccc2[nH]5)C=C4)C=C3)cc1
REMARK SMILES IDX 7 1 6 2 5 3 4 4 3 5 2 6 1 7 29 8 30 9 91 10 31 11 90 12
REMARK SMILES IDX 32 13 33 14 34 15 84 16 35 17 89 18 83 19 85 20 36 21 88 22
REMARK SMILES IDX 82 23 81 24 37 26 69 27 49 28 68 29 50 30 53 31 67 32 86 33
REMARK SMILES IDX 51 34 52 35 66 37 87 38 54 39 38 40 39 41 47 42 40 43 41 44
REMARK SMILES IDX 45 45 48 46 42 47 43 48 46 49 44 50 70 51 71 52 79 53 72 54
REMARK SMILES IDX 73 55 77 56 80 57 74 58 75 59 78 60 76 61 55 62 56 63 64 64
REMARK SMILES IDX 57 65 58 66 62 67 65 68 59 69 60 70 63 71 61 72 8 73 9 74
REMARK SMILES IDX 10 75 11 76 12 77 13 78 28 79 14 80 26 81 15 82 27 83 16 84
REMARK SMILES IDX 17 85 18 86 19 87 20 89 21 90 22 91 25 92 23 93 24 94
REMARK H PARENT 85 25 53 36 19 88 25 95
REMARK Flexibility Score: inf
ROOT
ATOM      1  C   UNL     1       2.627  -1.580  -1.453  1.00  0.00     0.202 C 
ENDROOT
BRANCH   1   2
ATOM      2  O   UNL     1       3.977  -1.304  -1.054  1.00  0.00    -0.374 OA
BRANCH   2   3
ATOM      3  C   UNL     1       4.298  -1.627   0.300  1.00  0.00     0.202 C 
BRANCH   3   4
ATOM      4  C   UNL     1       4.045  -0.475   1.277  1.00  0.00     0.261 C 
BRANCH   4   5
ATOM      5  O   UNL     1       2.654  -0.117   1.270  1.00  0.00    -0.460 OA
BRANCH   5   6
ATOM      6  C   UNL     1       2.043   0.899   0.621  1.00  0.00     0.338 C 
ATOM      7  O   UNL     1       0.821   1.002   0.713  1.00  0.00    -0.246 OA
BRANCH   6   8
ATOM      8  C   UNL     1       2.764   1.930  -0.187  1.00  0.00     0.060 A 
ATOM      9  C   UNL     1       3.955   1.726  -0.888  1.00  0.00     0.016 A 
ATOM     10  C   UNL     1       2.129   3.177  -0.318  1.00  0.00     0.016 A 
ATOM     11  C   UNL     1       4.535   2.733  -1.648  1.00  0.00     0.010 A 
ATOM     12  C   UNL     1       2.688   4.188  -1.102  1.00  0.00     0.010 A 
ATOM     13  C   UNL     1       3.905   3.968  -1.752  1.00  0.00    -0.014 A 
BRANCH  13  14
ATOM     14  C   UNL     1       4.600   5.058  -2.454  1.00  0.00     0.031 A 
ATOM     15  C   UNL     1       5.307   6.084  -1.631  1.00  0.00     0.074 A 
ATOM     16  C   UNL     1       4.656   5.062  -3.795  1.00  0.00     0.049 A 
ATOM     17  N   UNL     1       5.892   7.188  -2.006  1.00  0.00    -0.248 NA
ATOM     18  C   UNL     1       5.372   5.825  -0.182  1.00  0.00     0.031 C 
ATOM     19  C   UNL     1       4.103   4.020  -4.662  1.00  0.00     0.029 A 
ATOM     20  N   UNL     1       5.215   5.961  -4.662  1.00  0.00    -0.354 N 
ATOM     21  C   UNL     1       6.364   7.771  -0.839  1.00  0.00     0.074 A 
ATOM     22  C   UNL     1       6.006   6.901   0.257  1.00  0.00     0.031 C 
ATOM     23  C   UNL     1       4.356   4.339  -5.941  1.00  0.00     0.029 A 
ATOM     24  C   UNL     1       5.024   5.636  -5.982  1.00  0.00     0.049 A 
ATOM     25  H   UNL     1       5.705   6.763  -4.368  1.00  0.00     0.167 HD
ATOM     26  C   UNL     1       7.025   8.943  -0.710  1.00  0.00     0.037 A 
ATOM     27  C   UNL     1       5.324   6.338  -7.090  1.00  0.00     0.037 A 
ATOM     28  C   UNL     1       7.356   9.782  -1.828  1.00  0.00     0.049 A 
ATOM     29  C   UNL     1       5.976   7.683  -6.921  1.00  0.00     0.074 A 
ATOM     30  C   UNL     1       7.966  11.021  -1.830  1.00  0.00     0.029 A 
ATOM     31  N   UNL     1       7.096   9.454  -3.154  1.00  0.00    -0.354 N 
ATOM     32  N   UNL     1       6.353   8.280  -5.814  1.00  0.00    -0.248 NA
ATOM     33  C   UNL     1       6.226   8.464  -8.139  1.00  0.00     0.031 C 
ATOM     34  C   UNL     1       8.034  11.463  -3.155  1.00  0.00     0.029 A 
ATOM     35  C   UNL     1       7.517  10.476  -3.984  1.00  0.00     0.049 A 
ATOM     36  H   UNL     1       6.675   8.617  -3.457  1.00  0.00     0.167 HD
ATOM     37  C   UNL     1       6.896   9.496  -6.196  1.00  0.00     0.074 A 
ATOM     38  C   UNL     1       6.805   9.552  -7.643  1.00  0.00     0.031 C 
ATOM     39  C   UNL     1       7.419  10.480  -5.424  1.00  0.00     0.037 A 
BRANCH  26  40
ATOM     40  C   UNL     1       7.346   9.400   0.680  1.00  0.00     0.064 A 
ATOM     41  C   UNL     1       6.633  10.465   1.252  1.00  0.00     0.173 A 
ATOM     42  C   UNL     1       8.328   8.774   1.462  1.00  0.00     0.173 A 
ATOM     43  F   UNL     1       5.676  11.092   0.551  1.00  0.00    -0.203 F 
ATOM     44  C   UNL     1       6.890  10.884   2.554  1.00  0.00     0.198 A 
ATOM     45  C   UNL     1       8.563   9.178   2.774  1.00  0.00     0.198 A 
ATOM     46  F   UNL     1       9.017   7.731   0.973  1.00  0.00    -0.203 F 
ATOM     47  F   UNL     1       6.198  11.906   3.076  1.00  0.00    -0.200 F 
ATOM     48  C   UNL     1       7.848  10.235   3.318  1.00  0.00     0.200 A 
ATOM     49  F   UNL     1       9.464   8.526   3.523  1.00  0.00    -0.200 F 
ATOM     50  F   UNL     1       8.069  10.616   4.583  1.00  0.00    -0.200 F 
ENDBRANCH  26  40
BRANCH  27  51
ATOM     51  C   UNL     1       4.977   5.783  -8.424  1.00  0.00     0.064 A 
ATOM     52  C   UNL     1       3.638   5.616  -8.815  1.00  0.00     0.173 A 
ATOM     53  C   UNL     1       5.970   5.340  -9.306  1.00  0.00     0.173 A 
ATOM     54  F   UNL     1       2.647   6.023  -8.008  1.00  0.00    -0.203 F 
ATOM     55  C   UNL     1       3.308   4.995 -10.018  1.00  0.00     0.198 A 
ATOM     56  C   UNL     1       5.639   4.740 -10.521  1.00  0.00     0.198 A 
ATOM     57  F   UNL     1       7.264   5.494  -8.988  1.00  0.00    -0.203 F 
ATOM     58  F   UNL     1       2.022   4.805 -10.342  1.00  0.00    -0.200 F 
ATOM     59  C   UNL     1       4.309   4.557 -10.870  1.00  0.00     0.200 A 
ATOM     60  F   UNL     1       6.610   4.335 -11.352  1.00  0.00    -0.200 F 
ATOM     61  F   UNL     1       3.993   3.957 -12.026  1.00  0.00    -0.200 F 
ENDBRANCH  27  51
BRANCH  39  62
ATOM     62  C   UNL     1       7.963  11.690  -6.118  1.00  0.00     0.064 A 
ATOM     63  C   UNL     1       9.348  11.906  -6.169  1.00  0.00     0.173 A 
ATOM     64  C   UNL     1       7.115  12.695  -6.598  1.00  0.00     0.173 A 
ATOM     65  F   UNL     1      10.195  10.972  -5.708  1.00  0.00    -0.203 F 
ATOM     66  C   UNL     1       9.865  13.104  -6.649  1.00  0.00     0.198 A 
ATOM     67  C   UNL     1       7.637  13.884  -7.099  1.00  0.00     0.198 A 
ATOM     68  F   UNL     1       5.785  12.525  -6.576  1.00  0.00    -0.203 F 
ATOM     69  F   UNL     1      11.188  13.312  -6.641  1.00  0.00    -0.200 F 
ATOM     70  C   UNL     1       9.009  14.093  -7.110  1.00  0.00     0.200 A 
ATOM     71  F   UNL     1       6.811  14.834  -7.559  1.00  0.00    -0.200 F 
ATOM     72  F   UNL     1       9.507  15.252  -7.561  1.00  0.00    -0.200 F 
ENDBRANCH  39  62
ENDBRANCH  13  14
ENDBRANCH   6   8
ENDBRANCH   5   6
ENDBRANCH   4   5
ENDBRANCH   3   4
ENDBRANCH   2   3
ENDBRANCH   1   2
BRANCH   1  73
ATOM     73  C   UNL     1       2.633  -2.535  -2.648  1.00  0.00     0.261 C 
BRANCH  73  74
ATOM     74  O   UNL     1       3.242  -3.768  -2.232  1.00  0.00    -0.460 OA
BRANCH  74  75
ATOM     75  C   UNL     1       4.589  -3.809  -2.376  1.00  0.00     0.338 C 
ATOM     76  O   UNL     1       5.283  -3.097  -3.083  1.00  0.00    -0.246 OA
BRANCH  75  77
ATOM     77  C   UNL     1       5.143  -4.744  -1.371  1.00  0.00     0.063 A 
ATOM     78  C   UNL     1       4.418  -5.851  -0.915  1.00  0.00     0.017 A 
ATOM     79  C   UNL     1       6.414  -4.473  -0.848  1.00  0.00     0.056 A 
ATOM     80  C   UNL     1       4.979  -6.701   0.040  1.00  0.00     0.026 A 
ATOM     81  C   UNL     1       6.968  -5.326   0.102  1.00  0.00     0.144 A 
ATOM     82  C   UNL     1       6.265  -6.441   0.533  1.00  0.00     0.118 A 
ATOM     83  F   UNL     1       8.184  -5.041   0.586  1.00  0.00    -0.205 F 
BRANCH  82  84
ATOM     84  S   UNL     1       7.026  -7.632   1.580  1.00  0.00     0.243 S 
ATOM     85  O   UNL     1       5.975  -8.303   2.310  1.00  0.00    -0.207 OA
ATOM     86  O   UNL     1       7.943  -8.378   0.747  1.00  0.00    -0.207 OA
BRANCH  84  87
ATOM     87  N   UNL     1       7.976  -6.829   2.698  1.00  0.00    -0.205 NA
ATOM     88  H   UNL     1       8.731  -6.396   2.165  1.00  0.00     0.141 HD
BRANCH  87  89
ATOM     89  C   UNL     1       7.464  -5.792   3.579  1.00  0.00     0.154 C 
BRANCH  89  90
ATOM     90  C   UNL     1       6.604  -6.312   4.662  1.00  0.00     0.050 A 
ATOM     91  C   UNL     1       5.680  -5.677   5.468  1.00  0.00     0.046 A 
ATOM     92  N   UNL     1       6.608  -7.617   5.080  1.00  0.00    -0.281 N 
ATOM     93  C   UNL     1       5.201  -6.676   6.333  1.00  0.00     0.135 A 
ATOM     94  N   UNL     1       5.784  -7.854   6.116  1.00  0.00    -0.184 NA
ATOM     95  H   UNL     1       7.162  -8.316   4.662  1.00  0.00     0.190 HD
ENDBRANCH  89  90
ENDBRANCH  87  89
ENDBRANCH  84  87
ENDBRANCH  82  84
ENDBRANCH  75  77
ENDBRANCH  74  75
ENDBRANCH  73  74
ENDBRANCH   1  73
TORSDOF 18
