REMARK SMILES CC1=C2C(=O)N(C[C@H]3CCCO3)C(=O)N=C2S[C@@H]1C(=O)OCCOCCOC(=O)c1ccc(-c2c3nc(c(-c4c(F)c(F)c(F)c(F)c4F)c4ccc([nH]4)c(-c4c(F)c(F)c(F)c(F)c4F)c4nc(c(-c5c(F)c(F)c(F)c(F)c5F)c5ccc2[nH]5)C=C4)C=C3)cc1
REMARK SMILES IDX 24 1 23 2 22 3 21 4 19 5 20 6 18 7 1 8 2 9 3 10 4 11 16 12
REMARK SMILES IDX 17 13 5 14 6 15 15 16 13 17 14 18 7 19 8 20 9 21 12 22 10 23
REMARK SMILES IDX 11 24 25 25 26 26 27 27 28 28 29 29 30 30 31 31 92 32 32 33
REMARK SMILES IDX 91 34 33 35 34 36 35 37 85 38 36 39 90 40 84 41 86 42 37 43
REMARK SMILES IDX 89 44 83 45 82 46 38 48 70 49 50 50 69 51 51 52 54 53 68 54
REMARK SMILES IDX 87 55 52 56 53 57 67 59 88 60 55 61 39 62 40 63 48 64 41 65
REMARK SMILES IDX 42 66 46 67 49 68 43 69 44 70 47 71 45 72 71 73 72 74 80 75
REMARK SMILES IDX 73 76 74 77 78 78 81 79 75 80 76 81 79 82 77 83 56 84 57 85
REMARK SMILES IDX 65 86 58 87 59 88 63 89 66 90 60 91 61 92 64 93 62 94
REMARK H PARENT 86 47 54 58
REMARK Flexibility Score: inf
ROOT
ATOM      1  O   UNL     1       5.144  -7.555   6.466  1.00  0.00    -0.374 OA
ENDROOT
BRANCH   1   2
ATOM      2  C   UNL     1       5.715  -6.564   5.617  1.00  0.00     0.202 C 
BRANCH   2   3
ATOM      3  C   UNL     1       4.824  -5.999   4.510  1.00  0.00     0.261 C 
BRANCH   3   4
ATOM      4  O   UNL     1       3.679  -5.322   5.044  1.00  0.00    -0.462 OA
BRANCH   4   5
ATOM      5  C   UNL     1       2.508  -6.002   4.944  1.00  0.00     0.323 C 
ATOM      6  O   UNL     1       2.365  -7.065   4.346  1.00  0.00    -0.251 OA
BRANCH   5   7
ATOM      7  C   UNL     1       1.335  -5.292   5.594  1.00  0.00     0.189 C 
ATOM      8  C   UNL     1       0.169  -5.082   3.306  1.00  0.00     0.042 C 
ATOM      9  C   UNL     1       0.606  -4.447   4.588  1.00  0.00    -0.033 C 
ATOM     10  C   UNL     1       0.337  -3.198   4.986  1.00  0.00     0.073 C 
ATOM     11  C   UNL     1      -0.420  -2.147   4.323  1.00  0.00     0.264 C 
ATOM     12  C   UNL     1       0.705  -2.928   6.360  1.00  0.00     0.116 C 
ATOM     13  S   UNL     1       1.774  -4.152   6.963  1.00  0.00    -0.086 SA
ATOM     14  O   UNL     1      -0.310  -1.924   3.127  1.00  0.00    -0.268 OA
ATOM     15  N   UNL     1      -1.227  -1.500   5.224  1.00  0.00    -0.256 N 
ATOM     16  N   UNL     1       0.254  -1.956   7.061  1.00  0.00    -0.186 NA
ATOM     17  C   UNL     1      -0.769  -1.204   6.518  1.00  0.00     0.351 C 
ATOM     18  O   UNL     1      -1.298  -0.316   7.183  1.00  0.00    -0.246 OA
BRANCH  15  19
ATOM     19  C   UNL     1      -2.607  -1.148   4.891  1.00  0.00     0.163 C 
BRANCH  19  20
ATOM     20  C   UNL     1      -3.063  -1.067   3.421  1.00  0.00     0.138 C 
ATOM     21  C   UNL     1      -3.037  -2.360   2.608  1.00  0.00     0.036 C 
ATOM     22  O   UNL     1      -4.456  -0.660   3.441  1.00  0.00    -0.376 OA
ATOM     23  C   UNL     1      -4.435  -2.898   2.696  1.00  0.00     0.031 C 
ATOM     24  C   UNL     1      -5.251  -1.634   2.752  1.00  0.00     0.160 C 
ENDBRANCH  19  20
ENDBRANCH  15  19
ENDBRANCH   5   7
ENDBRANCH   4   5
ENDBRANCH   3   4
ENDBRANCH   2   3
ENDBRANCH   1   2
BRANCH   1  25
ATOM     25  C   UNL     1       4.266  -7.134   7.511  1.00  0.00     0.202 C 
BRANCH  25  26
ATOM     26  C   UNL     1       4.877  -6.373   8.692  1.00  0.00     0.261 C 
BRANCH  26  27
ATOM     27  O   UNL     1       5.367  -5.074   8.312  1.00  0.00    -0.460 OA
BRANCH  27  28
ATOM     28  C   UNL     1       6.703  -4.910   8.462  1.00  0.00     0.338 C 
ATOM     29  O   UNL     1       7.501  -5.706   8.929  1.00  0.00    -0.246 OA
BRANCH  28  30
ATOM     30  C   UNL     1       7.141  -3.670   7.796  1.00  0.00     0.060 A 
ATOM     31  C   UNL     1       8.137  -3.784   6.818  1.00  0.00     0.016 A 
ATOM     32  C   UNL     1       6.675  -2.417   8.195  1.00  0.00     0.016 A 
ATOM     33  C   UNL     1       8.715  -2.641   6.274  1.00  0.00     0.010 A 
ATOM     34  C   UNL     1       7.265  -1.268   7.657  1.00  0.00     0.010 A 
ATOM     35  C   UNL     1       8.314  -1.376   6.725  1.00  0.00    -0.014 A 
BRANCH  35  36
ATOM     36  C   UNL     1       9.108  -0.186   6.337  1.00  0.00     0.031 A 
ATOM     37  C   UNL     1      10.151   0.335   7.287  1.00  0.00     0.074 A 
ATOM     38  C   UNL     1       8.934   0.395   5.138  1.00  0.00     0.049 A 
ATOM     39  N   UNL     1      10.950   1.364   7.162  1.00  0.00    -0.248 NA
ATOM     40  C   UNL     1      10.316  -0.405   8.548  1.00  0.00     0.031 C 
ATOM     41  C   UNL     1       7.986  -0.044   4.117  1.00  0.00     0.029 A 
ATOM     42  N   UNL     1       9.550   1.487   4.580  1.00  0.00    -0.354 N 
ATOM     43  C   UNL     1      11.706   1.399   8.326  1.00  0.00     0.074 A 
ATOM     44  C   UNL     1      11.254   0.304   9.158  1.00  0.00     0.031 C 
ATOM     45  C   UNL     1       8.074   0.779   3.058  1.00  0.00     0.029 A 
ATOM     46  C   UNL     1       9.063   1.818   3.340  1.00  0.00     0.049 A 
ATOM     47  H   UNL     1      10.272   1.986   5.026  1.00  0.00     0.167 HD
ATOM     48  C   UNL     1      12.693   2.261   8.667  1.00  0.00     0.037 A 
ATOM     49  C   UNL     1       9.369   2.854   2.536  1.00  0.00     0.037 A 
ATOM     50  C   UNL     1      13.145   3.346   7.836  1.00  0.00     0.049 A 
ATOM     51  C   UNL     1      10.424   3.840   2.968  1.00  0.00     0.074 A 
ATOM     52  C   UNL     1      14.157   4.257   8.081  1.00  0.00     0.029 A 
ATOM     53  N   UNL     1      12.604   3.670   6.601  1.00  0.00    -0.354 N 
ATOM     54  N   UNL     1      11.156   3.846   4.055  1.00  0.00    -0.248 NA
ATOM     55  C   UNL     1      10.697   4.961   2.057  1.00  0.00     0.031 C 
ATOM     56  C   UNL     1      14.195   5.163   7.015  1.00  0.00     0.029 A 
ATOM     57  C   UNL     1      13.242   4.785   6.083  1.00  0.00     0.049 A 
ATOM     58  H   UNL     1      11.874   3.180   6.157  1.00  0.00     0.167 HD
ATOM     59  C   UNL     1      11.992   4.950   3.948  1.00  0.00     0.074 A 
ATOM     60  C   UNL     1      11.686   5.583   2.682  1.00  0.00     0.031 C 
ATOM     61  C   UNL     1      12.930   5.399   4.818  1.00  0.00     0.037 A 
BRANCH  48  62
ATOM     62  C   UNL     1      13.336   2.083  10.010  1.00  0.00     0.064 A 
ATOM     63  C   UNL     1      14.210   1.019  10.275  1.00  0.00     0.173 A 
ATOM     64  C   UNL     1      13.104   3.013  11.035  1.00  0.00     0.173 A 
ATOM     65  F   UNL     1      14.455   0.096   9.332  1.00  0.00    -0.203 F 
ATOM     66  C   UNL     1      14.812   0.880  11.523  1.00  0.00     0.198 A 
ATOM     67  C   UNL     1      13.727   2.886  12.273  1.00  0.00     0.198 A 
ATOM     68  F   UNL     1      12.280   4.051  10.832  1.00  0.00    -0.203 F 
ATOM     69  F   UNL     1      15.612  -0.167  11.767  1.00  0.00    -0.200 F 
ATOM     70  C   UNL     1      14.575   1.817  12.518  1.00  0.00     0.200 A 
ATOM     71  F   UNL     1      13.507   3.798  13.230  1.00  0.00    -0.200 F 
ATOM     72  F   UNL     1      15.161   1.686  13.717  1.00  0.00    -0.200 F 
ENDBRANCH  48  62
BRANCH  49  73
ATOM     73  C   UNL     1       8.656   3.025   1.243  1.00  0.00     0.064 A 
ATOM     74  C   UNL     1       9.322   2.856   0.022  1.00  0.00     0.173 A 
ATOM     75  C   UNL     1       7.300   3.381   1.205  1.00  0.00     0.173 A 
ATOM     76  F   UNL     1      10.625   2.541   0.007  1.00  0.00    -0.203 F 
ATOM     77  C   UNL     1       8.662   3.053  -1.190  1.00  0.00     0.198 A 
ATOM     78  C   UNL     1       6.635   3.551  -0.007  1.00  0.00     0.198 A 
ATOM     79  F   UNL     1       6.619   3.558   2.347  1.00  0.00    -0.203 F 
ATOM     80  F   UNL     1       9.332   2.930  -2.343  1.00  0.00    -0.200 F 
ATOM     81  C   UNL     1       7.318   3.395  -1.203  1.00  0.00     0.200 A 
ATOM     82  F   UNL     1       5.333   3.871  -0.015  1.00  0.00    -0.200 F 
ATOM     83  F   UNL     1       6.683   3.583  -2.368  1.00  0.00    -0.200 F 
ENDBRANCH  49  73
BRANCH  61  84
ATOM     84  C   UNL     1      13.719   6.612   4.418  1.00  0.00     0.064 A 
ATOM     85  C   UNL     1      13.148   7.893   4.414  1.00  0.00     0.173 A 
ATOM     86  C   UNL     1      15.076   6.495   4.077  1.00  0.00     0.173 A 
ATOM     87  F   UNL     1      11.852   8.055   4.718  1.00  0.00    -0.203 F 
ATOM     88  C   UNL     1      13.901   9.010   4.061  1.00  0.00     0.198 A 
ATOM     89  C   UNL     1      15.832   7.618   3.753  1.00  0.00     0.198 A 
ATOM     90  F   UNL     1      15.671   5.293   4.073  1.00  0.00    -0.203 F 
ATOM     91  F   UNL     1      13.323  10.219   4.020  1.00  0.00    -0.200 F 
ATOM     92  C   UNL     1      15.243   8.873   3.738  1.00  0.00     0.200 A 
ATOM     93  F   UNL     1      17.132   7.485   3.454  1.00  0.00    -0.200 F 
ATOM     94  F   UNL     1      15.967   9.950   3.406  1.00  0.00    -0.200 F 
ENDBRANCH  61  84
ENDBRANCH  35  36
ENDBRANCH  28  30
ENDBRANCH  27  28
ENDBRANCH  26  27
ENDBRANCH  25  26
ENDBRANCH   1  25
TORSDOF 16
