REMARK SMILES Cc1ccc(S(=O)(=O)Nc2cnc(N(C)C)c(C(=O)OCCOCCOC(=O)c3ccc(-c4c5nc(c(-c6c(F)c(F)c(F)c(F)c6F)c6ccc([nH]6)c(-c6c(F)c(F)c(F)c(F)c6F)c6nc(c(-c7c(F)c(F)c(F)c(F)c7F)c7ccc4[nH]7)C=C6)C=C5)cc3)c2)c(C)c1
REMARK SMILES IDX 22 1 21 2 20 3 18 4 19 5 17 6 10 7 11 8 92 9 12 10 13 11
REMARK SMILES IDX 9 12 6 14 7 15 8 16 5 17 1 18 2 19 3 20 95 21 4 22 93 23
REMARK SMILES IDX 94 24 14 25 15 26 16 27 23 28 24 29 25 30 26 31 27 32 28 33
REMARK SMILES IDX 29 34 30 35 91 36 31 37 90 38 32 39 33 40 34 41 84 42 35 43
REMARK SMILES IDX 89 44 83 45 85 46 36 47 88 48 82 49 81 50 37 52 69 53 49 54
REMARK SMILES IDX 68 55 50 56 53 57 67 58 86 59 51 60 52 61 66 63 87 64 54 65
REMARK SMILES IDX 38 66 39 67 47 68 40 69 41 70 45 71 48 72 42 73 43 74 46 75
REMARK SMILES IDX 44 76 70 77 71 78 79 79 72 80 73 81 77 82 80 83 74 84 75 85
REMARK SMILES IDX 78 86 76 87 55 88 56 89 64 90 57 91 58 92 62 93 65 94 59 95
REMARK SMILES IDX 60 96 63 97 61 98
REMARK H PARENT 9 13 85 51 53 62
REMARK Flexibility Score: inf
ROOT
ATOM      1  C   UNL     1       3.946  -2.975   4.081  1.00  0.00     0.202 C 
ENDROOT
BRANCH   1   2
ATOM      2  C   UNL     1       3.359  -2.114   2.959  1.00  0.00     0.261 C 
BRANCH   2   3
ATOM      3  O   UNL     1       2.246  -2.757   2.335  1.00  0.00    -0.460 OA
BRANCH   3   4
ATOM      4  C   UNL     1       2.402  -2.993   1.008  1.00  0.00     0.342 C 
ATOM      5  O   UNL     1       3.248  -2.508   0.278  1.00  0.00    -0.246 OA
BRANCH   4   6
ATOM      6  C   UNL     1       1.379  -3.958   0.571  1.00  0.00     0.104 A 
ATOM      7  C   UNL     1      -0.957  -4.132   0.034  1.00  0.00     0.068 A 
ATOM      8  C   UNL     1      -0.628  -5.311  -0.609  1.00  0.00     0.140 A 
ATOM      9  C   UNL     1       0.044  -3.534   0.771  1.00  0.00     0.048 A 
ATOM     10  N   UNL     1       0.622  -5.817  -0.673  1.00  0.00    -0.236 NA
ATOM     11  C   UNL     1       1.672  -5.125  -0.160  1.00  0.00     0.142 A 
BRANCH   7  12
ATOM     12  N   UNL     1      -2.225  -3.558  -0.250  1.00  0.00    -0.278 N 
ATOM     13  H   UNL     1      -2.919  -4.175  -0.575  1.00  0.00     0.180 HD
BRANCH  12  14
ATOM     14  S   UNL     1      -2.677  -1.954  -0.096  1.00  0.00     0.262 S 
ATOM     15  O   UNL     1      -2.921  -1.736   1.315  1.00  0.00    -0.201 OA
ATOM     16  O   UNL     1      -3.727  -1.778  -1.077  1.00  0.00    -0.201 OA
BRANCH  14  17
ATOM     17  C   UNL     1      -1.344  -0.852  -0.572  1.00  0.00     0.090 A 
ATOM     18  C   UNL     1       2.362   1.305  -0.217  1.00  0.00     0.044 C 
ATOM     19  C   UNL     1       1.056   0.597  -0.431  1.00  0.00    -0.051 A 
ATOM     20  C   UNL     1       1.002  -0.616  -1.121  1.00  0.00     0.005 A 
ATOM     21  C   UNL     1      -0.139   1.167   0.013  1.00  0.00     0.008 A 
ATOM     22  C   UNL     1      -0.199  -1.329  -1.214  1.00  0.00     0.023 A 
ATOM     23  C   UNL     1      -1.353   0.463  -0.067  1.00  0.00    -0.030 A 
ATOM     24  C   UNL     1      -2.609   1.203   0.304  1.00  0.00     0.046 C 
ENDBRANCH  14  17
ENDBRANCH  12  14
ENDBRANCH   7  12
BRANCH  11  25
ATOM     25  N   UNL     1       2.909  -5.681  -0.414  1.00  0.00    -0.362 N 
ATOM     26  C   UNL     1       2.979  -6.898  -1.227  1.00  0.00     0.145 C 
ATOM     27  C   UNL     1       4.202  -5.160   0.003  1.00  0.00     0.145 C 
ENDBRANCH  11  25
ENDBRANCH   4   6
ENDBRANCH   3   4
ENDBRANCH   2   3
ENDBRANCH   1   2
BRANCH   1  28
ATOM     28  O   UNL     1       4.227  -4.348   3.823  1.00  0.00    -0.374 OA
BRANCH  28  29
ATOM     29  C   UNL     1       3.153  -5.247   3.552  1.00  0.00     0.202 C 
BRANCH  29  30
ATOM     30  C   UNL     1       2.113  -5.566   4.632  1.00  0.00     0.261 C 
BRANCH  30  31
ATOM     31  O   UNL     1       1.510  -4.411   5.226  1.00  0.00    -0.460 OA
BRANCH  31  32
ATOM     32  C   UNL     1       1.931  -4.170   6.490  1.00  0.00     0.338 C 
ATOM     33  O   UNL     1       2.720  -4.827   7.150  1.00  0.00    -0.246 OA
BRANCH  32  34
ATOM     34  C   UNL     1       1.445  -2.857   6.940  1.00  0.00     0.060 A 
ATOM     35  C   UNL     1       2.408  -1.942   7.380  1.00  0.00     0.016 A 
ATOM     36  C   UNL     1       0.083  -2.566   7.025  1.00  0.00     0.016 A 
ATOM     37  C   UNL     1       2.009  -0.751   7.968  1.00  0.00     0.010 A 
ATOM     38  C   UNL     1      -0.318  -1.369   7.625  1.00  0.00     0.010 A 
ATOM     39  C   UNL     1       0.645  -0.482   8.137  1.00  0.00    -0.014 A 
BRANCH  39  40
ATOM     40  C   UNL     1       0.264   0.665   8.989  1.00  0.00     0.031 A 
ATOM     41  C   UNL     1      -0.109   0.419  10.422  1.00  0.00     0.074 A 
ATOM     42  C   UNL     1       0.351   1.915   8.508  1.00  0.00     0.049 A 
ATOM     43  N   UNL     1      -0.364   1.280  11.374  1.00  0.00    -0.248 NA
ATOM     44  C   UNL     1      -0.206  -0.988  10.840  1.00  0.00     0.031 C 
ATOM     45  C   UNL     1       0.723   2.261   7.138  1.00  0.00     0.029 A 
ATOM     46  N   UNL     1       0.148   3.122   9.122  1.00  0.00    -0.354 N 
ATOM     47  C   UNL     1      -0.643   0.521  12.503  1.00  0.00     0.074 A 
ATOM     48  C   UNL     1      -0.575  -0.869  12.106  1.00  0.00     0.031 C 
ATOM     49  C   UNL     1       0.724   3.599   7.014  1.00  0.00     0.029 A 
ATOM     50  C   UNL     1       0.336   4.196   8.291  1.00  0.00     0.049 A 
ATOM     51  H   UNL     1      -0.109   3.210  10.069  1.00  0.00     0.167 HD
ATOM     52  C   UNL     1      -0.917   0.947  13.759  1.00  0.00     0.037 A 
ATOM     53  C   UNL     1       0.205   5.512   8.536  1.00  0.00     0.037 A 
ATOM     54  C   UNL     1      -1.000   2.335  14.136  1.00  0.00     0.049 A 
ATOM     55  C   UNL     1      -0.137   5.965   9.929  1.00  0.00     0.074 A 
ATOM     56  C   UNL     1      -1.265   2.881  15.379  1.00  0.00     0.029 A 
ATOM     57  N   UNL     1      -0.832   3.400  13.260  1.00  0.00    -0.354 N 
ATOM     58  N   UNL     1      -0.362   5.245  11.002  1.00  0.00    -0.248 NA
ATOM     59  C   UNL     1      -0.220   7.414  10.149  1.00  0.00     0.031 C 
ATOM     60  C   UNL     1      -1.314   4.274  15.242  1.00  0.00     0.029 A 
ATOM     61  C   UNL     1      -1.012   4.601  13.929  1.00  0.00     0.049 A 
ATOM     62  H   UNL     1      -0.617   3.315  12.303  1.00  0.00     0.167 HD
ATOM     63  C   UNL     1      -0.594   6.149  12.030  1.00  0.00     0.074 A 
ATOM     64  C   UNL     1      -0.460   7.472  11.452  1.00  0.00     0.031 C 
ATOM     65  C   UNL     1      -0.888   5.909  13.333  1.00  0.00     0.037 A 
BRANCH  52  66
ATOM     66  C   UNL     1      -1.180  -0.107  14.799  1.00  0.00     0.064 A 
ATOM     67  C   UNL     1      -0.170  -0.972  15.250  1.00  0.00     0.173 A 
ATOM     68  C   UNL     1      -2.463  -0.263  15.344  1.00  0.00     0.173 A 
ATOM     69  F   UNL     1       1.073  -0.878  14.752  1.00  0.00    -0.203 F 
ATOM     70  C   UNL     1      -0.445  -1.980  16.172  1.00  0.00     0.198 A 
ATOM     71  C   UNL     1      -2.727  -1.249  16.292  1.00  0.00     0.198 A 
ATOM     72  F   UNL     1      -3.466   0.538  14.954  1.00  0.00    -0.203 F 
ATOM     73  F   UNL     1       0.520  -2.837  16.535  1.00  0.00    -0.200 F 
ATOM     74  C   UNL     1      -1.722  -2.114  16.695  1.00  0.00     0.200 A 
ATOM     75  F   UNL     1      -3.958  -1.369  16.806  1.00  0.00    -0.200 F 
ATOM     76  F   UNL     1      -1.987  -3.086  17.579  1.00  0.00    -0.200 F 
ENDBRANCH  52  66
BRANCH  53  77
ATOM     77  C   UNL     1       0.415   6.481   7.430  1.00  0.00     0.064 A 
ATOM     78  C   UNL     1       1.532   7.324   7.399  1.00  0.00     0.173 A 
ATOM     79  C   UNL     1      -0.486   6.550   6.356  1.00  0.00     0.173 A 
ATOM     80  F   UNL     1       2.413   7.307   8.411  1.00  0.00    -0.203 F 
ATOM     81  C   UNL     1       1.738   8.205   6.339  1.00  0.00     0.198 A 
ATOM     82  C   UNL     1      -0.264   7.410   5.284  1.00  0.00     0.198 A 
ATOM     83  F   UNL     1      -1.569   5.758   6.336  1.00  0.00    -0.203 F 
ATOM     84  F   UNL     1       2.800   9.022   6.347  1.00  0.00    -0.200 F 
ATOM     85  C   UNL     1       0.846   8.240   5.278  1.00  0.00     0.200 A 
ATOM     86  F   UNL     1      -1.119   7.425   4.252  1.00  0.00    -0.200 F 
ATOM     87  F   UNL     1       1.055   9.074   4.250  1.00  0.00    -0.200 F 
ENDBRANCH  53  77
BRANCH  65  88
ATOM     88  C   UNL     1      -1.057   7.107  14.225  1.00  0.00     0.064 A 
ATOM     89  C   UNL     1      -2.152   7.975  14.100  1.00  0.00     0.173 A 
ATOM     90  C   UNL     1      -0.114   7.383  15.227  1.00  0.00     0.173 A 
ATOM     91  F   UNL     1      -3.076   7.764  13.150  1.00  0.00    -0.203 F 
ATOM     92  C   UNL     1      -2.273   9.099  14.914  1.00  0.00     0.198 A 
ATOM     93  C   UNL     1      -0.257   8.487  16.064  1.00  0.00     0.198 A 
ATOM     94  F   UNL     1       0.947   6.580  15.398  1.00  0.00    -0.203 F 
ATOM     95  F   UNL     1      -3.291   9.951  14.730  1.00  0.00    -0.200 F 
ATOM     96  C   UNL     1      -1.329   9.350  15.898  1.00  0.00     0.200 A 
ATOM     97  F   UNL     1       0.648   8.719  17.024  1.00  0.00    -0.200 F 
ATOM     98  F   UNL     1      -1.445  10.433  16.679  1.00  0.00    -0.200 F 
ENDBRANCH  65  88
ENDBRANCH  39  40
ENDBRANCH  32  34
ENDBRANCH  31  32
ENDBRANCH  30  31
ENDBRANCH  29  30
ENDBRANCH  28  29
ENDBRANCH   1  28
TORSDOF 18
