REMARK SMILES O=C(/C=C/c1ccc(O)c(O)c1)OCCOCCOC(=O)c1ccc(-c2c3nc(c(-c4c(F)c(F)c(F)c(F)c4F)c4ccc([nH]4)c(-c4c(F)c(F)c(F)c(F)c4F)c4nc(c(-c5c(F)c(F)c(F)c(F)c5F)c5ccc2[nH]5)C=C4)C=C3)cc1
REMARK SMILES IDX 16 1 15 2 14 3 13 4 2 5 1 6 3 7 4 8 5 9 6 10 12 11 7 12
REMARK SMILES IDX 10 13 8 14 11 15 9 17 17 19 18 20 19 21 20 22 21 23 22 24
REMARK SMILES IDX 23 25 84 26 24 27 83 28 25 29 26 30 27 31 77 32 28 33 82 34
REMARK SMILES IDX 76 35 78 36 29 37 81 38 75 39 74 40 30 42 62 43 42 44 61 45
REMARK SMILES IDX 43 46 46 47 60 48 79 49 44 50 45 51 59 53 80 54 47 55 31 56
REMARK SMILES IDX 32 57 40 58 33 59 34 60 38 61 41 62 35 63 36 64 39 65 37 66
REMARK SMILES IDX 63 67 64 68 72 69 65 70 66 71 70 72 73 73 67 74 68 75 71 76
REMARK SMILES IDX 69 77 48 78 49 79 57 80 50 81 51 82 55 83 58 84 52 85 53 86
REMARK SMILES IDX 56 87 54 88
REMARK H PARENT 11 16 9 18 78 41 46 52
REMARK Flexibility Score: inf
ROOT
ATOM      1  O   UNL     1       4.167   0.065   1.390  1.00  0.00    -0.374 OA
ENDROOT
BRANCH   1   2
ATOM      2  C   UNL     1       4.483   1.061   0.423  1.00  0.00     0.202 C 
BRANCH   2   3
ATOM      3  C   UNL     1       4.275   0.670  -1.036  1.00  0.00     0.261 C 
BRANCH   3   4
ATOM      4  O   UNL     1       2.949   0.213  -1.355  1.00  0.00    -0.460 OA
BRANCH   4   5
ATOM      5  C   UNL     1       2.400  -0.994  -1.096  1.00  0.00     0.330 C 
ATOM      6  O   UNL     1       1.217  -1.197  -1.360  1.00  0.00    -0.247 OA
BRANCH   5   7
ATOM      7  C   UNL     1       3.139  -2.047  -0.381  1.00  0.00     0.094 C 
ATOM      8  C   UNL     1       4.429  -2.381  -0.505  1.00  0.00     0.016 C 
BRANCH   8   9
ATOM      9  C   UNL     1       5.064  -3.378   0.355  1.00  0.00    -0.021 A 
ATOM     10  C   UNL     1       4.747  -4.736   0.228  1.00  0.00     0.012 A 
ATOM     11  C   UNL     1       6.048  -2.970   1.265  1.00  0.00     0.058 A 
ATOM     12  C   UNL     1       5.436  -5.693   0.977  1.00  0.00     0.051 A 
ATOM     13  C   UNL     1       6.728  -3.928   2.003  1.00  0.00     0.157 A 
ATOM     14  C   UNL     1       6.436  -5.281   1.851  1.00  0.00     0.157 A 
BRANCH  13  15
ATOM     15  O   UNL     1       7.709  -3.534   2.867  1.00  0.00    -0.504 OA
ATOM     16  H   UNL     1       8.175  -4.173   3.370  1.00  0.00     0.293 HD
ENDBRANCH  13  15
BRANCH  14  17
ATOM     17  O   UNL     1       7.174  -6.175   2.574  1.00  0.00    -0.504 OA
ATOM     18  H   UNL     1       7.005  -7.094   2.497  1.00  0.00     0.293 HD
ENDBRANCH  14  17
ENDBRANCH   8   9
ENDBRANCH   5   7
ENDBRANCH   4   5
ENDBRANCH   3   4
ENDBRANCH   2   3
ENDBRANCH   1   2
BRANCH   1  19
ATOM     19  C   UNL     1       2.889   0.226   2.017  1.00  0.00     0.202 C 
BRANCH  19  20
ATOM     20  C   UNL     1       2.906   1.134   3.253  1.00  0.00     0.261 C 
BRANCH  20  21
ATOM     21  O   UNL     1       3.261   2.479   2.898  1.00  0.00    -0.460 OA
BRANCH  21  22
ATOM     22  C   UNL     1       4.569   2.792   3.064  1.00  0.00     0.338 C 
ATOM     23  O   UNL     1       5.426   2.138   3.633  1.00  0.00    -0.246 OA
BRANCH  22  24
ATOM     24  C   UNL     1       4.870   3.983   2.244  1.00  0.00     0.060 A 
ATOM     25  C   UNL     1       6.058   3.984   1.497  1.00  0.00     0.016 A 
ATOM     26  C   UNL     1       3.993   5.067   2.185  1.00  0.00     0.016 A 
ATOM     27  C   UNL     1       6.393   5.088   0.718  1.00  0.00     0.010 A 
ATOM     28  C   UNL     1       4.335   6.179   1.419  1.00  0.00     0.010 A 
ATOM     29  C   UNL     1       5.554   6.208   0.716  1.00  0.00    -0.014 A 
BRANCH  29  30
ATOM     30  C   UNL     1       6.041   7.502   0.194  1.00  0.00     0.031 A 
ATOM     31  C   UNL     1       6.566   8.497   1.189  1.00  0.00     0.074 A 
ATOM     32  C   UNL     1       5.982   7.800  -1.113  1.00  0.00     0.049 A 
ATOM     33  N   UNL     1       6.894   9.751   1.023  1.00  0.00    -0.248 NA
ATOM     34  C   UNL     1       6.721   8.009   2.570  1.00  0.00     0.031 C 
ATOM     35  C   UNL     1       5.535   6.894  -2.168  1.00  0.00     0.029 A 
ATOM     36  N   UNL     1       6.277   8.968  -1.768  1.00  0.00    -0.354 N 
ATOM     37  C   UNL     1       7.269  10.206   2.280  1.00  0.00     0.074 A 
ATOM     38  C   UNL     1       7.100   9.107   3.203  1.00  0.00     0.031 C 
ATOM     39  C   UNL     1       5.559   7.551  -3.341  1.00  0.00     0.029 A 
ATOM     40  C   UNL     1       5.980   8.932  -3.107  1.00  0.00     0.049 A 
ATOM     41  H   UNL     1       6.664   9.755  -1.321  1.00  0.00     0.167 HD
ATOM     42  C   UNL     1       7.715  11.435   2.629  1.00  0.00     0.037 A 
ATOM     43  C   UNL     1       6.010   9.918  -4.025  1.00  0.00     0.037 A 
ATOM     44  C   UNL     1       7.874  12.519   1.698  1.00  0.00     0.049 A 
ATOM     45  C   UNL     1       6.447  11.299  -3.603  1.00  0.00     0.074 A 
ATOM     46  C   UNL     1       8.335  13.800   1.935  1.00  0.00     0.029 A 
ATOM     47  N   UNL     1       7.562  12.447   0.347  1.00  0.00    -0.354 N 
ATOM     48  N   UNL     1       6.815  11.727  -2.419  1.00  0.00    -0.248 NA
ATOM     49  C   UNL     1       6.473  12.333  -4.646  1.00  0.00     0.031 C 
ATOM     50  C   UNL     1       8.245  14.522   0.740  1.00  0.00     0.029 A 
ATOM     51  C   UNL     1       7.798  13.669  -0.258  1.00  0.00     0.049 A 
ATOM     52  H   UNL     1       7.224  11.644  -0.113  1.00  0.00     0.167 HD
ATOM     53  C   UNL     1       7.153  13.065  -2.581  1.00  0.00     0.074 A 
ATOM     54  C   UNL     1       6.946  13.377  -3.980  1.00  0.00     0.031 C 
ATOM     55  C   UNL     1       7.601  13.953  -1.658  1.00  0.00     0.037 A 
BRANCH  42  56
ATOM     56  C   UNL     1       8.016  11.673   4.081  1.00  0.00     0.064 A 
ATOM     57  C   UNL     1       9.087  11.042   4.732  1.00  0.00     0.173 A 
ATOM     58  C   UNL     1       7.216  12.546   4.834  1.00  0.00     0.173 A 
ATOM     59  F   UNL     1       9.873  10.184   4.064  1.00  0.00    -0.203 F 
ATOM     60  C   UNL     1       9.322  11.245   6.090  1.00  0.00     0.198 A 
ATOM     61  C   UNL     1       7.475  12.775   6.183  1.00  0.00     0.198 A 
ATOM     62  F   UNL     1       6.178  13.176   4.263  1.00  0.00    -0.203 F 
ATOM     63  F   UNL     1      10.309  10.579   6.704  1.00  0.00    -0.200 F 
ATOM     64  C   UNL     1       8.520  12.116   6.812  1.00  0.00     0.200 A 
ATOM     65  F   UNL     1       6.707  13.627   6.875  1.00  0.00    -0.200 F 
ATOM     66  F   UNL     1       8.748  12.312   8.118  1.00  0.00    -0.200 F 
ENDBRANCH  42  56
BRANCH  43  67
ATOM     67  C   UNL     1       5.607   9.635  -5.427  1.00  0.00     0.064 A 
ATOM     68  C   UNL     1       6.548   9.650  -6.465  1.00  0.00     0.173 A 
ATOM     69  C   UNL     1       4.276   9.338  -5.758  1.00  0.00     0.173 A 
ATOM     70  F   UNL     1       7.828   9.952  -6.203  1.00  0.00    -0.203 F 
ATOM     71  C   UNL     1       6.173   9.391  -7.782  1.00  0.00     0.198 A 
ATOM     72  C   UNL     1       3.907   9.050  -7.071  1.00  0.00     0.198 A 
ATOM     73  F   UNL     1       3.336   9.311  -4.802  1.00  0.00    -0.203 F 
ATOM     74  F   UNL     1       7.086   9.452  -8.761  1.00  0.00    -0.200 F 
ATOM     75  C   UNL     1       4.854   9.084  -8.082  1.00  0.00     0.200 A 
ATOM     76  F   UNL     1       2.635   8.740  -7.354  1.00  0.00    -0.200 F 
ATOM     77  F   UNL     1       4.496   8.825  -9.348  1.00  0.00    -0.200 F 
ENDBRANCH  43  67
BRANCH  55  78
ATOM     78  C   UNL     1       7.964  15.330  -2.136  1.00  0.00     0.064 A 
ATOM     79  C   UNL     1       6.992  16.262  -2.527  1.00  0.00     0.173 A 
ATOM     80  C   UNL     1       9.306  15.742  -2.135  1.00  0.00     0.173 A 
ATOM     81  F   UNL     1       5.696  15.915  -2.557  1.00  0.00    -0.203 F 
ATOM     82  C   UNL     1       7.353  17.549  -2.920  1.00  0.00     0.198 A 
ATOM     83  C   UNL     1       9.660  17.039  -2.495  1.00  0.00     0.198 A 
ATOM     84  F   UNL     1      10.274  14.892  -1.761  1.00  0.00    -0.203 F 
ATOM     85  F   UNL     1       6.412  18.410  -3.331  1.00  0.00    -0.200 F 
ATOM     86  C   UNL     1       8.684  17.939  -2.894  1.00  0.00     0.200 A 
ATOM     87  F   UNL     1      10.944  17.419  -2.450  1.00  0.00    -0.200 F 
ATOM     88  F   UNL     1       9.026  19.183  -3.257  1.00  0.00    -0.200 F 
ENDBRANCH  55  78
ENDBRANCH  29  30
ENDBRANCH  22  24
ENDBRANCH  21  22
ENDBRANCH  20  21
ENDBRANCH  19  20
ENDBRANCH   1  19
TORSDOF 17
