REMARK SMILES C[C@H](Cc1ccc(N)cc1)C(=O)OCCOCCOC(=O)c1ccc(-c2c3nc(c(-c4c(F)c(F)c(F)c(F)c4F)c4ccc([nH]4)c(-c4c(F)c(F)c(F)c(F)c4F)c4nc(c(-c5c(F)c(F)c(F)c(F)c5F)c5ccc2[nH]5)C=C4)C=C3)cc1
REMARK SMILES IDX 15 1 14 2 13 3 11 4 12 5 2 6 1 7 3 8 4 9 5 10 10 11 6 12
REMARK SMILES IDX 9 13 7 14 8 15 16 18 17 19 18 20 19 21 20 22 21 23 22 24
REMARK SMILES IDX 23 25 84 26 24 27 83 28 25 29 26 30 27 31 77 32 28 33 82 34
REMARK SMILES IDX 76 35 78 36 29 37 81 38 75 39 74 40 30 42 62 43 42 44 61 45
REMARK SMILES IDX 43 46 46 47 60 48 79 49 44 50 45 51 59 53 80 54 47 55 31 56
REMARK SMILES IDX 32 57 40 58 33 59 34 60 38 61 41 62 35 63 36 64 39 65 37 66
REMARK SMILES IDX 63 67 64 68 72 69 65 70 66 71 70 72 73 73 67 74 68 75 71 76
REMARK SMILES IDX 69 77 48 78 49 79 57 80 50 81 51 82 55 83 58 84 52 85 53 86
REMARK SMILES IDX 56 87 54 88
REMARK H PARENT 8 16 8 17 78 41 46 52
REMARK Flexibility Score: inf
ROOT
ATOM      1  C   UNL     1      -3.675  -0.189   0.776  1.00  0.00     0.202 C 
ENDROOT
BRANCH   1   2
ATOM      2  C   UNL     1      -3.014   0.459   1.995  1.00  0.00     0.261 C 
BRANCH   2   3
ATOM      3  O   UNL     1      -1.634   0.752   1.704  1.00  0.00    -0.463 OA
BRANCH   3   4
ATOM      4  C   UNL     1      -0.690   0.021   2.338  1.00  0.00     0.309 C 
ATOM      5  O   UNL     1      -0.917  -0.782   3.235  1.00  0.00    -0.252 OA
BRANCH   4   6
ATOM      6  C   UNL     1       0.717   0.317   1.842  1.00  0.00     0.100 C 
ATOM      7  C   UNL     1       1.341   1.488   2.588  1.00  0.00     0.020 C 
BRANCH   6   8
ATOM      8  C   UNL     1       0.947   0.330   0.316  1.00  0.00     0.050 C 
BRANCH   8   9
ATOM      9  C   UNL     1       0.333   1.331  -0.641  1.00  0.00    -0.047 A 
ATOM     10  C   UNL     1      -0.367   2.480  -0.268  1.00  0.00     0.006 A 
ATOM     11  C   UNL     1       0.522   1.112  -2.018  1.00  0.00     0.006 A 
ATOM     12  C   UNL     1      -0.878   3.362  -1.230  1.00  0.00     0.026 A 
ATOM     13  C   UNL     1       0.028   2.006  -2.975  1.00  0.00     0.026 A 
ATOM     14  C   UNL     1      -0.695   3.131  -2.591  1.00  0.00     0.031 A 
BRANCH  14  15
ATOM     15  N   UNL     1      -1.110   4.064  -3.525  1.00  0.00    -0.399 N 
ATOM     16  H   UNL     1      -1.620   4.855  -3.237  1.00  0.00     0.156 HD
ATOM     17  H   UNL     1      -0.894   3.937  -4.477  1.00  0.00     0.156 HD
ENDBRANCH  14  15
ENDBRANCH   8   9
ENDBRANCH   6   8
ENDBRANCH   4   6
ENDBRANCH   3   4
ENDBRANCH   2   3
ENDBRANCH   1   2
BRANCH   1  18
ATOM     18  O   UNL     1      -3.371  -1.577   0.613  1.00  0.00    -0.374 OA
BRANCH  18  19
ATOM     19  C   UNL     1      -2.159  -1.857  -0.084  1.00  0.00     0.202 C 
BRANCH  19  20
ATOM     20  C   UNL     1      -2.304  -1.984  -1.604  1.00  0.00     0.261 C 
BRANCH  20  21
ATOM     21  O   UNL     1      -2.676  -0.734  -2.211  1.00  0.00    -0.460 OA
BRANCH  21  22
ATOM     22  C   UNL     1      -3.988  -0.606  -2.517  1.00  0.00     0.338 C 
ATOM     23  O   UNL     1      -4.863  -1.452  -2.415  1.00  0.00    -0.246 OA
BRANCH  22  24
ATOM     24  C   UNL     1      -4.274   0.798  -2.861  1.00  0.00     0.060 A 
ATOM     25  C   UNL     1      -5.261   1.473  -2.134  1.00  0.00     0.016 A 
ATOM     26  C   UNL     1      -3.610   1.438  -3.907  1.00  0.00     0.016 A 
ATOM     27  C   UNL     1      -5.582   2.797  -2.446  1.00  0.00     0.010 A 
ATOM     28  C   UNL     1      -3.939   2.761  -4.219  1.00  0.00     0.010 A 
ATOM     29  C   UNL     1      -4.925   3.457  -3.494  1.00  0.00    -0.014 A 
BRANCH  29  30
ATOM     30  C   UNL     1      -5.305   4.845  -3.883  1.00  0.00     0.031 A 
ATOM     31  C   UNL     1      -5.944   5.093  -5.225  1.00  0.00     0.074 A 
ATOM     32  C   UNL     1      -5.065   5.888  -3.062  1.00  0.00     0.049 A 
ATOM     33  N   UNL     1      -6.270   6.227  -5.794  1.00  0.00    -0.248 NA
ATOM     34  C   UNL     1      -6.236   3.907  -6.044  1.00  0.00     0.031 C 
ATOM     35  C   UNL     1      -4.449   5.802  -1.739  1.00  0.00     0.029 A 
ATOM     36  N   UNL     1      -5.303   7.232  -3.229  1.00  0.00    -0.354 N 
ATOM     37  C   UNL     1      -6.778   5.892  -7.042  1.00  0.00     0.074 A 
ATOM     38  C   UNL     1      -6.682   4.454  -7.165  1.00  0.00     0.031 C 
ATOM     39  C   UNL     1      -4.363   7.036  -1.212  1.00  0.00     0.029 A 
ATOM     40  C   UNL     1      -4.882   8.007  -2.174  1.00  0.00     0.049 A 
ATOM     41  H   UNL     1      -5.735   7.606  -4.031  1.00  0.00     0.167 HD
ATOM     42  C   UNL     1      -7.297   6.704  -7.994  1.00  0.00     0.037 A 
ATOM     43  C   UNL     1      -4.896   9.346  -2.009  1.00  0.00     0.037 A 
ATOM     44  C   UNL     1      -7.445   8.129  -7.861  1.00  0.00     0.049 A 
ATOM     45  C   UNL     1      -5.457  10.227  -3.098  1.00  0.00     0.074 A 
ATOM     46  C   UNL     1      -8.031   9.019  -8.745  1.00  0.00     0.029 A 
ATOM     47  N   UNL     1      -7.006   8.873  -6.778  1.00  0.00    -0.354 N 
ATOM     48  N   UNL     1      -5.993   9.890  -4.245  1.00  0.00    -0.248 NA
ATOM     49  C   UNL     1      -5.413  11.681  -2.867  1.00  0.00     0.031 C 
ATOM     50  C   UNL     1      -7.898  10.309  -8.223  1.00  0.00     0.029 A 
ATOM     51  C   UNL     1      -7.277  10.216  -6.988  1.00  0.00     0.049 A 
ATOM     52  H   UNL     1      -6.566   8.504  -5.979  1.00  0.00     0.167 HD
ATOM     53  C   UNL     1      -6.371  11.081  -4.856  1.00  0.00     0.074 A 
ATOM     54  C   UNL     1      -6.028  12.149  -3.944  1.00  0.00     0.031 C 
ATOM     55  C   UNL     1      -6.945  11.273  -6.069  1.00  0.00     0.037 A 
BRANCH  42  56
ATOM     56  C   UNL     1      -7.751   6.077  -9.279  1.00  0.00     0.064 A 
ATOM     57  C   UNL     1      -8.907   5.285  -9.346  1.00  0.00     0.173 A 
ATOM     58  C   UNL     1      -7.058   6.330 -10.473  1.00  0.00     0.173 A 
ATOM     59  F   UNL     1      -9.599   5.005  -8.231  1.00  0.00    -0.203 F 
ATOM     60  C   UNL     1      -9.341   4.754 -10.557  1.00  0.00     0.198 A 
ATOM     61  C   UNL     1      -7.513   5.823 -11.687  1.00  0.00     0.198 A 
ATOM     62  F   UNL     1      -5.951   7.088 -10.465  1.00  0.00    -0.203 F 
ATOM     63  F   UNL     1     -10.427   3.968 -10.591  1.00  0.00    -0.200 F 
ATOM     64  C   UNL     1      -8.650   5.031 -11.727  1.00  0.00     0.200 A 
ATOM     65  F   UNL     1      -6.852   6.105 -12.819  1.00  0.00    -0.200 F 
ATOM     66  F   UNL     1      -9.079   4.533 -12.895  1.00  0.00    -0.200 F 
ENDBRANCH  42  56
BRANCH  43  67
ATOM     67  C   UNL     1      -4.340   9.962  -0.771  1.00  0.00     0.064 A 
ATOM     68  C   UNL     1      -5.165  10.661   0.123  1.00  0.00     0.173 A 
ATOM     69  C   UNL     1      -2.966   9.927  -0.495  1.00  0.00     0.173 A 
ATOM     70  F   UNL     1      -6.482  10.749  -0.112  1.00  0.00    -0.203 F 
ATOM     71  C   UNL     1      -4.631  11.333   1.222  1.00  0.00     0.198 A 
ATOM     72  C   UNL     1      -2.438  10.570   0.623  1.00  0.00     0.198 A 
ATOM     73  F   UNL     1      -2.131   9.274  -1.317  1.00  0.00    -0.203 F 
ATOM     74  F   UNL     1      -5.433  12.054   2.017  1.00  0.00    -0.200 F 
ATOM     75  C   UNL     1      -3.269  11.285   1.472  1.00  0.00     0.200 A 
ATOM     76  F   UNL     1      -1.122  10.511   0.868  1.00  0.00    -0.200 F 
ATOM     77  F   UNL     1      -2.755  11.940   2.522  1.00  0.00    -0.200 F 
ENDBRANCH  43  67
BRANCH  55  78
ATOM     78  C   UNL     1      -7.266  12.683  -6.475  1.00  0.00     0.064 A 
ATOM     79  C   UNL     1      -6.257  13.600  -6.810  1.00  0.00     0.173 A 
ATOM     80  C   UNL     1      -8.599  13.109  -6.582  1.00  0.00     0.173 A 
ATOM     81  F   UNL     1      -4.966  13.248  -6.711  1.00  0.00    -0.203 F 
ATOM     82  C   UNL     1      -6.571  14.895  -7.214  1.00  0.00     0.198 A 
ATOM     83  C   UNL     1      -8.910  14.395  -7.018  1.00  0.00     0.198 A 
ATOM     84  F   UNL     1      -9.603  12.271  -6.282  1.00  0.00    -0.203 F 
ATOM     85  F   UNL     1      -5.589  15.766  -7.485  1.00  0.00    -0.200 F 
ATOM     86  C   UNL     1      -7.896  15.288  -7.327  1.00  0.00     0.200 A 
ATOM     87  F   UNL     1     -10.191  14.767  -7.142  1.00  0.00    -0.200 F 
ATOM     88  F   UNL     1      -8.196  16.531  -7.729  1.00  0.00    -0.200 F 
ENDBRANCH  55  78
ENDBRANCH  29  30
ENDBRANCH  22  24
ENDBRANCH  21  22
ENDBRANCH  20  21
ENDBRANCH  19  20
ENDBRANCH  18  19
ENDBRANCH   1  18
TORSDOF 17
