REMARK SMILES C[C@@](NC(=O)CN1CSCC1=O)(C(=O)OCCOCCOC(=O)c1ccc(-c2c3nc(c(-c4c(F)c(F)c(F)c(F)c4F)c4ccc([nH]4)c(-c4c(F)c(F)c(F)c(F)c4F)c4nc(c(-c5c(F)c(F)c(F)c(F)c5F)c5ccc2[nH]5)C=C4)C=C3)cc1)C(F)(F)F
REMARK SMILES IDX 17 1 16 2 15 3 13 4 14 5 2 6 1 7 3 8 4 9 5 11 6 12 7 13 8 14
REMARK SMILES IDX 11 15 9 16 10 17 12 18 87 19 88 20 89 21 90 22 18 23 19 24
REMARK SMILES IDX 20 25 21 26 22 27 23 28 24 29 25 30 86 31 26 32 85 33 27 34
REMARK SMILES IDX 28 35 29 36 79 37 30 38 84 39 78 40 80 41 31 42 83 43 77 44
REMARK SMILES IDX 76 45 32 47 64 48 44 49 63 50 45 51 48 52 62 53 81 54 46 55
REMARK SMILES IDX 47 56 61 58 82 59 49 60 33 61 34 62 42 63 35 64 36 65 40 66
REMARK SMILES IDX 43 67 37 68 38 69 41 70 39 71 65 72 66 73 74 74 67 75 68 76
REMARK SMILES IDX 72 77 75 78 69 79 70 80 73 81 71 82 50 83 51 84 59 85 52 86
REMARK SMILES IDX 53 87 57 88 60 89 54 90 55 91 58 92 56 93
REMARK H PARENT 3 10 80 46 48 57
REMARK Flexibility Score: inf
ROOT
ATOM      1  C   UNL     1      -3.800  -0.678  -0.743  1.00  0.00     0.202 C 
ENDROOT
BRANCH   1   2
ATOM      2  C   UNL     1      -3.069  -1.959  -0.350  1.00  0.00     0.261 C 
BRANCH   2   3
ATOM      3  O   UNL     1      -1.659  -1.683  -0.194  1.00  0.00    -0.461 OA
BRANCH   3   4
ATOM      4  C   UNL     1      -0.819  -2.717  -0.480  1.00  0.00     0.341 C 
ATOM      5  O   UNL     1      -1.216  -3.841  -0.757  1.00  0.00    -0.249 OA
BRANCH   4   6
ATOM      6  C   UNL     1       0.639  -2.357  -0.190  1.00  0.00     0.231 C 
ATOM      7  C   UNL     1       0.999  -0.856  -0.216  1.00  0.00     0.058 C 
BRANCH   6   8
ATOM      8  N   UNL     1       1.097  -2.960   1.107  1.00  0.00    -0.332 N 
ATOM      9  C   UNL     1       0.626  -2.841   2.383  1.00  0.00     0.240 C 
ATOM     10  H   UNL     1       1.881  -3.550   1.021  1.00  0.00     0.165 HD
ATOM     11  O   UNL     1       1.465  -2.898   3.286  1.00  0.00    -0.273 OA
BRANCH   9  12
ATOM     12  C   UNL     1      -0.859  -2.625   2.710  1.00  0.00     0.220 C 
BRANCH  12  13
ATOM     13  N   UNL     1      -1.242  -1.306   3.203  1.00  0.00    -0.323 N 
ATOM     14  C   UNL     1      -0.671  -0.102   2.674  1.00  0.00     0.190 C 
ATOM     15  C   UNL     1      -2.307  -1.141   4.073  1.00  0.00     0.233 C 
ATOM     16  S   UNL     1      -1.168   1.243   3.738  1.00  0.00    -0.130 SA
ATOM     17  C   UNL     1      -2.563   0.315   4.386  1.00  0.00     0.171 C 
ATOM     18  O   UNL     1      -3.010  -2.050   4.498  1.00  0.00    -0.274 OA
ENDBRANCH  12  13
ENDBRANCH   9  12
ENDBRANCH   6   8
BRANCH   6  19
ATOM     19  C   UNL     1       1.373  -2.974  -1.409  1.00  0.00     0.422 C 
ATOM     20  F   UNL     1       0.985  -2.388  -2.566  1.00  0.00    -0.168 F 
ATOM     21  F   UNL     1       2.713  -2.762  -1.294  1.00  0.00    -0.168 F 
ATOM     22  F   UNL     1       1.216  -4.305  -1.532  1.00  0.00    -0.168 F 
ENDBRANCH   6  19
ENDBRANCH   4   6
ENDBRANCH   3   4
ENDBRANCH   2   3
ENDBRANCH   1   2
BRANCH   1  23
ATOM     23  O   UNL     1      -3.528  -0.231  -2.072  1.00  0.00    -0.374 OA
BRANCH  23  24
ATOM     24  C   UNL     1      -2.252   0.356  -2.311  1.00  0.00     0.202 C 
BRANCH  24  25
ATOM     25  C   UNL     1      -2.112   1.840  -1.950  1.00  0.00     0.261 C 
BRANCH  25  26
ATOM     26  O   UNL     1      -2.456   2.143  -0.586  1.00  0.00    -0.460 OA
BRANCH  26  27
ATOM     27  C   UNL     1      -3.715   2.617  -0.433  1.00  0.00     0.338 C 
ATOM     28  O   UNL     1      -4.550   2.787  -1.320  1.00  0.00    -0.246 OA
BRANCH  27  29
ATOM     29  C   UNL     1      -4.050   2.819   0.988  1.00  0.00     0.060 A 
ATOM     30  C   UNL     1      -5.295   2.358   1.431  1.00  0.00     0.016 A 
ATOM     31  C   UNL     1      -3.227   3.550   1.846  1.00  0.00     0.016 A 
ATOM     32  C   UNL     1      -5.749   2.681   2.710  1.00  0.00     0.010 A 
ATOM     33  C   UNL     1      -3.679   3.862   3.137  1.00  0.00     0.010 A 
ATOM     34  C   UNL     1      -4.963   3.469   3.561  1.00  0.00    -0.014 A 
BRANCH  34  35
ATOM     35  C   UNL     1      -5.554   3.997   4.821  1.00  0.00     0.031 A 
ATOM     36  C   UNL     1      -5.975   5.441   4.888  1.00  0.00     0.074 A 
ATOM     37  C   UNL     1      -5.777   3.194   5.879  1.00  0.00     0.049 A 
ATOM     38  N   UNL     1      -6.584   6.084   5.853  1.00  0.00    -0.248 NA
ATOM     39  C   UNL     1      -5.685   6.269   3.706  1.00  0.00     0.031 C 
ATOM     40  C   UNL     1      -5.464   1.771   5.938  1.00  0.00     0.029 A 
ATOM     41  N   UNL     1      -6.317   3.462   7.113  1.00  0.00    -0.354 N 
ATOM     42  C   UNL     1      -6.780   7.375   5.381  1.00  0.00     0.074 A 
ATOM     43  C   UNL     1      -6.159   7.449   4.077  1.00  0.00     0.031 C 
ATOM     44  C   UNL     1      -5.761   1.298   7.159  1.00  0.00     0.029 A 
ATOM     45  C   UNL     1      -6.320   2.381   7.961  1.00  0.00     0.049 A 
ATOM     46  H   UNL     1      -6.669   4.346   7.366  1.00  0.00     0.167 HD
ATOM     47  C   UNL     1      -7.452   8.397   5.963  1.00  0.00     0.037 A 
ATOM     48  C   UNL     1      -6.739   2.268   9.235  1.00  0.00     0.037 A 
ATOM     49  C   UNL     1      -8.059   8.335   7.267  1.00  0.00     0.049 A 
ATOM     50  C   UNL     1      -7.414   3.442   9.892  1.00  0.00     0.074 A 
ATOM     51  C   UNL     1      -8.764   9.317   7.940  1.00  0.00     0.029 A 
ATOM     52  N   UNL     1      -8.021   7.228   8.102  1.00  0.00    -0.354 N 
ATOM     53  N   UNL     1      -7.653   4.636   9.408  1.00  0.00    -0.248 NA
ATOM     54  C   UNL     1      -7.916   3.237  11.258  1.00  0.00     0.031 C 
ATOM     55  C   UNL     1      -9.112   8.821   9.202  1.00  0.00     0.029 A 
ATOM     56  C   UNL     1      -8.672   7.511   9.293  1.00  0.00     0.049 A 
ATOM     57  H   UNL     1      -7.596   6.368   7.882  1.00  0.00     0.167 HD
ATOM     58  C   UNL     1      -8.363   5.312  10.392  1.00  0.00     0.074 A 
ATOM     59  C   UNL     1      -8.532   4.386  11.493  1.00  0.00     0.031 C 
ATOM     60  C   UNL     1      -8.835   6.583  10.383  1.00  0.00     0.037 A 
BRANCH  47  61
ATOM     61  C   UNL     1      -7.574   9.674   5.182  1.00  0.00     0.064 A 
ATOM     62  C   UNL     1      -8.386   9.756   4.040  1.00  0.00     0.173 A 
ATOM     63  C   UNL     1      -6.903  10.834   5.595  1.00  0.00     0.173 A 
ATOM     64  F   UNL     1      -9.038   8.671   3.595  1.00  0.00    -0.203 F 
ATOM     65  C   UNL     1      -8.501  10.946   3.326  1.00  0.00     0.198 A 
ATOM     66  C   UNL     1      -7.044  12.030   4.896  1.00  0.00     0.198 A 
ATOM     67  F   UNL     1      -6.117  10.810   6.681  1.00  0.00    -0.203 F 
ATOM     68  F   UNL     1      -9.245  10.988   2.212  1.00  0.00    -0.200 F 
ATOM     69  C   UNL     1      -7.837  12.084   3.759  1.00  0.00     0.200 A 
ATOM     70  F   UNL     1      -6.410  13.132   5.321  1.00  0.00    -0.200 F 
ATOM     71  F   UNL     1      -7.954  13.230   3.076  1.00  0.00    -0.200 F 
ENDBRANCH  47  61
BRANCH  48  72
ATOM     72  C   UNL     1      -6.561   0.987   9.967  1.00  0.00     0.064 A 
ATOM     73  C   UNL     1      -7.657   0.188  10.320  1.00  0.00     0.173 A 
ATOM     74  C   UNL     1      -5.285   0.552  10.358  1.00  0.00     0.173 A 
ATOM     75  F   UNL     1      -8.899   0.571   9.987  1.00  0.00    -0.203 F 
ATOM     76  C   UNL     1      -7.489  -0.977  11.066  1.00  0.00     0.198 A 
ATOM     77  C   UNL     1      -5.115  -0.628  11.079  1.00  0.00     0.198 A 
ATOM     78  F   UNL     1      -4.203   1.278  10.041  1.00  0.00    -0.203 F 
ATOM     79  F   UNL     1      -8.560  -1.688  11.442  1.00  0.00    -0.200 F 
ATOM     80  C   UNL     1      -6.218  -1.385  11.443  1.00  0.00     0.200 A 
ATOM     81  F   UNL     1      -3.885  -1.024  11.433  1.00  0.00    -0.200 F 
ATOM     82  F   UNL     1      -6.059  -2.501  12.167  1.00  0.00    -0.200 F 
ENDBRANCH  48  72
BRANCH  60  83
ATOM     83  C   UNL     1      -9.606   7.036  11.590  1.00  0.00     0.064 A 
ATOM     84  C   UNL     1      -8.983   7.238  12.831  1.00  0.00     0.173 A 
ATOM     85  C   UNL     1     -10.984   7.285  11.501  1.00  0.00     0.173 A 
ATOM     86  F   UNL     1      -7.670   7.001  12.973  1.00  0.00    -0.203 F 
ATOM     87  C   UNL     1      -9.717   7.633  13.946  1.00  0.00     0.198 A 
ATOM     88  C   UNL     1     -11.709   7.715  12.609  1.00  0.00     0.198 A 
ATOM     89  F   UNL     1     -11.629   7.117  10.336  1.00  0.00    -0.203 F 
ATOM     90  F   UNL     1      -9.111   7.758  15.135  1.00  0.00    -0.200 F 
ATOM     91  C   UNL     1     -11.078   7.877  13.833  1.00  0.00     0.200 A 
ATOM     92  F   UNL     1     -13.021   7.965  12.494  1.00  0.00    -0.200 F 
ATOM     93  F   UNL     1     -11.783   8.258  14.907  1.00  0.00    -0.200 F 
ENDBRANCH  60  83
ENDBRANCH  34  35
ENDBRANCH  27  29
ENDBRANCH  26  27
ENDBRANCH  25  26
ENDBRANCH  24  25
ENDBRANCH  23  24
ENDBRANCH   1  23
TORSDOF 18
