REMARK SMILES O=C(Cc1ccc(=O)n(C(F)F)c1)OCCOCCOC(=O)c1ccc(-c2c3nc(c(-c4c(F)c(F)c(F)c(F)c4F)c4ccc([nH]4)c(-c4c(F)c(F)c(F)c(F)c4F)c4nc(c(-c5c(F)c(F)c(F)c(F)c5F)c5ccc2[nH]5)C=C4)C=C3)cc1
REMARK SMILES IDX 17 1 16 2 15 3 14 4 2 5 1 6 3 7 4 8 5 9 13 10 6 11 9 12 7 13
REMARK SMILES IDX 8 14 10 15 11 16 12 17 18 18 19 19 20 20 21 21 22 22 23 23
REMARK SMILES IDX 24 24 85 25 25 26 84 27 26 28 27 29 28 30 78 31 29 32 83 33
REMARK SMILES IDX 77 34 79 35 30 36 82 37 76 38 75 39 31 41 63 42 43 43 62 44
REMARK SMILES IDX 44 45 47 46 61 47 80 48 45 49 46 50 60 52 81 53 48 54 32 55
REMARK SMILES IDX 33 56 41 57 34 58 35 59 39 60 42 61 36 62 37 63 40 64 38 65
REMARK SMILES IDX 64 66 65 67 73 68 66 69 67 70 71 71 74 72 68 73 69 74 72 75
REMARK SMILES IDX 70 76 49 77 50 78 58 79 51 80 52 81 56 82 59 83 53 84 54 85
REMARK SMILES IDX 57 86 55 87
REMARK H PARENT 79 40 47 51
REMARK Flexibility Score: inf
ROOT
ATOM      1  O   UNL     1       4.090  -0.648   1.789  1.00  0.00    -0.374 OA
ENDROOT
BRANCH   1   2
ATOM      2  C   UNL     1       4.853   0.305   1.068  1.00  0.00     0.202 C 
BRANCH   2   3
ATOM      3  C   UNL     1       4.343   0.746  -0.303  1.00  0.00     0.261 C 
BRANCH   3   4
ATOM      4  O   UNL     1       2.923   0.888  -0.443  1.00  0.00    -0.463 OA
BRANCH   4   5
ATOM      5  C   UNL     1       2.111  -0.077  -0.944  1.00  0.00     0.310 C 
ATOM      6  O   UNL     1       0.975   0.210  -1.316  1.00  0.00    -0.252 OA
BRANCH   5   7
ATOM      7  C   UNL     1       2.603  -1.514  -0.972  1.00  0.00     0.159 C 
BRANCH   7   8
ATOM      8  C   UNL     1       3.471  -1.968  -2.114  1.00  0.00    -0.020 A 
ATOM      9  C   UNL     1       3.961  -1.052  -3.125  1.00  0.00     0.011 A 
ATOM     10  C   UNL     1       3.847  -3.256  -2.187  1.00  0.00     0.099 A 
ATOM     11  C   UNL     1       4.879  -1.441  -4.018  1.00  0.00     0.072 A 
ATOM     12  N   UNL     1       4.726  -3.706  -3.155  1.00  0.00    -0.258 N 
ATOM     13  C   UNL     1       5.330  -2.857  -4.069  1.00  0.00     0.254 A 
ATOM     14  O   UNL     1       6.167  -3.174  -4.906  1.00  0.00    -0.269 OA
BRANCH  12  15
ATOM     15  C   UNL     1       4.978  -5.116  -3.305  1.00  0.00     0.451 C 
ATOM     16  F   UNL     1       4.408  -5.571  -4.449  1.00  0.00    -0.185 F 
ATOM     17  F   UNL     1       6.302  -5.394  -3.355  1.00  0.00    -0.185 F 
ENDBRANCH  12  15
ENDBRANCH   7   8
ENDBRANCH   5   7
ENDBRANCH   4   5
ENDBRANCH   3   4
ENDBRANCH   2   3
ENDBRANCH   1   2
BRANCH   1  18
ATOM     18  C   UNL     1       2.875  -0.212   2.407  1.00  0.00     0.202 C 
BRANCH  18  19
ATOM     19  C   UNL     1       2.995   0.780   3.567  1.00  0.00     0.261 C 
BRANCH  19  20
ATOM     20  O   UNL     1       3.287   2.104   3.091  1.00  0.00    -0.460 OA
BRANCH  20  21
ATOM     21  C   UNL     1       4.493   2.609   3.441  1.00  0.00     0.338 C 
ATOM     22  O   UNL     1       5.345   2.087   4.141  1.00  0.00    -0.246 OA
BRANCH  21  23
ATOM     23  C   UNL     1       4.734   3.817   2.633  1.00  0.00     0.060 A 
ATOM     24  C   UNL     1       3.808   4.860   2.624  1.00  0.00     0.016 A 
ATOM     25  C   UNL     1       5.917   3.899   1.885  1.00  0.00     0.016 A 
ATOM     26  C   UNL     1       4.085   6.008   1.883  1.00  0.00     0.010 A 
ATOM     27  C   UNL     1       6.189   5.045   1.141  1.00  0.00     0.010 A 
ATOM     28  C   UNL     1       5.285   6.115   1.157  1.00  0.00    -0.014 A 
BRANCH  28  29
ATOM     29  C   UNL     1       5.660   7.409   0.546  1.00  0.00     0.031 A 
ATOM     30  C   UNL     1       5.553   7.641  -0.926  1.00  0.00     0.074 A 
ATOM     31  C   UNL     1       6.113   8.377   1.362  1.00  0.00     0.049 A 
ATOM     32  N   UNL     1       5.789   8.736  -1.604  1.00  0.00    -0.248 NA
ATOM     33  C   UNL     1       5.134   6.497  -1.746  1.00  0.00     0.031 C 
ATOM     34  C   UNL     1       6.277   8.239   2.810  1.00  0.00     0.029 A 
ATOM     35  N   UNL     1       6.505   9.663   1.100  1.00  0.00    -0.354 N 
ATOM     36  C   UNL     1       5.523   8.424  -2.929  1.00  0.00     0.074 A 
ATOM     37  C   UNL     1       5.163   7.020  -2.965  1.00  0.00     0.031 C 
ATOM     38  C   UNL     1       6.701   9.406   3.314  1.00  0.00     0.029 A 
ATOM     39  C   UNL     1       6.870  10.361   2.223  1.00  0.00     0.049 A 
ATOM     40  H   UNL     1       6.522  10.048   0.194  1.00  0.00     0.167 HD
ATOM     41  C   UNL     1       5.556   9.246  -4.006  1.00  0.00     0.037 A 
ATOM     42  C   UNL     1       7.290  11.631   2.358  1.00  0.00     0.037 A 
ATOM     43  C   UNL     1       5.947  10.634  -3.955  1.00  0.00     0.049 A 
ATOM     44  C   UNL     1       7.380  12.501   1.138  1.00  0.00     0.074 A 
ATOM     45  C   UNL     1       6.000  11.555  -4.987  1.00  0.00     0.029 A 
ATOM     46  N   UNL     1       6.368  11.298  -2.809  1.00  0.00    -0.354 N 
ATOM     47  N   UNL     1       7.073  12.217  -0.104  1.00  0.00    -0.248 NA
ATOM     48  C   UNL     1       7.872  13.869   1.341  1.00  0.00     0.031 C 
ATOM     49  C   UNL     1       6.507  12.757  -4.478  1.00  0.00     0.029 A 
ATOM     50  C   UNL     1       6.714  12.607  -3.116  1.00  0.00     0.049 A 
ATOM     51  H   UNL     1       6.415  10.898  -1.911  1.00  0.00     0.167 HD
ATOM     52  C   UNL     1       7.323  13.372  -0.832  1.00  0.00     0.074 A 
ATOM     53  C   UNL     1       7.778  14.369   0.116  1.00  0.00     0.031 C 
ATOM     54  C   UNL     1       7.191  13.583  -2.166  1.00  0.00     0.037 A 
BRANCH  41  55
ATOM     55  C   UNL     1       5.163   8.661  -5.334  1.00  0.00     0.064 A 
ATOM     56  C   UNL     1       3.839   8.282  -5.603  1.00  0.00     0.173 A 
ATOM     57  C   UNL     1       6.106   8.514  -6.362  1.00  0.00     0.173 A 
ATOM     58  F   UNL     1       2.898   8.393  -4.653  1.00  0.00    -0.203 F 
ATOM     59  C   UNL     1       3.481   7.749  -6.840  1.00  0.00     0.198 A 
ATOM     60  C   UNL     1       5.738   8.011  -7.608  1.00  0.00     0.198 A 
ATOM     61  F   UNL     1       7.385   8.867  -6.163  1.00  0.00    -0.203 F 
ATOM     62  F   UNL     1       2.220   7.347  -7.054  1.00  0.00    -0.200 F 
ATOM     63  C   UNL     1       4.428   7.620  -7.843  1.00  0.00     0.200 A 
ATOM     64  F   UNL     1       6.653   7.900  -8.582  1.00  0.00    -0.200 F 
ATOM     65  F   UNL     1       4.081   7.114  -9.034  1.00  0.00    -0.200 F 
ENDBRANCH  41  55
BRANCH  42  66
ATOM     66  C   UNL     1       7.604  12.151   3.712  1.00  0.00     0.064 A 
ATOM     67  C   UNL     1       6.763  13.084   4.333  1.00  0.00     0.173 A 
ATOM     68  C   UNL     1       8.710  11.682   4.437  1.00  0.00     0.173 A 
ATOM     69  F   UNL     1       5.702  13.572   3.673  1.00  0.00    -0.203 F 
ATOM     70  C   UNL     1       7.015  13.529   5.628  1.00  0.00     0.198 A 
ATOM     71  C   UNL     1       8.945  12.107   5.742  1.00  0.00     0.198 A 
ATOM     72  F   UNL     1       9.539  10.783   3.889  1.00  0.00    -0.203 F 
ATOM     73  F   UNL     1       6.207  14.437   6.191  1.00  0.00    -0.200 F 
ATOM     74  C   UNL     1       8.100  13.031   6.336  1.00  0.00     0.200 A 
ATOM     75  F   UNL     1       9.982  11.609   6.429  1.00  0.00    -0.200 F 
ATOM     76  F   UNL     1       8.328  13.442   7.591  1.00  0.00    -0.200 F 
ENDBRANCH  42  66
BRANCH  54  77
ATOM     77  C   UNL     1       7.557  14.948  -2.679  1.00  0.00     0.064 A 
ATOM     78  C   UNL     1       8.888  15.393  -2.696  1.00  0.00     0.173 A 
ATOM     79  C   UNL     1       6.573  15.811  -3.185  1.00  0.00     0.173 A 
ATOM     80  F   UNL     1       9.866  14.614  -2.209  1.00  0.00    -0.203 F 
ATOM     81  C   UNL     1       9.215  16.661  -3.169  1.00  0.00     0.198 A 
ATOM     82  C   UNL     1       6.908  17.064  -3.691  1.00  0.00     0.198 A 
ATOM     83  F   UNL     1       5.285  15.436  -3.200  1.00  0.00    -0.203 F 
ATOM     84  F   UNL     1      10.486  17.084  -3.120  1.00  0.00    -0.200 F 
ATOM     85  C   UNL     1       8.227  17.492  -3.674  1.00  0.00     0.200 A 
ATOM     86  F   UNL     1       5.954  17.860  -4.193  1.00  0.00    -0.200 F 
ATOM     87  F   UNL     1       8.544  18.710  -4.135  1.00  0.00    -0.200 F 
ENDBRANCH  54  77
ENDBRANCH  28  29
ENDBRANCH  21  23
ENDBRANCH  20  21
ENDBRANCH  19  20
ENDBRANCH  18  19
ENDBRANCH   1  18
TORSDOF 16
