REMARK SMILES C[C@@H](C(=O)OCCOCCOC(=O)c1ccc(-c2c3nc(c(-c4c(F)c(F)c(F)c(F)c4F)c4ccc([nH]4)c(-c4c(F)c(F)c(F)c(F)c4F)c4nc(c(-c5c(F)c(F)c(F)c(F)c5F)c5ccc2[nH]5)C=C4)C=C3)cc1)c1ccc(-c2ccc3[nH]ccc3c2)cc1
REMARK SMILES IDX 8 1 7 2 6 3 5 4 3 5 4 6 2 7 1 8 77 9 78 10 91 11 79 12 90 13
REMARK SMILES IDX 80 14 81 15 82 16 89 17 83 18 88 19 84 20 87 21 85 22 86 23
REMARK SMILES IDX 9 25 10 26 11 27 12 28 13 29 14 30 15 31 76 32 16 33 75 34
REMARK SMILES IDX 17 35 18 36 19 37 69 38 20 39 74 40 68 41 70 42 21 43 73 44
REMARK SMILES IDX 67 45 66 46 22 48 54 49 34 50 53 51 35 52 38 53 52 54 71 55
REMARK SMILES IDX 36 56 37 57 51 59 72 60 39 61 23 62 24 63 32 64 25 65 26 66
REMARK SMILES IDX 30 67 33 68 27 69 28 70 31 71 29 72 55 73 56 74 64 75 57 76
REMARK SMILES IDX 58 77 62 78 65 79 59 80 60 81 63 82 61 83 40 84 41 85 49 86
REMARK SMILES IDX 42 87 43 88 47 89 50 90 44 91 45 92 48 93 46 94
REMARK H PARENT 85 24 70 47 38 58
REMARK Flexibility Score: inf
ROOT
ATOM      1  O   UNL     1       0.780  -0.346  -4.622  1.00  0.00    -0.374 OA
ENDROOT
BRANCH   1   2
ATOM      2  C   UNL     1       2.039   0.327  -4.580  1.00  0.00     0.202 C 
BRANCH   2   3
ATOM      3  C   UNL     1       2.076   1.632  -3.781  1.00  0.00     0.261 C 
BRANCH   3   4
ATOM      4  O   UNL     1       1.849   1.375  -2.384  1.00  0.00    -0.463 OA
BRANCH   4   5
ATOM      5  C   UNL     1       1.026   2.259  -1.754  1.00  0.00     0.313 C 
ATOM      6  O   UNL     1       0.672   3.329  -2.239  1.00  0.00    -0.252 OA
BRANCH   5   7
ATOM      7  C   UNL     1       0.548   1.755  -0.385  1.00  0.00     0.126 C 
ATOM      8  C   UNL     1       1.352   0.567   0.156  1.00  0.00     0.025 C 
BRANCH   7   9
ATOM      9  C   UNL     1      -0.968   1.559  -0.380  1.00  0.00    -0.034 A 
ATOM     10  C   UNL     1      -1.785   2.701  -0.403  1.00  0.00     0.005 A 
ATOM     11  C   UNL     1      -1.597   0.305  -0.402  1.00  0.00     0.005 A 
ATOM     12  C   UNL     1      -3.175   2.596  -0.472  1.00  0.00     0.009 A 
ATOM     13  C   UNL     1      -2.996   0.201  -0.467  1.00  0.00     0.009 A 
ATOM     14  C   UNL     1      -3.801   1.345  -0.515  1.00  0.00    -0.018 A 
BRANCH  14  15
ATOM     15  C   UNL     1      -5.261   1.265  -0.630  1.00  0.00    -0.018 A 
ATOM     16  C   UNL     1      -5.883   1.488  -1.868  1.00  0.00     0.011 A 
ATOM     17  C   UNL     1      -6.059   1.032   0.505  1.00  0.00     0.019 A 
ATOM     18  C   UNL     1      -7.277   1.502  -2.005  1.00  0.00     0.027 A 
ATOM     19  C   UNL     1      -7.465   1.058   0.396  1.00  0.00    -0.000 A 
ATOM     20  C   UNL     1      -8.039   1.295  -0.852  1.00  0.00     0.045 A 
ATOM     21  C   UNL     1      -8.532   0.907   1.325  1.00  0.00     0.028 A 
ATOM     22  N   UNL     1      -9.405   1.286  -0.679  1.00  0.00    -0.361 N 
ATOM     23  C   UNL     1      -9.714   1.060   0.636  1.00  0.00     0.083 A 
ATOM     24  H   UNL     1     -10.064   1.423  -1.398  1.00  0.00     0.166 HD
ENDBRANCH  14  15
ENDBRANCH   7   9
ENDBRANCH   5   7
ENDBRANCH   4   5
ENDBRANCH   3   4
ENDBRANCH   2   3
ENDBRANCH   1   2
BRANCH   1  25
ATOM     25  C   UNL     1       0.336  -0.988  -3.426  1.00  0.00     0.202 C 
BRANCH  25  26
ATOM     26  C   UNL     1       1.018  -2.318  -3.080  1.00  0.00     0.261 C 
BRANCH  26  27
ATOM     27  O   UNL     1       2.424  -2.163  -2.806  1.00  0.00    -0.460 OA
BRANCH  27  28
ATOM     28  C   UNL     1       3.243  -2.806  -3.671  1.00  0.00     0.338 C 
ATOM     29  O   UNL     1       2.920  -3.559  -4.581  1.00  0.00    -0.246 OA
BRANCH  28  30
ATOM     30  C   UNL     1       4.636  -2.360  -3.495  1.00  0.00     0.060 A 
ATOM     31  C   UNL     1       5.297  -1.850  -4.621  1.00  0.00     0.016 A 
ATOM     32  C   UNL     1       5.319  -2.531  -2.289  1.00  0.00     0.016 A 
ATOM     33  C   UNL     1       6.657  -1.557  -4.560  1.00  0.00     0.010 A 
ATOM     34  C   UNL     1       6.689  -2.245  -2.233  1.00  0.00     0.010 A 
ATOM     35  C   UNL     1       7.371  -1.792  -3.377  1.00  0.00    -0.014 A 
BRANCH  35  36
ATOM     36  C   UNL     1       8.852  -1.704  -3.394  1.00  0.00     0.031 A 
ATOM     37  C   UNL     1       9.657  -2.963  -3.568  1.00  0.00     0.074 A 
ATOM     38  C   UNL     1       9.474  -0.516  -3.302  1.00  0.00     0.049 A 
ATOM     39  N   UNL     1      10.956  -3.122  -3.607  1.00  0.00    -0.248 NA
ATOM     40  C   UNL     1       8.894  -4.212  -3.719  1.00  0.00     0.031 C 
ATOM     41  C   UNL     1       8.806   0.777  -3.172  1.00  0.00     0.029 A 
ATOM     42  N   UNL     1      10.812  -0.208  -3.302  1.00  0.00    -0.354 N 
ATOM     43  C   UNL     1      11.165  -4.483  -3.787  1.00  0.00     0.074 A 
ATOM     44  C   UNL     1       9.862  -5.111  -3.819  1.00  0.00     0.031 C 
ATOM     45  C   UNL     1       9.739   1.742  -3.095  1.00  0.00     0.029 A 
ATOM     46  C   UNL     1      11.067   1.132  -3.145  1.00  0.00     0.049 A 
ATOM     47  H   UNL     1      11.521  -0.883  -3.405  1.00  0.00     0.167 HD
ATOM     48  C   UNL     1      12.337  -5.148  -3.923  1.00  0.00     0.037 A 
ATOM     49  C   UNL     1      12.239   1.786  -3.037  1.00  0.00     0.037 A 
ATOM     50  C   UNL     1      13.634  -4.525  -3.893  1.00  0.00     0.049 A 
ATOM     51  C   UNL     1      13.531   1.015  -3.124  1.00  0.00     0.074 A 
ATOM     52  C   UNL     1      14.879  -5.113  -4.039  1.00  0.00     0.029 A 
ATOM     53  N   UNL     1      13.853  -3.170  -3.696  1.00  0.00    -0.354 N 
ATOM     54  N   UNL     1      13.718  -0.268  -3.319  1.00  0.00    -0.248 NA
ATOM     55  C   UNL     1      14.775   1.786  -2.979  1.00  0.00     0.031 C 
ATOM     56  C   UNL     1      15.852  -4.120  -3.886  1.00  0.00     0.029 A 
ATOM     57  C   UNL     1      15.213  -2.906  -3.692  1.00  0.00     0.049 A 
ATOM     58  H   UNL     1      13.146  -2.495  -3.577  1.00  0.00     0.167 HD
ATOM     59  C   UNL     1      15.095  -0.454  -3.345  1.00  0.00     0.074 A 
ATOM     60  C   UNL     1      15.696   0.850  -3.159  1.00  0.00     0.031 C 
ATOM     61  C   UNL     1      15.797  -1.602  -3.511  1.00  0.00     0.037 A 
BRANCH  48  62
ATOM     62  C   UNL     1      12.271  -6.636  -4.097  1.00  0.00     0.064 A 
ATOM     63  C   UNL     1      11.837  -7.218  -5.298  1.00  0.00     0.173 A 
ATOM     64  C   UNL     1      12.679  -7.490  -3.062  1.00  0.00     0.173 A 
ATOM     65  F   UNL     1      11.424  -6.443  -6.312  1.00  0.00    -0.203 F 
ATOM     66  C   UNL     1      11.794  -8.601  -5.447  1.00  0.00     0.198 A 
ATOM     67  C   UNL     1      12.658  -8.873  -3.224  1.00  0.00     0.198 A 
ATOM     68  F   UNL     1      13.106  -6.984  -1.896  1.00  0.00    -0.203 F 
ATOM     69  F   UNL     1      11.338  -9.136  -6.588  1.00  0.00    -0.200 F 
ATOM     70  C   UNL     1      12.210  -9.427  -4.414  1.00  0.00     0.200 A 
ATOM     71  F   UNL     1      13.070  -9.669  -2.228  1.00  0.00    -0.200 F 
ATOM     72  F   UNL     1      12.173 -10.759  -4.562  1.00  0.00    -0.200 F 
ENDBRANCH  48  62
BRANCH  49  73
ATOM     73  C   UNL     1      12.249   3.256  -2.824  1.00  0.00     0.064 A 
ATOM     74  C   UNL     1      12.698   4.131  -3.822  1.00  0.00     0.173 A 
ATOM     75  C   UNL     1      11.825   3.814  -1.608  1.00  0.00     0.173 A 
ATOM     76  F   UNL     1      13.139   3.642  -4.991  1.00  0.00    -0.203 F 
ATOM     77  C   UNL     1      12.737   5.507  -3.608  1.00  0.00     0.198 A 
ATOM     78  C   UNL     1      11.840   5.192  -1.405  1.00  0.00     0.198 A 
ATOM     79  F   UNL     1      11.391   3.019  -0.620  1.00  0.00    -0.203 F 
ATOM     80  F   UNL     1      13.211   6.318  -4.564  1.00  0.00    -0.200 F 
ATOM     81  C   UNL     1      12.302   6.037  -2.402  1.00  0.00     0.200 A 
ATOM     82  F   UNL     1      11.411   5.700  -0.242  1.00  0.00    -0.200 F 
ATOM     83  F   UNL     1      12.337   7.361  -2.198  1.00  0.00    -0.200 F 
ENDBRANCH  49  73
BRANCH  61  84
ATOM     84  C   UNL     1      17.294  -1.499  -3.530  1.00  0.00     0.064 A 
ATOM     85  C   UNL     1      18.028  -1.262  -2.359  1.00  0.00     0.173 A 
ATOM     86  C   UNL     1      18.004  -1.682  -4.726  1.00  0.00     0.173 A 
ATOM     87  F   UNL     1      17.395  -1.066  -1.193  1.00  0.00    -0.203 F 
ATOM     88  C   UNL     1      19.419  -1.192  -2.389  1.00  0.00     0.198 A 
ATOM     89  C   UNL     1      19.395  -1.638  -4.748  1.00  0.00     0.198 A 
ATOM     90  F   UNL     1      17.348  -1.918  -5.872  1.00  0.00    -0.203 F 
ATOM     91  F   UNL     1      20.099  -0.924  -1.266  1.00  0.00    -0.200 F 
ATOM     92  C   UNL     1      20.101  -1.387  -3.581  1.00  0.00     0.200 A 
ATOM     93  F   UNL     1      20.053  -1.838  -5.898  1.00  0.00    -0.200 F 
ATOM     94  F   UNL     1      21.439  -1.326  -3.607  1.00  0.00    -0.200 F 
ENDBRANCH  61  84
ENDBRANCH  35  36
ENDBRANCH  28  30
ENDBRANCH  27  28
ENDBRANCH  26  27
ENDBRANCH  25  26
ENDBRANCH   1  25
TORSDOF 16
