REMARK SMILES CC(=O)N[C@@H](CCS[C@@H](C)[C@@H](C)O)C(=O)OCCOCCOC(=O)c1ccc(-c2c3nc(c(-c4c(F)c(F)c(F)c(F)c4F)c4ccc([nH]4)c(-c4c(F)c(F)c(F)c(F)c4F)c4nc(c(-c5c(F)c(F)c(F)c(F)c5F)c5ccc2[nH]5)C=C4)C=C3)cc1
REMARK SMILES IDX 17 1 16 2 14 3 15 4 5 5 4 6 1 7 2 8 3 9 6 11 7 12 8 13 9 14
REMARK SMILES IDX 10 15 11 16 12 17 13 18 18 20 19 21 20 22 21 23 22 24 23 25
REMARK SMILES IDX 24 26 25 27 26 28 87 29 27 30 86 31 28 32 29 33 30 34 80 35
REMARK SMILES IDX 31 36 85 37 79 38 81 39 32 40 84 41 78 42 77 43 33 45 65 46
REMARK SMILES IDX 45 47 64 48 46 49 49 50 63 51 82 52 47 53 48 54 62 56 83 57
REMARK SMILES IDX 50 58 34 59 35 60 43 61 36 62 37 63 41 64 44 65 38 66 39 67
REMARK SMILES IDX 42 68 40 69 66 70 67 71 75 72 68 73 69 74 73 75 76 76 70 77
REMARK SMILES IDX 71 78 74 79 72 80 51 81 52 82 60 83 53 84 54 85 58 86 61 87
REMARK SMILES IDX 55 88 56 89 59 90 57 91
REMARK H PARENT 4 10 13 19 81 44 49 55
REMARK Flexibility Score: inf
ROOT
ATOM      1  C   UNL     1       1.044  -6.210   1.737  1.00  0.00     0.261 C 
ENDROOT
BRANCH   1   2
ATOM      2  O   UNL     1       1.531  -4.846   2.061  1.00  0.00    -0.462 OA
BRANCH   2   3
ATOM      3  C   UNL     1       2.814  -4.391   1.819  1.00  0.00     0.328 C 
ATOM      4  O   UNL     1       3.728  -5.147   1.498  1.00  0.00    -0.250 OA
BRANCH   3   5
ATOM      5  C   UNL     1       3.086  -2.723   2.000  1.00  0.00     0.193 C 
BRANCH   5   6
ATOM      6  N   UNL     1       2.115  -1.571   2.107  1.00  0.00    -0.343 N 
ATOM      7  C   UNL     1       1.963  -0.441  -0.118  1.00  0.00     0.114 C 
ATOM      8  C   UNL     1       1.634  -0.567   1.335  1.00  0.00     0.217 C 
ATOM      9  O   UNL     1       0.810   0.185   1.865  1.00  0.00    -0.275 OA
ATOM     10  H   UNL     1       1.711  -1.541   3.005  1.00  0.00     0.164 HD
ENDBRANCH   5   6
BRANCH   5  11
ATOM     11  C   UNL     1       3.963  -2.497   3.246  1.00  0.00     0.048 C 
BRANCH  11  12
ATOM     12  C   UNL     1       3.163  -2.383   4.559  1.00  0.00     0.072 C 
BRANCH  12  13
ATOM     13  S   UNL     1       2.015  -3.764   4.775  1.00  0.00    -0.156 SA
BRANCH  13  14
ATOM     14  C   UNL     1       0.384  -3.237   4.032  1.00  0.00     0.072 C 
ATOM     15  C   UNL     1      -0.285  -2.227   4.983  1.00  0.00     0.022 C 
BRANCH  14  16
ATOM     16  C   UNL     1      -0.251  -2.945   2.590  1.00  0.00     0.124 C 
ATOM     17  C   UNL     1       0.153  -3.000   1.073  1.00  0.00     0.039 C 
BRANCH  16  18
ATOM     18  O   UNL     1      -1.388  -3.779   2.730  1.00  0.00    -0.392 OA
ATOM     19  H   UNL     1      -1.110  -4.708   2.720  1.00  0.00     0.210 HD
ENDBRANCH  16  18
ENDBRANCH  14  16
ENDBRANCH  13  14
ENDBRANCH  12  13
ENDBRANCH  11  12
ENDBRANCH   5  11
ENDBRANCH   3   5
ENDBRANCH   2   3
ENDBRANCH   1   2
BRANCH   1  20
ATOM     20  C   UNL     1      -0.562  -6.349   1.550  1.00  0.00     0.202 C 
BRANCH  20  21
ATOM     21  O   UNL     1      -1.038  -5.460   0.521  1.00  0.00    -0.374 OA
BRANCH  21  22
ATOM     22  C   UNL     1      -2.405  -5.131   0.132  1.00  0.00     0.202 C 
BRANCH  22  23
ATOM     23  C   UNL     1      -3.084  -3.739   0.576  1.00  0.00     0.261 C 
BRANCH  23  24
ATOM     24  O   UNL     1      -3.558  -3.565   1.936  1.00  0.00    -0.460 OA
BRANCH  24  25
ATOM     25  C   UNL     1      -4.152  -4.614   2.521  1.00  0.00     0.338 C 
ATOM     26  O   UNL     1      -4.664  -5.544   1.905  1.00  0.00    -0.246 OA
BRANCH  25  27
ATOM     27  C   UNL     1      -3.961  -4.656   4.004  1.00  0.00     0.060 A 
ATOM     28  C   UNL     1      -3.836  -5.940   4.547  1.00  0.00     0.016 A 
ATOM     29  C   UNL     1      -3.929  -3.554   4.870  1.00  0.00     0.016 A 
ATOM     30  C   UNL     1      -3.809  -6.144   5.927  1.00  0.00     0.010 A 
ATOM     31  C   UNL     1      -3.880  -3.759   6.270  1.00  0.00     0.010 A 
ATOM     32  C   UNL     1      -3.891  -5.061   6.811  1.00  0.00    -0.014 A 
BRANCH  32  33
ATOM     33  C   UNL     1      -4.205  -5.349   8.247  1.00  0.00     0.031 A 
ATOM     34  C   UNL     1      -5.607  -5.102   8.755  1.00  0.00     0.074 A 
ATOM     35  C   UNL     1      -3.324  -5.960   9.066  1.00  0.00     0.049 A 
ATOM     36  N   UNL     1      -6.140  -5.383   9.921  1.00  0.00    -0.248 NA
ATOM     37  C   UNL     1      -6.538  -4.456   7.817  1.00  0.00     0.031 C 
ATOM     38  C   UNL     1      -1.950  -6.313   8.721  1.00  0.00     0.029 A 
ATOM     39  N   UNL     1      -3.469  -6.412  10.360  1.00  0.00    -0.354 N 
ATOM     40  C   UNL     1      -7.458  -4.949   9.853  1.00  0.00     0.074 A 
ATOM     41  C   UNL     1      -7.633  -4.341   8.552  1.00  0.00     0.031 C 
ATOM     42  C   UNL     1      -1.381  -6.937   9.769  1.00  0.00     0.029 A 
ATOM     43  C   UNL     1      -2.341  -7.009  10.871  1.00  0.00     0.049 A 
ATOM     44  H   UNL     1      -4.305  -6.317  10.872  1.00  0.00     0.167 HD
ATOM     45  C   UNL     1      -8.448  -5.060  10.773  1.00  0.00     0.037 A 
ATOM     46  C   UNL     1      -2.103  -7.546  12.087  1.00  0.00     0.037 A 
ATOM     47  C   UNL     1      -8.303  -5.670  12.069  1.00  0.00     0.049 A 
ATOM     48  C   UNL     1      -3.200  -7.590  13.125  1.00  0.00     0.074 A 
ATOM     49  C   UNL     1      -9.261  -5.838  13.055  1.00  0.00     0.029 A 
ATOM     50  N   UNL     1      -7.125  -6.207  12.565  1.00  0.00    -0.354 N 
ATOM     51  N   UNL     1      -4.449  -7.206  13.034  1.00  0.00    -0.248 NA
ATOM     52  C   UNL     1      -2.849  -8.158  14.438  1.00  0.00     0.031 C 
ATOM     53  C   UNL     1      -8.650  -6.420  14.170  1.00  0.00     0.029 A 
ATOM     54  C   UNL     1      -7.327  -6.680  13.854  1.00  0.00     0.049 A 
ATOM     55  H   UNL     1      -6.272  -6.247  12.076  1.00  0.00     0.167 HD
ATOM     56  C   UNL     1      -5.038  -7.519  14.255  1.00  0.00     0.074 A 
ATOM     57  C   UNL     1      -4.015  -8.138  15.067  1.00  0.00     0.031 C 
ATOM     58  C   UNL     1      -6.316  -7.311  14.662  1.00  0.00     0.037 A 
BRANCH  45  59
ATOM     59  C   UNL     1      -9.789  -4.484  10.417  1.00  0.00     0.064 A 
ATOM     60  C   UNL     1     -10.611  -5.069   9.441  1.00  0.00     0.173 A 
ATOM     61  C   UNL     1     -10.273  -3.350  11.087  1.00  0.00     0.173 A 
ATOM     62  F   UNL     1     -10.191  -6.148   8.763  1.00  0.00    -0.203 F 
ATOM     63  C   UNL     1     -11.852  -4.521   9.127  1.00  0.00     0.198 A 
ATOM     64  C   UNL     1     -11.529  -2.825  10.795  1.00  0.00     0.198 A 
ATOM     65  F   UNL     1      -9.532  -2.756  12.035  1.00  0.00    -0.203 F 
ATOM     66  F   UNL     1     -12.595  -5.064   8.154  1.00  0.00    -0.200 F 
ATOM     67  C   UNL     1     -12.313  -3.405   9.809  1.00  0.00     0.200 A 
ATOM     68  F   UNL     1     -11.980  -1.757  11.467  1.00  0.00    -0.200 F 
ATOM     69  F   UNL     1     -13.511  -2.884   9.512  1.00  0.00    -0.200 F 
ENDBRANCH  45  59
BRANCH  46  70
ATOM     70  C   UNL     1      -0.755  -8.090  12.414  1.00  0.00     0.064 A 
ATOM     71  C   UNL     1      -0.559  -9.457  12.660  1.00  0.00     0.173 A 
ATOM     72  C   UNL     1       0.354  -7.241  12.548  1.00  0.00     0.173 A 
ATOM     73  F   UNL     1      -1.594 -10.307  12.582  1.00  0.00    -0.203 F 
ATOM     74  C   UNL     1       0.685  -9.949  13.052  1.00  0.00     0.198 A 
ATOM     75  C   UNL     1       1.605  -7.739  12.907  1.00  0.00     0.198 A 
ATOM     76  F   UNL     1       0.220  -5.924  12.337  1.00  0.00    -0.203 F 
ATOM     77  F   UNL     1       0.828 -11.249  13.345  1.00  0.00    -0.200 F 
ATOM     78  C   UNL     1       1.768  -9.090  13.170  1.00  0.00     0.200 A 
ATOM     79  F   UNL     1       2.649  -6.906  13.014  1.00  0.00    -0.200 F 
ATOM     80  F   UNL     1       2.962  -9.562  13.552  1.00  0.00    -0.200 F 
ENDBRANCH  46  70
BRANCH  58  81
ATOM     81  C   UNL     1      -6.706  -7.805  16.029  1.00  0.00     0.064 A 
ATOM     82  C   UNL     1      -6.210  -7.219  17.203  1.00  0.00     0.173 A 
ATOM     83  C   UNL     1      -7.619  -8.864  16.166  1.00  0.00     0.173 A 
ATOM     84  F   UNL     1      -5.329  -6.210  17.134  1.00  0.00    -0.203 F 
ATOM     85  C   UNL     1      -6.582  -7.697  18.459  1.00  0.00     0.198 A 
ATOM     86  C   UNL     1      -8.016  -9.316  17.422  1.00  0.00     0.198 A 
ATOM     87  F   UNL     1      -8.136  -9.456  15.079  1.00  0.00    -0.203 F 
ATOM     88  F   UNL     1      -6.048  -7.159  19.564  1.00  0.00    -0.200 F 
ATOM     89  C   UNL     1      -7.489  -8.741  18.567  1.00  0.00     0.200 A 
ATOM     90  F   UNL     1      -8.907 -10.312  17.524  1.00  0.00    -0.200 F 
ATOM     91  F   UNL     1      -7.848  -9.196  19.775  1.00  0.00    -0.200 F 
ENDBRANCH  58  81
ENDBRANCH  32  33
ENDBRANCH  25  27
ENDBRANCH  24  25
ENDBRANCH  23  24
ENDBRANCH  22  23
ENDBRANCH  21  22
ENDBRANCH  20  21
ENDBRANCH   1  20
TORSDOF 21
