REMARK SMILES Cc1cc(C(=O)OCCOCCOC(=O)c2ccc(-c3c4nc(c(-c5c(F)c(F)c(F)c(F)c5F)c5ccc([nH]5)c(-c5c(F)c(F)c(F)c(F)c5F)c5nc(c(-c6c(F)c(F)c(F)c(F)c6F)c6ccc3[nH]6)C=C5)C=C4)cc2)ccc1NC(=O)N1C[C@@H](C)[C@H](C)C1
REMARK SMILES IDX 11 1 10 2 9 3 8 4 7 5 5 6 6 7 4 8 1 9 2 10 3 11 81 12 80 13
REMARK SMILES IDX 79 14 82 15 83 16 84 18 85 19 86 20 91 21 87 22 89 23 88 24
REMARK SMILES IDX 90 25 12 26 13 27 14 28 15 29 16 30 17 31 78 32 18 33 77 34
REMARK SMILES IDX 19 35 20 36 21 37 71 38 22 39 76 40 70 41 72 42 23 43 75 44
REMARK SMILES IDX 69 45 68 46 24 48 56 49 36 50 55 51 37 52 40 53 54 54 73 55
REMARK SMILES IDX 38 56 39 57 53 59 74 60 41 61 25 62 26 63 34 64 27 65 28 66
REMARK SMILES IDX 32 67 35 68 29 69 30 70 33 71 31 72 57 73 58 74 66 75 59 76
REMARK SMILES IDX 60 77 64 78 67 79 61 80 62 81 65 82 63 83 42 84 43 85 51 86
REMARK SMILES IDX 44 87 45 88 49 89 52 90 46 91 47 92 50 93 48 94
REMARK H PARENT 82 17 72 47 40 58
REMARK Flexibility Score: inf
ROOT
ATOM      1  C   UNL     1      -1.151  -3.366  -3.539  1.00  0.00     0.202 C 
ENDROOT
BRANCH   1   2
ATOM      2  O   UNL     1      -1.855  -3.156  -2.332  1.00  0.00    -0.374 OA
BRANCH   2   3
ATOM      3  C   UNL     1      -3.001  -2.330  -2.425  1.00  0.00     0.202 C 
BRANCH   3   4
ATOM      4  C   UNL     1      -3.568  -2.270  -1.038  1.00  0.00     0.261 C 
BRANCH   4   5
ATOM      5  O   UNL     1      -2.744  -1.546  -0.107  1.00  0.00    -0.460 OA
BRANCH   5   6
ATOM      6  C   UNL     1      -1.443  -1.924   0.054  1.00  0.00     0.338 C 
ATOM      7  O   UNL     1      -1.022  -2.995   0.430  1.00  0.00    -0.246 OA
BRANCH   6   8
ATOM      8  C   UNL     1      -0.634  -0.723  -0.221  1.00  0.00     0.060 A 
ATOM      9  C   UNL     1       2.863   0.602   0.288  1.00  0.00     0.046 C 
ATOM     10  C   UNL     1       1.381   0.595   0.046  1.00  0.00    -0.027 A 
ATOM     11  C   UNL     1       0.702  -0.633   0.169  1.00  0.00     0.021 A 
ATOM     12  C   UNL     1       0.648   1.717  -0.379  1.00  0.00     0.045 A 
ATOM     13  C   UNL     1      -0.561   1.522  -1.034  1.00  0.00     0.027 A 
ATOM     14  C   UNL     1      -1.224   0.329  -0.914  1.00  0.00     0.018 A 
BRANCH  12  15
ATOM     15  N   UNL     1       1.060   3.035  -0.118  1.00  0.00    -0.308 N 
ATOM     16  C   UNL     1       0.302   4.181  -0.172  1.00  0.00     0.321 C 
ATOM     17  H   UNL     1       2.004   3.152   0.133  1.00  0.00     0.171 HD
ATOM     18  O   UNL     1       0.859   5.253  -0.408  1.00  0.00    -0.248 OA
ATOM     19  N   UNL     1      -1.060   4.092   0.024  1.00  0.00    -0.324 N 
ATOM     20  C   UNL     1      -1.981   4.940  -0.707  1.00  0.00     0.125 C 
ATOM     21  C   UNL     1      -1.710   3.483   1.186  1.00  0.00     0.125 C 
ATOM     22  C   UNL     1      -3.152   5.173   0.240  1.00  0.00     0.010 C 
ATOM     23  C   UNL     1      -3.191   3.884   1.083  1.00  0.00     0.010 C 
ATOM     24  C   UNL     1      -4.454   5.450  -0.500  1.00  0.00     0.010 C 
ATOM     25  C   UNL     1      -3.864   4.086   2.439  1.00  0.00     0.010 C 
ENDBRANCH  12  15
ENDBRANCH   6   8
ENDBRANCH   5   6
ENDBRANCH   4   5
ENDBRANCH   3   4
ENDBRANCH   2   3
ENDBRANCH   1   2
BRANCH   1  26
ATOM     26  C   UNL     1      -2.009  -4.074  -4.595  1.00  0.00     0.261 C 
BRANCH  26  27
ATOM     27  O   UNL     1      -2.429  -5.359  -4.085  1.00  0.00    -0.460 OA
BRANCH  27  28
ATOM     28  C   UNL     1      -3.713  -5.441  -3.636  1.00  0.00     0.338 C 
ATOM     29  O   UNL     1      -4.696  -5.027  -4.230  1.00  0.00    -0.246 OA
BRANCH  28  30
ATOM     30  C   UNL     1      -3.722  -5.831  -2.193  1.00  0.00     0.060 A 
ATOM     31  C   UNL     1      -4.904  -5.712  -1.433  1.00  0.00     0.016 A 
ATOM     32  C   UNL     1      -2.499  -5.979  -1.545  1.00  0.00     0.016 A 
ATOM     33  C   UNL     1      -4.840  -5.582  -0.034  1.00  0.00     0.010 A 
ATOM     34  C   UNL     1      -2.434  -5.745  -0.188  1.00  0.00     0.010 A 
ATOM     35  C   UNL     1      -3.589  -5.509   0.578  1.00  0.00    -0.014 A 
BRANCH  35  36
ATOM     36  C   UNL     1      -3.308  -5.074   1.952  1.00  0.00     0.031 A 
ATOM     37  C   UNL     1      -2.532  -5.986   2.826  1.00  0.00     0.074 A 
ATOM     38  C   UNL     1      -3.423  -3.765   2.301  1.00  0.00     0.049 A 
ATOM     39  N   UNL     1      -2.255  -5.727   4.054  1.00  0.00    -0.248 NA
ATOM     40  C   UNL     1      -2.027  -7.297   2.415  1.00  0.00     0.031 C 
ATOM     41  C   UNL     1      -2.648  -3.026   3.306  1.00  0.00     0.029 A 
ATOM     42  N   UNL     1      -4.248  -2.764   1.768  1.00  0.00    -0.354 N 
ATOM     43  C   UNL     1      -1.278  -6.598   4.463  1.00  0.00     0.074 A 
ATOM     44  C   UNL     1      -1.281  -7.640   3.471  1.00  0.00     0.031 C 
ATOM     45  C   UNL     1      -3.208  -1.823   3.522  1.00  0.00     0.029 A 
ATOM     46  C   UNL     1      -4.439  -1.781   2.756  1.00  0.00     0.049 A 
ATOM     47  H   UNL     1      -4.628  -2.752   0.860  1.00  0.00     0.167 HD
ATOM     48  C   UNL     1      -0.517  -6.237   5.534  1.00  0.00     0.037 A 
ATOM     49  C   UNL     1      -5.685  -1.474   3.201  1.00  0.00     0.037 A 
ATOM     50  C   UNL     1      -1.081  -5.036   6.176  1.00  0.00     0.049 A 
ATOM     51  C   UNL     1      -5.768  -1.893   4.636  1.00  0.00     0.074 A 
ATOM     52  C   UNL     1      -0.675  -3.717   6.274  1.00  0.00     0.029 A 
ATOM     53  N   UNL     1      -2.420  -5.061   6.580  1.00  0.00    -0.354 N 
ATOM     54  N   UNL     1      -4.976  -2.807   5.130  1.00  0.00    -0.248 NA
ATOM     55  C   UNL     1      -6.603  -1.261   5.649  1.00  0.00     0.031 C 
ATOM     56  C   UNL     1      -1.816  -2.940   6.643  1.00  0.00     0.029 A 
ATOM     57  C   UNL     1      -2.903  -3.788   6.815  1.00  0.00     0.049 A 
ATOM     58  H   UNL     1      -2.951  -5.882   6.684  1.00  0.00     0.167 HD
ATOM     59  C   UNL     1      -5.084  -2.812   6.481  1.00  0.00     0.074 A 
ATOM     60  C   UNL     1      -6.157  -1.872   6.763  1.00  0.00     0.031 C 
ATOM     61  C   UNL     1      -4.277  -3.574   7.269  1.00  0.00     0.037 A 
BRANCH  48  62
ATOM     62  C   UNL     1       0.806  -6.861   5.941  1.00  0.00     0.064 A 
ATOM     63  C   UNL     1       1.444  -6.449   7.133  1.00  0.00     0.173 A 
ATOM     64  C   UNL     1       1.542  -7.802   5.187  1.00  0.00     0.173 A 
ATOM     65  F   UNL     1       0.882  -5.537   7.940  1.00  0.00    -0.203 F 
ATOM     66  C   UNL     1       2.690  -6.946   7.537  1.00  0.00     0.198 A 
ATOM     67  C   UNL     1       2.762  -8.337   5.617  1.00  0.00     0.198 A 
ATOM     68  F   UNL     1       1.155  -8.207   3.974  1.00  0.00    -0.203 F 
ATOM     69  F   UNL     1       3.260  -6.482   8.658  1.00  0.00    -0.200 F 
ATOM     70  C   UNL     1       3.340  -7.905   6.789  1.00  0.00     0.200 A 
ATOM     71  F   UNL     1       3.381  -9.263   4.868  1.00  0.00    -0.200 F 
ATOM     72  F   UNL     1       4.524  -8.394   7.181  1.00  0.00    -0.200 F 
ENDBRANCH  48  62
BRANCH  49  73
ATOM     73  C   UNL     1      -6.691  -1.546   2.102  1.00  0.00     0.064 A 
ATOM     74  C   UNL     1      -6.603  -0.533   1.119  1.00  0.00     0.173 A 
ATOM     75  C   UNL     1      -7.277  -2.761   1.714  1.00  0.00     0.173 A 
ATOM     76  F   UNL     1      -6.024   0.641   1.419  1.00  0.00    -0.203 F 
ATOM     77  C   UNL     1      -6.938  -0.776  -0.214  1.00  0.00     0.198 A 
ATOM     78  C   UNL     1      -7.606  -3.001   0.373  1.00  0.00     0.198 A 
ATOM     79  F   UNL     1      -7.382  -3.771   2.589  1.00  0.00    -0.203 F 
ATOM     80  F   UNL     1      -6.673   0.149  -1.150  1.00  0.00    -0.200 F 
ATOM     81  C   UNL     1      -7.398  -2.025  -0.593  1.00  0.00     0.200 A 
ATOM     82  F   UNL     1      -8.017  -4.219  -0.009  1.00  0.00    -0.200 F 
ATOM     83  F   UNL     1      -7.559  -2.312  -1.893  1.00  0.00    -0.200 F 
ENDBRANCH  49  73
BRANCH  61  84
ATOM     84  C   UNL     1      -4.745  -4.128   8.582  1.00  0.00     0.064 A 
ATOM     85  C   UNL     1      -6.107  -4.293   8.894  1.00  0.00     0.173 A 
ATOM     86  C   UNL     1      -3.831  -4.698   9.493  1.00  0.00     0.173 A 
ATOM     87  F   UNL     1      -7.077  -3.928   8.043  1.00  0.00    -0.203 F 
ATOM     88  C   UNL     1      -6.523  -4.899  10.075  1.00  0.00     0.198 A 
ATOM     89  C   UNL     1      -4.254  -5.371  10.635  1.00  0.00     0.198 A 
ATOM     90  F   UNL     1      -2.508  -4.658   9.284  1.00  0.00    -0.203 F 
ATOM     91  F   UNL     1      -7.832  -4.976  10.352  1.00  0.00    -0.200 F 
ATOM     92  C   UNL     1      -5.598  -5.448  10.940  1.00  0.00     0.200 A 
ATOM     93  F   UNL     1      -3.351  -5.966  11.425  1.00  0.00    -0.200 F 
ATOM     94  F   UNL     1      -6.003  -6.072  12.052  1.00  0.00    -0.200 F 
ENDBRANCH  61  84
ENDBRANCH  35  36
ENDBRANCH  28  30
ENDBRANCH  27  28
ENDBRANCH  26  27
ENDBRANCH   1  26
TORSDOF 15
