REMARK SMILES C[C@@H](CC(=O)OCCOCCOC(=O)c1ccc(-c2c3nc(c(-c4c(F)c(F)c(F)c(F)c4F)c4ccc([nH]4)c(-c4c(F)c(F)c(F)c(F)c4F)c4nc(c(-c5c(F)c(F)c(F)c(F)c5F)c5ccc2[nH]5)C=C4)C=C3)cc1)NC(=O)/C=C/c1cccnc1
REMARK SMILES IDX 8 1 7 2 6 3 4 4 5 5 3 6 2 7 1 8 78 9 79 10 80 12 81 13 82 14
REMARK SMILES IDX 83 15 84 16 88 17 85 18 87 19 86 20 9 21 10 22 11 23 12 24
REMARK SMILES IDX 13 25 14 26 15 27 16 28 77 29 17 30 76 31 18 32 19 33 20 34
REMARK SMILES IDX 70 35 21 36 75 37 69 38 71 39 22 40 74 41 68 42 67 43 23 45
REMARK SMILES IDX 55 46 35 47 54 48 36 49 39 50 53 51 72 52 37 53 38 54 52 56
REMARK SMILES IDX 73 57 40 58 24 59 25 60 33 61 26 62 27 63 31 64 34 65 28 66
REMARK SMILES IDX 29 67 32 68 30 69 56 70 57 71 65 72 58 73 59 74 63 75 66 76
REMARK SMILES IDX 60 77 61 78 64 79 62 80 41 81 42 82 50 83 43 84 44 85 48 86
REMARK SMILES IDX 51 87 45 88 46 89 49 90 47 91
REMARK H PARENT 78 11 71 44 39 55
REMARK Flexibility Score: inf
ROOT
ATOM      1  C   UNL     1      -0.777   4.632  -0.244  1.00  0.00     0.202 C 
ENDROOT
BRANCH   1   2
ATOM      2  C   UNL     1       0.655   4.297   0.175  1.00  0.00     0.261 C 
BRANCH   2   3
ATOM      3  O   UNL     1       0.809   2.884   0.417  1.00  0.00    -0.463 OA
BRANCH   3   4
ATOM      4  C   UNL     1       1.469   2.547   1.548  1.00  0.00     0.307 C 
ATOM      5  O   UNL     1       1.958   3.354   2.333  1.00  0.00    -0.252 OA
BRANCH   4   6
ATOM      6  C   UNL     1       1.580   1.060   1.796  1.00  0.00     0.147 C 
BRANCH   6   7
ATOM      7  C   UNL     1       0.966   0.025   0.843  1.00  0.00     0.090 C 
ATOM      8  C   UNL     1       1.247   0.249  -0.640  1.00  0.00     0.031 C 
BRANCH   7   9
ATOM      9  N   UNL     1      -0.466  -0.149   1.078  1.00  0.00    -0.350 N 
ATOM     10  C   UNL     1      -1.169  -1.046   1.819  1.00  0.00     0.244 C 
ATOM     11  H   UNL     1      -1.029   0.509   0.611  1.00  0.00     0.164 HD
ATOM     12  O   UNL     1      -2.396  -0.955   1.848  1.00  0.00    -0.270 OA
BRANCH  10  13
ATOM     13  C   UNL     1      -0.525  -2.204   2.490  1.00  0.00     0.072 C 
ATOM     14  C   UNL     1       0.634  -2.210   3.167  1.00  0.00     0.015 C 
BRANCH  14  15
ATOM     15  C   UNL     1       1.274  -3.392   3.774  1.00  0.00    -0.007 A 
ATOM     16  C   UNL     1       0.874  -4.711   3.540  1.00  0.00     0.011 A 
ATOM     17  C   UNL     1       2.402  -3.223   4.581  1.00  0.00     0.119 A 
ATOM     18  C   UNL     1       1.588  -5.772   4.100  1.00  0.00     0.021 A 
ATOM     19  N   UNL     1       3.119  -4.231   5.135  1.00  0.00    -0.264 NA
ATOM     20  C   UNL     1       2.694  -5.485   4.880  1.00  0.00     0.111 A 
ENDBRANCH  14  15
ENDBRANCH  10  13
ENDBRANCH   7   9
ENDBRANCH   6   7
ENDBRANCH   4   6
ENDBRANCH   3   4
ENDBRANCH   2   3
ENDBRANCH   1   2
BRANCH   1  21
ATOM     21  O   UNL     1      -1.754   4.487   0.786  1.00  0.00    -0.374 OA
BRANCH  21  22
ATOM     22  C   UNL     1      -2.127   3.158   1.159  1.00  0.00     0.202 C 
BRANCH  22  23
ATOM     23  C   UNL     1      -2.979   2.415   0.123  1.00  0.00     0.261 C 
BRANCH  23  24
ATOM     24  O   UNL     1      -2.198   2.058  -1.039  1.00  0.00    -0.460 OA
BRANCH  24  25
ATOM     25  C   UNL     1      -2.805   2.334  -2.218  1.00  0.00     0.338 C 
ATOM     26  O   UNL     1      -3.958   2.706  -2.391  1.00  0.00    -0.246 OA
BRANCH  25  27
ATOM     27  C   UNL     1      -1.838   2.299  -3.329  1.00  0.00     0.060 A 
ATOM     28  C   UNL     1      -1.580   3.502  -3.998  1.00  0.00     0.016 A 
ATOM     29  C   UNL     1      -1.317   1.096  -3.809  1.00  0.00     0.016 A 
ATOM     30  C   UNL     1      -0.843   3.499  -5.182  1.00  0.00     0.010 A 
ATOM     31  C   UNL     1      -0.579   1.096  -5.002  1.00  0.00     0.010 A 
ATOM     32  C   UNL     1      -0.373   2.291  -5.716  1.00  0.00    -0.014 A 
BRANCH  32  33
ATOM     33  C   UNL     1       0.196   2.278  -7.090  1.00  0.00     0.031 A 
ATOM     34  C   UNL     1      -0.678   1.876  -8.248  1.00  0.00     0.074 A 
ATOM     35  C   UNL     1       1.460   2.675  -7.319  1.00  0.00     0.049 A 
ATOM     36  N   UNL     1      -0.391   1.814  -9.525  1.00  0.00    -0.248 NA
ATOM     37  C   UNL     1      -2.063   1.498  -7.925  1.00  0.00     0.031 C 
ATOM     38  C   UNL     1       2.401   3.128  -6.297  1.00  0.00     0.029 A 
ATOM     39  N   UNL     1       2.169   2.764  -8.493  1.00  0.00    -0.354 N 
ATOM     40  C   UNL     1      -1.555   1.393 -10.155  1.00  0.00     0.074 A 
ATOM     41  C   UNL     1      -2.545   1.185  -9.119  1.00  0.00     0.031 C 
ATOM     42  C   UNL     1       3.567   3.442  -6.887  1.00  0.00     0.029 A 
ATOM     43  C   UNL     1       3.463   3.191  -8.324  1.00  0.00     0.049 A 
ATOM     44  H   UNL     1       1.785   2.542  -9.372  1.00  0.00     0.167 HD
ATOM     45  C   UNL     1      -1.784   1.207 -11.477  1.00  0.00     0.037 A 
ATOM     46  C   UNL     1       4.454   3.346  -9.223  1.00  0.00     0.037 A 
ATOM     47  C   UNL     1      -0.810   1.419 -12.515  1.00  0.00     0.049 A 
ATOM     48  C   UNL     1       4.193   3.067 -10.681  1.00  0.00     0.074 A 
ATOM     49  C   UNL     1      -0.963   1.279 -13.884  1.00  0.00     0.029 A 
ATOM     50  N   UNL     1       0.502   1.809 -12.298  1.00  0.00    -0.354 N 
ATOM     51  N   UNL     1       3.082   2.697 -11.268  1.00  0.00    -0.248 NA
ATOM     52  C   UNL     1       5.329   3.230 -11.602  1.00  0.00     0.031 C 
ATOM     53  C   UNL     1       0.269   1.541 -14.493  1.00  0.00     0.029 A 
ATOM     54  C   UNL     1       1.177   1.888 -13.506  1.00  0.00     0.049 A 
ATOM     55  H   UNL     1       0.896   2.001 -11.417  1.00  0.00     0.167 HD
ATOM     56  C   UNL     1       3.375   2.610 -12.623  1.00  0.00     0.074 A 
ATOM     57  C   UNL     1       4.767   2.975 -12.775  1.00  0.00     0.031 C 
ATOM     58  C   UNL     1       2.562   2.258 -13.649  1.00  0.00     0.037 A 
BRANCH  45  59
ATOM     59  C   UNL     1      -3.147   0.731 -11.883  1.00  0.00     0.064 A 
ATOM     60  C   UNL     1      -4.260   1.585 -11.860  1.00  0.00     0.173 A 
ATOM     61  C   UNL     1      -3.332  -0.580 -12.346  1.00  0.00     0.173 A 
ATOM     62  F   UNL     1      -4.136   2.844 -11.415  1.00  0.00    -0.203 F 
ATOM     63  C   UNL     1      -5.514   1.135 -12.269  1.00  0.00     0.198 A 
ATOM     64  C   UNL     1      -4.581  -1.018 -12.776  1.00  0.00     0.198 A 
ATOM     65  F   UNL     1      -2.297  -1.432 -12.393  1.00  0.00    -0.203 F 
ATOM     66  F   UNL     1      -6.571   1.956 -12.206  1.00  0.00    -0.200 F 
ATOM     67  C   UNL     1      -5.671  -0.163 -12.733  1.00  0.00     0.200 A 
ATOM     68  F   UNL     1      -4.729  -2.269 -13.235  1.00  0.00    -0.200 F 
ATOM     69  F   UNL     1      -6.877  -0.591 -13.133  1.00  0.00    -0.200 F 
ENDBRANCH  45  59
BRANCH  46  70
ATOM     70  C   UNL     1       5.801   3.780  -8.771  1.00  0.00     0.064 A 
ATOM     71  C   UNL     1       6.305   5.045  -9.103  1.00  0.00     0.173 A 
ATOM     72  C   UNL     1       6.621   2.926  -8.019  1.00  0.00     0.173 A 
ATOM     73  F   UNL     1       5.570   5.885  -9.845  1.00  0.00    -0.203 F 
ATOM     74  C   UNL     1       7.585   5.433  -8.712  1.00  0.00     0.198 A 
ATOM     75  C   UNL     1       7.890   3.325  -7.607  1.00  0.00     0.198 A 
ATOM     76  F   UNL     1       6.185   1.703  -7.681  1.00  0.00    -0.203 F 
ATOM     77  F   UNL     1       8.061   6.630  -9.080  1.00  0.00    -0.200 F 
ATOM     78  C   UNL     1       8.374   4.575  -7.960  1.00  0.00     0.200 A 
ATOM     79  F   UNL     1       8.645   2.496  -6.873  1.00  0.00    -0.200 F 
ATOM     80  F   UNL     1       9.604   4.949  -7.583  1.00  0.00    -0.200 F 
ENDBRANCH  46  70
BRANCH  58  81
ATOM     81  C   UNL     1       3.143   2.278 -15.033  1.00  0.00     0.064 A 
ATOM     82  C   UNL     1       4.047   1.296 -15.464  1.00  0.00     0.173 A 
ATOM     83  C   UNL     1       2.758   3.266 -15.952  1.00  0.00     0.173 A 
ATOM     84  F   UNL     1       4.457   0.339 -14.618  1.00  0.00    -0.203 F 
ATOM     85  C   UNL     1       4.560   1.315 -16.758  1.00  0.00     0.198 A 
ATOM     86  C   UNL     1       3.253   3.267 -17.253  1.00  0.00     0.198 A 
ATOM     87  F   UNL     1       1.891   4.224 -15.591  1.00  0.00    -0.203 F 
ATOM     88  F   UNL     1       5.454   0.391 -17.136  1.00  0.00    -0.200 F 
ATOM     89  C   UNL     1       4.158   2.296 -17.653  1.00  0.00     0.200 A 
ATOM     90  F   UNL     1       2.855   4.208 -18.120  1.00  0.00    -0.200 F 
ATOM     91  F   UNL     1       4.648   2.308 -18.901  1.00  0.00    -0.200 F 
ENDBRANCH  58  81
ENDBRANCH  32  33
ENDBRANCH  25  27
ENDBRANCH  24  25
ENDBRANCH  23  24
ENDBRANCH  22  23
ENDBRANCH  21  22
ENDBRANCH   1  21
TORSDOF 18
