REMARK SMILES O=C(OCCOCCOC(=O)[C@@H]1[C@@H](C(=O)NCCn2cc(Cl)cn2)[C@H]2CC[C@@H]1O2)c1ccc(-c2c3nc(c(-c4c(F)c(F)c(F)c(F)c4F)c4ccc([nH]4)c(-c4c(F)c(F)c(F)c(F)c4F)c4nc(c(-c5c(F)c(F)c(F)c(F)c5F)c5ccc2[nH]5)C=C4)C=C3)cc1
REMARK SMILES IDX 7 1 6 2 5 3 4 4 3 5 2 6 1 7 30 8 31 9 92 10 32 11 91 12
REMARK SMILES IDX 33 13 34 14 35 15 85 16 36 17 90 18 84 19 86 20 37 21 89 22
REMARK SMILES IDX 83 23 82 24 38 26 70 27 50 28 69 29 51 30 54 31 68 32 87 33
REMARK SMILES IDX 52 34 53 35 67 37 88 38 55 39 39 40 40 41 48 42 41 43 42 44
REMARK SMILES IDX 46 45 49 46 43 47 44 48 47 49 45 50 71 51 72 52 80 53 73 54
REMARK SMILES IDX 74 55 78 56 81 57 75 58 76 59 79 60 77 61 56 62 57 63 65 64
REMARK SMILES IDX 58 65 59 66 63 67 66 68 60 69 61 70 64 71 62 72 8 73 9 74
REMARK SMILES IDX 10 75 11 76 12 77 13 78 28 79 25 80 27 81 29 82 26 83 14 84
REMARK SMILES IDX 15 85 16 86 17 88 18 89 19 90 20 91 24 92 21 93 23 94 22 95
REMARK H PARENT 86 25 54 36 16 87
REMARK Flexibility Score: inf
ROOT
ATOM      1  C   UNL     1       3.060  -0.247  -2.069  1.00  0.00     0.202 C 
ENDROOT
BRANCH   1   2
ATOM      2  O   UNL     1       4.274   0.134  -1.406  1.00  0.00    -0.374 OA
BRANCH   2   3
ATOM      3  C   UNL     1       4.835  -0.734  -0.427  1.00  0.00     0.202 C 
BRANCH   3   4
ATOM      4  C   UNL     1       4.499  -0.520   1.048  1.00  0.00     0.261 C 
BRANCH   4   5
ATOM      5  O   UNL     1       3.125  -0.789   1.369  1.00  0.00    -0.460 OA
BRANCH   5   6
ATOM      6  C   UNL     1       2.047  -0.115   0.922  1.00  0.00     0.338 C 
ATOM      7  O   UNL     1       1.017  -0.723   0.640  1.00  0.00    -0.246 OA
BRANCH   6   8
ATOM      8  C   UNL     1       2.013   1.370   0.973  1.00  0.00     0.060 A 
ATOM      9  C   UNL     1       3.126   2.207   1.039  1.00  0.00     0.016 A 
ATOM     10  C   UNL     1       0.730   1.937   1.055  1.00  0.00     0.016 A 
ATOM     11  C   UNL     1       2.984   3.507   1.479  1.00  0.00     0.010 A 
ATOM     12  C   UNL     1       0.574   3.261   1.416  1.00  0.00     0.010 A 
ATOM     13  C   UNL     1       1.707   4.001   1.731  1.00  0.00    -0.014 A 
BRANCH  13  14
ATOM     14  C   UNL     1       1.606   5.360   2.226  1.00  0.00     0.031 A 
ATOM     15  C   UNL     1       2.138   6.377   1.284  1.00  0.00     0.074 A 
ATOM     16  C   UNL     1       1.005   5.644   3.396  1.00  0.00     0.049 A 
ATOM     17  N   UNL     1       3.112   7.205   1.472  1.00  0.00    -0.248 NA
ATOM     18  C   UNL     1       1.621   6.361  -0.095  1.00  0.00     0.031 C 
ATOM     19  C   UNL     1       0.243   4.737   4.260  1.00  0.00     0.029 A 
ATOM     20  N   UNL     1       0.856   6.846   4.014  1.00  0.00    -0.354 N 
ATOM     21  C   UNL     1       3.201   7.953   0.301  1.00  0.00     0.074 A 
ATOM     22  C   UNL     1       2.389   7.282  -0.677  1.00  0.00     0.031 C 
ATOM     23  C   UNL     1      -0.484   5.465   5.137  1.00  0.00     0.029 A 
ATOM     24  C   UNL     1      -0.140   6.867   4.981  1.00  0.00     0.049 A 
ATOM     25  H   UNL     1       1.406   7.632   3.795  1.00  0.00     0.167 HD
ATOM     26  C   UNL     1       3.719   9.210   0.318  1.00  0.00     0.037 A 
ATOM     27  C   UNL     1      -0.693   7.974   5.537  1.00  0.00     0.037 A 
ATOM     28  C   UNL     1       4.573   9.403   1.462  1.00  0.00     0.049 A 
ATOM     29  C   UNL     1       0.237   9.107   5.293  1.00  0.00     0.074 A 
ATOM     30  C   UNL     1       5.728   8.800   1.923  1.00  0.00     0.029 A 
ATOM     31  N   UNL     1       4.076  10.111   2.527  1.00  0.00    -0.354 N 
ATOM     32  N   UNL     1       1.408   9.218   5.857  1.00  0.00    -0.248 NA
ATOM     33  C   UNL     1       0.057   9.878   4.072  1.00  0.00     0.031 C 
ATOM     34  C   UNL     1       5.595   8.781   3.343  1.00  0.00     0.029 A 
ATOM     35  C   UNL     1       4.402   9.427   3.668  1.00  0.00     0.049 A 
ATOM     36  H   UNL     1       3.575  10.958   2.480  1.00  0.00     0.167 HD
ATOM     37  C   UNL     1       2.235   9.700   4.854  1.00  0.00     0.074 A 
ATOM     38  C   UNL     1       1.333  10.172   3.807  1.00  0.00     0.031 C 
ATOM     39  C   UNL     1       3.567   9.402   4.843  1.00  0.00     0.037 A 
BRANCH  26  40
ATOM     40  C   UNL     1       3.111  10.369  -0.442  1.00  0.00     0.064 A 
ATOM     41  C   UNL     1       3.741  11.628  -0.373  1.00  0.00     0.173 A 
ATOM     42  C   UNL     1       1.789  10.382  -0.942  1.00  0.00     0.173 A 
ATOM     43  F   UNL     1       4.996  11.739   0.089  1.00  0.00    -0.203 F 
ATOM     44  C   UNL     1       3.061  12.812  -0.668  1.00  0.00     0.198 A 
ATOM     45  C   UNL     1       1.132  11.562  -1.285  1.00  0.00     0.198 A 
ATOM     46  F   UNL     1       1.034   9.281  -1.016  1.00  0.00    -0.203 F 
ATOM     47  F   UNL     1       3.654  13.992  -0.444  1.00  0.00    -0.200 F 
ATOM     48  C   UNL     1       1.752  12.778  -1.111  1.00  0.00     0.200 A 
ATOM     49  F   UNL     1      -0.142  11.506  -1.700  1.00  0.00    -0.200 F 
ATOM     50  F   UNL     1       1.073  13.913  -1.321  1.00  0.00    -0.200 F 
ENDBRANCH  26  40
BRANCH  27  51
ATOM     51  C   UNL     1      -2.102   8.180   5.952  1.00  0.00     0.064 A 
ATOM     52  C   UNL     1      -2.465   9.270   6.760  1.00  0.00     0.173 A 
ATOM     53  C   UNL     1      -3.160   7.475   5.344  1.00  0.00     0.173 A 
ATOM     54  F   UNL     1      -1.519  10.024   7.338  1.00  0.00    -0.203 F 
ATOM     55  C   UNL     1      -3.802   9.646   6.929  1.00  0.00     0.198 A 
ATOM     56  C   UNL     1      -4.494   7.845   5.521  1.00  0.00     0.198 A 
ATOM     57  F   UNL     1      -2.920   6.473   4.486  1.00  0.00    -0.203 F 
ATOM     58  F   UNL     1      -4.105  10.732   7.655  1.00  0.00    -0.200 F 
ATOM     59  C   UNL     1      -4.814   8.939   6.302  1.00  0.00     0.200 A 
ATOM     60  F   UNL     1      -5.460   7.174   4.878  1.00  0.00    -0.200 F 
ATOM     61  F   UNL     1      -6.090   9.335   6.413  1.00  0.00    -0.200 F 
ENDBRANCH  27  51
BRANCH  39  62
ATOM     62  C   UNL     1       4.155   8.784   6.080  1.00  0.00     0.064 A 
ATOM     63  C   UNL     1       3.775   7.532   6.593  1.00  0.00     0.173 A 
ATOM     64  C   UNL     1       5.240   9.428   6.688  1.00  0.00     0.173 A 
ATOM     65  F   UNL     1       2.818   6.805   6.003  1.00  0.00    -0.203 F 
ATOM     66  C   UNL     1       4.421   6.977   7.697  1.00  0.00     0.198 A 
ATOM     67  C   UNL     1       5.910   8.854   7.764  1.00  0.00     0.198 A 
ATOM     68  F   UNL     1       5.685  10.598   6.203  1.00  0.00    -0.203 F 
ATOM     69  F   UNL     1       4.031   5.788   8.178  1.00  0.00    -0.200 F 
ATOM     70  C   UNL     1       5.493   7.636   8.276  1.00  0.00     0.200 A 
ATOM     71  F   UNL     1       6.979   9.470   8.287  1.00  0.00    -0.200 F 
ATOM     72  F   UNL     1       6.142   7.085   9.311  1.00  0.00    -0.200 F 
ENDBRANCH  39  62
ENDBRANCH  13  14
ENDBRANCH   6   8
ENDBRANCH   5   6
ENDBRANCH   4   5
ENDBRANCH   3   4
ENDBRANCH   2   3
ENDBRANCH   1   2
BRANCH   1  73
ATOM     73  C   UNL     1       2.994  -1.515  -2.938  1.00  0.00     0.261 C 
BRANCH  73  74
ATOM     74  O   UNL     1       3.279  -2.712  -2.200  1.00  0.00    -0.463 OA
BRANCH  74  75
ATOM     75  C   UNL     1       4.532  -3.221  -2.405  1.00  0.00     0.312 C 
ATOM     76  O   UNL     1       5.305  -2.831  -3.257  1.00  0.00    -0.252 OA
BRANCH  75  77
ATOM     77  C   UNL     1       4.876  -4.203  -1.296  1.00  0.00     0.143 C 
ATOM     78  C   UNL     1       6.387  -4.121  -0.969  1.00  0.00     0.124 C 
ATOM     79  C   UNL     1       4.725  -5.620  -1.817  1.00  0.00     0.133 C 
ATOM     80  C   UNL     1       6.865  -5.502  -1.439  1.00  0.00     0.132 C 
ATOM     81  C   UNL     1       4.918  -6.631  -0.683  1.00  0.00     0.036 C 
ATOM     82  O   UNL     1       5.967  -5.772  -2.547  1.00  0.00    -0.373 OA
ATOM     83  C   UNL     1       6.439  -6.638  -0.512  1.00  0.00     0.035 C 
BRANCH  78  84
ATOM     84  C   UNL     1       6.696  -3.870   0.494  1.00  0.00     0.226 C 
ATOM     85  O   UNL     1       5.853  -4.020   1.377  1.00  0.00    -0.275 OA
ATOM     86  N   UNL     1       7.947  -3.483   0.868  1.00  0.00    -0.354 N 
ATOM     87  H   UNL     1       8.104  -3.477   1.840  1.00  0.00     0.163 HD
BRANCH  86  88
ATOM     88  C   UNL     1       9.095  -3.075   0.061  1.00  0.00     0.139 C 
BRANCH  88  89
ATOM     89  C   UNL     1       9.566  -1.657   0.403  1.00  0.00     0.165 C 
BRANCH  89  90
ATOM     90  N   UNL     1      10.214  -1.558   1.699  1.00  0.00    -0.269 N 
ATOM     91  C   UNL     1       9.889  -0.709   2.719  1.00  0.00     0.129 A 
ATOM     92  N   UNL     1      11.291  -2.325   1.966  1.00  0.00    -0.180 NA
ATOM     93  C   UNL     1      10.812  -0.940   3.709  1.00  0.00     0.079 A 
ATOM     94  C   UNL     1      11.650  -1.945   3.197  1.00  0.00     0.155 A 
ATOM     95  Cl  UNL     1      10.944  -0.189   5.217  1.00  0.00    -0.081 Cl
ENDBRANCH  89  90
ENDBRANCH  88  89
ENDBRANCH  86  88
ENDBRANCH  78  84
ENDBRANCH  75  77
ENDBRANCH  74  75
ENDBRANCH  73  74
ENDBRANCH   1  73
TORSDOF 18
