REMARK SMILES CC1(C)CCC[C@H]1NC(=O)N[C@@H]1COC[C@@]1(C)C(=O)OCCOCCOC(=O)c1ccc(-c2c3nc(c(-c4c(F)c(F)c(F)c(F)c4F)c4ccc([nH]4)c(-c4c(F)c(F)c(F)c(F)c4F)c4nc(c(-c5c(F)c(F)c(F)c(F)c5F)c5ccc2[nH]5)C=C4)C=C3)cc1
REMARK SMILES IDX 23 1 22 2 21 3 20 4 18 5 19 6 16 7 12 8 13 9 14 10 15 11
REMARK SMILES IDX 17 12 11 13 8 14 9 15 10 17 7 19 1 20 2 21 3 22 4 23 5 24
REMARK SMILES IDX 6 25 24 26 25 27 26 28 27 29 28 30 29 31 30 32 91 33 31 34
REMARK SMILES IDX 90 35 32 36 33 37 34 38 84 39 35 40 89 41 83 42 85 43 36 44
REMARK SMILES IDX 88 45 82 46 81 47 37 49 69 50 49 51 68 52 50 53 53 54 67 55
REMARK SMILES IDX 86 56 51 57 52 58 66 60 87 61 54 62 38 63 39 64 47 65 40 66
REMARK SMILES IDX 41 67 45 68 48 69 42 70 43 71 46 72 44 73 70 74 71 75 79 76
REMARK SMILES IDX 72 77 73 78 77 79 80 80 74 81 75 82 78 83 76 84 55 85 56 86
REMARK SMILES IDX 64 87 57 88 58 89 62 90 65 91 59 92 60 93 63 94 61 95
REMARK H PARENT 8 16 11 18 85 48 53 59
REMARK Flexibility Score: inf
ROOT
ATOM      1  O   UNL     1       5.527   1.460  -1.851  1.00  0.00    -0.374 OA
ENDROOT
BRANCH   1   2
ATOM      2  C   UNL     1       5.670   2.192  -0.629  1.00  0.00     0.202 C 
BRANCH   2   3
ATOM      3  C   UNL     1       5.234   3.667  -0.738  1.00  0.00     0.261 C 
BRANCH   3   4
ATOM      4  O   UNL     1       3.918   3.790  -0.163  1.00  0.00    -0.463 OA
BRANCH   4   5
ATOM      5  C   UNL     1       2.870   4.050  -0.990  1.00  0.00     0.316 C 
ATOM      6  O   UNL     1       2.931   4.795  -1.957  1.00  0.00    -0.251 OA
BRANCH   5   7
ATOM      7  C   UNL     1       1.655   3.191  -0.607  1.00  0.00     0.111 C 
ATOM      8  C   UNL     1       0.454   3.989  -0.089  1.00  0.00     0.129 C 
ATOM      9  C   UNL     1      -0.635   3.866  -1.146  1.00  0.00     0.186 C 
ATOM     10  O   UNL     1      -0.280   2.792  -2.014  1.00  0.00    -0.378 OA
ATOM     11  C   UNL     1       1.133   2.581  -1.919  1.00  0.00     0.181 C 
ATOM     12  C   UNL     1       2.118   2.151   0.414  1.00  0.00     0.028 C 
BRANCH   8  13
ATOM     13  N   UNL     1      -0.026   3.700   1.285  1.00  0.00    -0.332 N 
ATOM     14  N   UNL     1      -0.803   1.471   1.713  1.00  0.00    -0.335 N 
ATOM     15  C   UNL     1      -0.514   2.726   2.053  1.00  0.00     0.315 C 
ATOM     16  H   UNL     1      -0.989   0.922   2.509  1.00  0.00     0.165 HD
ATOM     17  O   UNL     1      -0.687   3.022   3.242  1.00  0.00    -0.249 OA
ATOM     18  H   UNL     1       0.041   4.523   1.822  1.00  0.00     0.165 HD
BRANCH  14  19
ATOM     19  C   UNL     1      -0.921   0.681   0.489  1.00  0.00     0.089 C 
ATOM     20  C   UNL     1       0.911  -0.929   1.575  1.00  0.00     0.013 C 
ATOM     21  C   UNL     1      -0.202  -0.722   0.531  1.00  0.00    -0.015 C 
ATOM     22  C   UNL     1       0.394  -1.040  -0.860  1.00  0.00     0.013 C 
ATOM     23  C   UNL     1      -1.350  -1.693   0.842  1.00  0.00     0.008 C 
ATOM     24  C   UNL     1      -2.529  -1.141   0.067  1.00  0.00     0.003 C 
ATOM     25  C   UNL     1      -2.409   0.371   0.214  1.00  0.00     0.025 C 
ENDBRANCH  14  19
ENDBRANCH   8  13
ENDBRANCH   5   7
ENDBRANCH   4   5
ENDBRANCH   3   4
ENDBRANCH   2   3
ENDBRANCH   1   2
BRANCH   1  26
ATOM     26  C   UNL     1       4.412   0.578  -1.967  1.00  0.00     0.202 C 
BRANCH  26  27
ATOM     27  C   UNL     1       4.512  -0.766  -1.222  1.00  0.00     0.261 C 
BRANCH  27  28
ATOM     28  O   UNL     1       4.689  -0.615   0.199  1.00  0.00    -0.460 OA
BRANCH  28  29
ATOM     29  C   UNL     1       5.947  -0.888   0.626  1.00  0.00     0.338 C 
ATOM     30  O   UNL     1       6.873  -1.304  -0.050  1.00  0.00    -0.246 OA
BRANCH  29  31
ATOM     31  C   UNL     1       6.145  -0.487   2.034  1.00  0.00     0.060 A 
ATOM     32  C   UNL     1       7.342   0.175   2.325  1.00  0.00     0.016 A 
ATOM     33  C   UNL     1       5.271  -0.844   3.066  1.00  0.00     0.016 A 
ATOM     34  C   UNL     1       7.710   0.412   3.646  1.00  0.00     0.010 A 
ATOM     35  C   UNL     1       5.640  -0.597   4.399  1.00  0.00     0.010 A 
ATOM     36  C   UNL     1       6.885  -0.013   4.697  1.00  0.00    -0.014 A 
BRANCH  36  37
ATOM     37  C   UNL     1       7.435   0.037   6.078  1.00  0.00     0.031 A 
ATOM     38  C   UNL     1       7.978  -1.219   6.707  1.00  0.00     0.074 A 
ATOM     39  C   UNL     1       7.571   1.214   6.716  1.00  0.00     0.049 A 
ATOM     40  N   UNL     1       8.638  -1.370   7.829  1.00  0.00    -0.248 NA
ATOM     41  C   UNL     1       7.755  -2.473   5.970  1.00  0.00     0.031 C 
ATOM     42  C   UNL     1       7.113   2.505   6.209  1.00  0.00     0.029 A 
ATOM     43  N   UNL     1       8.160   1.515   7.920  1.00  0.00    -0.354 N 
ATOM     44  C   UNL     1       8.916  -2.728   7.926  1.00  0.00     0.074 A 
ATOM     45  C   UNL     1       8.313  -3.365   6.775  1.00  0.00     0.031 C 
ATOM     46  C   UNL     1       7.454   3.465   7.085  1.00  0.00     0.029 A 
ATOM     47  C   UNL     1       8.140   2.854   8.223  1.00  0.00     0.049 A 
ATOM     48  H   UNL     1       8.557   0.835   8.511  1.00  0.00     0.167 HD
ATOM     49  C   UNL     1       9.625  -3.384   8.877  1.00  0.00     0.037 A 
ATOM     50  C   UNL     1       8.627   3.514   9.293  1.00  0.00     0.037 A 
ATOM     51  C   UNL     1      10.228  -2.756  10.024  1.00  0.00     0.049 A 
ATOM     52  C   UNL     1       9.369   2.753  10.361  1.00  0.00     0.074 A 
ATOM     53  C   UNL     1      10.978  -3.336  11.033  1.00  0.00     0.029 A 
ATOM     54  N   UNL     1      10.144  -1.403  10.318  1.00  0.00    -0.354 N 
ATOM     55  N   UNL     1       9.665   1.478  10.418  1.00  0.00    -0.248 NA
ATOM     56  C   UNL     1       9.860   3.533  11.507  1.00  0.00     0.031 C 
ATOM     57  C   UNL     1      11.305  -2.344  11.963  1.00  0.00     0.029 A 
ATOM     58  C   UNL     1      10.808  -1.135  11.505  1.00  0.00     0.049 A 
ATOM     59  H   UNL     1       9.681  -0.732   9.766  1.00  0.00     0.167 HD
ATOM     60  C   UNL     1      10.400   1.308  11.585  1.00  0.00     0.074 A 
ATOM     61  C   UNL     1      10.519   2.614  12.197  1.00  0.00     0.031 C 
ATOM     62  C   UNL     1      10.929   0.171  12.103  1.00  0.00     0.037 A 
BRANCH  49  63
ATOM     63  C   UNL     1       9.776  -4.870   8.724  1.00  0.00     0.064 A 
ATOM     64  C   UNL     1      10.593  -5.429   7.730  1.00  0.00     0.173 A 
ATOM     65  C   UNL     1       9.121  -5.745   9.604  1.00  0.00     0.173 A 
ATOM     66  F   UNL     1      11.230  -4.637   6.855  1.00  0.00    -0.203 F 
ATOM     67  C   UNL     1      10.727  -6.810   7.605  1.00  0.00     0.198 A 
ATOM     68  C   UNL     1       9.281  -7.124   9.495  1.00  0.00     0.198 A 
ATOM     69  F   UNL     1       8.333  -5.263  10.576  1.00  0.00    -0.203 F 
ATOM     70  F   UNL     1      11.475  -7.323   6.618  1.00  0.00    -0.200 F 
ATOM     71  C   UNL     1      10.077  -7.656   8.492  1.00  0.00     0.200 A 
ATOM     72  F   UNL     1       8.662  -7.939  10.360  1.00  0.00    -0.200 F 
ATOM     73  F   UNL     1      10.212  -8.984   8.374  1.00  0.00    -0.200 F 
ENDBRANCH  49  63
BRANCH  50  74
ATOM     74  C   UNL     1       8.441   4.985   9.404  1.00  0.00     0.064 A 
ATOM     75  C   UNL     1       9.530   5.864   9.319  1.00  0.00     0.173 A 
ATOM     76  C   UNL     1       7.172   5.538   9.625  1.00  0.00     0.173 A 
ATOM     77  F   UNL     1      10.768   5.381   9.135  1.00  0.00    -0.203 F 
ATOM     78  C   UNL     1       9.358   7.239   9.471  1.00  0.00     0.198 A 
ATOM     79  C   UNL     1       6.997   6.915   9.747  1.00  0.00     0.198 A 
ATOM     80  F   UNL     1       6.098   4.740   9.717  1.00  0.00    -0.203 F 
ATOM     81  F   UNL     1      10.423   8.052   9.436  1.00  0.00    -0.200 F 
ATOM     82  C   UNL     1       8.092   7.763   9.679  1.00  0.00     0.200 A 
ATOM     83  F   UNL     1       5.770   7.418   9.938  1.00  0.00    -0.200 F 
ATOM     84  F   UNL     1       7.927   9.085   9.825  1.00  0.00    -0.200 F 
ENDBRANCH  50  74
BRANCH  62  85
ATOM     85  C   UNL     1      11.719   0.293  13.375  1.00  0.00     0.064 A 
ATOM     86  C   UNL     1      11.104   0.577  14.603  1.00  0.00     0.173 A 
ATOM     87  C   UNL     1      13.109   0.099  13.368  1.00  0.00     0.173 A 
ATOM     88  F   UNL     1       9.780   0.784  14.663  1.00  0.00    -0.203 F 
ATOM     89  C   UNL     1      11.855   0.697  15.770  1.00  0.00     0.198 A 
ATOM     90  C   UNL     1      13.853   0.188  14.542  1.00  0.00     0.198 A 
ATOM     91  F   UNL     1      13.747  -0.184  12.222  1.00  0.00    -0.203 F 
ATOM     92  F   UNL     1      11.253   1.024  16.922  1.00  0.00    -0.200 F 
ATOM     93  C   UNL     1      13.227   0.496  15.740  1.00  0.00     0.200 A 
ATOM     94  F   UNL     1      15.177  -0.021  14.512  1.00  0.00    -0.200 F 
ATOM     95  F   UNL     1      13.948   0.610  16.864  1.00  0.00    -0.200 F 
ENDBRANCH  62  85
ENDBRANCH  36  37
ENDBRANCH  29  31
ENDBRANCH  28  29
ENDBRANCH  27  28
ENDBRANCH  26  27
ENDBRANCH   1  26
TORSDOF 16
