REMARK SMILES O=C(OCCOCCOC(=O)c1cccc2c(Br)ccnc12)c1ccc(-c2c3nc(c(-c4c(F)c(F)c(F)c(F)c4F)c4ccc([nH]4)c(-c4c(F)c(F)c(F)c(F)c4F)c4nc(c(-c5c(F)c(F)c(F)c(F)c5F)c5ccc2[nH]5)C=C4)C=C3)cc1
REMARK SMILES IDX 5 1 4 2 3 3 2 4 1 5 23 6 24 7 85 8 25 9 84 10 26 11 27 12
REMARK SMILES IDX 28 13 78 14 29 15 83 16 77 17 79 18 30 19 82 20 76 21 75 22
REMARK SMILES IDX 31 24 63 25 43 26 62 27 44 28 47 29 61 30 80 31 45 32 46 33
REMARK SMILES IDX 60 35 81 36 48 37 32 38 33 39 41 40 34 41 35 42 39 43 42 44
REMARK SMILES IDX 36 45 37 46 40 47 38 48 64 49 65 50 73 51 66 52 67 53 71 54
REMARK SMILES IDX 74 55 68 56 69 57 72 58 70 59 49 60 50 61 58 62 51 63 52 64
REMARK SMILES IDX 56 65 59 66 53 67 54 68 57 69 55 70 6 71 7 72 8 73 9 74
REMARK SMILES IDX 10 75 11 76 12 77 13 78 22 79 14 80 16 81 21 82 15 83 17 84
REMARK SMILES IDX 20 85 18 86 19 87
REMARK H PARENT 79 23 47 34
REMARK Flexibility Score: inf
ROOT
ATOM      1  C   UNL     1       4.305  -1.258  -0.613  1.00  0.00     0.202 C 
ENDROOT
BRANCH   1   2
ATOM      2  C   UNL     1       4.139  -1.067   0.897  1.00  0.00     0.261 C 
BRANCH   2   3
ATOM      3  O   UNL     1       2.797  -0.714   1.243  1.00  0.00    -0.460 OA
BRANCH   3   4
ATOM      4  C   UNL     1       2.211   0.501   1.128  1.00  0.00     0.338 C 
ATOM      5  O   UNL     1       0.992   0.561   1.296  1.00  0.00    -0.246 OA
BRANCH   4   6
ATOM      6  C   UNL     1       2.929   1.787   0.821  1.00  0.00     0.060 A 
ATOM      7  C   UNL     1       2.182   2.965   1.011  1.00  0.00     0.016 A 
ATOM      8  C   UNL     1       4.214   1.924   0.285  1.00  0.00     0.016 A 
ATOM      9  C   UNL     1       2.672   4.209   0.607  1.00  0.00     0.010 A 
ATOM     10  C   UNL     1       4.705   3.150  -0.138  1.00  0.00     0.010 A 
ATOM     11  C   UNL     1       3.927   4.291   0.003  1.00  0.00    -0.014 A 
BRANCH  11  12
ATOM     12  C   UNL     1       4.531   5.568  -0.388  1.00  0.00     0.031 A 
ATOM     13  C   UNL     1       4.612   5.964  -1.826  1.00  0.00     0.074 A 
ATOM     14  C   UNL     1       5.145   6.259   0.584  1.00  0.00     0.049 A 
ATOM     15  N   UNL     1       5.103   7.056  -2.348  1.00  0.00    -0.248 NA
ATOM     16  C   UNL     1       4.106   4.997  -2.814  1.00  0.00     0.031 C 
ATOM     17  C   UNL     1       5.217   5.837   1.986  1.00  0.00     0.029 A 
ATOM     18  N   UNL     1       5.846   7.429   0.546  1.00  0.00    -0.354 N 
ATOM     19  C   UNL     1       4.938   6.924  -3.720  1.00  0.00     0.074 A 
ATOM     20  C   UNL     1       4.368   5.617  -3.958  1.00  0.00     0.031 C 
ATOM     21  C   UNL     1       5.913   6.747   2.680  1.00  0.00     0.029 A 
ATOM     22  C   UNL     1       6.330   7.807   1.771  1.00  0.00     0.049 A 
ATOM     23  H   UNL     1       5.989   7.949  -0.277  1.00  0.00     0.167 HD
ATOM     24  C   UNL     1       5.220   7.840  -4.675  1.00  0.00     0.037 A 
ATOM     25  C   UNL     1       7.015   8.909   2.116  1.00  0.00     0.037 A 
ATOM     26  C   UNL     1       5.822   9.118  -4.382  1.00  0.00     0.049 A 
ATOM     27  C   UNL     1       7.284   9.925   1.046  1.00  0.00     0.074 A 
ATOM     28  C   UNL     1       6.091  10.168  -5.239  1.00  0.00     0.029 A 
ATOM     29  N   UNL     1       6.266   9.504  -3.122  1.00  0.00    -0.354 N 
ATOM     30  N   UNL     1       6.994   9.870  -0.233  1.00  0.00    -0.248 NA
ATOM     31  C   UNL     1       7.948  11.162   1.464  1.00  0.00     0.031 C 
ATOM     32  C   UNL     1       6.744  11.167  -4.508  1.00  0.00     0.029 A 
ATOM     33  C   UNL     1       6.834  10.765  -3.183  1.00  0.00     0.049 A 
ATOM     34  H   UNL     1       6.188   8.960  -2.305  1.00  0.00     0.167 HD
ATOM     35  C   UNL     1       7.431  11.066  -0.776  1.00  0.00     0.074 A 
ATOM     36  C   UNL     1       7.976  11.840   0.325  1.00  0.00     0.031 C 
ATOM     37  C   UNL     1       7.393  11.488  -2.065  1.00  0.00     0.037 A 
BRANCH  24  38
ATOM     38  C   UNL     1       4.858   7.520  -6.099  1.00  0.00     0.064 A 
ATOM     39  C   UNL     1       3.516   7.409  -6.502  1.00  0.00     0.173 A 
ATOM     40  C   UNL     1       5.844   7.403  -7.091  1.00  0.00     0.173 A 
ATOM     41  F   UNL     1       2.529   7.509  -5.598  1.00  0.00    -0.203 F 
ATOM     42  C   UNL     1       3.178   7.180  -7.834  1.00  0.00     0.198 A 
ATOM     43  C   UNL     1       5.502   7.202  -8.427  1.00  0.00     0.198 A 
ATOM     44  F   UNL     1       7.142   7.505  -6.770  1.00  0.00    -0.203 F 
ATOM     45  F   UNL     1       1.891   7.050  -8.184  1.00  0.00    -0.200 F 
ATOM     46  C   UNL     1       4.170   7.088  -8.797  1.00  0.00     0.200 A 
ATOM     47  F   UNL     1       6.461   7.131  -9.361  1.00  0.00    -0.200 F 
ATOM     48  F   UNL     1       3.843   6.891 -10.082  1.00  0.00    -0.200 F 
ENDBRANCH  24  38
BRANCH  25  49
ATOM     49  C   UNL     1       7.359   9.122   3.542  1.00  0.00     0.064 A 
ATOM     50  C   UNL     1       6.648  10.054   4.309  1.00  0.00     0.173 A 
ATOM     51  C   UNL     1       8.307   8.321   4.197  1.00  0.00     0.173 A 
ATOM     52  F   UNL     1       5.730  10.839   3.726  1.00  0.00    -0.203 F 
ATOM     53  C   UNL     1       6.871  10.178   5.678  1.00  0.00     0.198 A 
ATOM     54  C   UNL     1       8.511   8.429   5.571  1.00  0.00     0.198 A 
ATOM     55  F   UNL     1       8.993   7.395   3.511  1.00  0.00    -0.203 F 
ATOM     56  F   UNL     1       6.182  11.082   6.387  1.00  0.00    -0.200 F 
ATOM     57  C   UNL     1       7.794   9.358   6.310  1.00  0.00     0.200 A 
ATOM     58  F   UNL     1       9.382   7.615   6.183  1.00  0.00    -0.200 F 
ATOM     59  F   UNL     1       7.984   9.456   7.633  1.00  0.00    -0.200 F 
ENDBRANCH  25  49
BRANCH  37  60
ATOM     60  C   UNL     1       7.987  12.835  -2.345  1.00  0.00     0.064 A 
ATOM     61  C   UNL     1       9.373  13.043  -2.289  1.00  0.00     0.173 A 
ATOM     62  C   UNL     1       7.170  13.914  -2.713  1.00  0.00     0.173 A 
ATOM     63  F   UNL     1      10.191  12.043  -1.927  1.00  0.00    -0.203 F 
ATOM     64  C   UNL     1       9.918  14.292  -2.566  1.00  0.00     0.198 A 
ATOM     65  C   UNL     1       7.723  15.153  -3.023  1.00  0.00     0.198 A 
ATOM     66  F   UNL     1       5.839  13.763  -2.788  1.00  0.00    -0.203 F 
ATOM     67  F   UNL     1      11.240  14.482  -2.456  1.00  0.00    -0.200 F 
ATOM     68  C   UNL     1       9.094  15.342  -2.941  1.00  0.00     0.200 A 
ATOM     69  F   UNL     1       6.928  16.163  -3.402  1.00  0.00    -0.200 F 
ATOM     70  F   UNL     1       9.623  16.542  -3.217  1.00  0.00    -0.200 F 
ENDBRANCH  37  60
ENDBRANCH  11  12
ENDBRANCH   4   6
ENDBRANCH   3   4
ENDBRANCH   2   3
ENDBRANCH   1   2
BRANCH   1  71
ATOM     71  O   UNL     1       3.743  -0.206  -1.397  1.00  0.00    -0.374 OA
BRANCH  71  72
ATOM     72  C   UNL     1       2.525  -0.525  -2.065  1.00  0.00     0.202 C 
BRANCH  72  73
ATOM     73  C   UNL     1       2.795  -0.991  -3.494  1.00  0.00     0.261 C 
BRANCH  73  74
ATOM     74  O   UNL     1       3.419  -2.286  -3.470  1.00  0.00    -0.460 OA
BRANCH  74  75
ATOM     75  C   UNL     1       4.775  -2.309  -3.580  1.00  0.00     0.340 C 
ATOM     76  O   UNL     1       5.507  -1.372  -3.840  1.00  0.00    -0.246 OA
BRANCH  75  77
ATOM     77  C   UNL     1       5.210  -3.693  -3.288  1.00  0.00     0.086 A 
ATOM     78  C   UNL     1       4.575  -4.727  -3.992  1.00  0.00     0.018 A 
ATOM     79  C   UNL     1       6.193  -3.938  -2.312  1.00  0.00     0.086 A 
ATOM     80  C   UNL     1       4.930  -6.040  -3.745  1.00  0.00     0.002 A 
ATOM     81  C   UNL     1       6.555  -5.280  -2.066  1.00  0.00     0.015 A 
ATOM     82  N   UNL     1       6.748  -2.935  -1.592  1.00  0.00    -0.255 NA
ATOM     83  C   UNL     1       5.917  -6.312  -2.801  1.00  0.00     0.011 A 
ATOM     84  C   UNL     1       7.535  -5.511  -1.067  1.00  0.00     0.028 A 
ATOM     85  C   UNL     1       7.652  -3.200  -0.629  1.00  0.00     0.113 A 
ATOM     86  Br  UNL     1       8.182  -7.253  -0.647  1.00  0.00    -0.050 Br
ATOM     87  C   UNL     1       8.080  -4.466  -0.330  1.00  0.00     0.036 A 
ENDBRANCH  75  77
ENDBRANCH  74  75
ENDBRANCH  73  74
ENDBRANCH  72  73
ENDBRANCH  71  72
ENDBRANCH   1  71
TORSDOF 14
