REMARK SMILES COc1ccc(-c2nc3ccc(C)cc3[nH]2)c(C(=O)OCCOCCOC(=O)c2ccc(-c3c4nc(c(-c5c(F)c(F)c(F)c(F)c5F)c5ccc([nH]5)c(-c5c(F)c(F)c(F)c(F)c5F)c5nc(c(-c6c(F)c(F)c(F)c(F)c6F)c6ccc3[nH]6)C=C5)C=C4)cc2)c1OC
REMARK SMILES IDX 24 1 23 2 22 3 21 4 20 5 18 6 19 7 17 8 3 9 4 10 92 11 5 12
REMARK SMILES IDX 6 13 2 14 1 15 93 16 94 17 7 18 8 19 16 20 9 21 15 22 10 24
REMARK SMILES IDX 14 25 11 26 12 27 13 28 25 29 26 30 27 31 28 32 29 33 30 34
REMARK SMILES IDX 91 35 31 36 90 37 32 38 33 39 34 40 84 41 35 42 89 43 83 44
REMARK SMILES IDX 85 45 36 46 88 47 82 48 81 49 37 51 69 52 49 53 68 54 50 55
REMARK SMILES IDX 53 56 67 57 86 58 51 59 52 60 66 62 87 63 54 64 38 65 39 66
REMARK SMILES IDX 47 67 40 68 41 69 45 70 48 71 42 72 43 73 46 74 44 75 70 76
REMARK SMILES IDX 71 77 79 78 72 79 73 80 77 81 80 82 74 83 75 84 78 85 76 86
REMARK SMILES IDX 55 87 56 88 64 89 57 90 58 91 62 92 65 93 59 94 60 95 63 96
REMARK SMILES IDX 61 97
REMARK H PARENT 16 23 85 50 53 61
REMARK Flexibility Score: inf
ROOT
ATOM      1  C   UNL     1       4.889  -5.304  -2.991  1.00  0.00     0.202 C 
ENDROOT
BRANCH   1   2
ATOM      2  O   UNL     1       6.100  -4.960  -3.671  1.00  0.00    -0.374 OA
BRANCH   2   3
ATOM      3  C   UNL     1       6.599  -3.634  -3.466  1.00  0.00     0.202 C 
BRANCH   3   4
ATOM      4  C   UNL     1       5.800  -2.501  -4.118  1.00  0.00     0.261 C 
BRANCH   4   5
ATOM      5  O   UNL     1       4.600  -2.296  -3.361  1.00  0.00    -0.460 OA
BRANCH   5   6
ATOM      6  C   UNL     1       3.554  -1.807  -4.064  1.00  0.00     0.342 C 
ATOM      7  O   UNL     1       3.580  -1.257  -5.152  1.00  0.00    -0.246 OA
BRANCH   6   8
ATOM      8  C   UNL     1       2.310  -2.175  -3.356  1.00  0.00     0.116 A 
ATOM      9  C   UNL     1       0.838  -1.964  -1.467  1.00  0.00     0.161 A 
ATOM     10  C   UNL     1      -0.075  -2.818  -2.105  1.00  0.00     0.051 A 
ATOM     11  C   UNL     1       2.050  -1.631  -2.082  1.00  0.00     0.176 A 
ATOM     12  C   UNL     1       0.214  -3.382  -3.355  1.00  0.00     0.017 A 
ATOM     13  C   UNL     1       1.430  -3.097  -3.982  1.00  0.00     0.036 A 
BRANCH   9  14
ATOM     14  O   UNL     1       0.509  -1.572  -0.197  1.00  0.00    -0.493 OA
ATOM     15  C   UNL     1       0.025  -0.232  -0.151  1.00  0.00     0.278 C 
ENDBRANCH   9  14
BRANCH  11  16
ATOM     16  O   UNL     1       2.999  -0.779  -1.585  1.00  0.00    -0.492 OA
ATOM     17  C   UNL     1       3.227  -0.750  -0.181  1.00  0.00     0.278 C 
ENDBRANCH  11  16
BRANCH  13  18
ATOM     18  C   UNL     1       1.911  -3.910  -5.108  1.00  0.00     0.139 A 
ATOM     19  N   UNL     1       3.105  -4.461  -5.099  1.00  0.00    -0.228 NA
ATOM     20  N   UNL     1       1.258  -4.237  -6.278  1.00  0.00    -0.338 N 
ATOM     21  C   UNL     1       3.270  -5.087  -6.294  1.00  0.00     0.089 A 
ATOM     22  C   UNL     1       2.126  -4.970  -7.068  1.00  0.00     0.066 A 
ATOM     23  H   UNL     1       0.334  -3.992  -6.510  1.00  0.00     0.168 HD
ATOM     24  C   UNL     1       4.391  -5.771  -6.774  1.00  0.00     0.031 A 
ATOM     25  C   UNL     1       2.042  -5.517  -8.356  1.00  0.00     0.031 A 
ATOM     26  C   UNL     1       4.339  -6.313  -8.057  1.00  0.00     0.006 A 
ATOM     27  C   UNL     1       3.189  -6.181  -8.849  1.00  0.00    -0.049 A 
ATOM     28  C   UNL     1       3.211  -6.774 -10.230  1.00  0.00     0.044 C 
ENDBRANCH  13  18
ENDBRANCH   6   8
ENDBRANCH   5   6
ENDBRANCH   4   5
ENDBRANCH   3   4
ENDBRANCH   2   3
ENDBRANCH   1   2
BRANCH   1  29
ATOM     29  C   UNL     1       5.060  -5.958  -1.622  1.00  0.00     0.261 C 
BRANCH  29  30
ATOM     30  O   UNL     1       5.757  -5.098  -0.716  1.00  0.00    -0.460 OA
BRANCH  30  31
ATOM     31  C   UNL     1       7.086  -5.339  -0.660  1.00  0.00     0.338 C 
ATOM     32  O   UNL     1       7.709  -6.249  -1.177  1.00  0.00    -0.246 OA
BRANCH  31  33
ATOM     33  C   UNL     1       7.744  -4.228   0.043  1.00  0.00     0.060 A 
ATOM     34  C   UNL     1       8.919  -3.718  -0.523  1.00  0.00     0.016 A 
ATOM     35  C   UNL     1       7.266  -3.751   1.265  1.00  0.00     0.016 A 
ATOM     36  C   UNL     1       9.672  -2.788   0.178  1.00  0.00     0.010 A 
ATOM     37  C   UNL     1       8.024  -2.818   1.970  1.00  0.00     0.010 A 
ATOM     38  C   UNL     1       9.256  -2.383   1.452  1.00  0.00    -0.014 A 
BRANCH  38  39
ATOM     39  C   UNL     1      10.219  -1.681   2.325  1.00  0.00     0.031 A 
ATOM     40  C   UNL     1      10.981  -2.489   3.338  1.00  0.00     0.074 A 
ATOM     41  C   UNL     1      10.444  -0.367   2.178  1.00  0.00     0.049 A 
ATOM     42  N   UNL     1      11.886  -2.104   4.199  1.00  0.00    -0.248 NA
ATOM     43  C   UNL     1      10.677  -3.929   3.387  1.00  0.00     0.031 C 
ATOM     44  C   UNL     1       9.791   0.495   1.195  1.00  0.00     0.029 A 
ATOM     45  N   UNL     1      11.293   0.468   2.853  1.00  0.00    -0.354 N 
ATOM     46  C   UNL     1      12.251  -3.250   4.896  1.00  0.00     0.074 A 
ATOM     47  C   UNL     1      11.444  -4.335   4.386  1.00  0.00     0.031 C 
ATOM     48  C   UNL     1      10.273   1.742   1.325  1.00  0.00     0.029 A 
ATOM     49  C   UNL     1      11.244   1.767   2.417  1.00  0.00     0.049 A 
ATOM     50  H   UNL     1      11.883   0.165   3.581  1.00  0.00     0.167 HD
ATOM     51  C   UNL     1      13.186  -3.383   5.866  1.00  0.00     0.037 A 
ATOM     52  C   UNL     1      11.910   2.848   2.861  1.00  0.00     0.037 A 
ATOM     53  C   UNL     1      13.986  -2.295   6.361  1.00  0.00     0.049 A 
ATOM     54  C   UNL     1      12.895   2.687   3.989  1.00  0.00     0.074 A 
ATOM     55  C   UNL     1      14.977  -2.317   7.325  1.00  0.00     0.029 A 
ATOM     56  N   UNL     1      13.875  -0.980   5.929  1.00  0.00    -0.354 N 
ATOM     57  N   UNL     1      13.259   1.599   4.625  1.00  0.00    -0.248 NA
ATOM     58  C   UNL     1      13.566   3.907   4.455  1.00  0.00     0.031 C 
ATOM     59  C   UNL     1      15.427  -1.006   7.516  1.00  0.00     0.029 A 
ATOM     60  C   UNL     1      14.760  -0.175   6.628  1.00  0.00     0.049 A 
ATOM     61  H   UNL     1      13.259  -0.665   5.229  1.00  0.00     0.167 HD
ATOM     62  C   UNL     1      14.227   1.994   5.538  1.00  0.00     0.074 A 
ATOM     63  C   UNL     1      14.397   3.424   5.368  1.00  0.00     0.031 C 
ATOM     64  C   UNL     1      14.918   1.244   6.433  1.00  0.00     0.037 A 
BRANCH  51  65
ATOM     65  C   UNL     1      13.357  -4.746   6.474  1.00  0.00     0.064 A 
ATOM     66  C   UNL     1      13.902  -5.819   5.751  1.00  0.00     0.173 A 
ATOM     67  C   UNL     1      12.960  -4.984   7.798  1.00  0.00     0.173 A 
ATOM     68  F   UNL     1      14.282  -5.652   4.476  1.00  0.00    -0.203 F 
ATOM     69  C   UNL     1      14.005  -7.087   6.319  1.00  0.00     0.198 A 
ATOM     70  C   UNL     1      13.096  -6.245   8.373  1.00  0.00     0.198 A 
ATOM     71  F   UNL     1      12.435  -3.994   8.535  1.00  0.00    -0.203 F 
ATOM     72  F   UNL     1      14.468  -8.111   5.589  1.00  0.00    -0.200 F 
ATOM     73  C   UNL     1      13.607  -7.298   7.630  1.00  0.00     0.200 A 
ATOM     74  F   UNL     1      12.721  -6.443   9.645  1.00  0.00    -0.200 F 
ATOM     75  F   UNL     1      13.704  -8.518   8.175  1.00  0.00    -0.200 F 
ENDBRANCH  51  65
BRANCH  52  76
ATOM     76  C   UNL     1      11.687   4.169   2.220  1.00  0.00     0.064 A 
ATOM     77  C   UNL     1      12.692   4.775   1.454  1.00  0.00     0.173 A 
ATOM     78  C   UNL     1      10.470   4.852   2.359  1.00  0.00     0.173 A 
ATOM     79  F   UNL     1      13.880   4.171   1.311  1.00  0.00    -0.203 F 
ATOM     80  C   UNL     1      12.493   6.020   0.862  1.00  0.00     0.198 A 
ATOM     81  C   UNL     1      10.262   6.085   1.744  1.00  0.00     0.198 A 
ATOM     82  F   UNL     1       9.476   4.314   3.082  1.00  0.00    -0.203 F 
ATOM     83  F   UNL     1      13.485   6.596   0.169  1.00  0.00    -0.200 F 
ATOM     84  C   UNL     1      11.276   6.671   1.002  1.00  0.00     0.200 A 
ATOM     85  F   UNL     1       9.082   6.705   1.873  1.00  0.00    -0.200 F 
ATOM     86  F   UNL     1      11.084   7.867   0.429  1.00  0.00    -0.200 F 
ENDBRANCH  52  76
BRANCH  64  87
ATOM     87  C   UNL     1      15.957   1.947   7.259  1.00  0.00     0.064 A 
ATOM     88  C   UNL     1      15.610   2.846   8.278  1.00  0.00     0.173 A 
ATOM     89  C   UNL     1      17.321   1.692   7.044  1.00  0.00     0.173 A 
ATOM     90  F   UNL     1      14.322   3.135   8.514  1.00  0.00    -0.203 F 
ATOM     91  C   UNL     1      16.591   3.487   9.030  1.00  0.00     0.198 A 
ATOM     92  C   UNL     1      18.297   2.309   7.821  1.00  0.00     0.198 A 
ATOM     93  F   UNL     1      17.706   0.834   6.088  1.00  0.00    -0.203 F 
ATOM     94  F   UNL     1      16.238   4.384   9.961  1.00  0.00    -0.200 F 
ATOM     95  C   UNL     1      17.932   3.213   8.806  1.00  0.00     0.200 A 
ATOM     96  F   UNL     1      19.591   2.030   7.613  1.00  0.00    -0.200 F 
ATOM     97  F   UNL     1      18.874   3.828   9.535  1.00  0.00    -0.200 F 
ENDBRANCH  64  87
ENDBRANCH  38  39
ENDBRANCH  31  33
ENDBRANCH  30  31
ENDBRANCH  29  30
ENDBRANCH   1  29
TORSDOF 17
