REMARK SMILES CC[C@@H](C)[C@@H](C)Nc1cccc(F)c1C(=O)OCCOCCOC(=O)c1ccc(-c2c3nc(c(-c4c(F)c(F)c(F)c(F)c4F)c4ccc([nH]4)c(-c4c(F)c(F)c(F)c(F)c4F)c4nc(c(-c5c(F)c(F)c(F)c(F)c5F)c5ccc2[nH]5)C=C4)C=C3)cc1
REMARK SMILES IDX 19 1 18 2 17 3 15 4 16 5 14 6 8 7 9 8 10 9 12 10 11 11 13 12
REMARK SMILES IDX 7 13 5 15 6 16 3 17 4 18 2 19 1 20 20 21 21 22 22 23 23 24
REMARK SMILES IDX 24 25 25 26 26 27 27 28 88 29 28 30 87 31 29 32 30 33 31 34
REMARK SMILES IDX 81 35 32 36 86 37 80 38 82 39 33 40 85 41 79 42 78 43 34 45
REMARK SMILES IDX 66 46 46 47 65 48 47 49 50 50 64 51 83 52 48 53 49 54 63 56
REMARK SMILES IDX 84 57 51 58 35 59 36 60 44 61 37 62 38 63 42 64 45 65 39 66
REMARK SMILES IDX 40 67 43 68 41 69 67 70 68 71 76 72 69 73 70 74 74 75 77 76
REMARK SMILES IDX 71 77 72 78 75 79 73 80 52 81 53 82 61 83 54 84 55 85 59 86
REMARK SMILES IDX 62 87 56 88 57 89 60 90 58 91
REMARK H PARENT 7 14 82 44 50 55
REMARK Flexibility Score: inf
ROOT
ATOM      1  C   UNL     1       3.911   5.490  -4.438  1.00  0.00     0.202 C 
ENDROOT
BRANCH   1   2
ATOM      2  C   UNL     1       2.594   4.885  -4.931  1.00  0.00     0.261 C 
BRANCH   2   3
ATOM      3  O   UNL     1       1.449   5.517  -4.342  1.00  0.00    -0.460 OA
BRANCH   3   4
ATOM      4  C   UNL     1       0.942   4.827  -3.291  1.00  0.00     0.343 C 
ATOM      5  O   UNL     1       1.367   3.745  -2.910  1.00  0.00    -0.246 OA
BRANCH   4   6
ATOM      6  C   UNL     1      -0.058   5.616  -2.526  1.00  0.00     0.118 A 
ATOM      7  C   UNL     1      -0.158   5.428  -1.124  1.00  0.00     0.052 A 
ATOM      8  C   UNL     1      -1.138   6.149  -0.424  1.00  0.00     0.027 A 
ATOM      9  C   UNL     1      -1.975   7.056  -1.078  1.00  0.00     0.005 A 
ATOM     10  C   UNL     1      -0.903   6.523  -3.170  1.00  0.00     0.139 A 
ATOM     11  C   UNL     1      -1.853   7.246  -2.452  1.00  0.00     0.040 A 
ATOM     12  F   UNL     1      -0.842   6.715  -4.496  1.00  0.00    -0.206 F 
BRANCH   7  13
ATOM     13  N   UNL     1       0.696   4.562  -0.443  1.00  0.00    -0.382 N 
ATOM     14  H   UNL     1       1.667   4.651  -0.580  1.00  0.00     0.160 HD
BRANCH  13  15
ATOM     15  C   UNL     1       0.206   3.522   0.472  1.00  0.00     0.079 C 
ATOM     16  C   UNL     1       0.859   3.790   1.829  1.00  0.00     0.031 C 
BRANCH  15  17
ATOM     17  C   UNL     1       0.580   2.130  -0.139  1.00  0.00     0.008 C 
ATOM     18  C   UNL     1      -0.316   1.812  -1.353  1.00  0.00     0.010 C 
BRANCH  17  19
ATOM     19  C   UNL     1       0.521   0.960   0.864  1.00  0.00     0.002 C 
ATOM     20  C   UNL     1       1.027  -0.352   0.271  1.00  0.00     0.004 C 
ENDBRANCH  17  19
ENDBRANCH  15  17
ENDBRANCH  13  15
ENDBRANCH   7  13
ENDBRANCH   4   6
ENDBRANCH   3   4
ENDBRANCH   2   3
ENDBRANCH   1   2
BRANCH   1  21
ATOM     21  O   UNL     1       4.148   5.507  -3.032  1.00  0.00    -0.374 OA
BRANCH  21  22
ATOM     22  C   UNL     1       3.541   6.552  -2.267  1.00  0.00     0.202 C 
BRANCH  22  23
ATOM     23  C   UNL     1       4.151   7.953  -2.390  1.00  0.00     0.261 C 
BRANCH  23  24
ATOM     24  O   UNL     1       3.904   8.523  -3.689  1.00  0.00    -0.460 OA
BRANCH  24  25
ATOM     25  C   UNL     1       5.003   8.692  -4.458  1.00  0.00     0.338 C 
ATOM     26  O   UNL     1       6.172   8.534  -4.130  1.00  0.00    -0.246 OA
BRANCH  25  27
ATOM     27  C   UNL     1       4.602   8.902  -5.861  1.00  0.00     0.060 A 
ATOM     28  C   UNL     1       5.194   8.081  -6.831  1.00  0.00     0.016 A 
ATOM     29  C   UNL     1       3.705   9.907  -6.231  1.00  0.00     0.016 A 
ATOM     30  C   UNL     1       4.938   8.299  -8.181  1.00  0.00     0.010 A 
ATOM     31  C   UNL     1       3.461  10.135  -7.588  1.00  0.00     0.010 A 
ATOM     32  C   UNL     1       4.107   9.357  -8.567  1.00  0.00    -0.014 A 
BRANCH  32  33
ATOM     33  C   UNL     1       4.054   9.755  -9.992  1.00  0.00     0.031 A 
ATOM     34  C   UNL     1       4.936  10.879 -10.457  1.00  0.00     0.074 A 
ATOM     35  C   UNL     1       3.264   9.105 -10.862  1.00  0.00     0.049 A 
ATOM     36  N   UNL     1       5.031  11.424 -11.643  1.00  0.00    -0.248 NA
ATOM     37  C   UNL     1       5.834  11.469  -9.450  1.00  0.00     0.031 C 
ATOM     38  C   UNL     1       2.407   7.969 -10.534  1.00  0.00     0.029 A 
ATOM     39  N   UNL     1       3.054   9.313 -12.202  1.00  0.00    -0.354 N 
ATOM     40  C   UNL     1       5.991  12.420 -11.522  1.00  0.00     0.074 A 
ATOM     41  C   UNL     1       6.433  12.424 -10.146  1.00  0.00     0.031 C 
ATOM     42  C   UNL     1       1.754   7.583 -11.643  1.00  0.00     0.029 A 
ATOM     43  C   UNL     1       2.123   8.466 -12.749  1.00  0.00     0.049 A 
ATOM     44  H   UNL     1       3.526  10.004 -12.721  1.00  0.00     0.167 HD
ATOM     45  C   UNL     1       6.466  13.249 -12.480  1.00  0.00     0.037 A 
ATOM     46  C   UNL     1       1.613   8.426 -13.996  1.00  0.00     0.037 A 
ATOM     47  C   UNL     1       6.028  13.234 -13.850  1.00  0.00     0.049 A 
ATOM     48  C   UNL     1       2.104   9.408 -15.027  1.00  0.00     0.074 A 
ATOM     49  C   UNL     1       6.463  14.022 -14.901  1.00  0.00     0.029 A 
ATOM     50  N   UNL     1       5.051  12.391 -14.357  1.00  0.00    -0.354 N 
ATOM     51  N   UNL     1       3.018  10.341 -14.910  1.00  0.00    -0.248 NA
ATOM     52  C   UNL     1       1.493   9.335 -16.362  1.00  0.00     0.031 C 
ATOM     53  C   UNL     1       5.714  13.689 -16.033  1.00  0.00     0.029 A 
ATOM     54  C   UNL     1       4.849  12.658 -15.700  1.00  0.00     0.049 A 
ATOM     55  H   UNL     1       4.572  11.704 -13.838  1.00  0.00     0.167 HD
ATOM     56  C   UNL     1       3.108  10.949 -16.155  1.00  0.00     0.074 A 
ATOM     57  C   UNL     1       2.160  10.275 -17.018  1.00  0.00     0.031 C 
ATOM     58  C   UNL     1       3.905  11.973 -16.546  1.00  0.00     0.037 A 
BRANCH  45  59
ATOM     59  C   UNL     1       7.502  14.256 -12.083  1.00  0.00     0.064 A 
ATOM     60  C   UNL     1       7.181  15.621 -12.035  1.00  0.00     0.173 A 
ATOM     61  C   UNL     1       8.826  13.882 -11.812  1.00  0.00     0.173 A 
ATOM     62  F   UNL     1       5.928  16.030 -12.288  1.00  0.00    -0.203 F 
ATOM     63  C   UNL     1       8.151  16.576 -11.746  1.00  0.00     0.198 A 
ATOM     64  C   UNL     1       9.789  14.838 -11.497  1.00  0.00     0.198 A 
ATOM     65  F   UNL     1       9.179  12.588 -11.830  1.00  0.00    -0.203 F 
ATOM     66  F   UNL     1       7.828  17.876 -11.735  1.00  0.00    -0.200 F 
ATOM     67  C   UNL     1       9.453  16.183 -11.474  1.00  0.00     0.200 A 
ATOM     68  F   UNL     1      11.042  14.456 -11.213  1.00  0.00    -0.200 F 
ATOM     69  F   UNL     1      10.385  17.103 -11.188  1.00  0.00    -0.200 F 
ENDBRANCH  45  59
BRANCH  46  70
ATOM     70  C   UNL     1       0.574   7.419 -14.328  1.00  0.00     0.064 A 
ATOM     71  C   UNL     1      -0.718   7.502 -13.786  1.00  0.00     0.173 A 
ATOM     72  C   UNL     1       0.859   6.338 -15.173  1.00  0.00     0.173 A 
ATOM     73  F   UNL     1      -1.041   8.520 -12.975  1.00  0.00    -0.203 F 
ATOM     74  C   UNL     1      -1.677   6.529 -14.058  1.00  0.00     0.198 A 
ATOM     75  C   UNL     1      -0.109   5.379 -15.464  1.00  0.00     0.198 A 
ATOM     76  F   UNL     1       2.071   6.230 -15.736  1.00  0.00    -0.203 F 
ATOM     77  F   UNL     1      -2.893   6.615 -13.501  1.00  0.00    -0.200 F 
ATOM     78  C   UNL     1      -1.373   5.470 -14.899  1.00  0.00     0.200 A 
ATOM     79  F   UNL     1       0.180   4.370 -16.297  1.00  0.00    -0.200 F 
ATOM     80  F   UNL     1      -2.298   4.539 -15.168  1.00  0.00    -0.200 F 
ENDBRANCH  46  70
BRANCH  58  81
ATOM     81  C   UNL     1       3.813  12.427 -17.973  1.00  0.00     0.064 A 
ATOM     82  C   UNL     1       4.870  12.184 -18.864  1.00  0.00     0.173 A 
ATOM     83  C   UNL     1       2.728  13.188 -18.430  1.00  0.00     0.173 A 
ATOM     84  F   UNL     1       5.936  11.471 -18.470  1.00  0.00    -0.203 F 
ATOM     85  C   UNL     1       4.853  12.705 -20.154  1.00  0.00     0.198 A 
ATOM     86  C   UNL     1       2.702  13.685 -19.730  1.00  0.00     0.198 A 
ATOM     87  F   UNL     1       1.689  13.438 -17.619  1.00  0.00    -0.203 F 
ATOM     88  F   UNL     1       5.892  12.495 -20.974  1.00  0.00    -0.200 F 
ATOM     89  C   UNL     1       3.768  13.453 -20.587  1.00  0.00     0.200 A 
ATOM     90  F   UNL     1       1.645  14.391 -20.155  1.00  0.00    -0.200 F 
ATOM     91  F   UNL     1       3.752  13.953 -21.831  1.00  0.00    -0.200 F 
ENDBRANCH  58  81
ENDBRANCH  32  33
ENDBRANCH  25  27
ENDBRANCH  24  25
ENDBRANCH  23  24
ENDBRANCH  22  23
ENDBRANCH  21  22
ENDBRANCH   1  21
TORSDOF 18
