REMARK SMILES NS(=O)(=O)c1ccc(-n2nc(C(=O)OCCOCCOC(=O)c3ccc(-c4c5nc(c(-c6c(F)c(F)c(F)c(F)c6F)c6ccc([nH]6)c(-c6c(F)c(F)c(F)c(F)c6F)c6nc(c(-c7c(F)c(F)c(F)c(F)c7F)c7ccc4[nH]7)C=C6)C=C5)cc3)cc2-c2ccc(Cl)s2)cc1
REMARK SMILES IDX 16 1 15 2 14 3 12 4 13 5 11 6 9 7 10 8 87 9 86 10 8 11 5 12
REMARK SMILES IDX 6 13 95 14 7 15 94 16 2 17 3 18 4 19 1 20 88 23 89 24 93 25
REMARK SMILES IDX 90 26 91 27 92 28 17 29 18 30 19 31 20 32 21 33 22 34 23 35
REMARK SMILES IDX 24 36 85 37 25 38 84 39 26 40 27 41 28 42 78 43 29 44 83 45
REMARK SMILES IDX 77 46 79 47 30 48 82 49 76 50 75 51 31 53 63 54 43 55 62 56
REMARK SMILES IDX 44 57 47 58 61 59 80 60 45 61 46 62 60 64 81 65 48 66 32 67
REMARK SMILES IDX 33 68 41 69 34 70 35 71 39 72 42 73 36 74 37 75 40 76 38 77
REMARK SMILES IDX 64 78 65 79 73 80 66 81 67 82 71 83 74 84 68 85 69 86 72 87
REMARK SMILES IDX 70 88 49 89 50 90 58 91 51 92 52 93 56 94 59 95 53 96 54 97
REMARK SMILES IDX 57 98 55 99
REMARK H PARENT 1 21 1 22 79 52 47 63
REMARK Flexibility Score: inf
ROOT
ATOM      1  C   UNL     1       6.156  -8.713  -7.236  1.00  0.00     0.202 C 
ENDROOT
BRANCH   1   2
ATOM      2  C   UNL     1       5.105  -9.551  -6.504  1.00  0.00     0.261 C 
BRANCH   2   3
ATOM      3  O   UNL     1       3.958  -8.778  -6.117  1.00  0.00    -0.458 OA
BRANCH   3   4
ATOM      4  C   UNL     1       3.907  -8.450  -4.789  1.00  0.00     0.358 C 
ATOM      5  O   UNL     1       4.688  -8.865  -3.942  1.00  0.00    -0.244 OA
BRANCH   4   6
ATOM      6  C   UNL     1       2.858  -7.462  -4.511  1.00  0.00     0.171 A 
ATOM      7  N   UNL     1       1.847  -5.856  -3.530  1.00  0.00    -0.231 N 
ATOM      8  N   UNL     1       3.066  -6.418  -3.684  1.00  0.00    -0.160 NA
ATOM      9  C   UNL     1       0.898  -6.427  -4.361  1.00  0.00     0.085 A 
ATOM     10  C   UNL     1       1.549  -7.429  -5.048  1.00  0.00     0.068 A 
BRANCH   7  11
ATOM     11  C   UNL     1       1.632  -4.902  -2.511  1.00  0.00     0.065 A 
ATOM     12  C   UNL     1       0.996  -2.941  -0.657  1.00  0.00     0.082 A 
ATOM     13  C   UNL     1       0.377  -4.193  -0.578  1.00  0.00     0.024 A 
ATOM     14  C   UNL     1       1.951  -2.672  -1.645  1.00  0.00     0.024 A 
ATOM     15  C   UNL     1       0.687  -5.175  -1.514  1.00  0.00     0.030 A 
ATOM     16  C   UNL     1       2.293  -3.669  -2.566  1.00  0.00     0.030 A 
BRANCH  12  17
ATOM     17  S   UNL     1       0.505  -1.722   0.527  1.00  0.00     0.238 S 
ATOM     18  O   UNL     1       1.161  -2.012   1.774  1.00  0.00    -0.207 OA
ATOM     19  O   UNL     1      -0.928  -1.542   0.417  1.00  0.00    -0.207 OA
BRANCH  17  20
ATOM     20  N   UNL     1       1.172  -0.281  -0.021  1.00  0.00    -0.225 NA
ATOM     21  H   UNL     1       0.926   0.473   0.621  1.00  0.00     0.137 HD
ATOM     22  H   UNL     1       0.807  -0.069  -0.950  1.00  0.00     0.137 HD
ENDBRANCH  17  20
ENDBRANCH  12  17
ENDBRANCH   7  11
BRANCH   9  23
ATOM     23  C   UNL     1      -0.481  -6.044  -4.426  1.00  0.00     0.054 A 
ATOM     24  C   UNL     1      -1.566  -6.887  -4.277  1.00  0.00     0.024 A 
ATOM     25  S   UNL     1      -0.978  -4.422  -4.689  1.00  0.00    -0.122 S 
ATOM     26  C   UNL     1      -2.804  -6.178  -4.281  1.00  0.00     0.033 A 
ATOM     27  C   UNL     1      -2.603  -4.836  -4.476  1.00  0.00     0.094 A 
ATOM     28  Cl  UNL     1      -3.808  -3.615  -4.518  1.00  0.00    -0.072 Cl
ENDBRANCH   9  23
ENDBRANCH   4   6
ENDBRANCH   3   4
ENDBRANCH   2   3
ENDBRANCH   1   2
BRANCH   1  29
ATOM     29  O   UNL     1       6.841  -7.697  -6.508  1.00  0.00    -0.374 OA
BRANCH  29  30
ATOM     30  C   UNL     1       6.163  -6.511  -6.107  1.00  0.00     0.202 C 
BRANCH  30  31
ATOM     31  C   UNL     1       5.773  -5.503  -7.174  1.00  0.00     0.261 C 
BRANCH  31  32
ATOM     32  O   UNL     1       4.936  -6.075  -8.167  1.00  0.00    -0.460 OA
BRANCH  32  33
ATOM     33  C   UNL     1       5.580  -6.379  -9.316  1.00  0.00     0.338 C 
ATOM     34  O   UNL     1       6.782  -6.472  -9.494  1.00  0.00    -0.246 OA
BRANCH  33  35
ATOM     35  C   UNL     1       4.592  -6.403 -10.398  1.00  0.00     0.060 A 
ATOM     36  C   UNL     1       5.102  -6.563 -11.687  1.00  0.00     0.016 A 
ATOM     37  C   UNL     1       3.306  -5.898 -10.156  1.00  0.00     0.016 A 
ATOM     38  C   UNL     1       4.434  -5.952 -12.719  1.00  0.00     0.010 A 
ATOM     39  C   UNL     1       2.653  -5.270 -11.182  1.00  0.00     0.010 A 
ATOM     40  C   UNL     1       3.281  -5.217 -12.421  1.00  0.00    -0.014 A 
BRANCH  40  41
ATOM     41  C   UNL     1       2.659  -4.465 -13.483  1.00  0.00     0.031 A 
ATOM     42  C   UNL     1       1.881  -5.346 -14.371  1.00  0.00     0.074 A 
ATOM     43  C   UNL     1       2.718  -3.123 -13.555  1.00  0.00     0.049 A 
ATOM     44  N   UNL     1       2.219  -5.768 -15.542  1.00  0.00    -0.248 NA
ATOM     45  C   UNL     1       0.721  -6.041 -13.789  1.00  0.00     0.031 C 
ATOM     46  C   UNL     1       3.219  -2.175 -12.557  1.00  0.00     0.029 A 
ATOM     47  N   UNL     1       2.249  -2.310 -14.540  1.00  0.00    -0.354 N 
ATOM     48  C   UNL     1       1.178  -6.600 -15.935  1.00  0.00     0.074 A 
ATOM     49  C   UNL     1       0.453  -6.934 -14.741  1.00  0.00     0.031 C 
ATOM     50  C   UNL     1       2.826  -0.922 -12.891  1.00  0.00     0.029 A 
ATOM     51  C   UNL     1       2.176  -0.966 -14.189  1.00  0.00     0.049 A 
ATOM     52  H   UNL     1       1.985  -2.646 -15.427  1.00  0.00     0.167 HD
ATOM     53  C   UNL     1       0.799  -6.645 -17.240  1.00  0.00     0.037 A 
ATOM     54  C   UNL     1       1.543  -0.005 -14.910  1.00  0.00     0.037 A 
ATOM     55  C   UNL     1       1.841  -6.117 -18.089  1.00  0.00     0.049 A 
ATOM     56  C   UNL     1       1.400  -0.527 -16.295  1.00  0.00     0.074 A 
ATOM     57  C   UNL     1       3.143  -6.466 -18.383  1.00  0.00     0.029 A 
ATOM     58  N   UNL     1       1.700  -4.810 -18.481  1.00  0.00    -0.354 N 
ATOM     59  N   UNL     1       2.407  -0.748 -17.095  1.00  0.00    -0.248 NA
ATOM     60  C   UNL     1       0.175  -1.238 -16.624  1.00  0.00     0.031 C 
ATOM     61  C   UNL     1       3.836  -5.229 -18.558  1.00  0.00     0.029 A 
ATOM     62  C   UNL     1       2.917  -4.187 -18.427  1.00  0.00     0.049 A 
ATOM     63  H   UNL     1       0.855  -4.386 -18.758  1.00  0.00     0.167 HD
ATOM     64  C   UNL     1       2.086  -1.929 -17.750  1.00  0.00     0.074 A 
ATOM     65  C   UNL     1       0.663  -2.129 -17.491  1.00  0.00     0.031 C 
ATOM     66  C   UNL     1       3.073  -2.770 -18.183  1.00  0.00     0.037 A 
BRANCH  53  67
ATOM     67  C   UNL     1      -0.649  -6.701 -17.683  1.00  0.00     0.064 A 
ATOM     68  C   UNL     1      -0.921  -6.800 -19.062  1.00  0.00     0.173 A 
ATOM     69  C   UNL     1      -1.758  -6.360 -16.875  1.00  0.00     0.173 A 
ATOM     70  F   UNL     1       0.056  -7.100 -19.930  1.00  0.00    -0.203 F 
ATOM     71  C   UNL     1      -2.178  -6.493 -19.591  1.00  0.00     0.198 A 
ATOM     72  C   UNL     1      -3.023  -6.109 -17.401  1.00  0.00     0.198 A 
ATOM     73  F   UNL     1      -1.662  -6.139 -15.560  1.00  0.00    -0.203 F 
ATOM     74  F   UNL     1      -2.350  -6.471 -20.919  1.00  0.00    -0.200 F 
ATOM     75  C   UNL     1      -3.226  -6.141 -18.761  1.00  0.00     0.200 A 
ATOM     76  F   UNL     1      -4.017  -5.749 -16.576  1.00  0.00    -0.200 F 
ATOM     77  F   UNL     1      -4.412  -5.786 -19.269  1.00  0.00    -0.200 F 
ENDBRANCH  53  67
BRANCH  54  78
ATOM     78  C   UNL     1       0.710   1.117 -14.409  1.00  0.00     0.064 A 
ATOM     79  C   UNL     1       0.331   2.172 -15.258  1.00  0.00     0.173 A 
ATOM     80  C   UNL     1       0.018   1.023 -13.186  1.00  0.00     0.173 A 
ATOM     81  F   UNL     1       0.900   2.302 -16.466  1.00  0.00    -0.203 F 
ATOM     82  C   UNL     1      -0.694   3.062 -14.915  1.00  0.00     0.198 A 
ATOM     83  C   UNL     1      -1.001   1.914 -12.843  1.00  0.00     0.198 A 
ATOM     84  F   UNL     1       0.246   0.005 -12.345  1.00  0.00    -0.203 F 
ATOM     85  F   UNL     1      -1.072   4.015 -15.779  1.00  0.00    -0.200 F 
ATOM     86  C   UNL     1      -1.367   2.925 -13.712  1.00  0.00     0.200 A 
ATOM     87  F   UNL     1      -1.673   1.742 -11.695  1.00  0.00    -0.200 F 
ATOM     88  F   UNL     1      -2.392   3.734 -13.410  1.00  0.00    -0.200 F 
ENDBRANCH  54  78
BRANCH  66  89
ATOM     89  C   UNL     1       4.475  -2.224 -18.232  1.00  0.00     0.064 A 
ATOM     90  C   UNL     1       5.216  -1.823 -17.106  1.00  0.00     0.173 A 
ATOM     91  C   UNL     1       5.134  -2.226 -19.468  1.00  0.00     0.173 A 
ATOM     92  F   UNL     1       4.687  -1.878 -15.877  1.00  0.00    -0.203 F 
ATOM     93  C   UNL     1       6.543  -1.407 -17.225  1.00  0.00     0.198 A 
ATOM     94  C   UNL     1       6.469  -1.848 -19.579  1.00  0.00     0.198 A 
ATOM     95  F   UNL     1       4.491  -2.644 -20.570  1.00  0.00    -0.203 F 
ATOM     96  F   UNL     1       7.227  -1.016 -16.140  1.00  0.00    -0.200 F 
ATOM     97  C   UNL     1       7.170  -1.429 -18.461  1.00  0.00     0.200 A 
ATOM     98  F   UNL     1       7.082  -1.917 -20.768  1.00  0.00    -0.200 F 
ATOM     99  F   UNL     1       8.456  -1.069 -18.571  1.00  0.00    -0.200 F 
ENDBRANCH  66  89
ENDBRANCH  40  41
ENDBRANCH  33  35
ENDBRANCH  32  33
ENDBRANCH  31  32
ENDBRANCH  30  31
ENDBRANCH  29  30
ENDBRANCH   1  29
TORSDOF 18
