REMARK SMILES Cc1cc(C)c(NC(=O)C[C@H](C(=O)OCCOCCOC(=O)c2ccc(-c3c4nc(c(-c5c(F)c(F)c(F)c(F)c5F)c5ccc([nH]5)c(-c5c(F)c(F)c(F)c(F)c5F)c5nc(c(-c6c(F)c(F)c(F)c(F)c6F)c6ccc3[nH]6)C=C5)C=C4)cc2)[NH+]2CC[NH+](C)CC2)c(C)c1
REMARK SMILES IDX 16 1 15 2 14 3 12 4 13 5 11 6 10 7 8 8 7 9 9 11 6 12 1 13
REMARK SMILES IDX 2 14 3 15 95 16 4 17 93 18 5 19 94 20 86 21 87 22 92 23
REMARK SMILES IDX 88 25 91 26 89 27 90 28 17 30 18 31 19 32 20 33 21 34 22 35
REMARK SMILES IDX 23 36 24 37 85 38 25 39 84 40 26 41 27 42 28 43 78 44 29 45
REMARK SMILES IDX 83 46 77 47 79 48 30 49 82 50 76 51 75 52 31 54 63 55 43 56
REMARK SMILES IDX 62 57 44 58 47 59 61 60 80 61 45 62 46 63 60 65 81 66 48 67
REMARK SMILES IDX 32 68 33 69 41 70 34 71 35 72 39 73 42 74 36 75 37 76 40 77
REMARK SMILES IDX 38 78 64 79 65 80 73 81 66 82 67 83 71 84 74 85 68 86 69 87
REMARK SMILES IDX 72 88 70 89 49 90 50 91 58 92 51 93 52 94 56 95 59 96 53 97
REMARK SMILES IDX 54 98 57 99 55 100
REMARK H PARENT 7 10 86 24 89 29 79 53 47 64
REMARK Flexibility Score: inf
ROOT
ATOM      1  C   UNL     1      -5.033  -1.873  -1.895  1.00  0.00     0.202 C 
ENDROOT
BRANCH   1   2
ATOM      2  C   UNL     1      -3.946  -0.792  -1.859  1.00  0.00     0.261 C 
BRANCH   2   3
ATOM      3  O   UNL     1      -3.513  -0.443  -0.533  1.00  0.00    -0.459 OA
BRANCH   3   4
ATOM      4  C   UNL     1      -3.743   0.864  -0.178  1.00  0.00     0.365 C 
ATOM      5  O   UNL     1      -4.216   1.682  -0.957  1.00  0.00    -0.245 OA
BRANCH   4   6
ATOM      6  C   UNL     1      -3.399   1.109   1.331  1.00  0.00     0.304 C 
BRANCH   6   7
ATOM      7  C   UNL     1      -1.912   0.714   1.541  1.00  0.00     0.177 C 
BRANCH   7   8
ATOM      8  C   UNL     1      -0.838   1.656   2.067  1.00  0.00     0.231 C 
ATOM      9  N   UNL     1      -0.467   2.841   1.510  1.00  0.00    -0.325 N 
ATOM     10  H   UNL     1       0.309   3.271   1.936  1.00  0.00     0.169 HD
ATOM     11  O   UNL     1      -0.229   1.328   3.098  1.00  0.00    -0.274 OA
BRANCH   9  12
ATOM     12  C   UNL     1      -1.010   3.550   0.428  1.00  0.00     0.047 A 
ATOM     13  C   UNL     1      -3.726   5.507  -2.243  1.00  0.00     0.044 C 
ATOM     14  C   UNL     1      -2.644   4.905  -1.398  1.00  0.00    -0.050 A 
ATOM     15  C   UNL     1      -2.139   3.638  -1.699  1.00  0.00     0.009 A 
ATOM     16  C   UNL     1      -2.166   5.563  -0.265  1.00  0.00     0.009 A 
ATOM     17  C   UNL     1      -1.287   2.963  -0.811  1.00  0.00    -0.027 A 
ATOM     18  C   UNL     1      -1.302   4.915   0.630  1.00  0.00    -0.027 A 
ATOM     19  C   UNL     1      -0.617   1.710  -1.301  1.00  0.00     0.046 C 
ATOM     20  C   UNL     1      -0.752   5.696   1.794  1.00  0.00     0.046 C 
ENDBRANCH   9  12
ENDBRANCH   7   8
ENDBRANCH   6   7
BRANCH   6  21
ATOM     21  N   UNL     1      -3.877   2.438   1.778  1.00  0.00    -0.313 N 
ATOM     22  C   UNL     1      -3.647   2.787   3.190  1.00  0.00     0.325 C 
ATOM     23  C   UNL     1      -5.320   2.688   1.535  1.00  0.00     0.325 C 
ATOM     24  H   UNL     1      -3.288   3.026   1.188  1.00  0.00     0.349 HD
ATOM     25  C   UNL     1      -3.941   4.298   3.411  1.00  0.00     0.324 C 
ATOM     26  C   UNL     1      -5.604   4.202   1.650  1.00  0.00     0.324 C 
ATOM     27  N   UNL     1      -5.250   4.801   2.950  1.00  0.00    -0.328 N 
ATOM     28  C   UNL     1      -6.293   4.606   3.944  1.00  0.00     0.333 C 
ATOM     29  H   UNL     1      -5.168   5.810   2.819  1.00  0.00     0.348 HD
ENDBRANCH   6  21
ENDBRANCH   4   6
ENDBRANCH   3   4
ENDBRANCH   2   3
ENDBRANCH   1   2
BRANCH   1  30
ATOM     30  O   UNL     1      -6.096  -1.798  -0.955  1.00  0.00    -0.374 OA
BRANCH  30  31
ATOM     31  C   UNL     1      -5.794  -1.937   0.431  1.00  0.00     0.202 C 
BRANCH  31  32
ATOM     32  C   UNL     1      -5.091  -3.214   0.917  1.00  0.00     0.261 C 
BRANCH  32  33
ATOM     33  O   UNL     1      -3.806  -3.449   0.311  1.00  0.00    -0.460 OA
BRANCH  33  34
ATOM     34  C   UNL     1      -3.717  -4.604  -0.391  1.00  0.00     0.338 C 
ATOM     35  O   UNL     1      -4.591  -5.445  -0.557  1.00  0.00    -0.246 OA
BRANCH  34  36
ATOM     36  C   UNL     1      -2.427  -4.691  -1.092  1.00  0.00     0.060 A 
ATOM     37  C   UNL     1      -2.432  -4.719  -2.493  1.00  0.00     0.016 A 
ATOM     38  C   UNL     1      -1.248  -4.910  -0.379  1.00  0.00     0.016 A 
ATOM     39  C   UNL     1      -1.260  -5.008  -3.190  1.00  0.00     0.010 A 
ATOM     40  C   UNL     1      -0.077  -5.213  -1.079  1.00  0.00     0.010 A 
ATOM     41  C   UNL     1      -0.086  -5.299  -2.483  1.00  0.00    -0.014 A 
BRANCH  41  42
ATOM     42  C   UNL     1       1.094  -5.845  -3.193  1.00  0.00     0.031 A 
ATOM     43  C   UNL     1       1.329  -7.329  -3.181  1.00  0.00     0.074 A 
ATOM     44  C   UNL     1       1.958  -5.027  -3.817  1.00  0.00     0.049 A 
ATOM     45  N   UNL     1       2.350  -8.014  -3.629  1.00  0.00    -0.248 NA
ATOM     46  C   UNL     1       0.270  -8.150  -2.574  1.00  0.00     0.031 C 
ATOM     47  C   UNL     1       1.816  -3.578  -3.925  1.00  0.00     0.029 A 
ATOM     48  N   UNL     1       3.143  -5.303  -4.453  1.00  0.00    -0.354 N 
ATOM     49  C   UNL     1       2.068  -9.342  -3.337  1.00  0.00     0.074 A 
ATOM     50  C   UNL     1       0.788  -9.367  -2.664  1.00  0.00     0.031 C 
ATOM     51  C   UNL     1       2.893  -3.084  -4.558  1.00  0.00     0.029 A 
ATOM     52  C   UNL     1       3.813  -4.178  -4.864  1.00  0.00     0.049 A 
ATOM     53  H   UNL     1       3.478  -6.217  -4.599  1.00  0.00     0.167 HD
ATOM     54  C   UNL     1       2.814 -10.440  -3.607  1.00  0.00     0.037 A 
ATOM     55  C   UNL     1       5.046  -4.046  -5.391  1.00  0.00     0.037 A 
ATOM     56  C   UNL     1       4.083 -10.408  -4.286  1.00  0.00     0.049 A 
ATOM     57  C   UNL     1       5.882  -5.274  -5.638  1.00  0.00     0.074 A 
ATOM     58  C   UNL     1       4.892 -11.467  -4.653  1.00  0.00     0.029 A 
ATOM     59  N   UNL     1       4.731  -9.249  -4.688  1.00  0.00    -0.354 N 
ATOM     60  N   UNL     1       5.596  -6.530  -5.395  1.00  0.00    -0.248 NA
ATOM     61  C   UNL     1       7.211  -5.067  -6.232  1.00  0.00     0.031 C 
ATOM     62  C   UNL     1       6.056 -10.947  -5.230  1.00  0.00     0.029 A 
ATOM     63  C   UNL     1       5.947  -9.566  -5.270  1.00  0.00     0.049 A 
ATOM     64  H   UNL     1       4.379  -8.336  -4.577  1.00  0.00     0.167 HD
ATOM     65  C   UNL     1       6.694  -7.264  -5.825  1.00  0.00     0.074 A 
ATOM     66  C   UNL     1       7.651  -6.313  -6.350  1.00  0.00     0.031 C 
ATOM     67  C   UNL     1       6.887  -8.606  -5.793  1.00  0.00     0.037 A 
BRANCH  54  68
ATOM     68  C   UNL     1       2.296 -11.763  -3.127  1.00  0.00     0.064 A 
ATOM     69  C   UNL     1       1.185 -12.384  -3.719  1.00  0.00     0.173 A 
ATOM     70  C   UNL     1       2.932 -12.428  -2.068  1.00  0.00     0.173 A 
ATOM     71  F   UNL     1       0.534 -11.784  -4.726  1.00  0.00    -0.203 F 
ATOM     72  C   UNL     1       0.712 -13.606  -3.246  1.00  0.00     0.198 A 
ATOM     73  C   UNL     1       2.474 -13.662  -1.616  1.00  0.00     0.198 A 
ATOM     74  F   UNL     1       4.002 -11.880  -1.471  1.00  0.00    -0.203 F 
ATOM     75  F   UNL     1      -0.381 -14.155  -3.792  1.00  0.00    -0.200 F 
ATOM     76  C   UNL     1       1.359 -14.246  -2.199  1.00  0.00     0.200 A 
ATOM     77  F   UNL     1       3.107 -14.284  -0.612  1.00  0.00    -0.200 F 
ATOM     78  F   UNL     1       0.902 -15.421  -1.745  1.00  0.00    -0.200 F 
ENDBRANCH  54  68
BRANCH  55  79
ATOM     79  C   UNL     1       5.568  -2.689  -5.689  1.00  0.00     0.064 A 
ATOM     80  C   UNL     1       5.717  -2.242  -7.008  1.00  0.00     0.173 A 
ATOM     81  C   UNL     1       5.901  -1.800  -4.655  1.00  0.00     0.173 A 
ATOM     82  F   UNL     1       5.434  -3.064  -8.029  1.00  0.00    -0.203 F 
ATOM     83  C   UNL     1       6.183  -0.958  -7.283  1.00  0.00     0.198 A 
ATOM     84  C   UNL     1       6.343  -0.508  -4.931  1.00  0.00     0.198 A 
ATOM     85  F   UNL     1       5.774  -2.181  -3.376  1.00  0.00    -0.203 F 
ATOM     86  F   UNL     1       6.343  -0.564  -8.553  1.00  0.00    -0.200 F 
ATOM     87  C   UNL     1       6.487  -0.089  -6.245  1.00  0.00     0.200 A 
ATOM     88  F   UNL     1       6.622   0.331  -3.925  1.00  0.00    -0.200 F 
ATOM     89  F   UNL     1       6.921   1.150  -6.510  1.00  0.00    -0.200 F 
ENDBRANCH  55  79
BRANCH  67  90
ATOM     90  C   UNL     1       8.167  -9.139  -6.366  1.00  0.00     0.064 A 
ATOM     91  C   UNL     1       9.385  -9.017  -5.682  1.00  0.00     0.173 A 
ATOM     92  C   UNL     1       8.159  -9.848  -7.577  1.00  0.00     0.173 A 
ATOM     93  F   UNL     1       9.447  -8.336  -4.528  1.00  0.00    -0.203 F 
ATOM     94  C   UNL     1      10.551  -9.580  -6.195  1.00  0.00     0.198 A 
ATOM     95  C   UNL     1       9.321 -10.431  -8.074  1.00  0.00     0.198 A 
ATOM     96  F   UNL     1       7.017  -9.997  -8.265  1.00  0.00    -0.203 F 
ATOM     97  F   UNL     1      11.710  -9.430  -5.540  1.00  0.00    -0.200 F 
ATOM     98  C   UNL     1      10.516 -10.294  -7.384  1.00  0.00     0.200 A 
ATOM     99  F   UNL     1       9.282 -11.132  -9.215  1.00  0.00    -0.200 F 
ATOM    100  F   UNL     1      11.636 -10.850  -7.867  1.00  0.00    -0.200 F 
ENDBRANCH  67  90
ENDBRANCH  41  42
ENDBRANCH  34  36
ENDBRANCH  33  34
ENDBRANCH  32  33
ENDBRANCH  31  32
ENDBRANCH  30  31
ENDBRANCH   1  30
TORSDOF 18
