REMARK SMILES O=C(OCCOCCOC(=O)c1cc2ccccc2cc1OCCO)c1ccc(-c2c3nc(c(-c4c(F)c(F)c(F)c(F)c4F)c4ccc([nH]4)c(-c4c(F)c(F)c(F)c(F)c4F)c4nc(c(-c5c(F)c(F)c(F)c(F)c5F)c5ccc2[nH]5)C=C4)C=C3)cc1
REMARK SMILES IDX 7 1 6 2 5 3 4 4 3 5 2 6 1 7 26 8 27 9 88 10 28 11 87 12
REMARK SMILES IDX 29 13 30 14 31 15 81 16 32 17 86 18 80 19 82 20 33 21 85 22
REMARK SMILES IDX 79 23 78 24 34 26 66 27 46 28 65 29 47 30 50 31 64 32 83 33
REMARK SMILES IDX 48 34 49 35 63 37 84 38 51 39 35 40 36 41 44 42 37 43 38 44
REMARK SMILES IDX 42 45 45 46 39 47 40 48 43 49 41 50 67 51 68 52 76 53 69 54
REMARK SMILES IDX 70 55 74 56 77 57 71 58 72 59 75 60 73 61 52 62 53 63 61 64
REMARK SMILES IDX 54 65 55 66 59 67 62 68 56 69 57 70 60 71 58 72 8 73 9 74
REMARK SMILES IDX 10 75 11 76 12 77 13 78 21 79 14 80 20 81 15 82 19 83 16 84
REMARK SMILES IDX 18 85 17 86 22 87 23 88 24 89 25 90
REMARK H PARENT 82 25 50 36 25 91
REMARK Flexibility Score: inf
ROOT
ATOM      1  C   UNL     1       3.255   1.679  -1.187  1.00  0.00     0.202 C 
ENDROOT
BRANCH   1   2
ATOM      2  O   UNL     1       4.543   1.067  -1.051  1.00  0.00    -0.374 OA
BRANCH   2   3
ATOM      3  C   UNL     1       4.657  -0.292  -1.480  1.00  0.00     0.202 C 
BRANCH   3   4
ATOM      4  C   UNL     1       4.119  -1.367  -0.523  1.00  0.00     0.261 C 
BRANCH   4   5
ATOM      5  O   UNL     1       2.728  -1.165  -0.216  1.00  0.00    -0.460 OA
BRANCH   5   6
ATOM      6  C   UNL     1       2.180  -0.653   0.911  1.00  0.00     0.338 C 
ATOM      7  O   UNL     1       0.961  -0.717   1.059  1.00  0.00    -0.246 OA
BRANCH   6   8
ATOM      8  C   UNL     1       2.973   0.040   1.974  1.00  0.00     0.060 A 
ATOM      9  C   UNL     1       4.264   0.534   1.798  1.00  0.00     0.016 A 
ATOM     10  C   UNL     1       2.340   0.301   3.201  1.00  0.00     0.016 A 
ATOM     11  C   UNL     1       4.913   1.264   2.766  1.00  0.00     0.010 A 
ATOM     12  C   UNL     1       2.988   1.035   4.201  1.00  0.00     0.010 A 
ATOM     13  C   UNL     1       4.281   1.513   3.972  1.00  0.00    -0.014 A 
BRANCH  13  14
ATOM     14  C   UNL     1       5.133   2.114   5.000  1.00  0.00     0.031 A 
ATOM     15  C   UNL     1       5.801   1.183   5.959  1.00  0.00     0.074 A 
ATOM     16  C   UNL     1       5.492   3.403   4.872  1.00  0.00     0.049 A 
ATOM     17  N   UNL     1       6.660   1.442   6.904  1.00  0.00    -0.248 NA
ATOM     18  C   UNL     1       5.481  -0.248   5.807  1.00  0.00     0.031 C 
ATOM     19  C   UNL     1       5.027   4.304   3.813  1.00  0.00     0.029 A 
ATOM     20  N   UNL     1       6.376   4.159   5.589  1.00  0.00    -0.354 N 
ATOM     21  C   UNL     1       6.955   0.214   7.480  1.00  0.00     0.074 A 
ATOM     22  C   UNL     1       6.195  -0.792   6.778  1.00  0.00     0.031 C 
ATOM     23  C   UNL     1       5.652   5.486   3.937  1.00  0.00     0.029 A 
ATOM     24  C   UNL     1       6.501   5.443   5.120  1.00  0.00     0.049 A 
ATOM     25  H   UNL     1       6.874   3.816   6.365  1.00  0.00     0.167 HD
ATOM     26  C   UNL     1       7.780  -0.029   8.522  1.00  0.00     0.037 A 
ATOM     27  C   UNL     1       7.206   6.468   5.631  1.00  0.00     0.037 A 
ATOM     28  C   UNL     1       8.513   1.011   9.188  1.00  0.00     0.049 A 
ATOM     29  C   UNL     1       8.011   6.195   6.874  1.00  0.00     0.074 A 
ATOM     30  C   UNL     1       9.317   0.929  10.306  1.00  0.00     0.029 A 
ATOM     31  N   UNL     1       8.519   2.342   8.780  1.00  0.00    -0.354 N 
ATOM     32  N   UNL     1       8.216   5.054   7.493  1.00  0.00    -0.248 NA
ATOM     33  C   UNL     1       8.667   7.346   7.500  1.00  0.00     0.031 C 
ATOM     34  C   UNL     1       9.758   2.222  10.613  1.00  0.00     0.029 A 
ATOM     35  C   UNL     1       9.290   3.098   9.643  1.00  0.00     0.049 A 
ATOM     36  H   UNL     1       8.043   2.693   7.993  1.00  0.00     0.167 HD
ATOM     37  C   UNL     1       9.046   5.342   8.565  1.00  0.00     0.074 A 
ATOM     38  C   UNL     1       9.319   6.766   8.498  1.00  0.00     0.031 C 
ATOM     39  C   UNL     1       9.540   4.515   9.521  1.00  0.00     0.037 A 
BRANCH  26  40
ATOM     40  C   UNL     1       7.810  -1.433   9.050  1.00  0.00     0.064 A 
ATOM     41  C   UNL     1       8.381  -2.497   8.334  1.00  0.00     0.173 A 
ATOM     42  C   UNL     1       7.181  -1.728  10.269  1.00  0.00     0.173 A 
ATOM     43  F   UNL     1       8.960  -2.278   7.144  1.00  0.00    -0.203 F 
ATOM     44  C   UNL     1       8.285  -3.807   8.802  1.00  0.00     0.198 A 
ATOM     45  C   UNL     1       7.116  -3.033  10.749  1.00  0.00     0.198 A 
ATOM     46  F   UNL     1       6.605  -0.751  10.986  1.00  0.00    -0.203 F 
ATOM     47  F   UNL     1       8.768  -4.817   8.064  1.00  0.00    -0.200 F 
ATOM     48  C   UNL     1       7.656  -4.073  10.009  1.00  0.00     0.200 A 
ATOM     49  F   UNL     1       6.507  -3.286  11.915  1.00  0.00    -0.200 F 
ATOM     50  F   UNL     1       7.552  -5.335  10.449  1.00  0.00    -0.200 F 
ENDBRANCH  26  40
BRANCH  27  51
ATOM     51  C   UNL     1       7.135   7.823   5.020  1.00  0.00     0.064 A 
ATOM     52  C   UNL     1       8.275   8.453   4.500  1.00  0.00     0.173 A 
ATOM     53  C   UNL     1       5.926   8.536   4.971  1.00  0.00     0.173 A 
ATOM     54  F   UNL     1       9.461   7.828   4.538  1.00  0.00    -0.203 F 
ATOM     55  C   UNL     1       8.212   9.746   3.981  1.00  0.00     0.198 A 
ATOM     56  C   UNL     1       5.857   9.815   4.422  1.00  0.00     0.198 A 
ATOM     57  F   UNL     1       4.802   7.989   5.458  1.00  0.00    -0.203 F 
ATOM     58  F   UNL     1       9.329  10.345   3.544  1.00  0.00    -0.200 F 
ATOM     59  C   UNL     1       7.003  10.424   3.938  1.00  0.00     0.200 A 
ATOM     60  F   UNL     1       4.683  10.459   4.372  1.00  0.00    -0.200 F 
ATOM     61  F   UNL     1       6.945  11.668   3.443  1.00  0.00    -0.200 F 
ENDBRANCH  27  51
BRANCH  39  62
ATOM     62  C   UNL     1      10.465   5.129  10.528  1.00  0.00     0.064 A 
ATOM     63  C   UNL     1      10.004   6.012  11.514  1.00  0.00     0.173 A 
ATOM     64  C   UNL     1      11.826   4.790  10.525  1.00  0.00     0.173 A 
ATOM     65  F   UNL     1       8.713   6.376  11.547  1.00  0.00    -0.203 F 
ATOM     66  C   UNL     1      10.882   6.560  12.444  1.00  0.00     0.198 A 
ATOM     67  C   UNL     1      12.692   5.308  11.480  1.00  0.00     0.198 A 
ATOM     68  F   UNL     1      12.311   3.941   9.606  1.00  0.00    -0.203 F 
ATOM     69  F   UNL     1      10.434   7.448  13.341  1.00  0.00    -0.200 F 
ATOM     70  C   UNL     1      12.222   6.201  12.431  1.00  0.00     0.200 A 
ATOM     71  F   UNL     1      13.982   4.944  11.479  1.00  0.00    -0.200 F 
ATOM     72  F   UNL     1      13.064   6.721  13.335  1.00  0.00    -0.200 F 
ENDBRANCH  39  62
ENDBRANCH  13  14
ENDBRANCH   6   8
ENDBRANCH   5   6
ENDBRANCH   4   5
ENDBRANCH   3   4
ENDBRANCH   2   3
ENDBRANCH   1   2
BRANCH   1  73
ATOM     73  C   UNL     1       3.399   3.009  -1.923  1.00  0.00     0.261 C 
BRANCH  73  74
ATOM     74  O   UNL     1       3.724   2.708  -3.283  1.00  0.00    -0.460 OA
BRANCH  74  75
ATOM     75  C   UNL     1       5.023   2.493  -3.546  1.00  0.00     0.342 C 
ATOM     76  O   UNL     1       5.962   2.951  -2.924  1.00  0.00    -0.246 OA
BRANCH  75  77
ATOM     77  C   UNL     1       5.158   1.430  -4.577  1.00  0.00     0.102 A 
ATOM     78  C   UNL     1       6.311   0.628  -4.388  1.00  0.00     0.028 A 
ATOM     79  C   UNL     1       4.326   1.182  -5.676  1.00  0.00     0.134 A 
ATOM     80  C   UNL     1       6.709  -0.340  -5.319  1.00  0.00    -0.017 A 
ATOM     81  C   UNL     1       4.780   0.271  -6.650  1.00  0.00     0.056 A 
ATOM     82  C   UNL     1       7.845  -1.144  -5.118  1.00  0.00     0.009 A 
ATOM     83  C   UNL     1       5.964  -0.473  -6.501  1.00  0.00    -0.015 A 
ATOM     84  C   UNL     1       8.277  -2.022  -6.112  1.00  0.00     0.001 A 
ATOM     85  C   UNL     1       6.428  -1.338  -7.505  1.00  0.00     0.009 A 
ATOM     86  C   UNL     1       7.584  -2.097  -7.316  1.00  0.00     0.001 A 
BRANCH  79  87
ATOM     87  O   UNL     1       3.155   1.768  -6.059  1.00  0.00    -0.490 OA
BRANCH  87  88
ATOM     88  C   UNL     1       2.004   1.857  -5.215  1.00  0.00     0.257 C 
BRANCH  88  89
ATOM     89  C   UNL     1       1.482   0.612  -4.481  1.00  0.00     0.197 C 
BRANCH  89  90
ATOM     90  O   UNL     1       2.474  -0.229  -3.924  1.00  0.00    -0.393 OA
ATOM     91  H   UNL     1       3.026  -0.591  -4.634  1.00  0.00     0.210 HD
ENDBRANCH  89  90
ENDBRANCH  88  89
ENDBRANCH  87  88
ENDBRANCH  79  87
ENDBRANCH  75  77
ENDBRANCH  74  75
ENDBRANCH  73  74
ENDBRANCH   1  73
TORSDOF 18
