REMARK SMILES COc1cccc(N2CCN(c3ccc(NC(=O)c4ccc(F)cc4)c(C(=O)OCCOCCOC(=O)c4ccc(-c5c6nc(c(-c7c(F)c(F)c(F)c(F)c7F)c7ccc([nH]7)c(-c7c(F)c(F)c(F)c(F)c7F)c7nc(c(-c8c(F)c(F)c(F)c(F)c8F)c8ccc5[nH]8)C=C7)C=C6)cc4)c3)CC2)c1
REMARK SMILES IDX 31 1 30 2 29 3 27 4 28 5 26 6 12 7 13 8 101 9 14 10 15 11
REMARK SMILES IDX 11 12 8 13 9 14 103 15 10 16 102 17 7 18 3 19 4 20 104 21
REMARK SMILES IDX 5 22 6 23 2 24 1 25 16 26 17 27 18 29 19 30 20 31 25 32
REMARK SMILES IDX 21 33 24 34 22 35 23 36 32 37 33 38 34 39 35 40 36 41 37 42
REMARK SMILES IDX 38 43 39 44 100 45 40 46 99 47 41 48 42 49 43 50 93 51 44 52
REMARK SMILES IDX 98 53 92 54 94 55 45 56 97 57 91 58 90 59 46 61 78 62 58 63
REMARK SMILES IDX 77 64 59 65 62 66 76 67 95 68 60 69 61 70 75 72 96 73 63 74
REMARK SMILES IDX 47 75 48 76 56 77 49 78 50 79 54 80 57 81 51 82 52 83 55 84
REMARK SMILES IDX 53 85 79 86 80 87 88 88 81 89 82 90 86 91 89 92 83 93 84 94
REMARK SMILES IDX 87 95 85 96 64 97 65 98 73 99 66 100 67 101 71 102 74 103
REMARK SMILES IDX 68 104 69 105 72 106 70 107
REMARK H PARENT 16 28 94 60 62 71
REMARK Flexibility Score: inf
ROOT
ATOM      1  C   UNL     1      11.350  -5.811   6.027  1.00  0.00     0.202 C 
ENDROOT
BRANCH   1   2
ATOM      2  C   UNL     1      11.392  -4.413   5.397  1.00  0.00     0.261 C 
BRANCH   2   3
ATOM      3  O   UNL     1      10.446  -4.297   4.320  1.00  0.00    -0.460 OA
BRANCH   3   4
ATOM      4  C   UNL     1      10.983  -4.129   3.086  1.00  0.00     0.340 C 
ATOM      5  O   UNL     1      12.157  -3.912   2.825  1.00  0.00    -0.246 OA
BRANCH   4   6
ATOM      6  C   UNL     1       9.981  -4.506   2.061  1.00  0.00     0.085 A 
ATOM      7  C   UNL     1       7.650  -4.464   1.299  1.00  0.00     0.038 A 
ATOM      8  C   UNL     1       8.024  -5.378   0.311  1.00  0.00     0.028 A 
ATOM      9  C   UNL     1       8.651  -4.060   2.191  1.00  0.00     0.043 A 
ATOM     10  C   UNL     1       9.334  -5.847   0.191  1.00  0.00     0.029 A 
ATOM     11  C   UNL     1      10.351  -5.365   1.010  1.00  0.00     0.056 A 
BRANCH   7  12
ATOM     12  N   UNL     1       6.351  -4.030   1.411  1.00  0.00    -0.368 N 
ATOM     13  N   UNL     1       3.793  -3.567   2.541  1.00  0.00    -0.368 N 
ATOM     14  C   UNL     1       4.138  -4.920   2.093  1.00  0.00     0.138 C 
ATOM     15  C   UNL     1       4.910  -2.696   2.932  1.00  0.00     0.138 C 
ATOM     16  C   UNL     1       5.200  -4.848   0.972  1.00  0.00     0.138 C 
ATOM     17  C   UNL     1       5.993  -2.661   1.833  1.00  0.00     0.138 C 
BRANCH  13  18
ATOM     18  C   UNL     1       2.486  -3.147   2.576  1.00  0.00     0.040 A 
ATOM     19  C   UNL     1       0.759  -1.546   1.945  1.00  0.00     0.120 A 
ATOM     20  C   UNL     1      -0.186  -2.280   2.657  1.00  0.00     0.046 A 
ATOM     21  C   UNL     1       2.091  -1.968   1.928  1.00  0.00     0.072 A 
ATOM     22  C   UNL     1       0.184  -3.457   3.303  1.00  0.00     0.006 A 
ATOM     23  C   UNL     1       1.509  -3.891   3.248  1.00  0.00     0.026 A 
BRANCH  19  24
ATOM     24  O   UNL     1       0.295  -0.409   1.340  1.00  0.00    -0.497 OA
ATOM     25  C   UNL     1       0.930  -0.077   0.110  1.00  0.00     0.278 C 
ENDBRANCH  19  24
ENDBRANCH  13  18
ENDBRANCH   7  12
BRANCH  11  26
ATOM     26  N   UNL     1      11.701  -5.764   0.847  1.00  0.00    -0.321 N 
ATOM     27  C   UNL     1      12.360  -6.354  -0.212  1.00  0.00     0.255 C 
ATOM     28  H   UNL     1      12.271  -5.589   1.630  1.00  0.00     0.170 HD
ATOM     29  O   UNL     1      13.463  -6.871  -0.055  1.00  0.00    -0.269 OA
BRANCH  27  30
ATOM     30  C   UNL     1      11.781  -6.327  -1.573  1.00  0.00     0.040 A 
ATOM     31  C   UNL     1      11.715  -7.522  -2.300  1.00  0.00     0.017 A 
ATOM     32  C   UNL     1      11.264  -5.138  -2.111  1.00  0.00     0.017 A 
ATOM     33  C   UNL     1      11.053  -7.543  -3.527  1.00  0.00     0.040 A 
ATOM     34  C   UNL     1      10.588  -5.170  -3.330  1.00  0.00     0.040 A 
ATOM     35  C   UNL     1      10.479  -6.373  -4.020  1.00  0.00     0.123 A 
ATOM     36  F   UNL     1       9.800  -6.409  -5.173  1.00  0.00    -0.207 F 
ENDBRANCH  27  30
ENDBRANCH  11  26
ENDBRANCH   4   6
ENDBRANCH   3   4
ENDBRANCH   2   3
ENDBRANCH   1   2
BRANCH   1  37
ATOM     37  O   UNL     1      11.787  -6.897   5.211  1.00  0.00    -0.374 OA
BRANCH  37  38
ATOM     38  C   UNL     1      10.882  -7.384   4.222  1.00  0.00     0.202 C 
BRANCH  38  39
ATOM     39  C   UNL     1       9.761  -8.318   4.694  1.00  0.00     0.261 C 
BRANCH  39  40
ATOM     40  O   UNL     1       8.886  -7.690   5.647  1.00  0.00    -0.460 OA
BRANCH  40  41
ATOM     41  C   UNL     1       9.040  -8.131   6.918  1.00  0.00     0.338 C 
ATOM     42  O   UNL     1       9.760  -9.037   7.307  1.00  0.00    -0.246 OA
BRANCH  41  43
ATOM     43  C   UNL     1       8.325  -7.246   7.854  1.00  0.00     0.060 A 
ATOM     44  C   UNL     1       9.057  -6.729   8.929  1.00  0.00     0.016 A 
ATOM     45  C   UNL     1       6.956  -6.996   7.740  1.00  0.00     0.016 A 
ATOM     46  C   UNL     1       8.411  -6.009   9.929  1.00  0.00     0.010 A 
ATOM     47  C   UNL     1       6.307  -6.273   8.748  1.00  0.00     0.010 A 
ATOM     48  C   UNL     1       7.025  -5.812   9.867  1.00  0.00    -0.014 A 
BRANCH  48  49
ATOM     49  C   UNL     1       6.326  -5.235  11.041  1.00  0.00     0.031 A 
ATOM     50  C   UNL     1       5.574  -6.145  11.973  1.00  0.00     0.074 A 
ATOM     51  C   UNL     1       6.403  -3.919  11.302  1.00  0.00     0.049 A 
ATOM     52  N   UNL     1       4.913  -5.855  13.066  1.00  0.00    -0.248 NA
ATOM     53  C   UNL     1       5.560  -7.574  11.624  1.00  0.00     0.031 C 
ATOM     54  C   UNL     1       7.119  -2.941  10.486  1.00  0.00     0.029 A 
ATOM     55  N   UNL     1       5.872  -3.179  12.328  1.00  0.00    -0.354 N 
ATOM     56  C   UNL     1       4.403  -7.061  13.530  1.00  0.00     0.074 A 
ATOM     57  C   UNL     1       4.798  -8.080  12.581  1.00  0.00     0.031 C 
ATOM     58  C   UNL     1       6.977  -1.725  11.040  1.00  0.00     0.029 A 
ATOM     59  C   UNL     1       6.139  -1.837  12.232  1.00  0.00     0.049 A 
ATOM     60  H   UNL     1       5.349  -3.574  13.063  1.00  0.00     0.167 HD
ATOM     61  C   UNL     1       3.680  -7.298  14.652  1.00  0.00     0.037 A 
ATOM     62  C   UNL     1       5.737  -0.813  13.009  1.00  0.00     0.037 A 
ATOM     63  C   UNL     1       3.292  -6.281  15.596  1.00  0.00     0.049 A 
ATOM     64  C   UNL     1       4.897  -1.095  14.227  1.00  0.00     0.074 A 
ATOM     65  C   UNL     1       2.593  -6.424  16.782  1.00  0.00     0.029 A 
ATOM     66  N   UNL     1       3.561  -4.926  15.454  1.00  0.00    -0.354 N 
ATOM     67  N   UNL     1       4.458  -2.243  14.684  1.00  0.00    -0.248 NA
ATOM     68  C   UNL     1       4.507   0.062  15.044  1.00  0.00     0.031 C 
ATOM     69  C   UNL     1       2.384  -5.152  17.324  1.00  0.00     0.029 A 
ATOM     70  C   UNL     1       3.011  -4.220  16.513  1.00  0.00     0.049 A 
ATOM     71  H   UNL     1       4.067  -4.526  14.711  1.00  0.00     0.167 HD
ATOM     72  C   UNL     1       3.763  -1.951  15.851  1.00  0.00     0.074 A 
ATOM     73  C   UNL     1       3.859  -0.519  16.043  1.00  0.00     0.031 C 
ATOM     74  C   UNL     1       3.106  -2.792  16.689  1.00  0.00     0.037 A 
BRANCH  61  75
ATOM     75  C   UNL     1       3.233  -8.710  14.904  1.00  0.00     0.064 A 
ATOM     76  C   UNL     1       4.139  -9.727  15.242  1.00  0.00     0.173 A 
ATOM     77  C   UNL     1       1.872  -9.045  14.829  1.00  0.00     0.173 A 
ATOM     78  F   UNL     1       5.452  -9.465  15.316  1.00  0.00    -0.203 F 
ATOM     79  C   UNL     1       3.703 -11.032  15.463  1.00  0.00     0.198 A 
ATOM     80  C   UNL     1       1.436 -10.343  15.083  1.00  0.00     0.198 A 
ATOM     81  F   UNL     1       0.962  -8.111  14.514  1.00  0.00    -0.203 F 
ATOM     82  F   UNL     1       4.592 -11.998  15.731  1.00  0.00    -0.200 F 
ATOM     83  C   UNL     1       2.352 -11.337  15.390  1.00  0.00     0.200 A 
ATOM     84  F   UNL     1       0.129 -10.632  15.025  1.00  0.00    -0.200 F 
ATOM     85  F   UNL     1       1.933 -12.591  15.607  1.00  0.00    -0.200 F 
ENDBRANCH  61  75
BRANCH  62  86
ATOM     86  C   UNL     1       6.120   0.578  12.652  1.00  0.00     0.064 A 
ATOM     87  C   UNL     1       7.006   1.317  13.446  1.00  0.00     0.173 A 
ATOM     88  C   UNL     1       5.599   1.198  11.506  1.00  0.00     0.173 A 
ATOM     89  F   UNL     1       7.513   0.777  14.564  1.00  0.00    -0.203 F 
ATOM     90  C   UNL     1       7.343   2.630  13.119  1.00  0.00     0.198 A 
ATOM     91  C   UNL     1       5.961   2.499  11.162  1.00  0.00     0.198 A 
ATOM     92  F   UNL     1       4.748   0.534  10.710  1.00  0.00    -0.203 F 
ATOM     93  F   UNL     1       8.156   3.330  13.921  1.00  0.00    -0.200 F 
ATOM     94  C   UNL     1       6.826   3.216  11.973  1.00  0.00     0.200 A 
ATOM     95  F   UNL     1       5.471   3.055  10.046  1.00  0.00    -0.200 F 
ATOM     96  F   UNL     1       7.157   4.475  11.655  1.00  0.00    -0.200 F 
ENDBRANCH  62  86
BRANCH  74  97
ATOM     97  C   UNL     1       2.462  -2.186  17.905  1.00  0.00     0.064 A 
ATOM     98  C   UNL     1       1.340  -1.349  17.809  1.00  0.00     0.173 A 
ATOM     99  C   UNL     1       2.966  -2.458  19.187  1.00  0.00     0.173 A 
ATOM    100  F   UNL     1       0.825  -1.045  16.608  1.00  0.00    -0.203 F 
ATOM    101  C   UNL     1       0.772  -0.776  18.945  1.00  0.00     0.198 A 
ATOM    102  C   UNL     1       2.374  -1.913  20.323  1.00  0.00     0.198 A 
ATOM    103  F   UNL     1       4.031  -3.259  19.339  1.00  0.00    -0.203 F 
ATOM    104  F   UNL     1      -0.259   0.071  18.822  1.00  0.00    -0.200 F 
ATOM    105  C   UNL     1       1.286  -1.063  20.201  1.00  0.00     0.200 A 
ATOM    106  F   UNL     1       2.862  -2.205  21.537  1.00  0.00    -0.200 F 
ATOM    107  F   UNL     1       0.738  -0.511  21.292  1.00  0.00    -0.200 F 
ENDBRANCH  74  97
ENDBRANCH  48  49
ENDBRANCH  41  43
ENDBRANCH  40  41
ENDBRANCH  39  40
ENDBRANCH  38  39
ENDBRANCH  37  38
ENDBRANCH   1  37
TORSDOF 19
