REMARK SMILES CC1=C(C)C(=O)N(C[C@H](CC(C)C)C(=O)OCCOCCOC(=O)c2ccc(-c3c4nc(c(-c5c(F)c(F)c(F)c(F)c5F)c5ccc([nH]5)c(-c5c(F)c(F)c(F)c(F)c5F)c5nc(c(-c6c(F)c(F)c(F)c(F)c6F)c6ccc3[nH]6)C=C5)C=C4)cc2)C1=O
REMARK SMILES IDX 19 1 18 2 17 3 16 4 14 5 15 6 9 7 8 8 7 9 1 10 2 11 3 12
REMARK SMILES IDX 88 13 4 14 5 15 89 16 6 17 10 18 11 19 12 20 13 21 20 22
REMARK SMILES IDX 21 23 22 24 23 25 24 26 25 27 26 28 87 29 27 30 86 31 28 32
REMARK SMILES IDX 29 33 30 34 80 35 31 36 85 37 79 38 81 39 32 40 84 41 78 42
REMARK SMILES IDX 77 43 33 45 65 46 45 47 64 48 46 49 49 50 63 51 82 52 47 53
REMARK SMILES IDX 48 54 62 56 83 57 50 58 34 59 35 60 43 61 36 62 37 63 41 64
REMARK SMILES IDX 44 65 38 66 39 67 42 68 40 69 66 70 67 71 75 72 68 73 69 74
REMARK SMILES IDX 73 75 76 76 70 77 71 78 74 79 72 80 51 81 52 82 60 83 53 84
REMARK SMILES IDX 54 85 58 86 61 87 55 88 56 89 59 90 57 91
REMARK H PARENT 81 44 49 55
REMARK Flexibility Score: inf
ROOT
ATOM      1  O   UNL     1       3.668  -8.534  -3.266  1.00  0.00    -0.374 OA
ENDROOT
BRANCH   1   2
ATOM      2  C   UNL     1       3.655  -8.995  -1.917  1.00  0.00     0.202 C 
BRANCH   2   3
ATOM      3  C   UNL     1       4.222  -8.030  -0.874  1.00  0.00     0.261 C 
BRANCH   3   4
ATOM      4  O   UNL     1       3.317  -6.945  -0.582  1.00  0.00    -0.463 OA
BRANCH   4   5
ATOM      5  C   UNL     1       3.793  -5.685  -0.806  1.00  0.00     0.310 C 
ATOM      6  O   UNL     1       4.861  -5.423  -1.343  1.00  0.00    -0.252 OA
BRANCH   5   7
ATOM      7  C   UNL     1       2.844  -4.612  -0.280  1.00  0.00     0.119 C 
BRANCH   7   8
ATOM      8  C   UNL     1       3.033  -4.482   1.245  1.00  0.00     0.144 C 
BRANCH   8   9
ATOM      9  N   UNL     1       2.914  -5.718   1.996  1.00  0.00    -0.274 N 
ATOM     10  C   UNL     1       1.041  -8.655   3.065  1.00  0.00     0.051 C 
ATOM     11  C   UNL     1       2.096  -7.638   2.874  1.00  0.00     0.023 C 
ATOM     12  C   UNL     1       3.427  -7.717   2.967  1.00  0.00     0.023 C 
ATOM     13  C   UNL     1       1.772  -6.264   2.468  1.00  0.00     0.256 C 
ATOM     14  C   UNL     1       4.290  -8.835   3.404  1.00  0.00     0.051 C 
ATOM     15  C   UNL     1       3.969  -6.466   2.412  1.00  0.00     0.256 C 
ATOM     16  O   UNL     1       0.678  -5.757   2.618  1.00  0.00    -0.269 OA
ATOM     17  O   UNL     1       5.158  -6.216   2.316  1.00  0.00    -0.269 OA
ENDBRANCH   8   9
ENDBRANCH   7   8
BRANCH   7  18
ATOM     18  C   UNL     1       1.456  -4.688  -0.980  1.00  0.00     0.020 C 
BRANCH  18  19
ATOM     19  C   UNL     1       0.129  -4.758  -0.209  1.00  0.00    -0.017 C 
ATOM     20  C   UNL     1      -0.204  -3.490   0.577  1.00  0.00     0.007 C 
ATOM     21  C   UNL     1      -1.032  -5.020  -1.185  1.00  0.00     0.007 C 
ENDBRANCH  18  19
ENDBRANCH   7  18
ENDBRANCH   5   7
ENDBRANCH   4   5
ENDBRANCH   3   4
ENDBRANCH   2   3
ENDBRANCH   1   2
BRANCH   1  22
ATOM     22  C   UNL     1       2.720  -7.531  -3.619  1.00  0.00     0.202 C 
BRANCH  22  23
ATOM     23  C   UNL     1       1.298  -8.033  -3.897  1.00  0.00     0.261 C 
BRANCH  23  24
ATOM     24  O   UNL     1       0.681  -8.623  -2.736  1.00  0.00    -0.460 OA
BRANCH  24  25
ATOM     25  C   UNL     1       0.499  -9.962  -2.823  1.00  0.00     0.338 C 
ATOM     26  O   UNL     1       0.736 -10.680  -3.781  1.00  0.00    -0.246 OA
BRANCH  25  27
ATOM     27  C   UNL     1       0.078 -10.530  -1.526  1.00  0.00     0.060 A 
ATOM     28  C   UNL     1       0.755 -11.675  -1.088  1.00  0.00     0.016 A 
ATOM     29  C   UNL     1      -1.040 -10.061  -0.833  1.00  0.00     0.016 A 
ATOM     30  C   UNL     1       0.263 -12.411  -0.013  1.00  0.00     0.010 A 
ATOM     31  C   UNL     1      -1.537 -10.804   0.247  1.00  0.00     0.010 A 
ATOM     32  C   UNL     1      -0.922 -12.014   0.621  1.00  0.00    -0.014 A 
BRANCH  32  33
ATOM     33  C   UNL     1      -1.611 -12.986   1.509  1.00  0.00     0.031 A 
ATOM     34  C   UNL     1      -2.728 -13.822   0.939  1.00  0.00     0.074 A 
ATOM     35  C   UNL     1      -1.200 -13.190   2.773  1.00  0.00     0.049 A 
ATOM     36  N   UNL     1      -3.430 -14.771   1.505  1.00  0.00    -0.248 NA
ATOM     37  C   UNL     1      -3.097 -13.556  -0.461  1.00  0.00     0.031 C 
ATOM     38  C   UNL     1      -0.104 -12.482   3.427  1.00  0.00     0.029 A 
ATOM     39  N   UNL     1      -1.657 -14.062   3.729  1.00  0.00    -0.354 N 
ATOM     40  C   UNL     1      -4.318 -15.214   0.534  1.00  0.00     0.074 A 
ATOM     41  C   UNL     1      -4.094 -14.408  -0.646  1.00  0.00     0.031 C 
ATOM     42  C   UNL     1       0.023 -12.940   4.685  1.00  0.00     0.029 A 
ATOM     43  C   UNL     1      -0.990 -13.967   4.925  1.00  0.00     0.049 A 
ATOM     44  H   UNL     1      -2.394 -14.696   3.572  1.00  0.00     0.167 HD
ATOM     45  C   UNL     1      -5.228 -16.215   0.609  1.00  0.00     0.037 A 
ATOM     46  C   UNL     1      -1.178 -14.635   6.080  1.00  0.00     0.037 A 
ATOM     47  C   UNL     1      -5.450 -17.026   1.776  1.00  0.00     0.049 A 
ATOM     48  C   UNL     1      -2.228 -15.713   6.153  1.00  0.00     0.074 A 
ATOM     49  C   UNL     1      -6.348 -18.065   1.949  1.00  0.00     0.029 A 
ATOM     50  N   UNL     1      -4.766 -16.886   2.974  1.00  0.00    -0.354 N 
ATOM     51  N   UNL     1      -3.042 -16.143   5.220  1.00  0.00    -0.248 NA
ATOM     52  C   UNL     1      -2.373 -16.411   7.439  1.00  0.00     0.031 C 
ATOM     53  C   UNL     1      -6.233 -18.530   3.263  1.00  0.00     0.029 A 
ATOM     54  C   UNL     1      -5.230 -17.811   3.894  1.00  0.00     0.049 A 
ATOM     55  H   UNL     1      -4.055 -16.227   3.145  1.00  0.00     0.167 HD
ATOM     56  C   UNL     1      -3.762 -17.185   5.790  1.00  0.00     0.074 A 
ATOM     57  C   UNL     1      -3.287 -17.327   7.149  1.00  0.00     0.031 C 
ATOM     58  C   UNL     1      -4.729 -17.957   5.236  1.00  0.00     0.037 A 
BRANCH  45  59
ATOM     59  C   UNL     1      -6.066 -16.479  -0.606  1.00  0.00     0.064 A 
ATOM     60  C   UNL     1      -5.531 -17.092  -1.749  1.00  0.00     0.173 A 
ATOM     61  C   UNL     1      -7.429 -16.146  -0.615  1.00  0.00     0.173 A 
ATOM     62  F   UNL     1      -4.230 -17.415  -1.795  1.00  0.00    -0.203 F 
ATOM     63  C   UNL     1      -6.325 -17.343  -2.865  1.00  0.00     0.198 A 
ATOM     64  C   UNL     1      -8.226 -16.422  -1.723  1.00  0.00     0.198 A 
ATOM     65  F   UNL     1      -7.989 -15.561   0.454  1.00  0.00    -0.203 F 
ATOM     66  F   UNL     1      -5.784 -17.892  -3.961  1.00  0.00    -0.200 F 
ATOM     67  C   UNL     1      -7.673 -17.014  -2.848  1.00  0.00     0.200 A 
ATOM     68  F   UNL     1      -9.530 -16.113  -1.702  1.00  0.00    -0.200 F 
ATOM     69  F   UNL     1      -8.438 -17.262  -3.921  1.00  0.00    -0.200 F 
ENDBRANCH  45  59
BRANCH  46  70
ATOM     70  C   UNL     1      -0.343 -14.315   7.268  1.00  0.00     0.064 A 
ATOM     71  C   UNL     1       0.602 -15.226   7.758  1.00  0.00     0.173 A 
ATOM     72  C   UNL     1      -0.498 -13.102   7.954  1.00  0.00     0.173 A 
ATOM     73  F   UNL     1       0.770 -16.409   7.149  1.00  0.00    -0.203 F 
ATOM     74  C   UNL     1       1.344 -14.946   8.904  1.00  0.00     0.198 A 
ATOM     75  C   UNL     1       0.263 -12.812   9.084  1.00  0.00     0.198 A 
ATOM     76  F   UNL     1      -1.389 -12.196   7.524  1.00  0.00    -0.203 F 
ATOM     77  F   UNL     1       2.206 -15.855   9.380  1.00  0.00    -0.200 F 
ATOM     78  C   UNL     1       1.176 -13.738   9.564  1.00  0.00     0.200 A 
ATOM     79  F   UNL     1       0.106 -11.638   9.712  1.00  0.00    -0.200 F 
ATOM     80  F   UNL     1       1.889 -13.470  10.666  1.00  0.00    -0.200 F 
ENDBRANCH  46  70
BRANCH  58  81
ATOM     81  C   UNL     1      -5.296 -19.064   6.077  1.00  0.00     0.064 A 
ATOM     82  C   UNL     1      -6.154 -18.808   7.156  1.00  0.00     0.173 A 
ATOM     83  C   UNL     1      -5.003 -20.402   5.773  1.00  0.00     0.173 A 
ATOM     84  F   UNL     1      -6.454 -17.545   7.495  1.00  0.00    -0.203 F 
ATOM     85  C   UNL     1      -6.673 -19.850   7.920  1.00  0.00     0.198 A 
ATOM     86  C   UNL     1      -5.546 -21.443   6.521  1.00  0.00     0.198 A 
ATOM     87  F   UNL     1      -4.195 -20.701   4.745  1.00  0.00    -0.203 F 
ATOM     88  F   UNL     1      -7.450 -19.580   8.978  1.00  0.00    -0.200 F 
ATOM     89  C   UNL     1      -6.374 -21.166   7.598  1.00  0.00     0.200 A 
ATOM     90  F   UNL     1      -5.266 -22.714   6.201  1.00  0.00    -0.200 F 
ATOM     91  F   UNL     1      -6.877 -22.168   8.333  1.00  0.00    -0.200 F 
ENDBRANCH  58  81
ENDBRANCH  32  33
ENDBRANCH  25  27
ENDBRANCH  24  25
ENDBRANCH  23  24
ENDBRANCH  22  23
ENDBRANCH   1  22
TORSDOF 18
