REMARK SMILES Cc1cc(C(=O)OCCOCCOC(=O)c2ccc(-c3c4nc(c(-c5c(F)c(F)c(F)c(F)c5F)c5ccc([nH]5)c(-c5c(F)c(F)c(F)c(F)c5F)c5nc(c(-c6c(F)c(F)c(F)c(F)c6F)c6ccc3[nH]6)C=C5)C=C4)cc2)ccc1-c1ccc(/C=N/NC(=O)c2cccc(N(C)C)c2)o1
REMARK SMILES IDX 8 1 7 2 5 3 6 4 4 5 1 6 2 7 3 8 81 9 80 10 79 11 82 12 83 13
REMARK SMILES IDX 100 14 84 15 85 16 86 17 87 18 88 19 89 20 90 22 91 23 92 24
REMARK SMILES IDX 99 25 93 26 95 27 94 28 96 29 97 30 98 31 9 32 10 33 11 34
REMARK SMILES IDX 12 35 13 36 14 37 15 38 16 39 17 40 78 41 18 42 77 43 19 44
REMARK SMILES IDX 20 45 21 46 71 47 22 48 76 49 70 50 72 51 23 52 75 53 69 54
REMARK SMILES IDX 68 55 24 57 56 58 36 59 55 60 37 61 40 62 54 63 73 64 38 65
REMARK SMILES IDX 39 66 53 68 74 69 41 70 25 71 26 72 34 73 27 74 28 75 32 76
REMARK SMILES IDX 35 77 29 78 30 79 33 80 31 81 57 82 58 83 66 84 59 85 60 86
REMARK SMILES IDX 64 87 67 88 61 89 62 90 65 91 63 92 42 93 43 94 51 95 44 96
REMARK SMILES IDX 45 97 49 98 52 99 46 100 47 101 50 102 48 103
REMARK H PARENT 88 21 72 56 40 67
REMARK Flexibility Score: inf
ROOT
ATOM      1  C   UNL     1      -3.621  -2.195  -1.046  1.00  0.00     0.261 C 
ENDROOT
BRANCH   1   2
ATOM      2  O   UNL     1      -2.806  -1.316  -0.256  1.00  0.00    -0.460 OA
BRANCH   2   3
ATOM      3  C   UNL     1      -1.603  -1.744   0.226  1.00  0.00     0.338 C 
ATOM      4  O   UNL     1      -1.207  -2.873   0.389  1.00  0.00    -0.246 OA
BRANCH   3   5
ATOM      5  C   UNL     1      -0.773  -0.537   0.370  1.00  0.00     0.060 A 
ATOM      6  C   UNL     1       2.910   0.224  -0.005  1.00  0.00     0.045 C 
ATOM      7  C   UNL     1       1.428   0.444   0.110  1.00  0.00    -0.039 A 
ATOM      8  C   UNL     1       0.615  -0.682   0.293  1.00  0.00     0.019 A 
ATOM      9  C   UNL     1       0.809   1.703  -0.010  1.00  0.00     0.020 A 
ATOM     10  C   UNL     1      -0.577   1.834   0.174  1.00  0.00     0.013 A 
ATOM     11  C   UNL     1      -1.366   0.724   0.387  1.00  0.00     0.016 A 
BRANCH   9  12
ATOM     12  C   UNL     1       1.526   2.921  -0.306  1.00  0.00     0.135 A 
ATOM     13  C   UNL     1       2.432   3.333  -1.256  1.00  0.00     0.051 A 
ATOM     14  O   UNL     1       1.219   3.946   0.529  1.00  0.00    -0.455 OA
ATOM     15  C   UNL     1       2.742   4.679  -0.937  1.00  0.00     0.053 A 
ATOM     16  C   UNL     1       1.983   5.004   0.169  1.00  0.00     0.147 A 
BRANCH  16  17
ATOM     17  C   UNL     1       1.893   6.159   1.004  1.00  0.00     0.180 C 
ATOM     18  N   UNL     1       2.837   7.040   0.981  1.00  0.00    -0.177 NA
BRANCH  18  19
ATOM     19  N   UNL     1       2.751   8.083   1.846  1.00  0.00    -0.243 N 
ATOM     20  C   UNL     1       2.386   8.154   3.178  1.00  0.00     0.271 C 
ATOM     21  H   UNL     1       2.993   8.951   1.451  1.00  0.00     0.194 HD
ATOM     22  O   UNL     1       2.209   9.276   3.661  1.00  0.00    -0.267 OA
BRANCH  20  23
ATOM     23  C   UNL     1       2.225   6.967   4.071  1.00  0.00     0.043 A 
ATOM     24  C   UNL     1       1.440   7.145   5.214  1.00  0.00     0.014 A 
ATOM     25  C   UNL     1       2.873   5.733   3.880  1.00  0.00     0.039 A 
ATOM     26  C   UNL     1       1.289   6.108   6.124  1.00  0.00     0.003 A 
ATOM     27  C   UNL     1       2.696   4.632   4.752  1.00  0.00     0.037 A 
ATOM     28  C   UNL     1       1.899   4.872   5.884  1.00  0.00     0.026 A 
BRANCH  27  29
ATOM     29  N   UNL     1       3.294   3.400   4.510  1.00  0.00    -0.378 N 
ATOM     30  C   UNL     1       3.147   2.240   5.387  1.00  0.00     0.143 C 
ATOM     31  C   UNL     1       3.861   3.104   3.195  1.00  0.00     0.143 C 
ENDBRANCH  27  29
ENDBRANCH  20  23
ENDBRANCH  18  19
ENDBRANCH  16  17
ENDBRANCH   9  12
ENDBRANCH   3   5
ENDBRANCH   2   3
ENDBRANCH   1   2
BRANCH   1  32
ATOM     32  C   UNL     1      -3.077  -2.333  -2.430  1.00  0.00     0.202 C 
BRANCH  32  33
ATOM     33  O   UNL     1      -1.917  -3.133  -2.284  1.00  0.00    -0.374 OA
BRANCH  33  34
ATOM     34  C   UNL     1      -1.169  -3.349  -3.459  1.00  0.00     0.202 C 
BRANCH  34  35
ATOM     35  C   UNL     1      -1.985  -4.054  -4.547  1.00  0.00     0.261 C 
BRANCH  35  36
ATOM     36  O   UNL     1      -2.398  -5.357  -4.077  1.00  0.00    -0.460 OA
BRANCH  36  37
ATOM     37  C   UNL     1      -3.686  -5.466  -3.643  1.00  0.00     0.338 C 
ATOM     38  O   UNL     1      -4.671  -5.092  -4.258  1.00  0.00    -0.246 OA
BRANCH  37  39
ATOM     39  C   UNL     1      -3.703  -5.835  -2.195  1.00  0.00     0.060 A 
ATOM     40  C   UNL     1      -4.888  -5.706  -1.440  1.00  0.00     0.016 A 
ATOM     41  C   UNL     1      -2.482  -5.968  -1.542  1.00  0.00     0.016 A 
ATOM     42  C   UNL     1      -4.828  -5.544  -0.044  1.00  0.00     0.010 A 
ATOM     43  C   UNL     1      -2.421  -5.687  -0.196  1.00  0.00     0.010 A 
ATOM     44  C   UNL     1      -3.580  -5.440   0.563  1.00  0.00    -0.014 A 
BRANCH  44  45
ATOM     45  C   UNL     1      -3.297  -4.995   1.934  1.00  0.00     0.031 A 
ATOM     46  C   UNL     1      -2.516  -5.915   2.794  1.00  0.00     0.074 A 
ATOM     47  C   UNL     1      -3.424  -3.688   2.287  1.00  0.00     0.049 A 
ATOM     48  N   UNL     1      -2.209  -5.657   4.013  1.00  0.00    -0.248 NA
ATOM     49  C   UNL     1      -2.036  -7.234   2.376  1.00  0.00     0.031 C 
ATOM     50  C   UNL     1      -2.660  -2.942   3.296  1.00  0.00     0.029 A 
ATOM     51  N   UNL     1      -4.258  -2.693   1.757  1.00  0.00    -0.354 N 
ATOM     52  C   UNL     1      -1.254  -6.556   4.417  1.00  0.00     0.074 A 
ATOM     53  C   UNL     1      -1.278  -7.590   3.418  1.00  0.00     0.031 C 
ATOM     54  C   UNL     1      -3.234  -1.744   3.513  1.00  0.00     0.029 A 
ATOM     55  C   UNL     1      -4.462  -1.712   2.740  1.00  0.00     0.049 A 
ATOM     56  H   UNL     1      -4.638  -2.685   0.849  1.00  0.00     0.167 HD
ATOM     57  C   UNL     1      -0.499  -6.222   5.500  1.00  0.00     0.037 A 
ATOM     58  C   UNL     1      -5.718  -1.435   3.177  1.00  0.00     0.037 A 
ATOM     59  C   UNL     1      -1.060  -5.024   6.147  1.00  0.00     0.049 A 
ATOM     60  C   UNL     1      -5.793  -1.888   4.602  1.00  0.00     0.074 A 
ATOM     61  C   UNL     1      -0.662  -3.701   6.229  1.00  0.00     0.029 A 
ATOM     62  N   UNL     1      -2.399  -5.052   6.551  1.00  0.00    -0.354 N 
ATOM     63  N   UNL     1      -5.005  -2.817   5.077  1.00  0.00    -0.248 NA
ATOM     64  C   UNL     1      -6.607  -1.252   5.630  1.00  0.00     0.031 C 
ATOM     65  C   UNL     1      -1.810  -2.927   6.588  1.00  0.00     0.029 A 
ATOM     66  C   UNL     1      -2.893  -3.779   6.765  1.00  0.00     0.049 A 
ATOM     67  H   UNL     1      -2.924  -5.876   6.667  1.00  0.00     0.167 HD
ATOM     68  C   UNL     1      -5.087  -2.818   6.431  1.00  0.00     0.074 A 
ATOM     69  C   UNL     1      -6.145  -1.868   6.733  1.00  0.00     0.031 C 
ATOM     70  C   UNL     1      -4.269  -3.574   7.215  1.00  0.00     0.037 A 
BRANCH  57  71
ATOM     71  C   UNL     1       0.810  -6.865   5.917  1.00  0.00     0.064 A 
ATOM     72  C   UNL     1       1.453  -6.445   7.102  1.00  0.00     0.173 A 
ATOM     73  C   UNL     1       1.532  -7.828   5.176  1.00  0.00     0.173 A 
ATOM     74  F   UNL     1       0.902  -5.519   7.899  1.00  0.00    -0.203 F 
ATOM     75  C   UNL     1       2.696  -6.949   7.510  1.00  0.00     0.198 A 
ATOM     76  C   UNL     1       2.751  -8.365   5.608  1.00  0.00     0.198 A 
ATOM     77  F   UNL     1       1.131  -8.257   3.977  1.00  0.00    -0.203 F 
ATOM     78  F   UNL     1       3.273  -6.476   8.623  1.00  0.00    -0.200 F 
ATOM     79  C   UNL     1       3.338  -7.920   6.770  1.00  0.00     0.200 A 
ATOM     80  F   UNL     1       3.361  -9.303   4.868  1.00  0.00    -0.200 F 
ATOM     81  F   UNL     1       4.521  -8.410   7.163  1.00  0.00    -0.200 F 
ENDBRANCH  57  71
BRANCH  58  82
ATOM     82  C   UNL     1      -6.711  -1.532   2.064  1.00  0.00     0.064 A 
ATOM     83  C   UNL     1      -6.634  -0.523   1.074  1.00  0.00     0.173 A 
ATOM     84  C   UNL     1      -7.274  -2.758   1.677  1.00  0.00     0.173 A 
ATOM     85  F   UNL     1      -6.068   0.659   1.369  1.00  0.00    -0.203 F 
ATOM     86  C   UNL     1      -6.960  -0.776  -0.259  1.00  0.00     0.198 A 
ATOM     87  C   UNL     1      -7.591  -3.009   0.334  1.00  0.00     0.198 A 
ATOM     88  F   UNL     1      -7.363  -3.768   2.553  1.00  0.00    -0.203 F 
ATOM     89  F   UNL     1      -6.700   0.146  -1.199  1.00  0.00    -0.200 F 
ATOM     90  C   UNL     1      -7.396  -2.035  -0.635  1.00  0.00     0.200 A 
ATOM     91  F   UNL     1      -7.975  -4.237  -0.045  1.00  0.00    -0.200 F 
ATOM     92  F   UNL     1      -7.537  -2.333  -1.936  1.00  0.00    -0.200 F 
ENDBRANCH  58  82
BRANCH  70  93
ATOM     93  C   UNL     1      -4.734  -4.130   8.529  1.00  0.00     0.064 A 
ATOM     94  C   UNL     1      -6.096  -4.280   8.851  1.00  0.00     0.173 A 
ATOM     95  C   UNL     1      -3.822  -4.714   9.434  1.00  0.00     0.173 A 
ATOM     96  F   UNL     1      -7.068  -3.911   8.005  1.00  0.00    -0.203 F 
ATOM     97  C   UNL     1      -6.511  -4.874  10.039  1.00  0.00     0.198 A 
ATOM     98  C   UNL     1      -4.245  -5.380  10.579  1.00  0.00     0.198 A 
ATOM     99  F   UNL     1      -2.499  -4.695   9.216  1.00  0.00    -0.203 F 
ATOM    100  F   UNL     1      -7.818  -4.927  10.328  1.00  0.00    -0.200 F 
ATOM    101  C   UNL     1      -5.587  -5.434  10.897  1.00  0.00     0.200 A 
ATOM    102  F   UNL     1      -3.344  -5.992  11.360  1.00  0.00    -0.200 F 
ATOM    103  F   UNL     1      -5.991  -6.046  12.016  1.00  0.00    -0.200 F 
ENDBRANCH  70  93
ENDBRANCH  44  45
ENDBRANCH  37  39
ENDBRANCH  36  37
ENDBRANCH  35  36
ENDBRANCH  34  35
ENDBRANCH  33  34
ENDBRANCH  32  33
ENDBRANCH   1  32
TORSDOF 19
