REMARK SMILES O=C(OCCOCCOC(=O)[C@@H]1Cc2ccccc2CN1C(=O)COc1ccccc1)c1ccc(-c2c3nc(c(-c4c(F)c(F)c(F)c(F)c4F)c4ccc([nH]4)c(-c4c(F)c(F)c(F)c(F)c4F)c4nc(c(-c5c(F)c(F)c(F)c(F)c5F)c5ccc2[nH]5)C=C4)C=C3)cc1
REMARK SMILES IDX 7 1 6 2 5 3 4 4 3 5 2 6 1 7 32 8 33 9 94 10 34 11 93 12
REMARK SMILES IDX 35 13 36 14 37 15 87 16 38 17 92 18 86 19 88 20 39 21 91 22
REMARK SMILES IDX 85 23 84 24 40 26 72 27 52 28 71 29 53 30 56 31 70 32 89 33
REMARK SMILES IDX 54 34 55 35 69 37 90 38 57 39 41 40 42 41 50 42 43 43 44 44
REMARK SMILES IDX 48 45 51 46 45 47 46 48 49 49 47 50 73 51 74 52 82 53 75 54
REMARK SMILES IDX 76 55 80 56 83 57 77 58 78 59 81 60 79 61 58 62 59 63 67 64
REMARK SMILES IDX 60 65 61 66 65 67 68 68 62 69 63 70 66 71 64 72 8 73 9 74
REMARK SMILES IDX 10 75 11 76 12 77 13 78 21 79 14 80 20 81 15 82 19 83 16 84
REMARK SMILES IDX 18 85 17 86 22 87 23 88 24 89 25 90 26 91 27 92 31 93 28 94
REMARK SMILES IDX 30 95 29 96
REMARK H PARENT 88 25 56 36
REMARK Flexibility Score: inf
ROOT
ATOM      1  C   UNL     1       2.995   4.809   3.904  1.00  0.00     0.202 C 
ENDROOT
BRANCH   1   2
ATOM      2  O   UNL     1       2.535   3.565   4.449  1.00  0.00    -0.374 OA
BRANCH   2   3
ATOM      3  C   UNL     1       2.348   2.485   3.528  1.00  0.00     0.202 C 
BRANCH   3   4
ATOM      4  C   UNL     1       1.109   2.490   2.611  1.00  0.00     0.261 C 
BRANCH   4   5
ATOM      5  O   UNL     1       1.054   3.672   1.774  1.00  0.00    -0.460 OA
BRANCH   5   6
ATOM      6  C   UNL     1       0.255   4.764   1.908  1.00  0.00     0.338 C 
ATOM      7  O   UNL     1       0.276   5.657   1.065  1.00  0.00    -0.246 OA
BRANCH   6   8
ATOM      8  C   UNL     1      -0.661   4.896   3.067  1.00  0.00     0.060 A 
ATOM      9  C   UNL     1      -0.376   4.289   4.277  1.00  0.00     0.016 A 
ATOM     10  C   UNL     1      -1.827   5.665   2.979  1.00  0.00     0.016 A 
ATOM     11  C   UNL     1      -1.264   4.242   5.306  1.00  0.00     0.010 A 
ATOM     12  C   UNL     1      -2.692   5.750   4.081  1.00  0.00     0.010 A 
ATOM     13  C   UNL     1      -2.406   5.016   5.237  1.00  0.00    -0.014 A 
BRANCH  13  14
ATOM     14  C   UNL     1      -3.257   4.900   6.422  1.00  0.00     0.031 A 
ATOM     15  C   UNL     1      -4.471   4.043   6.321  1.00  0.00     0.074 A 
ATOM     16  C   UNL     1      -2.736   5.293   7.601  1.00  0.00     0.049 A 
ATOM     17  N   UNL     1      -5.361   3.777   7.232  1.00  0.00    -0.248 NA
ATOM     18  C   UNL     1      -4.704   3.367   5.030  1.00  0.00     0.031 C 
ATOM     19  C   UNL     1      -1.418   5.927   7.770  1.00  0.00     0.029 A 
ATOM     20  N   UNL     1      -3.182   5.130   8.880  1.00  0.00    -0.354 N 
ATOM     21  C   UNL     1      -6.298   2.970   6.607  1.00  0.00     0.074 A 
ATOM     22  C   UNL     1      -5.847   2.738   5.256  1.00  0.00     0.031 C 
ATOM     23  C   UNL     1      -1.140   6.033   9.076  1.00  0.00     0.029 A 
ATOM     24  C   UNL     1      -2.309   5.608   9.829  1.00  0.00     0.049 A 
ATOM     25  H   UNL     1      -4.045   4.712   9.103  1.00  0.00     0.167 HD
ATOM     26  C   UNL     1      -7.453   2.513   7.136  1.00  0.00     0.037 A 
ATOM     27  C   UNL     1      -2.484   5.747  11.154  1.00  0.00     0.037 A 
ATOM     28  C   UNL     1      -7.824   2.766   8.500  1.00  0.00     0.049 A 
ATOM     29  C   UNL     1      -3.817   5.316  11.696  1.00  0.00     0.074 A 
ATOM     30  C   UNL     1      -9.004   2.474   9.152  1.00  0.00     0.029 A 
ATOM     31  N   UNL     1      -6.986   3.376   9.430  1.00  0.00    -0.354 N 
ATOM     32  N   UNL     1      -4.796   4.698  11.075  1.00  0.00    -0.248 NA
ATOM     33  C   UNL     1      -4.098   5.640  13.096  1.00  0.00     0.031 C 
ATOM     34  C   UNL     1      -8.894   2.944  10.466  1.00  0.00     0.029 A 
ATOM     35  C   UNL     1      -7.628   3.487  10.647  1.00  0.00     0.049 A 
ATOM     36  H   UNL     1      -6.068   3.682   9.246  1.00  0.00     0.167 HD
ATOM     37  C   UNL     1      -5.817   4.572  11.999  1.00  0.00     0.074 A 
ATOM     38  C   UNL     1      -5.318   5.139  13.239  1.00  0.00     0.031 C 
ATOM     39  C   UNL     1      -7.064   4.061  11.843  1.00  0.00     0.037 A 
BRANCH  26  40
ATOM     40  C   UNL     1      -8.411   1.838   6.206  1.00  0.00     0.064 A 
ATOM     41  C   UNL     1      -8.213   0.533   5.734  1.00  0.00     0.173 A 
ATOM     42  C   UNL     1      -9.535   2.541   5.744  1.00  0.00     0.173 A 
ATOM     43  F   UNL     1      -7.131  -0.165   6.110  1.00  0.00    -0.203 F 
ATOM     44  C   UNL     1      -9.101  -0.039   4.823  1.00  0.00     0.198 A 
ATOM     45  C   UNL     1     -10.430   1.959   4.851  1.00  0.00     0.198 A 
ATOM     46  F   UNL     1      -9.755   3.801   6.146  1.00  0.00    -0.203 F 
ATOM     47  F   UNL     1      -8.868  -1.270   4.346  1.00  0.00    -0.200 F 
ATOM     48  C   UNL     1     -10.210   0.672   4.387  1.00  0.00     0.200 A 
ATOM     49  F   UNL     1     -11.496   2.652   4.427  1.00  0.00    -0.200 F 
ATOM     50  F   UNL     1     -11.058   0.122   3.507  1.00  0.00    -0.200 F 
ENDBRANCH  26  40
BRANCH  27  51
ATOM     51  C   UNL     1      -1.459   6.429  11.992  1.00  0.00     0.064 A 
ATOM     52  C   UNL     1      -0.851   5.790  13.080  1.00  0.00     0.173 A 
ATOM     53  C   UNL     1      -1.075   7.757  11.731  1.00  0.00     0.173 A 
ATOM     54  F   UNL     1      -1.192   4.531  13.394  1.00  0.00    -0.203 F 
ATOM     55  C   UNL     1       0.084   6.453  13.878  1.00  0.00     0.198 A 
ATOM     56  C   UNL     1      -0.113   8.404  12.502  1.00  0.00     0.198 A 
ATOM     57  F   UNL     1      -1.628   8.431  10.711  1.00  0.00    -0.203 F 
ATOM     58  F   UNL     1       0.610   5.834  14.944  1.00  0.00    -0.200 F 
ATOM     59  C   UNL     1       0.458   7.755  13.584  1.00  0.00     0.200 A 
ATOM     60  F   UNL     1       0.255   9.656  12.199  1.00  0.00    -0.200 F 
ATOM     61  F   UNL     1       1.358   8.389  14.348  1.00  0.00    -0.200 F 
ENDBRANCH  27  51
BRANCH  39  62
ATOM     62  C   UNL     1      -7.941   4.092  13.052  1.00  0.00     0.064 A 
ATOM     63  C   UNL     1      -8.533   5.285  13.489  1.00  0.00     0.173 A 
ATOM     64  C   UNL     1      -8.220   2.910  13.749  1.00  0.00     0.173 A 
ATOM     65  F   UNL     1      -8.272   6.439  12.857  1.00  0.00    -0.203 F 
ATOM     66  C   UNL     1      -9.364   5.295  14.602  1.00  0.00     0.198 A 
ATOM     67  C   UNL     1      -9.075   2.920  14.844  1.00  0.00     0.198 A 
ATOM     68  F   UNL     1      -7.675   1.748  13.358  1.00  0.00    -0.203 F 
ATOM     69  F   UNL     1      -9.887   6.450  15.033  1.00  0.00    -0.200 F 
ATOM     70  C   UNL     1      -9.640   4.112  15.273  1.00  0.00     0.200 A 
ATOM     71  F   UNL     1      -9.351   1.776  15.486  1.00  0.00    -0.200 F 
ATOM     72  F   UNL     1     -10.449   4.122  16.341  1.00  0.00    -0.200 F 
ENDBRANCH  39  62
ENDBRANCH  13  14
ENDBRANCH   6   8
ENDBRANCH   5   6
ENDBRANCH   4   5
ENDBRANCH   3   4
ENDBRANCH   2   3
ENDBRANCH   1   2
BRANCH   1  73
ATOM     73  C   UNL     1       4.454   5.097   4.265  1.00  0.00     0.261 C 
BRANCH  73  74
ATOM     74  O   UNL     1       5.303   4.149   3.596  1.00  0.00    -0.462 OA
BRANCH  74  75
ATOM     75  C   UNL     1       5.448   2.978   4.268  1.00  0.00     0.329 C 
ATOM     76  O   UNL     1       5.152   2.828   5.451  1.00  0.00    -0.250 OA
BRANCH  75  77
ATOM     77  C   UNL     1       5.809   1.804   3.340  1.00  0.00     0.200 C 
ATOM     78  C   UNL     1       6.510   0.803   4.299  1.00  0.00     0.073 C 
ATOM     79  N   UNL     1       6.563   2.104   2.082  1.00  0.00    -0.321 N 
ATOM     80  C   UNL     1       7.186  -0.297   3.550  1.00  0.00    -0.040 A 
ATOM     81  C   UNL     1       7.903   1.522   1.998  1.00  0.00     0.156 C 
ATOM     82  C   UNL     1       7.188  -1.614   4.011  1.00  0.00     0.004 A 
ATOM     83  C   UNL     1       7.868   0.059   2.378  1.00  0.00    -0.025 A 
ATOM     84  C   UNL     1       7.841  -2.595   3.272  1.00  0.00     0.000 A 
ATOM     85  C   UNL     1       8.507  -0.933   1.636  1.00  0.00     0.006 A 
ATOM     86  C   UNL     1       8.488  -2.257   2.082  1.00  0.00     0.000 A 
BRANCH  79  87
ATOM     87  C   UNL     1       6.100   2.724   0.923  1.00  0.00     0.261 C 
ATOM     88  O   UNL     1       6.889   3.033   0.019  1.00  0.00    -0.271 OA
BRANCH  87  89
ATOM     89  C   UNL     1       4.616   3.057   0.699  1.00  0.00     0.329 C 
BRANCH  89  90
ATOM     90  O   UNL     1       3.663   2.014   0.802  1.00  0.00    -0.484 OA
BRANCH  90  91
ATOM     91  C   UNL     1       3.429   1.284  -0.326  1.00  0.00     0.120 A 
ATOM     92  C   UNL     1       2.094   1.052  -0.670  1.00  0.00     0.046 A 
ATOM     93  C   UNL     1       4.442   0.649  -1.034  1.00  0.00     0.046 A 
ATOM     94  C   UNL     1       1.768   0.160  -1.690  1.00  0.00     0.004 A 
ATOM     95  C   UNL     1       4.117  -0.233  -2.067  1.00  0.00     0.004 A 
ATOM     96  C   UNL     1       2.783  -0.490  -2.384  1.00  0.00     0.000 A 
ENDBRANCH  90  91
ENDBRANCH  89  90
ENDBRANCH  87  89
ENDBRANCH  79  87
ENDBRANCH  75  77
ENDBRANCH  74  75
ENDBRANCH  73  74
ENDBRANCH   1  73
TORSDOF 18
