REMARK SMILES CNC(=O)c1cc(S(=O)(=O)N2CCC(C(=O)OCCOCCOC(=O)c3ccc(-c4c5nc(c(-c6c(F)c(F)c(F)c(F)c6F)c6ccc([nH]6)c(-c6c(F)c(F)c(F)c(F)c6F)c6nc(c(-c7c(F)c(F)c(F)c(F)c7F)c7ccc4[nH]7)C=C6)C=C5)cc3)CC2)ccc1OC
REMARK SMILES IDX 19 1 18 2 17 3 15 4 16 5 14 6 11 7 12 8 90 9 13 10 89 11
REMARK SMILES IDX 8 12 9 13 10 14 7 15 5 16 6 17 93 18 92 19 91 20 3 21 1 22
REMARK SMILES IDX 2 23 4 25 94 26 95 27 20 28 21 29 22 30 23 31 24 32 25 33
REMARK SMILES IDX 26 34 27 35 88 36 28 37 87 38 29 39 30 40 31 41 81 42 32 43
REMARK SMILES IDX 86 44 80 45 82 46 33 47 85 48 79 49 78 50 34 52 66 53 46 54
REMARK SMILES IDX 65 55 47 56 50 57 64 58 83 59 48 60 49 61 63 63 84 64 51 65
REMARK SMILES IDX 35 66 36 67 44 68 37 69 38 70 42 71 45 72 39 73 40 74 43 75
REMARK SMILES IDX 41 76 67 77 68 78 76 79 69 80 70 81 74 82 77 83 71 84 72 85
REMARK SMILES IDX 75 86 73 87 52 88 53 89 61 90 54 91 55 92 59 93 62 94 56 95
REMARK SMILES IDX 57 96 60 97 58 98
REMARK H PARENT 2 24 82 51 50 62
REMARK Flexibility Score: inf
ROOT
ATOM      1  C   UNL     1      -5.813   3.284  11.375  1.00  0.00     0.202 C 
ENDROOT
BRANCH   1   2
ATOM      2  C   UNL     1      -6.570   2.433  10.354  1.00  0.00     0.261 C 
BRANCH   2   3
ATOM      3  O   UNL     1      -5.665   1.600   9.605  1.00  0.00    -0.463 OA
BRANCH   3   4
ATOM      4  C   UNL     1      -5.726   1.737   8.258  1.00  0.00     0.309 C 
ATOM      5  O   UNL     1      -6.540   2.425   7.653  1.00  0.00    -0.252 OA
BRANCH   4   6
ATOM      6  C   UNL     1      -4.670   0.937   7.528  1.00  0.00     0.102 C 
ATOM      7  N   UNL     1      -2.996  -1.169   6.534  1.00  0.00    -0.198 NA
ATOM      8  C   UNL     1      -2.411  -0.120   7.401  1.00  0.00     0.103 C 
ATOM      9  C   UNL     1      -4.338  -0.952   5.941  1.00  0.00     0.103 C 
ATOM     10  C   UNL     1      -3.447   0.506   8.330  1.00  0.00     0.032 C 
ATOM     11  C   UNL     1      -5.302  -0.308   6.924  1.00  0.00     0.032 C 
BRANCH   7  12
ATOM     12  S   UNL     1      -1.895  -2.071   5.587  1.00  0.00     0.243 S 
ATOM     13  O   UNL     1      -2.610  -3.249   5.129  1.00  0.00    -0.207 OA
ATOM     14  O   UNL     1      -0.655  -2.175   6.317  1.00  0.00    -0.207 OA
BRANCH  12  15
ATOM     15  C   UNL     1      -1.530  -1.121   4.117  1.00  0.00     0.083 A 
ATOM     16  C   UNL     1      -0.620  -1.142   1.859  1.00  0.00     0.083 A 
ATOM     17  C   UNL     1      -0.916  -1.807   3.060  1.00  0.00     0.039 A 
ATOM     18  C   UNL     1      -1.003   0.194   1.692  1.00  0.00     0.131 A 
ATOM     19  C   UNL     1      -1.579   0.882   2.763  1.00  0.00     0.048 A 
ATOM     20  C   UNL     1      -1.843   0.231   3.971  1.00  0.00     0.025 A 
BRANCH  16  21
ATOM     21  C   UNL     1       0.064  -1.936   0.818  1.00  0.00     0.254 C 
ATOM     22  C   UNL     1       2.019  -0.328   0.585  1.00  0.00     0.143 C 
ATOM     23  N   UNL     1       1.246  -1.508   0.272  1.00  0.00    -0.355 N 
ATOM     24  H   UNL     1       1.620  -2.085  -0.432  1.00  0.00     0.163 HD
ATOM     25  O   UNL     1      -0.429  -3.004   0.466  1.00  0.00    -0.269 OA
ENDBRANCH  16  21
BRANCH  18  26
ATOM     26  O   UNL     1      -0.826   0.933   0.554  1.00  0.00    -0.496 OA
ATOM     27  C   UNL     1      -1.478   0.369  -0.587  1.00  0.00     0.278 C 
ENDBRANCH  18  26
ENDBRANCH  12  15
ENDBRANCH   7  12
ENDBRANCH   4   6
ENDBRANCH   3   4
ENDBRANCH   2   3
ENDBRANCH   1   2
BRANCH   1  28
ATOM     28  O   UNL     1      -5.001   4.329  10.838  1.00  0.00    -0.374 OA
BRANCH  28  29
ATOM     29  C   UNL     1      -3.777   3.957  10.209  1.00  0.00     0.202 C 
BRANCH  29  30
ATOM     30  C   UNL     1      -2.619   3.590  11.146  1.00  0.00     0.261 C 
BRANCH  30  31
ATOM     31  O   UNL     1      -2.908   2.427  11.944  1.00  0.00    -0.460 OA
BRANCH  31  32
ATOM     32  C   UNL     1      -2.975   2.671  13.276  1.00  0.00     0.338 C 
ATOM     33  O   UNL     1      -2.717   3.717  13.849  1.00  0.00    -0.246 OA
BRANCH  32  34
ATOM     34  C   UNL     1      -3.576   1.530  13.992  1.00  0.00     0.060 A 
ATOM     35  C   UNL     1      -4.665   1.810  14.826  1.00  0.00     0.016 A 
ATOM     36  C   UNL     1      -3.017   0.250  13.961  1.00  0.00     0.016 A 
ATOM     37  C   UNL     1      -5.149   0.836  15.693  1.00  0.00     0.010 A 
ATOM     38  C   UNL     1      -3.503  -0.730  14.838  1.00  0.00     0.010 A 
ATOM     39  C   UNL     1      -4.534  -0.423  15.745  1.00  0.00    -0.014 A 
BRANCH  39  40
ATOM     40  C   UNL     1      -4.862  -1.318  16.883  1.00  0.00     0.031 A 
ATOM     41  C   UNL     1      -3.963  -1.319  18.090  1.00  0.00     0.074 A 
ATOM     42  C   UNL     1      -5.995  -2.041  16.889  1.00  0.00     0.049 A 
ATOM     43  N   UNL     1      -4.111  -1.931  19.239  1.00  0.00    -0.248 NA
ATOM     44  C   UNL     1      -2.733  -0.518  17.992  1.00  0.00     0.031 C 
ATOM     45  C   UNL     1      -6.961  -2.106  15.795  1.00  0.00     0.029 A 
ATOM     46  N   UNL     1      -6.530  -2.850  17.861  1.00  0.00    -0.354 N 
ATOM     47  C   UNL     1      -3.000  -1.585  19.997  1.00  0.00     0.074 A 
ATOM     48  C   UNL     1      -2.167  -0.742  19.169  1.00  0.00     0.031 C 
ATOM     49  C   UNL     1      -7.977  -2.908  16.159  1.00  0.00     0.029 A 
ATOM     50  C   UNL     1      -7.726  -3.419  17.505  1.00  0.00     0.049 A 
ATOM     51  H   UNL     1      -6.096  -3.006  18.731  1.00  0.00     0.167 HD
ATOM     52  C   UNL     1      -2.707  -1.925  21.276  1.00  0.00     0.037 A 
ATOM     53  C   UNL     1      -8.529  -4.256  18.192  1.00  0.00     0.037 A 
ATOM     54  C   UNL     1      -3.533  -2.761  22.105  1.00  0.00     0.049 A 
ATOM     55  C   UNL     1      -8.164  -4.647  19.600  1.00  0.00     0.074 A 
ATOM     56  C   UNL     1      -3.328  -3.149  23.418  1.00  0.00     0.029 A 
ATOM     57  N   UNL     1      -4.724  -3.343  21.698  1.00  0.00    -0.354 N 
ATOM     58  N   UNL     1      -7.133  -4.281  20.322  1.00  0.00    -0.248 NA
ATOM     59  C   UNL     1      -9.087  -5.557  20.294  1.00  0.00     0.031 C 
ATOM     60  C   UNL     1      -4.375  -4.000  23.792  1.00  0.00     0.029 A 
ATOM     61  C   UNL     1      -5.255  -4.104  22.727  1.00  0.00     0.049 A 
ATOM     62  H   UNL     1      -5.131  -3.233  20.808  1.00  0.00     0.167 HD
ATOM     63  C   UNL     1      -7.295  -4.893  21.559  1.00  0.00     0.074 A 
ATOM     64  C   UNL     1      -8.533  -5.640  21.495  1.00  0.00     0.031 C 
ATOM     65  C   UNL     1      -6.491  -4.840  22.650  1.00  0.00     0.037 A 
BRANCH  52  66
ATOM     66  C   UNL     1      -1.423  -1.402  21.849  1.00  0.00     0.064 A 
ATOM     67  C   UNL     1      -1.269  -0.051  22.194  1.00  0.00     0.173 A 
ATOM     68  C   UNL     1      -0.342  -2.266  22.075  1.00  0.00     0.173 A 
ATOM     69  F   UNL     1      -2.268   0.819  21.983  1.00  0.00    -0.203 F 
ATOM     70  C   UNL     1      -0.069   0.420  22.722  1.00  0.00     0.198 A 
ATOM     71  C   UNL     1       0.847  -1.797  22.627  1.00  0.00     0.198 A 
ATOM     72  F   UNL     1      -0.440  -3.567  21.764  1.00  0.00    -0.203 F 
ATOM     73  F   UNL     1       0.072   1.723  23.003  1.00  0.00    -0.200 F 
ATOM     74  C   UNL     1       0.985  -0.454  22.943  1.00  0.00     0.200 A 
ATOM     75  F   UNL     1       1.862  -2.644  22.848  1.00  0.00    -0.200 F 
ATOM     76  F   UNL     1       2.138   0.001  23.453  1.00  0.00    -0.200 F 
ENDBRANCH  52  66
BRANCH  53  77
ATOM     77  C   UNL     1      -9.771  -4.770  17.562  1.00  0.00     0.064 A 
ATOM     78  C   UNL     1     -11.035  -4.356  18.004  1.00  0.00     0.173 A 
ATOM     79  C   UNL     1      -9.718  -5.701  16.514  1.00  0.00     0.173 A 
ATOM     80  F   UNL     1     -11.137  -3.487  19.020  1.00  0.00    -0.203 F 
ATOM     81  C   UNL     1     -12.199  -4.866  17.433  1.00  0.00     0.198 A 
ATOM     82  C   UNL     1     -10.882  -6.191  15.927  1.00  0.00     0.198 A 
ATOM     83  F   UNL     1      -8.532  -6.130  16.057  1.00  0.00    -0.203 F 
ATOM     84  F   UNL     1     -13.395  -4.486  17.903  1.00  0.00    -0.200 F 
ATOM     85  C   UNL     1     -12.122  -5.779  16.392  1.00  0.00     0.200 A 
ATOM     86  F   UNL     1     -10.803  -7.065  14.915  1.00  0.00    -0.200 F 
ATOM     87  F   UNL     1     -13.242  -6.267  15.841  1.00  0.00    -0.200 F 
ENDBRANCH  53  77
BRANCH  65  88
ATOM     88  C   UNL     1      -6.942  -5.586  23.872  1.00  0.00     0.064 A 
ATOM     89  C   UNL     1      -6.912  -6.987  23.931  1.00  0.00     0.173 A 
ATOM     90  C   UNL     1      -7.389  -4.890  25.005  1.00  0.00     0.173 A 
ATOM     91  F   UNL     1      -6.506  -7.699  22.869  1.00  0.00    -0.203 F 
ATOM     92  C   UNL     1      -7.344  -7.665  25.069  1.00  0.00     0.198 A 
ATOM     93  C   UNL     1      -7.794  -5.569  26.151  1.00  0.00     0.198 A 
ATOM     94  F   UNL     1      -7.430  -3.549  25.003  1.00  0.00    -0.203 F 
ATOM     95  F   UNL     1      -7.356  -9.005  25.084  1.00  0.00    -0.200 F 
ATOM     96  C   UNL     1      -7.779  -6.956  26.179  1.00  0.00     0.200 A 
ATOM     97  F   UNL     1      -8.203  -4.883  27.227  1.00  0.00    -0.200 F 
ATOM     98  F   UNL     1      -8.195  -7.609  27.272  1.00  0.00    -0.200 F 
ENDBRANCH  65  88
ENDBRANCH  39  40
ENDBRANCH  32  34
ENDBRANCH  31  32
ENDBRANCH  30  31
ENDBRANCH  29  30
ENDBRANCH  28  29
ENDBRANCH   1  28
TORSDOF 18
