REMARK SMILES CC(C)Cc1cc2c(cc1Cl)C=C(C(=O)OCCOCCOC(=O)c1ccc(-c3c4nc(c(-c5c(F)c(F)c(F)c(F)c5F)c5ccc([nH]5)c(-c5c(F)c(F)c(F)c(F)c5F)c5nc(c(-c6c(F)c(F)c(F)c(F)c6F)c6ccc3[nH]6)C=C5)C=C4)cc1)[C@H](C(F)(F)F)O2
REMARK SMILES IDX 19 1 18 2 17 3 16 4 14 5 15 6 13 7 5 8 6 9 10 10 7 11 9 12
REMARK SMILES IDX 11 13 8 14 93 15 12 16 88 17 4 18 2 19 1 20 3 21 89 22 90 23
REMARK SMILES IDX 91 24 92 25 20 26 21 27 22 28 23 29 24 30 25 31 26 32 87 33
REMARK SMILES IDX 27 34 86 35 28 36 29 37 30 38 80 39 31 40 85 41 79 42 81 43
REMARK SMILES IDX 32 44 84 45 78 46 77 47 33 49 65 50 45 51 64 52 46 53 49 54
REMARK SMILES IDX 63 55 82 56 47 57 48 58 62 60 83 61 50 62 34 63 35 64 43 65
REMARK SMILES IDX 36 66 37 67 41 68 44 69 38 70 39 71 42 72 40 73 66 74 67 75
REMARK SMILES IDX 75 76 68 77 69 78 73 79 76 80 70 81 71 82 74 83 72 84 51 85
REMARK SMILES IDX 52 86 60 87 53 88 54 89 58 90 61 91 55 92 56 93 59 94 57 95
REMARK H PARENT 81 48 49 59
REMARK Flexibility Score: inf
ROOT
ATOM      1  O   UNL     1      -3.272   0.454   9.274  1.00  0.00    -0.374 OA
ENDROOT
BRANCH   1   2
ATOM      2  C   UNL     1      -3.910  -0.810   9.452  1.00  0.00     0.202 C 
BRANCH   2   3
ATOM      3  C   UNL     1      -4.990  -1.172   8.430  1.00  0.00     0.261 C 
BRANCH   3   4
ATOM      4  O   UNL     1      -4.418  -1.311   7.119  1.00  0.00    -0.460 OA
BRANCH   4   5
ATOM      5  C   UNL     1      -4.688  -0.291   6.279  1.00  0.00     0.338 C 
ATOM      6  O   UNL     1      -5.524   0.581   6.452  1.00  0.00    -0.246 OA
BRANCH   5   7
ATOM      7  C   UNL     1      -3.744  -0.295   5.146  1.00  0.00     0.087 C 
ATOM      8  C   UNL     1      -1.544   1.110   0.860  1.00  0.00    -0.025 A 
ATOM      9  C   UNL     1      -1.884  -0.130   1.437  1.00  0.00     0.052 A 
ATOM     10  C   UNL     1      -1.764   2.281   1.603  1.00  0.00     0.045 A 
ATOM     11  C   UNL     1      -2.458  -0.196   2.704  1.00  0.00     0.128 A 
ATOM     12  C   UNL     1      -2.346   2.215   2.870  1.00  0.00     0.032 A 
ATOM     13  Cl  UNL     1      -1.384   3.848   0.984  1.00  0.00    -0.084 Cl
ATOM     14  C   UNL     1      -2.711   0.979   3.410  1.00  0.00     0.019 A 
ATOM     15  O   UNL     1      -2.823  -1.437   3.154  1.00  0.00    -0.475 OA
ATOM     16  C   UNL     1      -3.480   0.916   4.636  1.00  0.00     0.027 C 
ATOM     17  C   UNL     1      -3.181  -1.565   4.564  1.00  0.00     0.316 C 
BRANCH   8  18
ATOM     18  C   UNL     1      -0.971   1.126  -0.539  1.00  0.00     0.040 C 
BRANCH  18  19
ATOM     19  C   UNL     1       0.566   1.187  -0.585  1.00  0.00    -0.013 C 
ATOM     20  C   UNL     1       1.212  -0.066   0.013  1.00  0.00     0.008 C 
ATOM     21  C   UNL     1       1.025   1.361  -2.034  1.00  0.00     0.008 C 
ENDBRANCH  18  19
ENDBRANCH   8  18
BRANCH  17  22
ATOM     22  C   UNL     1      -1.976  -2.146   5.335  1.00  0.00     0.430 C 
ATOM     23  F   UNL     1      -0.997  -1.231   5.526  1.00  0.00    -0.167 F 
ATOM     24  F   UNL     1      -2.321  -2.622   6.554  1.00  0.00    -0.167 F 
ATOM     25  F   UNL     1      -1.424  -3.191   4.668  1.00  0.00    -0.167 F 
ENDBRANCH  17  22
ENDBRANCH   5   7
ENDBRANCH   4   5
ENDBRANCH   3   4
ENDBRANCH   2   3
ENDBRANCH   1   2
BRANCH   1  26
ATOM     26  C   UNL     1      -2.164   0.509   8.373  1.00  0.00     0.202 C 
BRANCH  26  27
ATOM     27  C   UNL     1      -0.820  -0.021   8.890  1.00  0.00     0.261 C 
BRANCH  27  28
ATOM     28  O   UNL     1      -0.834  -1.452   9.031  1.00  0.00    -0.460 OA
BRANCH  28  29
ATOM     29  C   UNL     1      -0.902  -1.910  10.304  1.00  0.00     0.338 C 
ATOM     30  O   UNL     1      -0.864  -1.250  11.330  1.00  0.00    -0.246 OA
BRANCH  29  31
ATOM     31  C   UNL     1      -1.257  -3.345  10.285  1.00  0.00     0.060 A 
ATOM     32  C   UNL     1      -0.603  -4.255   9.454  1.00  0.00     0.016 A 
ATOM     33  C   UNL     1      -2.281  -3.776  11.141  1.00  0.00     0.016 A 
ATOM     34  C   UNL     1      -0.956  -5.607   9.507  1.00  0.00     0.010 A 
ATOM     35  C   UNL     1      -2.630  -5.125  11.194  1.00  0.00     0.010 A 
ATOM     36  C   UNL     1      -1.955  -6.056  10.392  1.00  0.00    -0.014 A 
BRANCH  36  37
ATOM     37  C   UNL     1      -2.203  -7.510  10.562  1.00  0.00     0.031 A 
ATOM     38  C   UNL     1      -3.445  -8.165  10.037  1.00  0.00     0.074 A 
ATOM     39  C   UNL     1      -1.284  -8.242  11.221  1.00  0.00     0.049 A 
ATOM     40  N   UNL     1      -3.772  -9.434  10.047  1.00  0.00    -0.248 NA
ATOM     41  C   UNL     1      -4.455  -7.287   9.430  1.00  0.00     0.031 C 
ATOM     42  C   UNL     1      -0.058  -7.708  11.815  1.00  0.00     0.029 A 
ATOM     43  N   UNL     1      -1.229  -9.586  11.493  1.00  0.00    -0.354 N 
ATOM     44  C   UNL     1      -5.011  -9.511   9.428  1.00  0.00     0.074 A 
ATOM     45  C   UNL     1      -5.405  -8.155   9.106  1.00  0.00     0.031 C 
ATOM     46  C   UNL     1       0.647  -8.717  12.345  1.00  0.00     0.029 A 
ATOM     47  C   UNL     1      -0.090  -9.964  12.161  1.00  0.00     0.049 A 
ATOM     48  H   UNL     1      -1.938 -10.219  11.234  1.00  0.00     0.167 HD
ATOM     49  C   UNL     1      -5.738 -10.617   9.135  1.00  0.00     0.037 A 
ATOM     50  C   UNL     1       0.320 -11.179  12.573  1.00  0.00     0.037 A 
ATOM     51  C   UNL     1      -5.346 -11.964   9.471  1.00  0.00     0.049 A 
ATOM     52  C   UNL     1      -0.533 -12.383  12.280  1.00  0.00     0.074 A 
ATOM     53  C   UNL     1      -6.001 -13.149   9.181  1.00  0.00     0.029 A 
ATOM     54  N   UNL     1      -4.205 -12.306  10.184  1.00  0.00    -0.354 N 
ATOM     55  N   UNL     1      -1.663 -12.455  11.620  1.00  0.00    -0.248 NA
ATOM     56  C   UNL     1      -0.052 -13.676  12.787  1.00  0.00     0.031 C 
ATOM     57  C   UNL     1      -5.291 -14.200   9.768  1.00  0.00     0.029 A 
ATOM     58  C   UNL     1      -4.158 -13.679  10.371  1.00  0.00     0.049 A 
ATOM     59  H   UNL     1      -3.530 -11.668  10.508  1.00  0.00     0.167 HD
ATOM     60  C   UNL     1      -2.016 -13.797  11.612  1.00  0.00     0.074 A 
ATOM     61  C   UNL     1      -0.969 -14.509  12.316  1.00  0.00     0.031 C 
ATOM     62  C   UNL     1      -3.113 -14.383  11.073  1.00  0.00     0.037 A 
BRANCH  49  63
ATOM     63  C   UNL     1      -7.032 -10.433   8.395  1.00  0.00     0.064 A 
ATOM     64  C   UNL     1      -7.051 -10.047   7.046  1.00  0.00     0.173 A 
ATOM     65  C   UNL     1      -8.259 -10.734   9.007  1.00  0.00     0.173 A 
ATOM     66  F   UNL     1      -5.907  -9.744   6.414  1.00  0.00    -0.203 F 
ATOM     67  C   UNL     1      -8.249  -9.955   6.342  1.00  0.00     0.198 A 
ATOM     68  C   UNL     1      -9.452 -10.669   8.292  1.00  0.00     0.198 A 
ATOM     69  F   UNL     1      -8.298 -11.119  10.291  1.00  0.00    -0.203 F 
ATOM     70  F   UNL     1      -8.244  -9.553   5.064  1.00  0.00    -0.200 F 
ATOM     71  C   UNL     1      -9.447 -10.276   6.962  1.00  0.00     0.200 A 
ATOM     72  F   UNL     1     -10.607 -10.998   8.887  1.00  0.00    -0.200 F 
ATOM     73  F   UNL     1     -10.597 -10.206   6.277  1.00  0.00    -0.200 F 
ENDBRANCH  49  63
BRANCH  50  74
ATOM     74  C   UNL     1       1.623 -11.315  13.274  1.00  0.00     0.064 A 
ATOM     75  C   UNL     1       2.703 -11.967  12.663  1.00  0.00     0.173 A 
ATOM     76  C   UNL     1       1.824 -10.779  14.555  1.00  0.00     0.173 A 
ATOM     77  F   UNL     1       2.554 -12.514  11.447  1.00  0.00    -0.203 F 
ATOM     78  C   UNL     1       3.930 -12.088  13.311  1.00  0.00     0.198 A 
ATOM     79  C   UNL     1       3.061 -10.873  15.188  1.00  0.00     0.198 A 
ATOM     80  F   UNL     1       0.823 -10.142  15.181  1.00  0.00    -0.203 F 
ATOM     81  F   UNL     1       4.934 -12.750  12.720  1.00  0.00    -0.200 F 
ATOM     82  C   UNL     1       4.111 -11.533  14.569  1.00  0.00     0.200 A 
ATOM     83  F   UNL     1       3.236 -10.320  16.396  1.00  0.00    -0.200 F 
ATOM     84  F   UNL     1       5.296 -11.638  15.185  1.00  0.00    -0.200 F 
ENDBRANCH  50  74
BRANCH  62  85
ATOM     85  C   UNL     1      -3.247 -15.874  11.209  1.00  0.00     0.064 A 
ATOM     86  C   UNL     1      -3.530 -16.476  12.444  1.00  0.00     0.173 A 
ATOM     87  C   UNL     1      -3.166 -16.704  10.079  1.00  0.00     0.173 A 
ATOM     88  F   UNL     1      -3.604 -15.730  13.557  1.00  0.00    -0.203 F 
ATOM     89  C   UNL     1      -3.713 -17.853  12.545  1.00  0.00     0.198 A 
ATOM     90  C   UNL     1      -3.382 -18.076  10.179  1.00  0.00     0.198 A 
ATOM     91  F   UNL     1      -2.905 -16.180   8.872  1.00  0.00    -0.203 F 
ATOM     92  F   UNL     1      -3.946 -18.409  13.742  1.00  0.00    -0.200 F 
ATOM     93  C   UNL     1      -3.651 -18.650  11.412  1.00  0.00     0.200 A 
ATOM     94  F   UNL     1      -3.341 -18.841   9.079  1.00  0.00    -0.200 F 
ATOM     95  F   UNL     1      -3.849 -19.971  11.509  1.00  0.00    -0.200 F 
ENDBRANCH  62  85
ENDBRANCH  36  37
ENDBRANCH  29  31
ENDBRANCH  28  29
ENDBRANCH  27  28
ENDBRANCH  26  27
ENDBRANCH   1  26
TORSDOF 17
