REMARK SMILES O=C(OCCOCCOC(=O)[C@@H]1CC2(CC[NH2+]CC2)C[N@H+]1Cc1cccc2nonc12)c1ccc(-c2c3nc(c(-c4c(F)c(F)c(F)c(F)c4F)c4ccc([nH]4)c(-c4c(F)c(F)c(F)c(F)c4F)c4nc(c(-c5c(F)c(F)c(F)c(F)c5F)c5ccc2[nH]5)C=C4)C=C3)cc1
REMARK SMILES IDX 6 1 5 2 4 3 3 4 2 5 1 6 32 7 33 8 94 9 34 10 93 11 35 12
REMARK SMILES IDX 36 13 37 14 87 15 38 16 92 17 86 18 88 19 39 20 91 21 85 22
REMARK SMILES IDX 84 23 40 25 72 26 52 27 71 28 53 29 56 30 70 31 89 32 54 33
REMARK SMILES IDX 55 34 69 36 90 37 57 38 41 39 42 40 50 41 43 42 44 43 48 44
REMARK SMILES IDX 51 45 45 46 46 47 49 48 47 49 73 50 74 51 82 52 75 53 76 54
REMARK SMILES IDX 80 55 83 56 77 57 78 58 81 59 79 60 58 61 59 62 67 63 60 64
REMARK SMILES IDX 61 65 65 66 68 67 62 68 63 69 66 70 64 71 7 72 8 73 9 74
REMARK SMILES IDX 10 75 11 76 12 77 13 78 21 79 14 80 20 81 15 83 19 84 16 85
REMARK SMILES IDX 18 86 17 87 22 90 23 91 24 92 31 93 25 94 27 95 30 96 26 97
REMARK SMILES IDX 28 98 29 99
REMARK H PARENT 88 24 56 35 21 82 17 88 17 89
REMARK Flexibility Score: inf
ROOT
ATOM      1  O   UNL     1       5.272  -0.606  -1.455  1.00  0.00    -0.374 OA
ENDROOT
BRANCH   1   2
ATOM      2  C   UNL     1       4.830  -0.488  -0.096  1.00  0.00     0.202 C 
BRANCH   2   3
ATOM      3  C   UNL     1       4.794   0.969   0.383  1.00  0.00     0.261 C 
BRANCH   3   4
ATOM      4  O   UNL     1       3.435   1.465   0.327  1.00  0.00    -0.460 OA
BRANCH   4   5
ATOM      5  C   UNL     1       3.100   2.593  -0.346  1.00  0.00     0.338 C 
ATOM      6  O   UNL     1       2.679   3.603   0.197  1.00  0.00    -0.246 OA
BRANCH   5   7
ATOM      7  C   UNL     1       2.868   2.350  -1.788  1.00  0.00     0.060 A 
ATOM      8  C   UNL     1       1.603   2.583  -2.348  1.00  0.00     0.016 A 
ATOM      9  C   UNL     1       3.888   1.901  -2.603  1.00  0.00     0.016 A 
ATOM     10  C   UNL     1       1.343   2.275  -3.696  1.00  0.00     0.010 A 
ATOM     11  C   UNL     1       3.618   1.569  -3.928  1.00  0.00     0.010 A 
ATOM     12  C   UNL     1       2.348   1.736  -4.505  1.00  0.00    -0.014 A 
BRANCH  12  13
ATOM     13  C   UNL     1       2.159   1.569  -5.975  1.00  0.00     0.031 A 
ATOM     14  C   UNL     1       3.446   1.364  -6.733  1.00  0.00     0.074 A 
ATOM     15  C   UNL     1       1.092   0.994  -6.578  1.00  0.00     0.049 A 
ATOM     16  N   UNL     1       3.997   0.191  -6.862  1.00  0.00    -0.248 NA
ATOM     17  C   UNL     1       4.350   2.466  -7.061  1.00  0.00     0.031 C 
ATOM     18  C   UNL     1       0.369  -0.192  -6.109  1.00  0.00     0.029 A 
ATOM     19  N   UNL     1       0.595   1.212  -7.848  1.00  0.00    -0.354 N 
ATOM     20  C   UNL     1       5.320   0.383  -7.240  1.00  0.00     0.074 A 
ATOM     21  C   UNL     1       5.492   1.815  -7.344  1.00  0.00     0.031 C 
ATOM     22  C   UNL     1      -0.346  -0.695  -7.140  1.00  0.00     0.029 A 
ATOM     23  C   UNL     1      -0.232   0.193  -8.294  1.00  0.00     0.049 A 
ATOM     24  H   UNL     1       0.808   2.010  -8.383  1.00  0.00     0.167 HD
ATOM     25  C   UNL     1       6.178  -0.656  -7.457  1.00  0.00     0.037 A 
ATOM     26  C   UNL     1      -0.431  -0.149  -9.596  1.00  0.00     0.037 A 
ATOM     27  C   UNL     1       5.643  -1.998  -7.376  1.00  0.00     0.049 A 
ATOM     28  C   UNL     1       0.718  -1.100  -9.840  1.00  0.00     0.074 A 
ATOM     29  C   UNL     1       6.056  -3.281  -7.074  1.00  0.00     0.029 A 
ATOM     30  N   UNL     1       4.334  -2.133  -7.736  1.00  0.00    -0.354 N 
ATOM     31  N   UNL     1       0.778  -2.361  -9.492  1.00  0.00    -0.248 NA
ATOM     32  C   UNL     1       2.005  -0.526 -10.273  1.00  0.00     0.031 C 
ATOM     33  C   UNL     1       4.999  -4.174  -7.472  1.00  0.00     0.029 A 
ATOM     34  C   UNL     1       3.992  -3.414  -8.045  1.00  0.00     0.049 A 
ATOM     35  H   UNL     1       3.700  -1.381  -7.769  1.00  0.00     0.167 HD
ATOM     36  C   UNL     1       2.140  -2.642  -9.424  1.00  0.00     0.074 A 
ATOM     37  C   UNL     1       2.832  -1.541 -10.059  1.00  0.00     0.031 C 
ATOM     38  C   UNL     1       2.682  -3.595  -8.614  1.00  0.00     0.037 A 
BRANCH  25  39
ATOM     39  C   UNL     1       7.508  -0.475  -8.089  1.00  0.00     0.064 A 
ATOM     40  C   UNL     1       7.592  -0.664  -9.480  1.00  0.00     0.173 A 
ATOM     41  C   UNL     1       8.700  -0.302  -7.381  1.00  0.00     0.173 A 
ATOM     42  F   UNL     1       6.471  -0.834 -10.201  1.00  0.00    -0.203 F 
ATOM     43  C   UNL     1       8.818  -0.708 -10.135  1.00  0.00     0.198 A 
ATOM     44  C   UNL     1       9.932  -0.337  -8.043  1.00  0.00     0.198 A 
ATOM     45  F   UNL     1       8.680  -0.130  -6.052  1.00  0.00    -0.203 F 
ATOM     46  F   UNL     1       8.861  -0.920 -11.458  1.00  0.00    -0.200 F 
ATOM     47  C   UNL     1       9.989  -0.551  -9.415  1.00  0.00     0.200 A 
ATOM     48  F   UNL     1      11.070  -0.185  -7.352  1.00  0.00    -0.200 F 
ATOM     49  F   UNL     1      11.173  -0.611 -10.042  1.00  0.00    -0.200 F 
ENDBRANCH  25  39
BRANCH  26  50
ATOM     50  C   UNL     1      -0.829   0.944 -10.545  1.00  0.00     0.064 A 
ATOM     51  C   UNL     1      -1.909   1.780 -10.186  1.00  0.00     0.173 A 
ATOM     52  C   UNL     1      -0.237   1.220 -11.786  1.00  0.00     0.173 A 
ATOM     53  F   UNL     1      -2.634   1.509  -9.088  1.00  0.00    -0.203 F 
ATOM     54  C   UNL     1      -2.261   2.905 -10.934  1.00  0.00     0.198 A 
ATOM     55  C   UNL     1      -0.564   2.365 -12.519  1.00  0.00     0.198 A 
ATOM     56  F   UNL     1       0.673   0.396 -12.320  1.00  0.00    -0.203 F 
ATOM     57  F   UNL     1      -3.265   3.693 -10.526  1.00  0.00    -0.200 F 
ATOM     58  C   UNL     1      -1.558   3.221 -12.080  1.00  0.00     0.200 A 
ATOM     59  F   UNL     1       0.111   2.648 -13.643  1.00  0.00    -0.200 F 
ATOM     60  F   UNL     1      -1.839   4.339 -12.763  1.00  0.00    -0.200 F 
ENDBRANCH  26  50
BRANCH  38  61
ATOM     61  C   UNL     1       1.809  -4.708  -8.197  1.00  0.00     0.064 A 
ATOM     62  C   UNL     1       1.259  -5.554  -9.169  1.00  0.00     0.173 A 
ATOM     63  C   UNL     1       1.576  -4.998  -6.847  1.00  0.00     0.173 A 
ATOM     64  F   UNL     1       1.488  -5.330 -10.473  1.00  0.00    -0.203 F 
ATOM     65  C   UNL     1       0.506  -6.660  -8.803  1.00  0.00     0.198 A 
ATOM     66  C   UNL     1       0.835  -6.117  -6.485  1.00  0.00     0.198 A 
ATOM     67  F   UNL     1       2.069  -4.211  -5.878  1.00  0.00    -0.203 F 
ATOM     68  F   UNL     1      -0.002  -7.464  -9.748  1.00  0.00    -0.200 F 
ATOM     69  C   UNL     1       0.304  -6.948  -7.462  1.00  0.00     0.200 A 
ATOM     70  F   UNL     1       0.647  -6.401  -5.188  1.00  0.00    -0.200 F 
ATOM     71  F   UNL     1      -0.392  -8.037  -7.109  1.00  0.00    -0.200 F 
ENDBRANCH  38  61
ENDBRANCH  12  13
ENDBRANCH   5   7
ENDBRANCH   4   5
ENDBRANCH   3   4
ENDBRANCH   2   3
ENDBRANCH   1   2
BRANCH   1  72
ATOM     72  C   UNL     1       4.300  -1.136  -2.364  1.00  0.00     0.202 C 
BRANCH  72  73
ATOM     73  C   UNL     1       4.200  -2.647  -2.442  1.00  0.00     0.261 C 
BRANCH  73  74
ATOM     74  O   UNL     1       3.955  -3.189  -1.154  1.00  0.00    -0.459 OA
BRANCH  74  75
ATOM     75  C   UNL     1       5.061  -3.576  -0.465  1.00  0.00     0.365 C 
ATOM     76  O   UNL     1       6.207  -3.437  -0.852  1.00  0.00    -0.245 OA
BRANCH  75  77
ATOM     77  C   UNL     1       4.697  -4.263   0.853  1.00  0.00     0.296 C 
ATOM     78  C   UNL     1       5.348  -5.650   0.795  1.00  0.00     0.091 C 
ATOM     79  N   UNL     1       3.269  -4.586   1.000  1.00  0.00    -0.319 N 
ATOM     80  C   UNL     1       4.194  -6.594   0.394  1.00  0.00     0.036 C 
ATOM     81  C   UNL     1       3.074  -5.999   1.256  1.00  0.00     0.270 C 
ATOM     82  H   UNL     1       2.875  -4.395   0.078  1.00  0.00     0.349 HD
ATOM     83  C   UNL     1       4.523  -8.053   0.717  1.00  0.00     0.074 C 
ATOM     84  C   UNL     1       3.819  -6.530  -1.117  1.00  0.00     0.074 C 
ATOM     85  C   UNL     1       5.588  -8.604  -0.241  1.00  0.00     0.261 C 
ATOM     86  C   UNL     1       4.907  -7.107  -2.015  1.00  0.00     0.261 C 
ATOM     87  N   UNL     1       5.194  -8.492  -1.648  1.00  0.00    -0.346 N 
ATOM     88  H   UNL     1       4.359  -9.057  -1.804  1.00  0.00     0.346 HD
ATOM     89  H   UNL     1       5.968  -8.823  -2.224  1.00  0.00     0.346 HD
BRANCH  79  90
ATOM     90  C   UNL     1       2.299  -3.609   1.450  1.00  0.00     0.302 C 
BRANCH  90  91
ATOM     91  C   UNL     1       1.413  -3.158   0.313  1.00  0.00     0.038 A 
ATOM     92  C   UNL     1       0.882  -4.058  -0.653  1.00  0.00     0.012 A 
ATOM     93  C   UNL     1       1.075  -1.816   0.029  1.00  0.00     0.144 A 
ATOM     94  C   UNL     1       0.211  -3.668  -1.842  1.00  0.00     0.003 A 
ATOM     95  C   UNL     1       0.380  -1.415  -1.190  1.00  0.00     0.135 A 
ATOM     96  N   UNL     1       1.316  -0.711   0.745  1.00  0.00    -0.049 NA
ATOM     97  C   UNL     1      -0.035  -2.330  -2.171  1.00  0.00     0.034 A 
ATOM     98  N   UNL     1       0.242  -0.086  -1.180  1.00  0.00    -0.050 NA
ATOM     99  O   UNL     1       0.792   0.339   0.015  1.00  0.00    -0.243 OA
ENDBRANCH  90  91
ENDBRANCH  79  90
ENDBRANCH  75  77
ENDBRANCH  74  75
ENDBRANCH  73  74
ENDBRANCH  72  73
ENDBRANCH   1  72
TORSDOF 16
