REMARK SMILES N#CCCn1cc(C(=O)OCCOCCOC(=O)c2ccc(-c3c4nc(c(-c5c(F)c(F)c(F)c(F)c5F)c5ccc([nH]5)c(-c5c(F)c(F)c(F)c(F)c5F)c5nc(c(-c6c(F)c(F)c(F)c(F)c6F)c6ccc3[nH]6)C=C5)C=C4)cc2)c(-c2cccc([N+](=O)[O-])c2)n1
REMARK SMILES IDX 12 1 11 2 10 3 8 4 9 5 7 6 5 7 6 8 92 9 82 10 4 11 3 12 2 13
REMARK SMILES IDX 1 14 83 15 84 16 91 17 85 18 87 19 86 20 88 21 89 22 90 23
REMARK SMILES IDX 13 24 14 25 15 26 16 27 17 28 18 29 19 30 20 31 81 32 21 33
REMARK SMILES IDX 80 34 22 35 23 36 24 37 74 38 25 39 79 40 73 41 75 42 26 43
REMARK SMILES IDX 78 44 72 45 71 46 27 48 59 49 39 50 58 51 40 52 43 53 57 54
REMARK SMILES IDX 76 55 41 56 42 57 56 59 77 60 44 61 28 62 29 63 37 64 30 65
REMARK SMILES IDX 31 66 35 67 38 68 32 69 33 70 36 71 34 72 60 73 61 74 69 75
REMARK SMILES IDX 62 76 63 77 67 78 70 79 64 80 65 81 68 82 66 83 45 84 46 85
REMARK SMILES IDX 54 86 47 87 48 88 52 89 55 90 49 91 50 92 53 93 51 94
REMARK H PARENT 75 47 43 58
REMARK Flexibility Score: inf
ROOT
ATOM      1  C   UNL     1       3.865  -8.963  -0.675  1.00  0.00     0.202 C 
ENDROOT
BRANCH   1   2
ATOM      2  C   UNL     1       5.053  -8.032  -0.926  1.00  0.00     0.261 C 
BRANCH   2   3
ATOM      3  O   UNL     1       4.787  -6.675  -0.531  1.00  0.00    -0.460 OA
BRANCH   3   4
ATOM      4  C   UNL     1       4.670  -5.793  -1.568  1.00  0.00     0.342 C 
ATOM      5  O   UNL     1       4.833  -6.074  -2.743  1.00  0.00    -0.246 OA
BRANCH   4   6
ATOM      6  C   UNL     1       4.210  -4.490  -1.141  1.00  0.00     0.106 A 
ATOM      7  N   UNL     1       3.995  -2.551  -0.156  1.00  0.00    -0.270 N 
ATOM      8  C   UNL     1       4.582  -3.774  -0.020  1.00  0.00     0.125 A 
ATOM      9  N   UNL     1       3.168  -2.473  -1.206  1.00  0.00    -0.172 NA
ATOM     10  C   UNL     1       3.272  -3.656  -1.813  1.00  0.00     0.107 A 
BRANCH   7  11
ATOM     11  C   UNL     1       4.238  -1.375   0.664  1.00  0.00     0.159 C 
BRANCH  11  12
ATOM     12  C   UNL     1       3.731  -0.073   0.047  1.00  0.00     0.144 C 
BRANCH  12  13
ATOM     13  C   UNL     1       2.211  -0.073   0.047  1.00  0.00     0.064 C 
ATOM     14  N   UNL     1       0.950  -0.073   0.047  1.00  0.00    -0.198 NA
ENDBRANCH  12  13
ENDBRANCH  11  12
ENDBRANCH   7  11
BRANCH  10  15
ATOM     15  C   UNL     1       2.479  -3.959  -2.995  1.00  0.00     0.010 A 
ATOM     16  C   UNL     1       1.266  -4.651  -2.875  1.00  0.00     0.011 A 
ATOM     17  C   UNL     1       2.943  -3.595  -4.258  1.00  0.00     0.096 A 
ATOM     18  C   UNL     1       0.572  -5.080  -4.008  1.00  0.00     0.008 A 
ATOM     19  C   UNL     1       2.221  -3.989  -5.391  1.00  0.00     0.270 A 
ATOM     20  C   UNL     1       1.054  -4.759  -5.274  1.00  0.00     0.085 A 
BRANCH  19  21
ATOM     21  N   UNL     1       2.690  -3.583  -6.719  1.00  0.00     0.062 N 
ATOM     22  O   UNL     1       2.091  -4.035  -7.705  1.00  0.00    -0.258 OA
ATOM     23  O   UNL     1       3.651  -2.802  -6.778  1.00  0.00    -0.258 OA
ENDBRANCH  19  21
ENDBRANCH  10  15
ENDBRANCH   4   6
ENDBRANCH   3   4
ENDBRANCH   2   3
ENDBRANCH   1   2
BRANCH   1  24
ATOM     24  O   UNL     1       2.689  -8.817  -1.471  1.00  0.00    -0.374 OA
BRANCH  24  25
ATOM     25  C   UNL     1       1.921  -7.622  -1.422  1.00  0.00     0.202 C 
BRANCH  25  26
ATOM     26  C   UNL     1       1.089  -7.319  -0.183  1.00  0.00     0.261 C 
BRANCH  26  27
ATOM     27  O   UNL     1       1.834  -7.486   1.003  1.00  0.00    -0.460 OA
BRANCH  27  28
ATOM     28  C   UNL     1       1.699  -8.725   1.526  1.00  0.00     0.338 C 
ATOM     29  O   UNL     1       1.179  -9.698   1.014  1.00  0.00    -0.246 OA
BRANCH  28  30
ATOM     30  C   UNL     1       2.136  -8.674   2.922  1.00  0.00     0.060 A 
ATOM     31  C   UNL     1       1.883  -9.837   3.648  1.00  0.00     0.016 A 
ATOM     32  C   UNL     1       2.299  -7.418   3.523  1.00  0.00     0.016 A 
ATOM     33  C   UNL     1       1.458  -9.689   4.941  1.00  0.00     0.010 A 
ATOM     34  C   UNL     1       1.841  -7.268   4.801  1.00  0.00     0.010 A 
ATOM     35  C   UNL     1       1.333  -8.392   5.447  1.00  0.00    -0.014 A 
BRANCH  35  36
ATOM     36  C   UNL     1       0.769  -8.235   6.763  1.00  0.00     0.031 A 
ATOM     37  C   UNL     1       1.761  -8.582   7.798  1.00  0.00     0.074 A 
ATOM     38  C   UNL     1      -0.461  -7.725   6.949  1.00  0.00     0.049 A 
ATOM     39  N   UNL     1       1.763  -9.616   8.571  1.00  0.00    -0.248 NA
ATOM     40  C   UNL     1       3.032  -7.834   7.790  1.00  0.00     0.031 C 
ATOM     41  C   UNL     1      -1.360  -7.131   5.956  1.00  0.00     0.029 A 
ATOM     42  N   UNL     1      -1.124  -7.531   8.119  1.00  0.00    -0.354 N 
ATOM     43  C   UNL     1       2.935  -9.505   9.310  1.00  0.00     0.074 A 
ATOM     44  C   UNL     1       3.775  -8.586   8.599  1.00  0.00     0.031 C 
ATOM     45  C   UNL     1      -2.334  -6.441   6.594  1.00  0.00     0.029 A 
ATOM     46  C   UNL     1      -2.194  -6.645   8.024  1.00  0.00     0.049 A 
ATOM     47  H   UNL     1      -0.871  -7.978   8.960  1.00  0.00     0.167 HD
ATOM     48  C   UNL     1       2.951  -9.883  10.616  1.00  0.00     0.037 A 
ATOM     49  C   UNL     1      -2.805  -6.059   9.085  1.00  0.00     0.037 A 
ATOM     50  C   UNL     1       1.872 -10.807  10.884  1.00  0.00     0.049 A 
ATOM     51  C   UNL     1      -2.456  -6.866  10.289  1.00  0.00     0.074 A 
ATOM     52  C   UNL     1       1.510 -12.044  10.386  1.00  0.00     0.029 A 
ATOM     53  N   UNL     1       0.750 -10.313  11.506  1.00  0.00    -0.354 N 
ATOM     54  N   UNL     1      -2.870  -8.089  10.482  1.00  0.00    -0.248 NA
ATOM     55  C   UNL     1      -1.245  -6.496  11.011  1.00  0.00     0.031 C 
ATOM     56  C   UNL     1       0.085 -12.024  10.331  1.00  0.00     0.029 A 
ATOM     57  C   UNL     1      -0.352 -10.810  10.863  1.00  0.00     0.049 A 
ATOM     58  H   UNL     1       0.741  -9.707  12.281  1.00  0.00     0.167 HD
ATOM     59  C   UNL     1      -1.764  -8.762  10.985  1.00  0.00     0.074 A 
ATOM     60  C   UNL     1      -0.809  -7.715  11.343  1.00  0.00     0.031 C 
ATOM     61  C   UNL     1      -1.608 -10.104  10.783  1.00  0.00     0.037 A 
BRANCH  48  62
ATOM     62  C   UNL     1       3.607  -9.057  11.709  1.00  0.00     0.064 A 
ATOM     63  C   UNL     1       3.507  -9.526  13.033  1.00  0.00     0.173 A 
ATOM     64  C   UNL     1       4.032  -7.713  11.582  1.00  0.00     0.173 A 
ATOM     65  F   UNL     1       3.140 -10.792  13.284  1.00  0.00    -0.203 F 
ATOM     66  C   UNL     1       3.674  -8.681  14.132  1.00  0.00     0.198 A 
ATOM     67  C   UNL     1       4.239  -6.885  12.682  1.00  0.00     0.198 A 
ATOM     68  F   UNL     1       4.180  -7.094  10.408  1.00  0.00    -0.203 F 
ATOM     69  F   UNL     1       3.420  -9.140  15.364  1.00  0.00    -0.200 F 
ATOM     70  C   UNL     1       4.019  -7.355  13.955  1.00  0.00     0.200 A 
ATOM     71  F   UNL     1       4.572  -5.601  12.482  1.00  0.00    -0.200 F 
ATOM     72  F   UNL     1       4.101  -6.523  15.000  1.00  0.00    -0.200 F 
ENDBRANCH  48  62
BRANCH  49  73
ATOM     73  C   UNL     1      -3.321  -4.670   9.186  1.00  0.00     0.064 A 
ATOM     74  C   UNL     1      -4.165  -4.285  10.240  1.00  0.00     0.173 A 
ATOM     75  C   UNL     1      -2.775  -3.627   8.412  1.00  0.00     0.173 A 
ATOM     76  F   UNL     1      -4.683  -5.211  11.061  1.00  0.00    -0.203 F 
ATOM     77  C   UNL     1      -4.433  -2.938  10.513  1.00  0.00     0.198 A 
ATOM     78  C   UNL     1      -3.048  -2.284   8.681  1.00  0.00     0.198 A 
ATOM     79  F   UNL     1      -1.886  -3.880   7.442  1.00  0.00    -0.203 F 
ATOM     80  F   UNL     1      -5.194  -2.607  11.566  1.00  0.00    -0.200 F 
ATOM     81  C   UNL     1      -3.867  -1.939   9.738  1.00  0.00     0.200 A 
ATOM     82  F   UNL     1      -2.458  -1.328   7.949  1.00  0.00    -0.200 F 
ATOM     83  F   UNL     1      -4.073  -0.649  10.036  1.00  0.00    -0.200 F 
ENDBRANCH  49  73
BRANCH  61  84
ATOM     84  C   UNL     1      -2.778 -10.870  10.235  1.00  0.00     0.064 A 
ATOM     85  C   UNL     1      -3.328 -10.663   8.957  1.00  0.00     0.173 A 
ATOM     86  C   UNL     1      -3.260 -11.956  10.976  1.00  0.00     0.173 A 
ATOM     87  F   UNL     1      -2.851  -9.706   8.149  1.00  0.00    -0.203 F 
ATOM     88  C   UNL     1      -4.341 -11.485   8.466  1.00  0.00     0.198 A 
ATOM     89  C   UNL     1      -4.244 -12.797  10.469  1.00  0.00     0.198 A 
ATOM     90  F   UNL     1      -2.733 -12.232  12.179  1.00  0.00    -0.203 F 
ATOM     91  F   UNL     1      -4.857 -11.264   7.247  1.00  0.00    -0.200 F 
ATOM     92  C   UNL     1      -4.792 -12.557   9.219  1.00  0.00     0.200 A 
ATOM     93  F   UNL     1      -4.639 -13.862  11.180  1.00  0.00    -0.200 F 
ATOM     94  F   UNL     1      -5.734 -13.375   8.730  1.00  0.00    -0.200 F 
ENDBRANCH  61  84
ENDBRANCH  35  36
ENDBRANCH  28  30
ENDBRANCH  27  28
ENDBRANCH  26  27
ENDBRANCH  25  26
ENDBRANCH  24  25
ENDBRANCH   1  24
TORSDOF 19
