REMARK SMILES O=C(OCCOCCOC(=O)C1(O)CCC(F)(F)CC1)c1ccc(-c2c3nc(c(-c4c(F)c(F)c(F)c(F)c4F)c4ccc([nH]4)c(-c4c(F)c(F)c(F)c(F)c4F)c4nc(c(-c5c(F)c(F)c(F)c(F)c5F)c5ccc2[nH]5)C=C4)C=C3)cc1
REMARK SMILES IDX 5 1 4 2 3 3 2 4 1 5 21 6 22 7 83 8 23 9 82 10 24 11 25 12
REMARK SMILES IDX 26 13 76 14 27 15 81 16 75 17 77 18 28 19 80 20 74 21 73 22
REMARK SMILES IDX 29 24 61 25 41 26 60 27 42 28 45 29 59 30 78 31 43 32 44 33
REMARK SMILES IDX 58 35 79 36 46 37 30 38 31 39 39 40 32 41 33 42 37 43 40 44
REMARK SMILES IDX 34 45 35 46 38 47 36 48 62 49 63 50 71 51 64 52 65 53 69 54
REMARK SMILES IDX 72 55 66 56 67 57 70 58 68 59 47 60 48 61 56 62 49 63 50 64
REMARK SMILES IDX 54 65 57 66 51 67 52 68 55 69 53 70 6 71 7 72 8 73 9 74
REMARK SMILES IDX 10 75 11 76 12 77 14 78 20 79 15 80 19 81 16 82 17 83 18 84
REMARK SMILES IDX 13 85
REMARK H PARENT 77 23 45 34 13 86
REMARK Flexibility Score: inf
ROOT
ATOM      1  C   UNL     1       4.007  -1.512   0.179  1.00  0.00     0.202 C 
ENDROOT
BRANCH   1   2
ATOM      2  C   UNL     1       4.027  -0.598   1.407  1.00  0.00     0.261 C 
BRANCH   2   3
ATOM      3  O   UNL     1       2.718  -0.076   1.679  1.00  0.00    -0.460 OA
BRANCH   3   4
ATOM      4  C   UNL     1       2.090   0.936   1.034  1.00  0.00     0.338 C 
ATOM      5  O   UNL     1       0.866   1.020   1.128  1.00  0.00    -0.246 OA
BRANCH   4   6
ATOM      6  C   UNL     1       2.806   2.016   0.287  1.00  0.00     0.060 A 
ATOM      7  C   UNL     1       4.019   1.881  -0.396  1.00  0.00     0.016 A 
ATOM      8  C   UNL     1       2.153   3.260   0.224  1.00  0.00     0.016 A 
ATOM      9  C   UNL     1       4.594   2.942  -1.077  1.00  0.00     0.010 A 
ATOM     10  C   UNL     1       2.719   4.336  -0.461  1.00  0.00     0.010 A 
ATOM     11  C   UNL     1       3.956   4.176  -1.089  1.00  0.00    -0.014 A 
BRANCH  11  12
ATOM     12  C   UNL     1       4.710   5.322  -1.608  1.00  0.00     0.031 A 
ATOM     13  C   UNL     1       5.431   6.176  -0.616  1.00  0.00     0.074 A 
ATOM     14  C   UNL     1       4.844   5.488  -2.932  1.00  0.00     0.049 A 
ATOM     15  N   UNL     1       6.106   7.276  -0.802  1.00  0.00    -0.248 NA
ATOM     16  C   UNL     1       5.400   5.714   0.783  1.00  0.00     0.031 C 
ATOM     17  C   UNL     1       4.293   4.595  -3.952  1.00  0.00     0.029 A 
ATOM     18  N   UNL     1       5.503   6.450  -3.645  1.00  0.00    -0.354 N 
ATOM     19  C   UNL     1       6.550   7.654   0.457  1.00  0.00     0.074 A 
ATOM     20  C   UNL     1       6.080   6.666   1.400  1.00  0.00     0.031 C 
ATOM     21  C   UNL     1       4.638   5.055  -5.165  1.00  0.00     0.029 A 
ATOM     22  C   UNL     1       5.374   6.304  -5.003  1.00  0.00     0.049 A 
ATOM     23  H   UNL     1       6.019   7.176  -3.225  1.00  0.00     0.167 HD
ATOM     24  C   UNL     1       7.272   8.749   0.784  1.00  0.00     0.037 A 
ATOM     25  C   UNL     1       5.776   7.126  -5.989  1.00  0.00     0.037 A 
ATOM     26  C   UNL     1       7.704   9.713  -0.189  1.00  0.00     0.049 A 
ATOM     27  C   UNL     1       6.494   8.389  -5.596  1.00  0.00     0.074 A 
ATOM     28  C   UNL     1       8.364  10.910   0.003  1.00  0.00     0.029 A 
ATOM     29  N   UNL     1       7.506   9.575  -1.560  1.00  0.00    -0.354 N 
ATOM     30  N   UNL     1       6.838   8.804  -4.398  1.00  0.00    -0.248 NA
ATOM     31  C   UNL     1       6.865   9.306  -6.678  1.00  0.00     0.031 C 
ATOM     32  C   UNL     1       8.528  11.516  -1.248  1.00  0.00     0.029 A 
ATOM     33  C   UNL     1       8.019  10.672  -2.226  1.00  0.00     0.049 A 
ATOM     34  H   UNL     1       7.066   8.807  -1.991  1.00  0.00     0.167 HD
ATOM     35  C   UNL     1       7.479  10.020  -4.580  1.00  0.00     0.074 A 
ATOM     36  C   UNL     1       7.487  10.268  -6.010  1.00  0.00     0.031 C 
ATOM     37  C   UNL     1       8.009  10.860  -3.656  1.00  0.00     0.037 A 
BRANCH  24  38
ATOM     38  C   UNL     1       7.528   8.980   2.243  1.00  0.00     0.064 A 
ATOM     39  C   UNL     1       8.406   8.174   2.984  1.00  0.00     0.173 A 
ATOM     40  C   UNL     1       6.821   9.980   2.929  1.00  0.00     0.173 A 
ATOM     41  F   UNL     1       9.079   7.181   2.384  1.00  0.00    -0.203 F 
ATOM     42  C   UNL     1       8.537   8.336   4.362  1.00  0.00     0.198 A 
ATOM     43  C   UNL     1       6.975  10.156   4.301  1.00  0.00     0.198 A 
ATOM     44  F   UNL     1       5.959  10.770   2.271  1.00  0.00    -0.203 F 
ATOM     45  F   UNL     1       9.325   7.506   5.061  1.00  0.00    -0.200 F 
ATOM     46  C   UNL     1       7.822   9.327   5.019  1.00  0.00     0.200 A 
ATOM     47  F   UNL     1       6.282  11.114   4.933  1.00  0.00    -0.200 F 
ATOM     48  F   UNL     1       7.935   9.468   6.347  1.00  0.00    -0.200 F 
ENDBRANCH  24  38
BRANCH  25  49
ATOM     49  C   UNL     1       5.460   6.800  -7.404  1.00  0.00     0.064 A 
ATOM     50  C   UNL     1       6.470   6.494  -8.326  1.00  0.00     0.173 A 
ATOM     51  C   UNL     1       4.133   6.764  -7.861  1.00  0.00     0.173 A 
ATOM     52  F   UNL     1       7.756   6.534  -7.948  1.00  0.00    -0.203 F 
ATOM     53  C   UNL     1       6.165   6.172  -9.649  1.00  0.00     0.198 A 
ATOM     54  C   UNL     1       3.828   6.413  -9.175  1.00  0.00     0.198 A 
ATOM     55  F   UNL     1       3.125   7.050  -7.023  1.00  0.00    -0.203 F 
ATOM     56  F   UNL     1       7.153   5.916 -10.518  1.00  0.00    -0.200 F 
ATOM     57  C   UNL     1       4.845   6.123 -10.070  1.00  0.00     0.200 A 
ATOM     58  F   UNL     1       2.549   6.353  -9.571  1.00  0.00    -0.200 F 
ATOM     59  F   UNL     1       4.553   5.801 -11.337  1.00  0.00    -0.200 F 
ENDBRANCH  25  49
BRANCH  37  60
ATOM     60  C   UNL     1       8.673  12.099  -4.174  1.00  0.00     0.064 A 
ATOM     61  C   UNL     1       7.927  13.187  -4.647  1.00  0.00     0.173 A 
ATOM     62  C   UNL     1      10.069  12.219  -4.128  1.00  0.00     0.173 A 
ATOM     63  F   UNL     1       6.590  13.108  -4.721  1.00  0.00    -0.203 F 
ATOM     64  C   UNL     1       8.560  14.350  -5.072  1.00  0.00     0.198 A 
ATOM     65  C   UNL     1      10.696  13.394  -4.527  1.00  0.00     0.198 A 
ATOM     66  F   UNL     1      10.821  11.204  -3.675  1.00  0.00    -0.203 F 
ATOM     67  F   UNL     1       7.833  15.368  -5.554  1.00  0.00    -0.200 F 
ATOM     68  C   UNL     1       9.942  14.456  -5.002  1.00  0.00     0.200 A 
ATOM     69  F   UNL     1      12.029  13.500  -4.446  1.00  0.00    -0.200 F 
ATOM     70  F   UNL     1      10.548  15.584  -5.398  1.00  0.00    -0.200 F 
ENDBRANCH  37  60
ENDBRANCH  11  12
ENDBRANCH   4   6
ENDBRANCH   3   4
ENDBRANCH   2   3
ENDBRANCH   1   2
BRANCH   1  71
ATOM     71  O   UNL     1       3.504  -0.866  -0.995  1.00  0.00    -0.374 OA
BRANCH  71  72
ATOM     72  C   UNL     1       2.149  -1.178  -1.328  1.00  0.00     0.202 C 
BRANCH  72  73
ATOM     73  C   UNL     1       2.097  -2.207  -2.451  1.00  0.00     0.261 C 
BRANCH  73  74
ATOM     74  O   UNL     1       2.895  -3.345  -2.088  1.00  0.00    -0.461 OA
BRANCH  74  75
ATOM     75  C   UNL     1       4.185  -3.297  -2.541  1.00  0.00     0.338 C 
ATOM     76  O   UNL     1       4.624  -2.468  -3.328  1.00  0.00    -0.249 OA
BRANCH  75  77
ATOM     77  C   UNL     1       5.012  -4.447  -1.915  1.00  0.00     0.162 C 
ATOM     78  C   UNL     1       4.388  -5.803  -2.268  1.00  0.00     0.053 C 
ATOM     79  C   UNL     1       6.470  -4.380  -2.401  1.00  0.00     0.053 C 
ATOM     80  C   UNL     1       4.480  -6.096  -3.759  1.00  0.00     0.080 C 
ATOM     81  C   UNL     1       6.623  -4.732  -3.882  1.00  0.00     0.080 C 
ATOM     82  C   UNL     1       5.921  -6.032  -4.238  1.00  0.00     0.248 C 
ATOM     83  F   UNL     1       5.954  -6.215  -5.580  1.00  0.00    -0.207 F 
ATOM     84  F   UNL     1       6.607  -7.067  -3.687  1.00  0.00    -0.207 F 
BRANCH  77  85
ATOM     85  O   UNL     1       5.034  -4.340  -0.488  1.00  0.00    -0.378 OA
ATOM     86  H   UNL     1       4.127  -4.378  -0.147  1.00  0.00     0.212 HD
ENDBRANCH  77  85
ENDBRANCH  75  77
ENDBRANCH  74  75
ENDBRANCH  73  74
ENDBRANCH  72  73
ENDBRANCH  71  72
ENDBRANCH   1  71
TORSDOF 15
