REMARK SMILES O=C(CCNc1cc(N2CCC3(CC2)OCCO3)c2noc3c2c1C(=O)c1ccccc1-3)OCCOCCOC(=O)c1ccc(-c2c3nc(c(-c4c(F)c(F)c(F)c(F)c4F)c4ccc([nH]4)c(-c4c(F)c(F)c(F)c(F)c4F)c4nc(c(-c5c(F)c(F)c(F)c(F)c5F)c5ccc2[nH]5)C=C4)C=C3)cc1
REMARK SMILES IDX 35 1 34 2 33 3 2 4 1 5 3 6 4 7 5 8 6 10 7 11 24 12 8 13
REMARK SMILES IDX 23 14 25 15 19 16 22 17 26 18 27 19 20 20 21 21 32 22 28 23
REMARK SMILES IDX 31 24 29 25 30 26 9 27 10 28 14 29 11 30 13 31 12 32 15 33
REMARK SMILES IDX 18 34 16 35 17 36 36 37 37 38 38 39 39 40 40 41 41 42 42 43
REMARK SMILES IDX 43 44 104 45 44 46 103 47 45 48 46 49 47 50 97 51 48 52
REMARK SMILES IDX 102 53 96 54 98 55 49 56 101 57 95 58 94 59 50 61 82 62
REMARK SMILES IDX 62 63 81 64 63 65 66 66 80 67 99 68 64 69 65 70 79 72 100 73
REMARK SMILES IDX 67 74 51 75 52 76 60 77 53 78 54 79 58 80 61 81 55 82 56 83
REMARK SMILES IDX 59 84 57 85 83 86 84 87 92 88 85 89 86 90 90 91 93 92 87 93
REMARK SMILES IDX 88 94 91 95 89 96 68 97 69 98 77 99 70 100 71 101 75 102
REMARK SMILES IDX 78 103 72 104 73 105 76 106 74 107
REMARK H PARENT 5 9 98 60 66 71
REMARK Flexibility Score: inf
ROOT
ATOM      1  C   UNL     1       4.404   0.941  -0.967  1.00  0.00     0.202 C 
ENDROOT
BRANCH   1   2
ATOM      2  C   UNL     1       3.621  -0.375  -1.059  1.00  0.00     0.261 C 
BRANCH   2   3
ATOM      3  O   UNL     1       2.386  -0.541  -0.337  1.00  0.00    -0.463 OA
BRANCH   3   4
ATOM      4  C   UNL     1       2.089  -0.285   0.943  1.00  0.00     0.307 C 
ATOM      5  O   UNL     1       0.970  -0.569   1.368  1.00  0.00    -0.252 OA
BRANCH   4   6
ATOM      6  C   UNL     1       3.092   0.369   1.829  1.00  0.00     0.144 C 
BRANCH   6   7
ATOM      7  C   UNL     1       4.081  -0.591   2.447  1.00  0.00     0.124 C 
BRANCH   7   8
ATOM      8  N   UNL     1       5.071  -1.116   1.495  1.00  0.00    -0.384 N 
ATOM      9  H   UNL     1       4.766  -1.628   0.711  1.00  0.00     0.160 HD
BRANCH   8  10
ATOM     10  C   UNL     1       6.444  -0.897   1.689  1.00  0.00     0.048 A 
ATOM     11  C   UNL     1       7.245  -0.683   0.491  1.00  0.00     0.054 A 
ATOM     12  C   UNL     1       7.073  -0.959   2.943  1.00  0.00     0.059 A 
ATOM     13  C   UNL     1       8.655  -0.400   0.416  1.00  0.00     0.069 A 
ATOM     14  C   UNL     1       8.415  -0.652   2.845  1.00  0.00     0.065 A 
ATOM     15  C   UNL     1       6.534  -1.334   4.276  1.00  0.00     0.196 C 
ATOM     16  C   UNL     1       9.234  -0.379   1.715  1.00  0.00     0.138 A 
ATOM     17  C   UNL     1       9.175  -0.545   3.960  1.00  0.00     0.176 A 
ATOM     18  O   UNL     1       5.466  -1.917   4.413  1.00  0.00    -0.288 OA
ATOM     19  C   UNL     1       7.368  -1.049   5.483  1.00  0.00     0.034 A 
ATOM     20  N   UNL     1      10.486  -0.136   2.176  1.00  0.00    -0.077 NA
ATOM     21  O   UNL     1      10.436  -0.224   3.583  1.00  0.00    -0.355 OA
ATOM     22  C   UNL     1       8.728  -0.691   5.327  1.00  0.00     0.032 A 
ATOM     23  C   UNL     1       6.788  -1.171   6.747  1.00  0.00     0.013 A 
ATOM     24  C   UNL     1       9.507  -0.492   6.463  1.00  0.00     0.013 A 
ATOM     25  C   UNL     1       7.572  -0.959   7.875  1.00  0.00     0.001 A 
ATOM     26  C   UNL     1       8.926  -0.634   7.732  1.00  0.00     0.001 A 
BRANCH  13  27
ATOM     27  N   UNL     1       9.260  -0.221  -0.815  1.00  0.00    -0.369 N 
ATOM     28  C   UNL     1      10.452  -0.969  -1.189  1.00  0.00     0.122 C 
ATOM     29  C   UNL     1       8.991   0.979  -1.604  1.00  0.00     0.122 C 
ATOM     30  C   UNL     1      10.244  -1.469  -2.619  1.00  0.00     0.087 C 
ATOM     31  C   UNL     1       8.788   0.579  -3.061  1.00  0.00     0.087 C 
ATOM     32  C   UNL     1       9.910  -0.324  -3.582  1.00  0.00     0.171 C 
ATOM     33  O   UNL     1      11.088   0.469  -3.828  1.00  0.00    -0.347 OA
ATOM     34  O   UNL     1       9.477  -0.911  -4.832  1.00  0.00    -0.347 OA
ATOM     35  C   UNL     1      11.522   0.087  -5.136  1.00  0.00     0.192 C 
ATOM     36  C   UNL     1      10.241  -0.257  -5.842  1.00  0.00     0.192 C 
ENDBRANCH  13  27
ENDBRANCH   8  10
ENDBRANCH   7   8
ENDBRANCH   6   7
ENDBRANCH   4   6
ENDBRANCH   3   4
ENDBRANCH   2   3
ENDBRANCH   1   2
BRANCH   1  37
ATOM     37  O   UNL     1       3.675   2.140  -0.751  1.00  0.00    -0.374 OA
BRANCH  37  38
ATOM     38  C   UNL     1       2.550   2.406  -1.573  1.00  0.00     0.202 C 
BRANCH  38  39
ATOM     39  C   UNL     1       2.905   2.746  -3.019  1.00  0.00     0.261 C 
BRANCH  39  40
ATOM     40  O   UNL     1       2.958   1.535  -3.787  1.00  0.00    -0.460 OA
BRANCH  40  41
ATOM     41  C   UNL     1       4.142   1.172  -4.333  1.00  0.00     0.338 C 
ATOM     42  O   UNL     1       5.186   1.797  -4.357  1.00  0.00    -0.246 OA
BRANCH  41  43
ATOM     43  C   UNL     1       3.999  -0.263  -4.643  1.00  0.00     0.060 A 
ATOM     44  C   UNL     1       2.860  -0.730  -5.301  1.00  0.00     0.016 A 
ATOM     45  C   UNL     1       4.915  -1.155  -4.076  1.00  0.00     0.016 A 
ATOM     46  C   UNL     1       2.618  -2.098  -5.359  1.00  0.00     0.010 A 
ATOM     47  C   UNL     1       4.649  -2.521  -4.103  1.00  0.00     0.010 A 
ATOM     48  C   UNL     1       3.501  -3.002  -4.746  1.00  0.00    -0.014 A 
BRANCH  48  49
ATOM     49  C   UNL     1       3.266  -4.443  -4.950  1.00  0.00     0.031 A 
ATOM     50  C   UNL     1       4.492  -5.289  -5.086  1.00  0.00     0.074 A 
ATOM     51  C   UNL     1       2.109  -5.033  -4.586  1.00  0.00     0.049 A 
ATOM     52  N   UNL     1       5.110  -5.839  -4.079  1.00  0.00    -0.248 NA
ATOM     53  C   UNL     1       5.254  -5.321  -6.335  1.00  0.00     0.031 C 
ATOM     54  C   UNL     1       1.393  -4.748  -3.338  1.00  0.00     0.029 A 
ATOM     55  N   UNL     1       1.463  -6.128  -5.112  1.00  0.00    -0.354 N 
ATOM     56  C   UNL     1       6.347  -6.259  -4.539  1.00  0.00     0.074 A 
ATOM     57  C   UNL     1       6.388  -5.921  -5.945  1.00  0.00     0.031 C 
ATOM     58  C   UNL     1       0.518  -5.750  -3.109  1.00  0.00     0.029 A 
ATOM     59  C   UNL     1       0.511  -6.665  -4.251  1.00  0.00     0.049 A 
ATOM     60  H   UNL     1       1.654  -6.493  -6.006  1.00  0.00     0.167 HD
ATOM     61  C   UNL     1       7.277  -6.860  -3.751  1.00  0.00     0.037 A 
ATOM     62  C   UNL     1       0.205  -7.990  -4.178  1.00  0.00     0.037 A 
ATOM     63  C   UNL     1       6.907  -7.068  -2.385  1.00  0.00     0.049 A 
ATOM     64  C   UNL     1       1.455  -8.531  -3.525  1.00  0.00     0.074 A 
ATOM     65  C   UNL     1       7.127  -6.474  -1.161  1.00  0.00     0.029 A 
ATOM     66  N   UNL     1       6.088  -8.136  -2.106  1.00  0.00    -0.354 N 
ATOM     67  N   UNL     1       1.745  -8.481  -2.252  1.00  0.00    -0.248 NA
ATOM     68  C   UNL     1       2.593  -8.826  -4.400  1.00  0.00     0.031 C 
ATOM     69  C   UNL     1       6.059  -6.928  -0.322  1.00  0.00     0.029 A 
ATOM     70  C   UNL     1       5.239  -7.735  -1.109  1.00  0.00     0.049 A 
ATOM     71  H   UNL     1       6.108  -9.019  -2.540  1.00  0.00     0.167 HD
ATOM     72  C   UNL     1       3.141  -8.479  -2.191  1.00  0.00     0.074 A 
ATOM     73  C   UNL     1       3.598  -8.713  -3.544  1.00  0.00     0.031 C 
ATOM     74  C   UNL     1       3.845  -8.108  -1.083  1.00  0.00     0.037 A 
BRANCH  61  75
ATOM     75  C   UNL     1       8.514  -7.488  -4.250  1.00  0.00     0.064 A 
ATOM     76  C   UNL     1       8.508  -8.880  -4.426  1.00  0.00     0.173 A 
ATOM     77  C   UNL     1       9.734  -6.813  -4.340  1.00  0.00     0.173 A 
ATOM     78  F   UNL     1       7.352  -9.560  -4.335  1.00  0.00    -0.203 F 
ATOM     79  C   UNL     1       9.686  -9.584  -4.633  1.00  0.00     0.198 A 
ATOM     80  C   UNL     1      10.916  -7.522  -4.561  1.00  0.00     0.198 A 
ATOM     81  F   UNL     1       9.790  -5.485  -4.165  1.00  0.00    -0.203 F 
ATOM     82  F   UNL     1       9.653 -10.919  -4.739  1.00  0.00    -0.200 F 
ATOM     83  C   UNL     1      10.892  -8.906  -4.690  1.00  0.00     0.200 A 
ATOM     84  F   UNL     1      12.086  -6.871  -4.617  1.00  0.00    -0.200 F 
ATOM     85  F   UNL     1      12.034  -9.588  -4.855  1.00  0.00    -0.200 F 
ENDBRANCH  61  75
BRANCH  62  86
ATOM     86  C   UNL     1      -0.410  -8.590  -5.408  1.00  0.00     0.064 A 
ATOM     87  C   UNL     1      -1.506  -7.929  -6.004  1.00  0.00     0.173 A 
ATOM     88  C   UNL     1       0.001  -9.777  -6.034  1.00  0.00     0.173 A 
ATOM     89  F   UNL     1      -2.049  -6.854  -5.412  1.00  0.00    -0.203 F 
ATOM     90  C   UNL     1      -2.059  -8.351  -7.214  1.00  0.00     0.198 A 
ATOM     91  C   UNL     1      -0.532 -10.184  -7.260  1.00  0.00     0.198 A 
ATOM     92  F   UNL     1       0.937 -10.561  -5.484  1.00  0.00    -0.203 F 
ATOM     93  F   UNL     1      -3.073  -7.666  -7.762  1.00  0.00    -0.200 F 
ATOM     94  C   UNL     1      -1.548  -9.461  -7.860  1.00  0.00     0.200 A 
ATOM     95  F   UNL     1      -0.038 -11.270  -7.871  1.00  0.00    -0.200 F 
ATOM     96  F   UNL     1      -2.033  -9.835  -9.051  1.00  0.00    -0.200 F 
ENDBRANCH  62  86
BRANCH  74  97
ATOM     97  C   UNL     1       3.038  -7.865   0.143  1.00  0.00     0.064 A 
ATOM     98  C   UNL     1       2.445  -8.938   0.818  1.00  0.00     0.173 A 
ATOM     99  C   UNL     1       2.889  -6.578   0.684  1.00  0.00     0.173 A 
ATOM    100  F   UNL     1       2.573 -10.189   0.346  1.00  0.00    -0.203 F 
ATOM    101  C   UNL     1       1.746  -8.736   2.003  1.00  0.00     0.198 A 
ATOM    102  C   UNL     1       2.213  -6.384   1.884  1.00  0.00     0.198 A 
ATOM    103  F   UNL     1       3.422  -5.509   0.071  1.00  0.00    -0.203 F 
ATOM    104  F   UNL     1       1.194  -9.778   2.639  1.00  0.00    -0.200 F 
ATOM    105  C   UNL     1       1.643  -7.462   2.543  1.00  0.00     0.200 A 
ATOM    106  F   UNL     1       2.136  -5.155   2.415  1.00  0.00    -0.200 F 
ATOM    107  F   UNL     1       1.007  -7.277   3.708  1.00  0.00    -0.200 F 
ENDBRANCH  74  97
ENDBRANCH  48  49
ENDBRANCH  41  43
ENDBRANCH  40  41
ENDBRANCH  39  40
ENDBRANCH  38  39
ENDBRANCH  37  38
ENDBRANCH   1  37
TORSDOF 18
