REMARK SMILES O=C(OCCOCCOC(=O)c1cc(Br)ccc1NC(=O)c1ccc(Br)s1)c1ccc(-c2c3nc(c(-c4c(F)c(F)c(F)c(F)c4F)c4ccc([nH]4)c(-c4c(F)c(F)c(F)c(F)c4F)c4nc(c(-c5c(F)c(F)c(F)c(F)c5F)c5ccc2[nH]5)C=C4)C=C3)cc1
REMARK SMILES IDX 6 1 5 2 4 3 3 4 2 5 1 6 28 7 29 8 90 9 30 10 89 11 31 12
REMARK SMILES IDX 32 13 33 14 83 15 34 16 88 17 82 18 84 19 35 20 87 21 81 22
REMARK SMILES IDX 80 23 36 25 68 26 48 27 67 28 49 29 52 30 66 31 85 32 50 33
REMARK SMILES IDX 51 34 65 36 86 37 53 38 37 39 38 40 46 41 39 42 40 43 44 44
REMARK SMILES IDX 47 45 41 46 42 47 45 48 43 49 69 50 70 51 78 52 71 53 72 54
REMARK SMILES IDX 76 55 79 56 73 57 74 58 77 59 75 60 54 61 55 62 63 63 56 64
REMARK SMILES IDX 57 65 61 66 64 67 58 68 59 69 62 70 60 71 7 72 8 73 9 74
REMARK SMILES IDX 10 75 11 76 12 77 13 78 18 79 14 80 17 81 15 82 16 83 19 84
REMARK SMILES IDX 20 85 21 87 22 88 23 89 27 90 24 91 25 92 26 93
REMARK H PARENT 84 24 52 35 19 86
REMARK Flexibility Score: inf
ROOT
ATOM      1  O   UNL     1       3.882  -1.653  -0.388  1.00  0.00    -0.374 OA
ENDROOT
BRANCH   1   2
ATOM      2  C   UNL     1       4.146  -1.288   0.964  1.00  0.00     0.202 C 
BRANCH   2   3
ATOM      3  C   UNL     1       3.730   0.132   1.339  1.00  0.00     0.261 C 
BRANCH   3   4
ATOM      4  O   UNL     1       2.331   0.316   1.086  1.00  0.00    -0.460 OA
BRANCH   4   5
ATOM      5  C   UNL     1       1.772   0.993   0.059  1.00  0.00     0.338 C 
ATOM      6  O   UNL     1       0.548   1.091   0.004  1.00  0.00    -0.246 OA
BRANCH   5   7
ATOM      7  C   UNL     1       2.569   1.655  -1.015  1.00  0.00     0.060 A 
ATOM      8  C   UNL     1       3.751   1.144  -1.560  1.00  0.00     0.016 A 
ATOM      9  C   UNL     1       2.018   2.809  -1.590  1.00  0.00     0.016 A 
ATOM     10  C   UNL     1       4.391   1.764  -2.620  1.00  0.00     0.010 A 
ATOM     11  C   UNL     1       2.637   3.425  -2.678  1.00  0.00     0.010 A 
ATOM     12  C   UNL     1       3.827   2.896  -3.192  1.00  0.00    -0.014 A 
BRANCH  12  13
ATOM     13  C   UNL     1       4.548   3.562  -4.283  1.00  0.00     0.031 A 
ATOM     14  C   UNL     1       5.309   4.802  -3.966  1.00  0.00     0.074 A 
ATOM     15  C   UNL     1       4.556   3.008  -5.506  1.00  0.00     0.049 A 
ATOM     16  N   UNL     1       5.869   5.660  -4.772  1.00  0.00    -0.248 NA
ATOM     17  C   UNL     1       5.460   5.119  -2.537  1.00  0.00     0.031 C 
ATOM     18  C   UNL     1       3.946   1.722  -5.851  1.00  0.00     0.029 A 
ATOM     19  N   UNL     1       5.093   3.453  -6.682  1.00  0.00    -0.354 N 
ATOM     20  C   UNL     1       6.395   6.646  -3.951  1.00  0.00     0.074 A 
ATOM     21  C   UNL     1       6.104   6.273  -2.585  1.00  0.00     0.031 C 
ATOM     22  C   UNL     1       4.131   1.488  -7.159  1.00  0.00     0.029 A 
ATOM     23  C   UNL     1       4.800   2.642  -7.750  1.00  0.00     0.049 A 
ATOM     24  H   UNL     1       5.635   4.271  -6.755  1.00  0.00     0.167 HD
ATOM     25  C   UNL     1       7.037   7.774  -4.329  1.00  0.00     0.037 A 
ATOM     26  C   UNL     1       4.997   2.854  -9.064  1.00  0.00     0.037 A 
ATOM     27  C   UNL     1       7.297   8.096  -5.706  1.00  0.00     0.049 A 
ATOM     28  C   UNL     1       5.649   4.146  -9.473  1.00  0.00     0.074 A 
ATOM     29  C   UNL     1       7.886   9.224  -6.240  1.00  0.00     0.029 A 
ATOM     30  N   UNL     1       6.968   7.266  -6.774  1.00  0.00    -0.354 N 
ATOM     31  N   UNL     1       6.078   5.127  -8.712  1.00  0.00    -0.248 NA
ATOM     32  C   UNL     1       5.830   4.377 -10.910  1.00  0.00     0.031 C 
ATOM     33  C   UNL     1       7.872   9.096  -7.635  1.00  0.00     0.029 A 
ATOM     34  C   UNL     1       7.325   7.864  -7.968  1.00  0.00     0.049 A 
ATOM     35  H   UNL     1       6.543   6.381  -6.691  1.00  0.00     0.167 HD
ATOM     36  C   UNL     1       6.594   6.085  -9.570  1.00  0.00     0.074 A 
ATOM     37  C   UNL     1       6.429   5.561 -10.914  1.00  0.00     0.031 C 
ATOM     38  C   UNL     1       7.150   7.288  -9.280  1.00  0.00     0.037 A 
BRANCH  25  39
ATOM     39  C   UNL     1       7.382   8.750  -3.244  1.00  0.00     0.064 A 
ATOM     40  C   UNL     1       8.363   8.482  -2.277  1.00  0.00     0.173 A 
ATOM     41  C   UNL     1       6.653   9.943  -3.121  1.00  0.00     0.173 A 
ATOM     42  F   UNL     1       9.069   7.342  -2.330  1.00  0.00    -0.203 F 
ATOM     43  C   UNL     1       8.563   9.344  -1.200  1.00  0.00     0.198 A 
ATOM     44  C   UNL     1       6.877  10.818  -2.062  1.00  0.00     0.198 A 
ATOM     45  F   UNL     1       5.699  10.248  -4.014  1.00  0.00    -0.203 F 
ATOM     46  F   UNL     1       9.445   9.025  -0.243  1.00  0.00    -0.200 F 
ATOM     47  C   UNL     1       7.820  10.510  -1.094  1.00  0.00     0.200 A 
ATOM     48  F   UNL     1       6.159  11.945  -1.962  1.00  0.00    -0.200 F 
ATOM     49  F   UNL     1       7.997  11.327  -0.046  1.00  0.00    -0.200 F 
ENDBRANCH  25  39
BRANCH  26  50
ATOM     50  C   UNL     1       4.513   1.854 -10.051  1.00  0.00     0.064 A 
ATOM     51  C   UNL     1       5.404   1.083 -10.808  1.00  0.00     0.173 A 
ATOM     52  C   UNL     1       3.140   1.605 -10.215  1.00  0.00     0.173 A 
ATOM     53  F   UNL     1       6.725   1.293 -10.704  1.00  0.00    -0.203 F 
ATOM     54  C   UNL     1       4.943   0.103 -11.686  1.00  0.00     0.198 A 
ATOM     55  C   UNL     1       2.681   0.606 -11.071  1.00  0.00     0.198 A 
ATOM     56  F   UNL     1       2.241   2.312  -9.513  1.00  0.00    -0.203 F 
ATOM     57  F   UNL     1       5.817  -0.606 -12.414  1.00  0.00    -0.200 F 
ATOM     58  C   UNL     1       3.583  -0.143 -11.808  1.00  0.00     0.200 A 
ATOM     59  F   UNL     1       1.367   0.362 -11.170  1.00  0.00    -0.200 F 
ATOM     60  F   UNL     1       3.143  -1.100 -12.636  1.00  0.00    -0.200 F 
ENDBRANCH  26  50
BRANCH  38  61
ATOM     61  C   UNL     1       7.658   8.097 -10.433  1.00  0.00     0.064 A 
ATOM     62  C   UNL     1       6.787   8.810 -11.267  1.00  0.00     0.173 A 
ATOM     63  C   UNL     1       9.039   8.239 -10.635  1.00  0.00     0.173 A 
ATOM     64  F   UNL     1       5.459   8.691 -11.117  1.00  0.00    -0.203 F 
ATOM     65  C   UNL     1       7.283   9.639 -12.268  1.00  0.00     0.198 A 
ATOM     66  C   UNL     1       9.530   9.088 -11.619  1.00  0.00     0.198 A 
ATOM     67  F   UNL     1       9.907   7.579  -9.854  1.00  0.00    -0.203 F 
ATOM     68  F   UNL     1       6.436  10.299 -13.070  1.00  0.00    -0.200 F 
ATOM     69  C   UNL     1       8.653   9.787 -12.435  1.00  0.00     0.200 A 
ATOM     70  F   UNL     1      10.853   9.242 -11.769  1.00  0.00    -0.200 F 
ATOM     71  F   UNL     1       9.128  10.605 -13.383  1.00  0.00    -0.200 F 
ENDBRANCH  38  61
ENDBRANCH  12  13
ENDBRANCH   5   7
ENDBRANCH   4   5
ENDBRANCH   3   4
ENDBRANCH   2   3
ENDBRANCH   1   2
BRANCH   1  72
ATOM     72  C   UNL     1       2.609  -2.249  -0.647  1.00  0.00     0.202 C 
BRANCH  72  73
ATOM     73  C   UNL     1       2.836  -3.542  -1.437  1.00  0.00     0.261 C 
BRANCH  73  74
ATOM     74  O   UNL     1       3.481  -4.500  -0.579  1.00  0.00    -0.460 OA
BRANCH  74  75
ATOM     75  C   UNL     1       4.836  -4.418  -0.490  1.00  0.00     0.340 C 
ATOM     76  O   UNL     1       5.598  -3.820  -1.222  1.00  0.00    -0.246 OA
BRANCH  75  77
ATOM     77  C   UNL     1       5.221  -4.984   0.828  1.00  0.00     0.084 A 
ATOM     78  C   UNL     1       4.531  -6.120   1.284  1.00  0.00     0.033 A 
ATOM     79  C   UNL     1       6.156  -4.316   1.653  1.00  0.00     0.056 A 
ATOM     80  C   UNL     1       4.713  -6.559   2.588  1.00  0.00     0.018 A 
ATOM     81  C   UNL     1       6.254  -4.740   2.983  1.00  0.00     0.028 A 
ATOM     82  Br  UNL     1       3.770  -8.069   3.212  1.00  0.00    -0.051 Br
ATOM     83  C   UNL     1       5.550  -5.859   3.446  1.00  0.00     0.018 A 
BRANCH  79  84
ATOM     84  N   UNL     1       6.871  -3.200   1.149  1.00  0.00    -0.320 N 
ATOM     85  C   UNL     1       7.838  -2.376   1.696  1.00  0.00     0.265 C 
ATOM     86  H   UNL     1       6.631  -2.964   0.224  1.00  0.00     0.170 HD
ATOM     87  O   UNL     1       7.944  -1.239   1.231  1.00  0.00    -0.268 OA
BRANCH  85  88
ATOM     88  C   UNL     1       8.715  -2.883   2.731  1.00  0.00     0.093 A 
ATOM     89  C   UNL     1       9.397  -4.086   2.780  1.00  0.00     0.027 A 
ATOM     90  S   UNL     1       9.046  -1.917   4.110  1.00  0.00    -0.123 S 
ATOM     91  C   UNL     1      10.115  -4.251   4.002  1.00  0.00     0.028 A 
ATOM     92  C   UNL     1       9.984  -3.146   4.805  1.00  0.00     0.071 A 
ATOM     93  Br  UNL     1      10.764  -3.005   6.502  1.00  0.00    -0.039 Br
ENDBRANCH  85  88
ENDBRANCH  79  84
ENDBRANCH  75  77
ENDBRANCH  74  75
ENDBRANCH  73  74
ENDBRANCH  72  73
ENDBRANCH   1  72
TORSDOF 16
