REMARK SMILES Cc1nc(-c2ccc3c(c2)CCN3S(=O)(=O)c2ccc(F)c(C(=O)OCCOCCOC(=O)c3ccc(-c4c5nc(c(-c6c(F)c(F)c(F)c(F)c6F)c6ccc([nH]6)c(-c6c(F)c(F)c(F)c(F)c6F)c6nc(c(-c7c(F)c(F)c(F)c(F)c7F)c7ccc4[nH]7)C=C6)C=C5)cc3)c2)cs1
REMARK SMILES IDX 27 1 26 2 25 3 23 4 24 5 22 6 17 7 18 8 97 9 19 10 20 11
REMARK SMILES IDX 21 12 14 13 15 14 16 15 13 16 5 17 6 18 10 19 7 20 9 21 8 22
REMARK SMILES IDX 11 23 12 24 4 25 1 26 2 27 3 28 99 29 98 30 28 31 29 32
REMARK SMILES IDX 30 33 31 34 32 35 33 36 34 37 35 38 96 39 36 40 95 41 37 42
REMARK SMILES IDX 38 43 39 44 89 45 40 46 94 47 88 48 90 49 41 50 93 51 87 52
REMARK SMILES IDX 86 53 42 55 74 56 54 57 73 58 55 59 58 60 72 61 91 62 56 63
REMARK SMILES IDX 57 64 71 66 92 67 59 68 43 69 44 70 52 71 45 72 46 73 50 74
REMARK SMILES IDX 53 75 47 76 48 77 51 78 49 79 75 80 76 81 84 82 77 83 78 84
REMARK SMILES IDX 82 85 85 86 79 87 80 88 83 89 81 90 60 91 61 92 69 93 62 94
REMARK SMILES IDX 63 95 67 96 70 97 64 98 65 99 68 100 66 101
REMARK H PARENT 90 54 58 65
REMARK Flexibility Score: inf
ROOT
ATOM      1  C   UNL     1      -0.576 -11.167  -4.474  1.00  0.00     0.202 C 
ENDROOT
BRANCH   1   2
ATOM      2  C   UNL     1      -1.105  -9.931  -3.741  1.00  0.00     0.261 C 
BRANCH   2   3
ATOM      3  O   UNL     1      -0.202  -8.830  -3.920  1.00  0.00    -0.460 OA
BRANCH   3   4
ATOM      4  C   UNL     1       0.327  -8.311  -2.791  1.00  0.00     0.341 C 
ATOM      5  O   UNL     1      -0.013  -8.549  -1.641  1.00  0.00    -0.246 OA
BRANCH   4   6
ATOM      6  C   UNL     1       1.540  -7.540  -3.115  1.00  0.00     0.097 A 
ATOM      7  C   UNL     1       3.747  -6.812  -2.462  1.00  0.00     0.089 A 
ATOM      8  C   UNL     1       3.857  -6.060  -3.640  1.00  0.00     0.025 A 
ATOM      9  C   UNL     1       2.613  -7.590  -2.211  1.00  0.00     0.041 A 
ATOM     10  C   UNL     1       2.795  -6.034  -4.543  1.00  0.00     0.041 A 
ATOM     11  C   UNL     1       1.636  -6.760  -4.272  1.00  0.00     0.137 A 
ATOM     12  F   UNL     1       0.612  -6.655  -5.129  1.00  0.00    -0.206 F 
BRANCH   7  13
ATOM     13  S   UNL     1       5.009  -6.660  -1.222  1.00  0.00     0.264 S 
ATOM     14  O   UNL     1       6.053  -5.823  -1.778  1.00  0.00    -0.201 OA
ATOM     15  O   UNL     1       5.316  -8.004  -0.773  1.00  0.00    -0.201 OA
BRANCH  13  16
ATOM     16  N   UNL     1       4.304  -5.822   0.089  1.00  0.00    -0.266 N 
ATOM     17  C   UNL     1       2.068  -2.247   0.098  1.00  0.00     0.001 A 
ATOM     18  C   UNL     1       1.750  -3.217  -0.862  1.00  0.00     0.012 A 
ATOM     19  C   UNL     1       3.119  -2.484   0.994  1.00  0.00     0.016 A 
ATOM     20  C   UNL     1       2.471  -4.405  -0.945  1.00  0.00     0.028 A 
ATOM     21  C   UNL     1       3.828  -3.683   0.891  1.00  0.00    -0.021 A 
ATOM     22  C   UNL     1       3.545  -4.618  -0.103  1.00  0.00     0.055 A 
ATOM     23  C   UNL     1       4.825  -4.225   1.864  1.00  0.00     0.060 C 
ATOM     24  C   UNL     1       5.319  -5.500   1.161  1.00  0.00     0.140 C 
BRANCH  17  25
ATOM     25  C   UNL     1       1.203  -1.085   0.179  1.00  0.00     0.081 A 
ATOM     26  C   UNL     1      -2.233   0.125   0.023  1.00  0.00     0.079 C 
ATOM     27  C   UNL     1      -0.760  -0.065   0.112  1.00  0.00     0.090 A 
ATOM     28  N   UNL     1      -0.168  -1.236   0.057  1.00  0.00    -0.242 NA
ATOM     29  S   UNL     1       0.293   1.282   0.280  1.00  0.00    -0.127 S 
ATOM     30  C   UNL     1       1.641   0.216   0.300  1.00  0.00     0.095 A 
ENDBRANCH  17  25
ENDBRANCH  13  16
ENDBRANCH   7  13
ENDBRANCH   4   6
ENDBRANCH   3   4
ENDBRANCH   2   3
ENDBRANCH   1   2
BRANCH   1  31
ATOM     31  O   UNL     1       0.637 -11.729  -3.972  1.00  0.00    -0.374 OA
BRANCH  31  32
ATOM     32  C   UNL     1       1.859 -11.067  -4.295  1.00  0.00     0.202 C 
BRANCH  32  33
ATOM     33  C   UNL     1       2.425 -11.297  -5.702  1.00  0.00     0.261 C 
BRANCH  33  34
ATOM     34  O   UNL     1       1.563 -10.789  -6.735  1.00  0.00    -0.460 OA
BRANCH  34  35
ATOM     35  C   UNL     1       0.930 -11.741  -7.461  1.00  0.00     0.338 C 
ATOM     36  O   UNL     1       1.059 -12.952  -7.372  1.00  0.00    -0.246 OA
BRANCH  35  37
ATOM     37  C   UNL     1      -0.106 -11.124  -8.309  1.00  0.00     0.060 A 
ATOM     38  C   UNL     1      -1.413 -11.616  -8.199  1.00  0.00     0.016 A 
ATOM     39  C   UNL     1       0.206 -10.142  -9.251  1.00  0.00     0.016 A 
ATOM     40  C   UNL     1      -2.407 -11.155  -9.059  1.00  0.00     0.010 A 
ATOM     41  C   UNL     1      -0.792  -9.688 -10.121  1.00  0.00     0.010 A 
ATOM     42  C   UNL     1      -2.095 -10.213 -10.048  1.00  0.00    -0.014 A 
BRANCH  42  43
ATOM     43  C   UNL     1      -3.100  -9.867 -11.084  1.00  0.00     0.031 A 
ATOM     44  C   UNL     1      -3.005 -10.512 -12.439  1.00  0.00     0.074 A 
ATOM     45  C   UNL     1      -4.104  -9.017 -10.808  1.00  0.00     0.049 A 
ATOM     46  N   UNL     1      -3.732 -10.306 -13.508  1.00  0.00    -0.248 NA
ATOM     47  C   UNL     1      -1.954 -11.528 -12.614  1.00  0.00     0.031 C 
ATOM     48  C   UNL     1      -4.340  -8.381  -9.514  1.00  0.00     0.029 A 
ATOM     49  N   UNL     1      -5.117  -8.542 -11.605  1.00  0.00    -0.354 N 
ATOM     50  C   UNL     1      -3.232 -11.166 -14.476  1.00  0.00     0.074 A 
ATOM     51  C   UNL     1      -2.119 -11.875 -13.883  1.00  0.00     0.031 C 
ATOM     52  C   UNL     1      -5.429  -7.598  -9.604  1.00  0.00     0.029 A 
ATOM     53  C   UNL     1      -5.942  -7.644 -10.972  1.00  0.00     0.049 A 
ATOM     54  H   UNL     1      -5.239  -8.818 -12.542  1.00  0.00     0.167 HD
ATOM     55  C   UNL     1      -3.673 -11.356 -15.741  1.00  0.00     0.037 A 
ATOM     56  C   UNL     1      -6.977  -6.927 -11.451  1.00  0.00     0.037 A 
ATOM     57  C   UNL     1      -4.783 -10.654 -16.328  1.00  0.00     0.049 A 
ATOM     58  C   UNL     1      -7.374  -7.078 -12.898  1.00  0.00     0.074 A 
ATOM     59  C   UNL     1      -5.293 -10.770 -17.609  1.00  0.00     0.029 A 
ATOM     60  N   UNL     1      -5.556  -9.709 -15.672  1.00  0.00    -0.354 N 
ATOM     61  N   UNL     1      -6.889  -7.884 -13.810  1.00  0.00    -0.248 NA
ATOM     62  C   UNL     1      -8.460  -6.213 -13.384  1.00  0.00     0.031 C 
ATOM     63  C   UNL     1      -6.348  -9.865 -17.743  1.00  0.00     0.029 A 
ATOM     64  C   UNL     1      -6.528  -9.222 -16.529  1.00  0.00     0.049 A 
ATOM     65  H   UNL     1      -5.432  -9.427 -14.737  1.00  0.00     0.167 HD
ATOM     66  C   UNL     1      -7.629  -7.649 -14.962  1.00  0.00     0.074 A 
ATOM     67  C   UNL     1      -8.603  -6.630 -14.635  1.00  0.00     0.031 C 
ATOM     68  C   UNL     1      -7.510  -8.227 -16.182  1.00  0.00     0.037 A 
BRANCH  55  69
ATOM     69  C   UNL     1      -2.966 -12.367 -16.593  1.00  0.00     0.064 A 
ATOM     70  C   UNL     1      -2.184 -11.958 -17.683  1.00  0.00     0.173 A 
ATOM     71  C   UNL     1      -3.156 -13.743 -16.397  1.00  0.00     0.173 A 
ATOM     72  F   UNL     1      -1.979 -10.653 -17.916  1.00  0.00    -0.203 F 
ATOM     73  C   UNL     1      -1.641 -12.890 -18.563  1.00  0.00     0.198 A 
ATOM     74  C   UNL     1      -2.591 -14.673 -17.265  1.00  0.00     0.198 A 
ATOM     75  F   UNL     1      -3.887 -14.183 -15.361  1.00  0.00    -0.203 F 
ATOM     76  F   UNL     1      -0.935 -12.475 -19.624  1.00  0.00    -0.200 F 
ATOM     77  C   UNL     1      -1.846 -14.245 -18.355  1.00  0.00     0.200 A 
ATOM     78  F   UNL     1      -2.775 -15.983 -17.054  1.00  0.00    -0.200 F 
ATOM     79  F   UNL     1      -1.328 -15.141 -19.207  1.00  0.00    -0.200 F 
ENDBRANCH  55  69
BRANCH  56  80
ATOM     80  C   UNL     1      -7.715  -5.992 -10.561  1.00  0.00     0.064 A 
ATOM     81  C   UNL     1      -7.110  -4.830 -10.058  1.00  0.00     0.173 A 
ATOM     82  C   UNL     1      -9.053  -6.229 -10.218  1.00  0.00     0.173 A 
ATOM     83  F   UNL     1      -5.834  -4.551 -10.362  1.00  0.00    -0.203 F 
ATOM     84  C   UNL     1      -7.811  -3.950  -9.236  1.00  0.00     0.198 A 
ATOM     85  C   UNL     1      -9.762  -5.334  -9.420  1.00  0.00     0.198 A 
ATOM     86  F   UNL     1      -9.684  -7.311 -10.697  1.00  0.00    -0.203 F 
ATOM     87  F   UNL     1      -7.202  -2.859  -8.752  1.00  0.00    -0.200 F 
ATOM     88  C   UNL     1      -9.139  -4.198  -8.924  1.00  0.00     0.200 A 
ATOM     89  F   UNL     1     -11.055  -5.561  -9.148  1.00  0.00    -0.200 F 
ATOM     90  F   UNL     1      -9.822  -3.338  -8.156  1.00  0.00    -0.200 F 
ENDBRANCH  56  80
BRANCH  68  91
ATOM     91  C   UNL     1      -8.475  -7.814 -17.254  1.00  0.00     0.064 A 
ATOM     92  C   UNL     1      -9.452  -8.712 -17.711  1.00  0.00     0.173 A 
ATOM     93  C   UNL     1      -8.372  -6.571 -17.895  1.00  0.00     0.173 A 
ATOM     94  F   UNL     1      -9.584  -9.917 -17.138  1.00  0.00    -0.203 F 
ATOM     95  C   UNL     1     -10.277  -8.388 -18.785  1.00  0.00     0.198 A 
ATOM     96  C   UNL     1      -9.217  -6.239 -18.950  1.00  0.00     0.198 A 
ATOM     97  F   UNL     1      -7.461  -5.675 -17.487  1.00  0.00    -0.203 F 
ATOM     98  F   UNL     1     -11.174  -9.277 -19.231  1.00  0.00    -0.200 F 
ATOM     99  C   UNL     1     -10.160  -7.152 -19.402  1.00  0.00     0.200 A 
ATOM    100  F   UNL     1      -9.119  -5.036 -19.532  1.00  0.00    -0.200 F 
ATOM    101  F   UNL     1     -10.957  -6.839 -20.433  1.00  0.00    -0.200 F 
ENDBRANCH  68  91
ENDBRANCH  42  43
ENDBRANCH  35  37
ENDBRANCH  34  35
ENDBRANCH  33  34
ENDBRANCH  32  33
ENDBRANCH  31  32
ENDBRANCH   1  31
TORSDOF 17
