REMARK SMILES C[C@](O)(C(=O)OCCOCCOC(=O)c1ccc(-c2c3nc(c(-c4c(F)c(F)c(F)c(F)c4F)c4ccc([nH]4)c(-c4c(F)c(F)c(F)c(F)c4F)c4nc(c(-c5c(F)c(F)c(F)c(F)c5F)c5ccc2[nH]5)C=C4)C=C3)cc1)c1ccc(O)cc1
REMARK SMILES IDX 9 1 8 2 7 3 6 4 4 5 5 6 2 7 1 8 78 9 79 10 84 11 80 12 83 13
REMARK SMILES IDX 81 14 82 15 3 17 10 19 11 20 12 21 13 22 14 23 15 24 16 25
REMARK SMILES IDX 77 26 17 27 76 28 18 29 19 30 20 31 70 32 21 33 75 34 69 35
REMARK SMILES IDX 71 36 22 37 74 38 68 39 67 40 23 42 55 43 35 44 54 45 36 46
REMARK SMILES IDX 39 47 53 48 72 49 37 50 38 51 52 53 73 54 40 55 24 56 25 57
REMARK SMILES IDX 33 58 26 59 27 60 31 61 34 62 28 63 29 64 32 65 30 66 56 67
REMARK SMILES IDX 57 68 65 69 58 70 59 71 63 72 66 73 60 74 61 75 64 76 62 77
REMARK SMILES IDX 41 78 42 79 50 80 43 81 44 82 48 83 51 84 45 85 46 86 49 87
REMARK SMILES IDX 47 88
REMARK H PARENT 82 16 3 18 71 41 39 52
REMARK Flexibility Score: inf
ROOT
ATOM      1  O   UNL     1      -3.304   1.736   0.031  1.00  0.00    -0.374 OA
ENDROOT
BRANCH   1   2
ATOM      2  C   UNL     1      -3.755   0.511  -0.550  1.00  0.00     0.202 C 
BRANCH   2   3
ATOM      3  C   UNL     1      -3.014   0.061  -1.811  1.00  0.00     0.261 C 
BRANCH   3   4
ATOM      4  O   UNL     1      -1.616  -0.113  -1.541  1.00  0.00    -0.461 OA
BRANCH   4   5
ATOM      5  C   UNL     1      -0.765   0.444  -2.452  1.00  0.00     0.342 C 
ATOM      6  O   UNL     1      -1.118   0.872  -3.546  1.00  0.00    -0.248 OA
BRANCH   5   7
ATOM      7  C   UNL     1       0.691   0.540  -1.898  1.00  0.00     0.184 C 
ATOM      8  C   UNL     1       1.581  -0.140  -2.946  1.00  0.00     0.060 C 
BRANCH   7   9
ATOM      9  C   UNL     1       1.127   1.991  -1.617  1.00  0.00    -0.005 A 
ATOM     10  C   UNL     1       2.428   2.241  -1.133  1.00  0.00     0.011 A 
ATOM     11  C   UNL     1       0.274   3.099  -1.780  1.00  0.00     0.011 A 
ATOM     12  C   UNL     1       2.864   3.540  -0.855  1.00  0.00     0.046 A 
ATOM     13  C   UNL     1       0.709   4.401  -1.501  1.00  0.00     0.046 A 
ATOM     14  C   UNL     1       2.005   4.610  -1.048  1.00  0.00     0.115 A 
BRANCH  14  15
ATOM     15  O   UNL     1       2.473   5.861  -0.777  1.00  0.00    -0.508 OA
ATOM     16  H   UNL     1       3.351   5.977  -0.473  1.00  0.00     0.293 HD
ENDBRANCH  14  15
ENDBRANCH   7   9
BRANCH   7  17
ATOM     17  O   UNL     1       0.883  -0.201  -0.684  1.00  0.00    -0.374 OA
ATOM     18  H   UNL     1       0.340   0.186   0.021  1.00  0.00     0.212 HD
ENDBRANCH   7  17
ENDBRANCH   5   7
ENDBRANCH   4   5
ENDBRANCH   3   4
ENDBRANCH   2   3
ENDBRANCH   1   2
BRANCH   1  19
ATOM     19  C   UNL     1      -2.092   1.701   0.786  1.00  0.00     0.202 C 
BRANCH  19  20
ATOM     20  C   UNL     1      -2.156   1.030   2.164  1.00  0.00     0.261 C 
BRANCH  20  21
ATOM     21  O   UNL     1      -2.368  -0.390   2.066  1.00  0.00    -0.460 OA
BRANCH  21  22
ATOM     22  C   UNL     1      -3.510  -0.836   2.641  1.00  0.00     0.338 C 
ATOM     23  O   UNL     1      -4.314  -0.184   3.295  1.00  0.00    -0.246 OA
BRANCH  22  24
ATOM     24  C   UNL     1      -3.786  -2.223   2.228  1.00  0.00     0.060 A 
ATOM     25  C   UNL     1      -5.023  -2.479   1.622  1.00  0.00     0.016 A 
ATOM     26  C   UNL     1      -2.905  -3.267   2.514  1.00  0.00     0.016 A 
ATOM     27  C   UNL     1      -5.405  -3.790   1.344  1.00  0.00     0.010 A 
ATOM     28  C   UNL     1      -3.296  -4.583   2.245  1.00  0.00     0.010 A 
ATOM     29  C   UNL     1      -4.561  -4.852   1.693  1.00  0.00    -0.014 A 
BRANCH  29  30
ATOM     30  C   UNL     1      -5.077  -6.241   1.617  1.00  0.00     0.031 A 
ATOM     31  C   UNL     1      -5.630  -6.883   2.860  1.00  0.00     0.074 A 
ATOM     32  C   UNL     1      -5.092  -6.907   0.450  1.00  0.00     0.049 A 
ATOM     33  N   UNL     1      -6.128  -8.082   3.026  1.00  0.00    -0.248 NA
ATOM     34  C   UNL     1      -5.621  -6.060   4.079  1.00  0.00     0.031 C 
ATOM     35  C   UNL     1      -4.622  -6.378  -0.828  1.00  0.00     0.029 A 
ATOM     36  N   UNL     1      -5.521  -8.177   0.154  1.00  0.00    -0.354 N 
ATOM     37  C   UNL     1      -6.491  -8.157   4.364  1.00  0.00     0.074 A 
ATOM     38  C   UNL     1      -6.130  -6.895   4.973  1.00  0.00     0.031 C 
ATOM     39  C   UNL     1      -4.779  -7.321  -1.773  1.00  0.00     0.029 A 
ATOM     40  C   UNL     1      -5.336  -8.526  -1.160  1.00  0.00     0.049 A 
ATOM     41  H   UNL     1      -5.923  -8.779   0.821  1.00  0.00     0.167 HD
ATOM     42  C   UNL     1      -7.081  -9.183   5.022  1.00  0.00     0.037 A 
ATOM     43  C   UNL     1      -5.574  -9.693  -1.789  1.00  0.00     0.037 A 
ATOM     44  C   UNL     1      -7.440 -10.438   4.417  1.00  0.00     0.049 A 
ATOM     45  C   UNL     1      -6.165 -10.844  -1.018  1.00  0.00     0.074 A 
ATOM     46  C   UNL     1      -8.061 -11.530   4.996  1.00  0.00     0.029 A 
ATOM     47  N   UNL     1      -7.199 -10.770   3.092  1.00  0.00    -0.354 N 
ATOM     48  N   UNL     1      -6.532 -10.898   0.240  1.00  0.00    -0.248 NA
ATOM     49  C   UNL     1      -6.375 -12.098  -1.756  1.00  0.00     0.031 C 
ATOM     50  C   UNL     1      -8.155 -12.541   4.033  1.00  0.00     0.029 A 
ATOM     51  C   UNL     1      -7.635 -12.061   2.842  1.00  0.00     0.049 A 
ATOM     52  H   UNL     1      -6.781 -10.176   2.427  1.00  0.00     0.167 HD
ATOM     53  C   UNL     1      -7.037 -12.176   0.438  1.00  0.00     0.074 A 
ATOM     54  C   UNL     1      -6.942 -12.864  -0.833  1.00  0.00     0.031 C 
ATOM     55  C   UNL     1      -7.535 -12.730   1.570  1.00  0.00     0.037 A 
BRANCH  42  56
ATOM     56  C   UNL     1      -7.355  -8.997   6.486  1.00  0.00     0.064 A 
ATOM     57  C   UNL     1      -8.376  -8.150   6.941  1.00  0.00     0.173 A 
ATOM     58  C   UNL     1      -6.606  -9.698   7.442  1.00  0.00     0.173 A 
ATOM     59  F   UNL     1      -9.111  -7.447   6.067  1.00  0.00    -0.203 F 
ATOM     60  C   UNL     1      -8.621  -7.994   8.303  1.00  0.00     0.198 A 
ATOM     61  C   UNL     1      -6.871  -9.559   8.802  1.00  0.00     0.198 A 
ATOM     62  F   UNL     1      -5.620 -10.523   7.058  1.00  0.00    -0.203 F 
ATOM     63  F   UNL     1      -9.573  -7.147   8.719  1.00  0.00    -0.200 F 
ATOM     64  C   UNL     1      -7.873  -8.703   9.232  1.00  0.00     0.200 A 
ATOM     65  F   UNL     1      -6.153 -10.252   9.697  1.00  0.00    -0.200 F 
ATOM     66  F   UNL     1      -8.113  -8.555  10.542  1.00  0.00    -0.200 F 
ENDBRANCH  42  56
BRANCH  43  67
ATOM     67  C   UNL     1      -5.241  -9.838  -3.230  1.00  0.00     0.064 A 
ATOM     68  C   UNL     1      -6.248  -9.961  -4.197  1.00  0.00     0.173 A 
ATOM     69  C   UNL     1      -3.909  -9.872  -3.667  1.00  0.00     0.173 A 
ATOM     70  F   UNL     1      -7.537  -9.963  -3.824  1.00  0.00    -0.203 F 
ATOM     71  C   UNL     1      -5.935 -10.127  -5.544  1.00  0.00     0.198 A 
ATOM     72  C   UNL     1      -3.597 -10.011  -5.017  1.00  0.00     0.198 A 
ATOM     73  F   UNL     1      -2.909  -9.762  -2.780  1.00  0.00    -0.203 F 
ATOM     74  F   UNL     1      -6.916 -10.285  -6.443  1.00  0.00    -0.200 F 
ATOM     75  C   UNL     1      -4.610 -10.145  -5.954  1.00  0.00     0.200 A 
ATOM     76  F   UNL     1      -2.316 -10.020  -5.410  1.00  0.00    -0.200 F 
ATOM     77  F   UNL     1      -4.310 -10.302  -7.251  1.00  0.00    -0.200 F 
ENDBRANCH  43  67
BRANCH  55  78
ATOM     78  C   UNL     1      -8.041 -14.141   1.482  1.00  0.00     0.064 A 
ATOM     79  C   UNL     1      -7.164 -15.230   1.374  1.00  0.00     0.173 A 
ATOM     80  C   UNL     1      -9.417 -14.408   1.551  1.00  0.00     0.173 A 
ATOM     81  F   UNL     1      -5.841 -15.025   1.290  1.00  0.00    -0.203 F 
ATOM     82  C   UNL     1      -7.648 -16.534   1.316  1.00  0.00     0.198 A 
ATOM     83  C   UNL     1      -9.895 -15.715   1.520  1.00  0.00     0.198 A 
ATOM     84  F   UNL     1     -10.297 -13.402   1.661  1.00  0.00    -0.203 F 
ATOM     85  F   UNL     1      -6.794 -17.557   1.169  1.00  0.00    -0.200 F 
ATOM     86  C   UNL     1      -9.011 -16.776   1.396  1.00  0.00     0.200 A 
ATOM     87  F   UNL     1     -11.212 -15.948   1.609  1.00  0.00    -0.200 F 
ATOM     88  F   UNL     1      -9.474 -18.033   1.346  1.00  0.00    -0.200 F 
ENDBRANCH  55  78
ENDBRANCH  29  30
ENDBRANCH  22  24
ENDBRANCH  21  22
ENDBRANCH  20  21
ENDBRANCH  19  20
ENDBRANCH   1  19
TORSDOF 17
