REMARK SMILES O=C(OCCOCCOC(=O)[C@H]1CC(=O)N(CCc2ccc3c(c2)OCO3)C1)c1ccc(-c2c3nc(c(-c4c(F)c(F)c(F)c(F)c4F)c4ccc([nH]4)c(-c4c(F)c(F)c(F)c(F)c4F)c4nc(c(-c5c(F)c(F)c(F)c(F)c5F)c5ccc2[nH]5)C=C4)C=C3)cc1
REMARK SMILES IDX 7 1 6 2 5 3 4 4 3 5 2 6 1 7 29 8 30 9 91 10 31 11 90 12
REMARK SMILES IDX 32 13 33 14 34 15 84 16 35 17 89 18 83 19 85 20 36 21 88 22
REMARK SMILES IDX 82 23 81 24 37 26 69 27 49 28 68 29 50 30 53 31 67 32 86 33
REMARK SMILES IDX 51 34 52 35 66 37 87 38 54 39 38 40 39 41 47 42 40 43 41 44
REMARK SMILES IDX 45 45 48 46 42 47 43 48 46 49 44 50 70 51 71 52 79 53 72 54
REMARK SMILES IDX 73 55 77 56 80 57 74 58 75 59 78 60 76 61 55 62 56 63 64 64
REMARK SMILES IDX 57 65 58 66 62 67 65 68 59 69 60 70 63 71 61 72 8 73 9 74
REMARK SMILES IDX 10 75 11 76 12 77 13 78 28 79 14 80 16 81 15 82 17 83 18 84
REMARK SMILES IDX 19 85 20 86 24 87 21 88 23 89 22 90 25 91 27 92 26 93
REMARK H PARENT 85 25 53 36
REMARK Flexibility Score: inf
ROOT
ATOM      1  C   UNL     1       6.438  -1.359   5.789  1.00  0.00     0.202 C 
ENDROOT
BRANCH   1   2
ATOM      2  O   UNL     1       5.537  -0.303   6.142  1.00  0.00    -0.374 OA
BRANCH   2   3
ATOM      3  C   UNL     1       6.012   1.038   6.016  1.00  0.00     0.202 C 
BRANCH   3   4
ATOM      4  C   UNL     1       7.117   1.518   6.965  1.00  0.00     0.261 C 
BRANCH   4   5
ATOM      5  O   UNL     1       8.161   0.544   7.124  1.00  0.00    -0.460 OA
BRANCH   5   6
ATOM      6  C   UNL     1       8.428  -0.145   8.262  1.00  0.00     0.338 C 
ATOM      7  O   UNL     1       9.479  -0.768   8.375  1.00  0.00    -0.246 OA
BRANCH   6   8
ATOM      8  C   UNL     1       7.445  -0.188   9.378  1.00  0.00     0.060 A 
ATOM      9  C   UNL     1       6.070  -0.186   9.158  1.00  0.00     0.016 A 
ATOM     10  C   UNL     1       7.907  -0.338  10.690  1.00  0.00     0.016 A 
ATOM     11  C   UNL     1       5.160  -0.232  10.187  1.00  0.00     0.010 A 
ATOM     12  C   UNL     1       6.992  -0.489  11.739  1.00  0.00     0.010 A 
ATOM     13  C   UNL     1       5.616  -0.446  11.476  1.00  0.00    -0.014 A 
BRANCH  13  14
ATOM     14  C   UNL     1       4.588  -0.626  12.507  1.00  0.00     0.031 A 
ATOM     15  C   UNL     1       4.358   0.476  13.481  1.00  0.00     0.074 A 
ATOM     16  C   UNL     1       3.800  -1.716  12.445  1.00  0.00     0.049 A 
ATOM     17  N   UNL     1       3.583   0.495  14.527  1.00  0.00    -0.248 NA
ATOM     18  C   UNL     1       5.089   1.732  13.240  1.00  0.00     0.031 C 
ATOM     19  C   UNL     1       3.874  -2.756  11.409  1.00  0.00     0.029 A 
ATOM     20  N   UNL     1       2.767  -2.123  13.242  1.00  0.00    -0.354 N 
ATOM     21  C   UNL     1       3.771   1.742  15.101  1.00  0.00     0.074 A 
ATOM     22  C   UNL     1       4.712   2.465  14.278  1.00  0.00     0.031 C 
ATOM     23  C   UNL     1       2.923  -3.674  11.635  1.00  0.00     0.029 A 
ATOM     24  C   UNL     1       2.248  -3.343  12.880  1.00  0.00     0.049 A 
ATOM     25  H   UNL     1       2.428  -1.595  14.001  1.00  0.00     0.167 HD
ATOM     26  C   UNL     1       3.211   2.208  16.238  1.00  0.00     0.037 A 
ATOM     27  C   UNL     1       1.377  -4.132  13.535  1.00  0.00     0.037 A 
ATOM     28  C   UNL     1       2.264   1.450  17.008  1.00  0.00     0.049 A 
ATOM     29  C   UNL     1       0.857  -3.626  14.854  1.00  0.00     0.074 A 
ATOM     30  C   UNL     1       1.636   1.794  18.188  1.00  0.00     0.029 A 
ATOM     31  N   UNL     1       1.811   0.181  16.662  1.00  0.00    -0.354 N 
ATOM     32  N   UNL     1       1.069  -2.468  15.436  1.00  0.00    -0.248 NA
ATOM     33  C   UNL     1       0.004  -4.538  15.623  1.00  0.00     0.031 C 
ATOM     34  C   UNL     1       0.856   0.707  18.591  1.00  0.00     0.029 A 
ATOM     35  C   UNL     1       0.946  -0.291  17.631  1.00  0.00     0.049 A 
ATOM     36  H   UNL     1       2.069  -0.308  15.847  1.00  0.00     0.167 HD
ATOM     37  C   UNL     1       0.372  -2.507  16.632  1.00  0.00     0.074 A 
ATOM     38  C   UNL     1      -0.299  -3.792  16.676  1.00  0.00     0.031 C 
ATOM     39  C   UNL     1       0.299  -1.579  17.617  1.00  0.00     0.037 A 
BRANCH  26  40
ATOM     40  C   UNL     1       3.681   3.531  16.755  1.00  0.00     0.064 A 
ATOM     41  C   UNL     1       3.327   4.745  16.151  1.00  0.00     0.173 A 
ATOM     42  C   UNL     1       4.500   3.577  17.894  1.00  0.00     0.173 A 
ATOM     43  F   UNL     1       2.575   4.753  15.040  1.00  0.00    -0.203 F 
ATOM     44  C   UNL     1       3.783   5.957  16.665  1.00  0.00     0.198 A 
ATOM     45  C   UNL     1       4.933   4.790  18.419  1.00  0.00     0.198 A 
ATOM     46  F   UNL     1       4.881   2.441  18.498  1.00  0.00    -0.203 F 
ATOM     47  F   UNL     1       3.467   7.105  16.050  1.00  0.00    -0.200 F 
ATOM     48  C   UNL     1       4.576   5.979  17.803  1.00  0.00     0.200 A 
ATOM     49  F   UNL     1       5.697   4.806  19.520  1.00  0.00    -0.200 F 
ATOM     50  F   UNL     1       5.006   7.146  18.301  1.00  0.00    -0.200 F 
ENDBRANCH  26  40
BRANCH  27  51
ATOM     51  C   UNL     1       1.046  -5.495  13.034  1.00  0.00     0.064 A 
ATOM     52  C   UNL     1      -0.271  -5.862  12.729  1.00  0.00     0.173 A 
ATOM     53  C   UNL     1       2.037  -6.484  12.906  1.00  0.00     0.173 A 
ATOM     54  F   UNL     1      -1.261  -4.965  12.850  1.00  0.00    -0.203 F 
ATOM     55  C   UNL     1      -0.590  -7.168  12.357  1.00  0.00     0.198 A 
ATOM     56  C   UNL     1       1.724  -7.778  12.495  1.00  0.00     0.198 A 
ATOM     57  F   UNL     1       3.317  -6.197  13.186  1.00  0.00    -0.203 F 
ATOM     58  F   UNL     1      -1.869  -7.508  12.145  1.00  0.00    -0.200 F 
ATOM     59  C   UNL     1       0.408  -8.124  12.238  1.00  0.00     0.200 A 
ATOM     60  F   UNL     1       2.696  -8.691  12.366  1.00  0.00    -0.200 F 
ATOM     61  F   UNL     1       0.099  -9.381  11.893  1.00  0.00    -0.200 F 
ENDBRANCH  27  51
BRANCH  39  62
ATOM     62  C   UNL     1      -0.547  -1.923  18.804  1.00  0.00     0.064 A 
ATOM     63  C   UNL     1      -0.129  -2.874  19.745  1.00  0.00     0.173 A 
ATOM     64  C   UNL     1      -1.752  -1.244  19.034  1.00  0.00     0.173 A 
ATOM     65  F   UNL     1       1.008  -3.561  19.554  1.00  0.00    -0.203 F 
ATOM     66  C   UNL     1      -0.899  -3.145  20.870  1.00  0.00     0.198 A 
ATOM     67  C   UNL     1      -2.500  -1.491  20.179  1.00  0.00     0.198 A 
ATOM     68  F   UNL     1      -2.186  -0.321  18.163  1.00  0.00    -0.203 F 
ATOM     69  F   UNL     1      -0.506  -4.088  21.737  1.00  0.00    -0.200 F 
ATOM     70  C   UNL     1      -2.076  -2.445  21.093  1.00  0.00     0.200 A 
ATOM     71  F   UNL     1      -3.626  -0.800  20.402  1.00  0.00    -0.200 F 
ATOM     72  F   UNL     1      -2.806  -2.692  22.189  1.00  0.00    -0.200 F 
ENDBRANCH  39  62
ENDBRANCH  13  14
ENDBRANCH   6   8
ENDBRANCH   5   6
ENDBRANCH   4   5
ENDBRANCH   3   4
ENDBRANCH   2   3
ENDBRANCH   1   2
BRANCH   1  73
ATOM     73  C   UNL     1       5.676  -2.422   4.992  1.00  0.00     0.261 C 
BRANCH  73  74
ATOM     74  O   UNL     1       5.248  -1.823   3.756  1.00  0.00    -0.463 OA
BRANCH  74  75
ATOM     75  C   UNL     1       4.097  -1.101   3.847  1.00  0.00     0.311 C 
ATOM     76  O   UNL     1       3.190  -1.323   4.638  1.00  0.00    -0.252 OA
BRANCH  75  77
ATOM     77  C   UNL     1       4.074   0.024   2.841  1.00  0.00     0.128 C 
ATOM     78  C   UNL     1       3.458   1.292   3.433  1.00  0.00     0.117 C 
ATOM     79  C   UNL     1       5.463   0.468   2.408  1.00  0.00     0.135 C 
ATOM     80  C   UNL     1       4.222   2.419   2.779  1.00  0.00     0.223 C 
ATOM     81  N   UNL     1       5.360   1.888   2.194  1.00  0.00    -0.341 N 
ATOM     82  O   UNL     1       3.892   3.588   2.792  1.00  0.00    -0.275 OA
BRANCH  81  83
ATOM     83  C   UNL     1       6.320   2.655   1.399  1.00  0.00     0.124 C 
BRANCH  83  84
ATOM     84  C   UNL     1       7.655   3.019   2.081  1.00  0.00     0.057 C 
BRANCH  84  85
ATOM     85  C   UNL     1       8.626   1.911   2.441  1.00  0.00    -0.042 A 
ATOM     86  C   UNL     1       8.596   0.637   1.835  1.00  0.00     0.008 A 
ATOM     87  C   UNL     1       9.617   2.172   3.407  1.00  0.00     0.054 A 
ATOM     88  C   UNL     1       9.413  -0.405   2.286  1.00  0.00     0.051 A 
ATOM     89  C   UNL     1      10.440   1.138   3.805  1.00  0.00     0.166 A 
ATOM     90  C   UNL     1      10.318  -0.124   3.282  1.00  0.00     0.165 A 
ATOM     91  O   UNL     1      11.428   1.218   4.736  1.00  0.00    -0.454 OA
ATOM     92  O   UNL     1      11.181  -1.010   3.843  1.00  0.00    -0.454 OA
ATOM     93  C   UNL     1      11.880  -0.153   4.770  1.00  0.00     0.468 C 
ENDBRANCH  84  85
ENDBRANCH  83  84
ENDBRANCH  81  83
ENDBRANCH  75  77
ENDBRANCH  74  75
ENDBRANCH  73  74
ENDBRANCH   1  73
TORSDOF 17
