REMARK SMILES O=C(CCCN1C(=O)c2ccc3c4c(ccc(c24)C1=O)C(=O)NC3=O)OCCOCCOC(=O)c1ccc(-c2c3nc(c(-c4c(F)c(F)c(F)c(F)c4F)c4ccc([nH]4)c(-c4c(F)c(F)c(F)c(F)c4F)c4nc(c(-c5c(F)c(F)c(F)c(F)c5F)c5ccc2[nH]5)C=C4)C=C3)cc1
REMARK SMILES IDX 28 1 27 2 26 3 2 4 1 5 3 6 4 7 5 8 6 9 19 10 7 11 20 12
REMARK SMILES IDX 17 13 9 14 8 15 16 16 18 17 10 18 15 19 13 20 11 21 14 22
REMARK SMILES IDX 12 23 21 24 24 25 23 26 22 27 25 28 29 30 30 31 31 32 32 33
REMARK SMILES IDX 33 34 34 35 35 36 36 37 97 38 37 39 96 40 38 41 39 42 40 43
REMARK SMILES IDX 90 44 41 45 95 46 89 47 91 48 42 49 94 50 88 51 87 52 43 54
REMARK SMILES IDX 75 55 55 56 74 57 56 58 59 59 73 60 92 61 57 62 58 63 72 65
REMARK SMILES IDX 93 66 60 67 44 68 45 69 53 70 46 71 47 72 51 73 54 74 48 75
REMARK SMILES IDX 49 76 52 77 50 78 76 79 77 80 85 81 78 82 79 83 83 84 86 85
REMARK SMILES IDX 80 86 81 87 84 88 82 89 61 90 62 91 70 92 63 93 64 94 68 95
REMARK SMILES IDX 71 96 65 97 66 98 69 99 67 100
REMARK H PARENT 23 29 91 53 59 64
REMARK Flexibility Score: inf
ROOT
ATOM      1  C   UNL     1       3.782  -1.171  -1.330  1.00  0.00     0.202 C 
ENDROOT
BRANCH   1   2
ATOM      2  C   UNL     1       3.654  -1.545   0.137  1.00  0.00     0.261 C 
BRANCH   2   3
ATOM      3  O   UNL     1       2.409  -1.127   0.703  1.00  0.00    -0.463 OA
BRANCH   3   4
ATOM      4  C   UNL     1       2.187   0.085   1.251  1.00  0.00     0.305 C 
ATOM      5  O   UNL     1       1.049   0.360   1.633  1.00  0.00    -0.252 OA
BRANCH   4   6
ATOM      6  C   UNL     1       3.295   1.115   1.347  1.00  0.00     0.124 C 
BRANCH   6   7
ATOM      7  C   UNL     1       4.327   0.962   2.461  1.00  0.00     0.034 C 
BRANCH   7   8
ATOM      8  C   UNL     1       5.740   0.433   2.125  1.00  0.00     0.130 C 
BRANCH   8   9
ATOM      9  N   UNL     1       6.344   0.728   0.815  1.00  0.00    -0.274 N 
ATOM     10  C   UNL     1       6.334   2.039   0.340  1.00  0.00     0.261 C 
ATOM     11  C   UNL     1       7.075  -0.302   0.209  1.00  0.00     0.261 C 
ATOM     12  O   UNL     1       5.850   2.984   0.956  1.00  0.00    -0.269 OA
ATOM     13  C   UNL     1       6.978   2.294  -0.975  1.00  0.00     0.049 A 
ATOM     14  C   UNL     1       7.825   0.015  -1.029  1.00  0.00     0.049 A 
ATOM     15  O   UNL     1       7.125  -1.454   0.635  1.00  0.00    -0.269 OA
ATOM     16  C   UNL     1       6.884   3.565  -1.557  1.00  0.00     0.015 A 
ATOM     17  C   UNL     1       7.716   1.284  -1.600  1.00  0.00     0.009 A 
ATOM     18  C   UNL     1       8.622  -0.973  -1.631  1.00  0.00     0.015 A 
ATOM     19  C   UNL     1       7.534   3.836  -2.762  1.00  0.00     0.015 A 
ATOM     20  C   UNL     1       8.382   1.554  -2.825  1.00  0.00     0.009 A 
ATOM     21  C   UNL     1       9.271  -0.714  -2.838  1.00  0.00     0.015 A 
ATOM     22  C   UNL     1       8.281   2.834  -3.389  1.00  0.00     0.048 A 
ATOM     23  C   UNL     1       9.136   0.541  -3.438  1.00  0.00     0.048 A 
ATOM     24  C   UNL     1       8.998   3.132  -4.652  1.00  0.00     0.258 C 
ATOM     25  C   UNL     1       9.802   0.809  -4.733  1.00  0.00     0.258 C 
ATOM     26  N   UNL     1       9.686   2.088  -5.222  1.00  0.00    -0.288 N 
ATOM     27  O   UNL     1       8.989   4.252  -5.148  1.00  0.00    -0.269 OA
ATOM     28  O   UNL     1      10.421  -0.064  -5.328  1.00  0.00    -0.269 OA
ATOM     29  H   UNL     1      10.146   2.276  -6.072  1.00  0.00     0.173 HD
ENDBRANCH   8   9
ENDBRANCH   7   8
ENDBRANCH   6   7
ENDBRANCH   4   6
ENDBRANCH   3   4
ENDBRANCH   2   3
ENDBRANCH   1   2
BRANCH   1  30
ATOM     30  O   UNL     1       3.740   0.237  -1.563  1.00  0.00    -0.374 OA
BRANCH  30  31
ATOM     31  C   UNL     1       2.557   0.671  -2.249  1.00  0.00     0.202 C 
BRANCH  31  32
ATOM     32  C   UNL     1       2.724   0.658  -3.775  1.00  0.00     0.261 C 
BRANCH  32  33
ATOM     33  O   UNL     1       3.161  -0.633  -4.237  1.00  0.00    -0.460 OA
BRANCH  33  34
ATOM     34  C   UNL     1       4.502  -0.752  -4.402  1.00  0.00     0.338 C 
ATOM     35  O   UNL     1       5.332   0.147  -4.378  1.00  0.00    -0.246 OA
BRANCH  34  36
ATOM     36  C   UNL     1       4.880  -2.185  -4.379  1.00  0.00     0.060 A 
ATOM     37  C   UNL     1       6.070  -2.508  -3.716  1.00  0.00     0.016 A 
ATOM     38  C   UNL     1       4.095  -3.201  -4.925  1.00  0.00     0.016 A 
ATOM     39  C   UNL     1       6.496  -3.827  -3.602  1.00  0.00     0.010 A 
ATOM     40  C   UNL     1       4.531  -4.530  -4.833  1.00  0.00     0.010 A 
ATOM     41  C   UNL     1       5.743  -4.845  -4.190  1.00  0.00    -0.014 A 
BRANCH  41  42
ATOM     42  C   UNL     1       6.321  -6.206  -4.287  1.00  0.00     0.031 A 
ATOM     43  C   UNL     1       6.968  -6.611  -5.581  1.00  0.00     0.074 A 
ATOM     44  C   UNL     1       6.321  -7.047  -3.237  1.00  0.00     0.049 A 
ATOM     45  N   UNL     1       7.457  -7.769  -5.942  1.00  0.00    -0.248 NA
ATOM     46  C   UNL     1       7.081  -5.562  -6.608  1.00  0.00     0.031 C 
ATOM     47  C   UNL     1       5.802  -6.740  -1.905  1.00  0.00     0.029 A 
ATOM     48  N   UNL     1       6.771  -8.340  -3.133  1.00  0.00    -0.354 N 
ATOM     49  C   UNL     1       7.914  -7.593  -7.241  1.00  0.00     0.074 A 
ATOM     50  C   UNL     1       7.634  -6.224  -7.612  1.00  0.00     0.031 C 
ATOM     51  C   UNL     1       5.947  -7.824  -1.122  1.00  0.00     0.029 A 
ATOM     52  C   UNL     1       6.526  -8.911  -1.908  1.00  0.00     0.049 A 
ATOM     53  H   UNL     1       7.227  -8.813  -3.867  1.00  0.00     0.167 HD
ATOM     54  C   UNL     1       8.515  -8.496  -8.050  1.00  0.00     0.037 A 
ATOM     55  C   UNL     1       6.715 -10.178  -1.488  1.00  0.00     0.037 A 
ATOM     56  C   UNL     1       8.806  -9.852  -7.671  1.00  0.00     0.049 A 
ATOM     57  C   UNL     1       7.308 -11.188  -2.441  1.00  0.00     0.074 A 
ATOM     58  C   UNL     1       9.418 -10.843  -8.417  1.00  0.00     0.029 A 
ATOM     59  N   UNL     1       8.504 -10.407  -6.437  1.00  0.00    -0.354 N 
ATOM     60  N   UNL     1       7.728 -11.022  -3.672  1.00  0.00    -0.248 NA
ATOM     61  C   UNL     1       7.447 -12.566  -1.945  1.00  0.00     0.031 C 
ATOM     62  C   UNL     1       9.440 -12.014  -7.652  1.00  0.00     0.029 A 
ATOM     63  C   UNL     1       8.893 -11.736  -6.410  1.00  0.00     0.049 A 
ATOM     64  H   UNL     1       8.076  -9.928  -5.691  1.00  0.00     0.167 HD
ATOM     65  C   UNL     1       8.204 -12.260  -4.086  1.00  0.00     0.074 A 
ATOM     66  C   UNL     1       8.037 -13.166  -2.969  1.00  0.00     0.031 C 
ATOM     67  C   UNL     1       8.730 -12.618  -5.283  1.00  0.00     0.037 A 
BRANCH  54  68
ATOM     68  C   UNL     1       8.863  -8.059  -9.441  1.00  0.00     0.064 A 
ATOM     69  C   UNL     1       9.922  -7.176  -9.697  1.00  0.00     0.173 A 
ATOM     70  C   UNL     1       8.149  -8.565 -10.537  1.00  0.00     0.173 A 
ATOM     71  F   UNL     1      10.623  -6.649  -8.681  1.00  0.00    -0.203 F 
ATOM     72  C   UNL     1      10.243  -6.805 -11.000  1.00  0.00     0.198 A 
ATOM     73  C   UNL     1       8.490  -8.214 -11.839  1.00  0.00     0.198 A 
ATOM     74  F   UNL     1       7.125  -9.411 -10.344  1.00  0.00    -0.203 F 
ATOM     75  F   UNL     1      11.234  -5.929 -11.221  1.00  0.00    -0.200 F 
ATOM     76  C   UNL     1       9.533  -7.330 -12.070  1.00  0.00     0.200 A 
ATOM     77  F   UNL     1       7.809  -8.731 -12.871  1.00  0.00    -0.200 F 
ATOM     78  F   UNL     1       9.852  -6.981 -13.324  1.00  0.00    -0.200 F 
ENDBRANCH  54  68
BRANCH  55  79
ATOM     79  C   UNL     1       6.301 -10.588  -0.119  1.00  0.00     0.064 A 
ATOM     80  C   UNL     1       7.244 -10.998   0.835  1.00  0.00     0.173 A 
ATOM     81  C   UNL     1       4.947 -10.628   0.248  1.00  0.00     0.173 A 
ATOM     82  F   UNL     1       8.549 -11.009   0.524  1.00  0.00    -0.203 F 
ATOM     83  C   UNL     1       6.848 -11.456   2.090  1.00  0.00     0.198 A 
ATOM     84  C   UNL     1       4.554 -11.055   1.515  1.00  0.00     0.198 A 
ATOM     85  F   UNL     1       4.003 -10.254  -0.627  1.00  0.00    -0.203 F 
ATOM     86  F   UNL     1       7.766 -11.900   2.959  1.00  0.00    -0.200 F 
ATOM     87  C   UNL     1       5.504 -11.480   2.431  1.00  0.00     0.200 A 
ATOM     88  F   UNL     1       3.255 -11.067   1.842  1.00  0.00    -0.200 F 
ATOM     89  F   UNL     1       5.123 -11.925   3.636  1.00  0.00    -0.200 F 
ENDBRANCH  55  79
BRANCH  67  90
ATOM     90  C   UNL     1       9.200 -14.036  -5.437  1.00  0.00     0.064 A 
ATOM     91  C   UNL     1       8.298 -15.106  -5.529  1.00  0.00     0.173 A 
ATOM     92  C   UNL     1      10.570 -14.321  -5.540  1.00  0.00     0.173 A 
ATOM     93  F   UNL     1       6.978 -14.887  -5.423  1.00  0.00    -0.203 F 
ATOM     94  C   UNL     1       8.752 -16.412  -5.693  1.00  0.00     0.198 A 
ATOM     95  C   UNL     1      11.019 -15.624  -5.736  1.00  0.00     0.198 A 
ATOM     96  F   UNL     1      11.474 -13.332  -5.468  1.00  0.00    -0.203 F 
ATOM     97  F   UNL     1       7.874 -17.424  -5.730  1.00  0.00    -0.200 F 
ATOM     98  C   UNL     1      10.110 -16.669  -5.804  1.00  0.00     0.200 A 
ATOM     99  F   UNL     1      12.331 -15.868  -5.860  1.00  0.00    -0.200 F 
ATOM    100  F   UNL     1      10.544 -17.926  -5.971  1.00  0.00    -0.200 F 
ENDBRANCH  67  90
ENDBRANCH  41  42
ENDBRANCH  34  36
ENDBRANCH  33  34
ENDBRANCH  32  33
ENDBRANCH  31  32
ENDBRANCH  30  31
ENDBRANCH   1  30
TORSDOF 17
