REMARK SMILES COc1ccc([C@H]2CC(c3ccc(S(C)(=O)=O)cc3)=NN2c2ccc(C(=O)OCCOCCOC(=O)c3ccc(-c4c5nc(c(-c6c(F)c(F)c(F)c(F)c6F)c6ccc([nH]6)c(-c6c(F)c(F)c(F)c(F)c6F)c6nc(c(-c7c(F)c(F)c(F)c(F)c7F)c7ccc4[nH]7)C=C6)C=C5)cc3)cc2)cc1OC
REMARK SMILES IDX 30 1 29 2 28 3 26 4 27 5 25 6 22 7 23 8 101 9 24 10 100 11
REMARK SMILES IDX 21 12 7 13 8 14 9 15 20 16 6 17 3 18 4 19 103 20 5 21 102 22
REMARK SMILES IDX 2 23 1 24 104 25 105 26 10 27 11 28 19 29 12 30 18 31 13 32
REMARK SMILES IDX 14 33 15 34 16 35 17 36 31 37 32 38 33 39 34 40 35 41 36 42
REMARK SMILES IDX 37 43 38 44 99 45 39 46 98 47 40 48 41 49 42 50 92 51 43 52
REMARK SMILES IDX 97 53 91 54 93 55 44 56 96 57 90 58 89 59 45 61 77 62 57 63
REMARK SMILES IDX 76 64 58 65 61 66 75 67 94 68 59 69 60 70 74 72 95 73 62 74
REMARK SMILES IDX 46 75 47 76 55 77 48 78 49 79 53 80 56 81 50 82 51 83 54 84
REMARK SMILES IDX 52 85 78 86 79 87 87 88 80 89 81 90 85 91 88 92 82 93 83 94
REMARK SMILES IDX 86 95 84 96 63 97 64 98 72 99 65 100 66 101 70 102 73 103
REMARK SMILES IDX 67 104 68 105 71 106 69 107
REMARK H PARENT 93 60 61 71
REMARK Flexibility Score: inf
ROOT
ATOM      1  C   UNL     1       2.597 -11.843  -1.304  1.00  0.00     0.202 C 
ENDROOT
BRANCH   1   2
ATOM      2  C   UNL     1       1.749 -10.696  -0.747  1.00  0.00     0.261 C 
BRANCH   2   3
ATOM      3  O   UNL     1       1.627  -9.624  -1.698  1.00  0.00    -0.460 OA
BRANCH   3   4
ATOM      4  C   UNL     1       2.308  -8.498  -1.369  1.00  0.00     0.338 C 
ATOM      5  O   UNL     1       2.886  -8.275  -0.319  1.00  0.00    -0.246 OA
BRANCH   4   6
ATOM      6  C   UNL     1       2.391  -7.590  -2.535  1.00  0.00     0.060 A 
ATOM      7  C   UNL     1       2.622  -5.700  -4.608  1.00  0.00     0.060 A 
ATOM      8  C   UNL     1       3.703  -5.966  -3.757  1.00  0.00     0.029 A 
ATOM      9  C   UNL     1       1.448  -6.453  -4.446  1.00  0.00     0.029 A 
ATOM     10  C   UNL     1       3.582  -6.879  -2.711  1.00  0.00     0.018 A 
ATOM     11  C   UNL     1       1.333  -7.410  -3.429  1.00  0.00     0.018 A 
BRANCH   7  12
ATOM     12  N   UNL     1       2.693  -4.664  -5.535  1.00  0.00    -0.257 N 
ATOM     13  C   UNL     1       1.754  -3.534  -5.517  1.00  0.00     0.144 C 
ATOM     14  C   UNL     1       2.401  -2.541  -6.488  1.00  0.00     0.091 C 
ATOM     15  C   UNL     1       3.683  -3.262  -6.794  1.00  0.00     0.071 C 
ATOM     16  N   UNL     1       3.832  -4.426  -6.244  1.00  0.00    -0.176 NA
BRANCH  13  17
ATOM     17  C   UNL     1       1.557  -2.935  -4.129  1.00  0.00    -0.019 A 
ATOM     18  C   UNL     1       1.181  -1.839  -1.556  1.00  0.00     0.160 A 
ATOM     19  C   UNL     1       0.092  -2.335  -2.286  1.00  0.00     0.051 A 
ATOM     20  C   UNL     1       2.472  -1.911  -2.088  1.00  0.00     0.161 A 
ATOM     21  C   UNL     1       0.277  -2.869  -3.564  1.00  0.00     0.010 A 
ATOM     22  C   UNL     1       2.642  -2.460  -3.369  1.00  0.00     0.056 A 
BRANCH  18  23
ATOM     23  O   UNL     1       0.956  -1.383  -0.284  1.00  0.00    -0.493 OA
ATOM     24  C   UNL     1       0.233  -0.151  -0.282  1.00  0.00     0.278 C 
ENDBRANCH  18  23
BRANCH  20  25
ATOM     25  O   UNL     1       3.653  -1.517  -1.521  1.00  0.00    -0.493 OA
ATOM     26  C   UNL     1       3.609  -0.746  -0.330  1.00  0.00     0.278 C 
ENDBRANCH  20  25
ENDBRANCH  13  17
BRANCH  15  27
ATOM     27  C   UNL     1       4.653  -2.681  -7.730  1.00  0.00    -0.002 A 
ATOM     28  C   UNL     1       4.957  -3.385  -8.900  1.00  0.00     0.011 A 
ATOM     29  C   UNL     1       5.214  -1.426  -7.483  1.00  0.00     0.011 A 
ATOM     30  C   UNL     1       5.806  -2.816  -9.850  1.00  0.00     0.021 A 
ATOM     31  C   UNL     1       6.085  -0.865  -8.420  1.00  0.00     0.021 A 
ATOM     32  C   UNL     1       6.372  -1.560  -9.601  1.00  0.00     0.067 A 
BRANCH  32  33
ATOM     33  S   UNL     1       7.415  -0.820 -10.837  1.00  0.00     0.175 S 
ATOM     34  C   UNL     1       8.793  -1.927 -10.974  1.00  0.00     0.163 C 
ATOM     35  O   UNL     1       6.673  -0.856 -12.082  1.00  0.00    -0.224 OA
ATOM     36  O   UNL     1       7.912   0.432 -10.299  1.00  0.00    -0.224 OA
ENDBRANCH  32  33
ENDBRANCH  15  27
ENDBRANCH   7  12
ENDBRANCH   4   6
ENDBRANCH   3   4
ENDBRANCH   2   3
ENDBRANCH   1   2
BRANCH   1  37
ATOM     37  O   UNL     1       3.963 -11.532  -1.576  1.00  0.00    -0.374 OA
BRANCH  37  38
ATOM     38  C   UNL     1       4.241 -10.910  -2.833  1.00  0.00     0.202 C 
BRANCH  38  39
ATOM     39  C   UNL     1       4.332 -11.861  -4.032  1.00  0.00     0.261 C 
BRANCH  39  40
ATOM     40  O   UNL     1       3.044 -12.413  -4.366  1.00  0.00    -0.460 OA
BRANCH  40  41
ATOM     41  C   UNL     1       2.906 -13.737  -4.116  1.00  0.00     0.338 C 
ATOM     42  O   UNL     1       3.765 -14.517  -3.746  1.00  0.00    -0.246 OA
BRANCH  41  43
ATOM     43  C   UNL     1       1.479 -14.112  -4.191  1.00  0.00     0.060 A 
ATOM     44  C   UNL     1       0.947 -14.839  -3.118  1.00  0.00     0.016 A 
ATOM     45  C   UNL     1       0.694 -13.822  -5.309  1.00  0.00     0.016 A 
ATOM     46  C   UNL     1      -0.358 -15.324  -3.181  1.00  0.00     0.010 A 
ATOM     47  C   UNL     1      -0.613 -14.318  -5.375  1.00  0.00     0.010 A 
ATOM     48  C   UNL     1      -1.132 -15.101  -4.327  1.00  0.00    -0.014 A 
BRANCH  48  49
ATOM     49  C   UNL     1      -2.422 -15.815  -4.491  1.00  0.00     0.031 A 
ATOM     50  C   UNL     1      -2.457 -17.072  -5.316  1.00  0.00     0.074 A 
ATOM     51  C   UNL     1      -3.538 -15.375  -3.883  1.00  0.00     0.049 A 
ATOM     52  N   UNL     1      -3.473 -17.836  -5.628  1.00  0.00    -0.248 NA
ATOM     53  C   UNL     1      -1.169 -17.533  -5.861  1.00  0.00     0.031 C 
ATOM     54  C   UNL     1      -3.622 -14.203  -3.016  1.00  0.00     0.029 A 
ATOM     55  N   UNL     1      -4.819 -15.869  -3.908  1.00  0.00    -0.354 N 
ATOM     56  C   UNL     1      -2.948 -18.867  -6.396  1.00  0.00     0.074 A 
ATOM     57  C   UNL     1      -1.530 -18.614  -6.536  1.00  0.00     0.031 C 
ATOM     58  C   UNL     1      -4.891 -14.061  -2.596  1.00  0.00     0.029 A 
ATOM     59  C   UNL     1      -5.713 -15.114  -3.191  1.00  0.00     0.049 A 
ATOM     60  H   UNL     1      -5.072 -16.687  -4.394  1.00  0.00     0.167 HD
ATOM     61  C   UNL     1      -3.589 -19.936  -6.926  1.00  0.00     0.037 A 
ATOM     62  C   UNL     1      -7.047 -15.248  -3.051  1.00  0.00     0.037 A 
ATOM     63  C   UNL     1      -5.000 -20.185  -6.796  1.00  0.00     0.049 A 
ATOM     64  C   UNL     1      -7.749 -16.395  -3.733  1.00  0.00     0.074 A 
ATOM     65  C   UNL     1      -5.745 -21.228  -7.316  1.00  0.00     0.029 A 
ATOM     66  N   UNL     1      -5.879 -19.376  -6.092  1.00  0.00    -0.354 N 
ATOM     67  N   UNL     1      -7.246 -17.367  -4.455  1.00  0.00    -0.248 NA
ATOM     68  C   UNL     1      -9.210 -16.463  -3.579  1.00  0.00     0.031 C 
ATOM     69  C   UNL     1      -7.083 -21.032  -6.957  1.00  0.00     0.029 A 
ATOM     70  C   UNL     1      -7.163 -19.890  -6.176  1.00  0.00     0.049 A 
ATOM     71  H   UNL     1      -5.629 -18.558  -5.605  1.00  0.00     0.167 HD
ATOM     72  C   UNL     1      -8.317 -18.178  -4.807  1.00  0.00     0.074 A 
ATOM     73  C   UNL     1      -9.499 -17.590  -4.212  1.00  0.00     0.031 C 
ATOM     74  C   UNL     1      -8.323 -19.307  -5.556  1.00  0.00     0.037 A 
BRANCH  61  75
ATOM     75  C   UNL     1      -2.768 -20.919  -7.706  1.00  0.00     0.064 A 
ATOM     76  C   UNL     1      -1.886 -21.804  -7.068  1.00  0.00     0.173 A 
ATOM     77  C   UNL     1      -2.899 -21.012  -9.100  1.00  0.00     0.173 A 
ATOM     78  F   UNL     1      -1.715 -21.744  -5.738  1.00  0.00    -0.203 F 
ATOM     79  C   UNL     1      -1.154 -22.736  -7.798  1.00  0.00     0.198 A 
ATOM     80  C   UNL     1      -2.184 -21.962  -9.824  1.00  0.00     0.198 A 
ATOM     81  F   UNL     1      -3.731 -20.190  -9.757  1.00  0.00    -0.203 F 
ATOM     82  F   UNL     1      -0.291 -23.548  -7.172  1.00  0.00    -0.200 F 
ATOM     83  C   UNL     1      -1.309 -22.820  -9.174  1.00  0.00     0.200 A 
ATOM     84  F   UNL     1      -2.343 -22.049 -11.152  1.00  0.00    -0.200 F 
ATOM     85  F   UNL     1      -0.612 -23.725  -9.874  1.00  0.00    -0.200 F 
ENDBRANCH  61  75
BRANCH  62  86
ATOM     86  C   UNL     1      -7.822 -14.268  -2.246  1.00  0.00     0.064 A 
ATOM     87  C   UNL     1      -8.452 -14.649  -1.053  1.00  0.00     0.173 A 
ATOM     88  C   UNL     1      -7.994 -12.945  -2.681  1.00  0.00     0.173 A 
ATOM     89  F   UNL     1      -8.341 -15.910  -0.611  1.00  0.00    -0.203 F 
ATOM     90  C   UNL     1      -9.248 -13.754  -0.342  1.00  0.00     0.198 A 
ATOM     91  C   UNL     1      -8.767 -12.043  -1.953  1.00  0.00     0.198 A 
ATOM     92  F   UNL     1      -7.417 -12.530  -3.818  1.00  0.00    -0.203 F 
ATOM     93  F   UNL     1      -9.889 -14.162   0.762  1.00  0.00    -0.200 F 
ATOM     94  C   UNL     1      -9.402 -12.450  -0.790  1.00  0.00     0.200 A 
ATOM     95  F   UNL     1      -8.906 -10.782  -2.386  1.00  0.00    -0.200 F 
ATOM     96  F   UNL     1     -10.175 -11.592  -0.110  1.00  0.00    -0.200 F 
ENDBRANCH  62  86
BRANCH  74  97
ATOM     97  C   UNL     1      -9.636 -20.015  -5.729  1.00  0.00     0.064 A 
ATOM     98  C   UNL     1     -10.648 -19.500  -6.552  1.00  0.00     0.173 A 
ATOM     99  C   UNL     1      -9.866 -21.245  -5.093  1.00  0.00     0.173 A 
ATOM    100  F   UNL     1     -10.482 -18.321  -7.170  1.00  0.00    -0.203 F 
ATOM    101  C   UNL     1     -11.853 -20.180  -6.713  1.00  0.00     0.198 A 
ATOM    102  C   UNL     1     -11.060 -21.935  -5.279  1.00  0.00     0.198 A 
ATOM    103  F   UNL     1      -8.926 -21.783  -4.301  1.00  0.00    -0.203 F 
ATOM    104  F   UNL     1     -12.824 -19.648  -7.468  1.00  0.00    -0.200 F 
ATOM    105  C   UNL     1     -12.055 -21.399  -6.082  1.00  0.00     0.200 A 
ATOM    106  F   UNL     1     -11.249 -23.118  -4.679  1.00  0.00    -0.200 F 
ATOM    107  F   UNL     1     -13.213 -22.054  -6.243  1.00  0.00    -0.200 F 
ENDBRANCH  74  97
ENDBRANCH  48  49
ENDBRANCH  41  43
ENDBRANCH  40  41
ENDBRANCH  39  40
ENDBRANCH  38  39
ENDBRANCH  37  38
ENDBRANCH   1  37
TORSDOF 20
