REMARK SMILES CSCC[C@@H](C(=O)OCCOCCOC(=O)c1ccc(-c2c3nc(c(-c4c(F)c(F)c(F)c(F)c4F)c4ccc([nH]4)c(-c4c(F)c(F)c(F)c(F)c4F)c4nc(c(-c5c(F)c(F)c(F)c(F)c5F)c5ccc2[nH]5)C=C4)C=C3)cc1)N1C(=O)/C(=C/c2ccc(-c3ccccc3Cl)o2)SC1=S
REMARK SMILES IDX 10 1 9 2 8 3 6 4 7 5 5 6 4 7 3 8 2 9 1 10 80 11 81 12 98 13
REMARK SMILES IDX 82 14 83 15 97 16 99 17 84 18 85 19 86 20 96 21 87 22 88 23
REMARK SMILES IDX 89 24 90 25 94 26 91 27 93 28 95 29 92 30 11 31 12 32 13 33
REMARK SMILES IDX 14 34 15 35 16 36 17 37 18 38 79 39 19 40 78 41 20 42 21 43
REMARK SMILES IDX 22 44 72 45 23 46 77 47 71 48 73 49 24 50 76 51 70 52 69 53
REMARK SMILES IDX 25 55 57 56 37 57 56 58 38 59 41 60 55 61 74 62 39 63 40 64
REMARK SMILES IDX 54 66 75 67 42 68 26 69 27 70 35 71 28 72 29 73 33 74 36 75
REMARK SMILES IDX 30 76 31 77 34 78 32 79 58 80 59 81 67 82 60 83 61 84 65 85
REMARK SMILES IDX 68 86 62 87 63 88 66 89 64 90 43 91 44 92 52 93 45 94 46 95
REMARK SMILES IDX 50 96 53 97 47 98 48 99 51 100 49 101
REMARK H PARENT 73 54 41 65
REMARK Flexibility Score: inf
ROOT
ATOM      1  C   UNL     1       5.049   1.182  -2.792  1.00  0.00     0.202 C 
ENDROOT
BRANCH   1   2
ATOM      2  C   UNL     1       4.376   1.332  -1.423  1.00  0.00     0.261 C 
BRANCH   2   3
ATOM      3  O   UNL     1       2.952   1.125  -1.471  1.00  0.00    -0.462 OA
BRANCH   3   4
ATOM      4  C   UNL     1       2.204   2.252  -1.622  1.00  0.00     0.329 C 
ATOM      5  O   UNL     1       2.687   3.376  -1.705  1.00  0.00    -0.250 OA
BRANCH   4   6
ATOM      6  C   UNL     1       0.686   1.959  -1.624  1.00  0.00     0.202 C 
BRANCH   6   7
ATOM      7  C   UNL     1       0.285   0.750  -2.503  1.00  0.00     0.048 C 
BRANCH   7   8
ATOM      8  C   UNL     1       0.663  -0.664  -2.054  1.00  0.00     0.072 C 
BRANCH   8   9
ATOM      9  S   UNL     1      -0.217  -1.250  -0.576  1.00  0.00    -0.165 SA
ATOM     10  C   UNL     1       0.907  -0.690   0.724  1.00  0.00     0.085 C 
ENDBRANCH   8   9
ENDBRANCH   7   8
ENDBRANCH   6   7
BRANCH   6  11
ATOM     11  N   UNL     1       0.039   3.255  -2.023  1.00  0.00    -0.278 N 
ATOM     12  C   UNL     1      -0.407   3.504  -3.311  1.00  0.00     0.267 C 
ATOM     13  C   UNL     1      -0.003   4.349  -1.164  1.00  0.00     0.149 C 
ATOM     14  O   UNL     1      -0.410   2.727  -4.257  1.00  0.00    -0.268 OA
ATOM     15  C   UNL     1      -0.872   4.909  -3.450  1.00  0.00     0.084 C 
ATOM     16  S   UNL     1      -0.446   5.801  -2.053  1.00  0.00    -0.054 SA
ATOM     17  S   UNL     1       0.302   4.393   0.479  1.00  0.00    -0.052 S 
ATOM     18  C   UNL     1      -1.503   5.336  -4.551  1.00  0.00     0.068 C 
BRANCH  18  19
ATOM     19  C   UNL     1      -1.742   6.714  -4.792  1.00  0.00     0.128 A 
ATOM     20  C   UNL     1      -0.892   7.607  -5.430  1.00  0.00     0.051 A 
ATOM     21  O   UNL     1      -2.875   7.401  -4.415  1.00  0.00    -0.457 OA
ATOM     22  C   UNL     1      -1.506   8.874  -5.414  1.00  0.00     0.051 A 
ATOM     23  C   UNL     1      -2.710   8.710  -4.766  1.00  0.00     0.136 A 
BRANCH  23  24
ATOM     24  C   UNL     1      -3.776   9.645  -4.431  1.00  0.00     0.036 A 
ATOM     25  C   UNL     1      -4.252  10.496  -5.447  1.00  0.00     0.013 A 
ATOM     26  C   UNL     1      -4.283   9.810  -3.132  1.00  0.00     0.052 A 
ATOM     27  C   UNL     1      -5.194  11.491  -5.175  1.00  0.00     0.001 A 
ATOM     28  C   UNL     1      -5.227  10.812  -2.863  1.00  0.00     0.021 A 
ATOM     29  Cl  UNL     1      -3.739   8.864  -1.789  1.00  0.00    -0.084 Cl
ATOM     30  C   UNL     1      -5.677  11.653  -3.881  1.00  0.00     0.002 A 
ENDBRANCH  23  24
ENDBRANCH  18  19
ENDBRANCH   6  11
ENDBRANCH   4   6
ENDBRANCH   3   4
ENDBRANCH   2   3
ENDBRANCH   1   2
BRANCH   1  31
ATOM     31  O   UNL     1       4.717   2.153  -3.781  1.00  0.00    -0.374 OA
BRANCH  31  32
ATOM     32  C   UNL     1       3.513   1.950  -4.522  1.00  0.00     0.202 C 
BRANCH  32  33
ATOM     33  C   UNL     1       3.589   0.953  -5.679  1.00  0.00     0.261 C 
BRANCH  33  34
ATOM     34  O   UNL     1       3.825  -0.385  -5.200  1.00  0.00    -0.460 OA
BRANCH  34  35
ATOM     35  C   UNL     1       5.044  -0.881  -5.506  1.00  0.00     0.338 C 
ATOM     36  O   UNL     1       5.894  -0.370  -6.224  1.00  0.00    -0.246 OA
BRANCH  35  37
ATOM     37  C   UNL     1       5.328  -2.083  -4.701  1.00  0.00     0.060 A 
ATOM     38  C   UNL     1       6.554  -2.119  -4.025  1.00  0.00     0.016 A 
ATOM     39  C   UNL     1       4.465  -3.181  -4.663  1.00  0.00     0.016 A 
ATOM     40  C   UNL     1       6.954  -3.277  -3.367  1.00  0.00     0.010 A 
ATOM     41  C   UNL     1       4.872  -4.348  -4.005  1.00  0.00     0.010 A 
ATOM     42  C   UNL     1       6.136  -4.415  -3.391  1.00  0.00    -0.014 A 
BRANCH  42  43
ATOM     43  C   UNL     1       6.687  -5.702  -2.902  1.00  0.00     0.031 A 
ATOM     44  C   UNL     1       7.237  -6.688  -3.898  1.00  0.00     0.074 A 
ATOM     45  C   UNL     1       6.763  -5.959  -1.585  1.00  0.00     0.049 A 
ATOM     46  N   UNL     1       7.789  -7.857  -3.692  1.00  0.00    -0.248 NA
ATOM     47  C   UNL     1       7.157  -6.302  -5.316  1.00  0.00     0.031 C 
ATOM     48  C   UNL     1       6.301  -5.066  -0.523  1.00  0.00     0.029 A 
ATOM     49  N   UNL     1       7.263  -7.048  -0.916  1.00  0.00    -0.354 N 
ATOM     50  C   UNL     1       8.127  -8.342  -4.949  1.00  0.00     0.074 A 
ATOM     51  C   UNL     1       7.686  -7.359  -5.915  1.00  0.00     0.031 C 
ATOM     52  C   UNL     1       6.535  -5.647   0.666  1.00  0.00     0.029 A 
ATOM     53  C   UNL     1       7.138  -6.960   0.449  1.00  0.00     0.049 A 
ATOM     54  H   UNL     1       7.671  -7.820  -1.371  1.00  0.00     0.167 HD
ATOM     55  C   UNL     1       8.761  -9.496  -5.267  1.00  0.00     0.037 A 
ATOM     56  C   UNL     1       7.461  -7.848   1.409  1.00  0.00     0.037 A 
ATOM     57  C   UNL     1       9.200 -10.473  -4.306  1.00  0.00     0.049 A 
ATOM     58  C   UNL     1       8.102  -9.156   1.020  1.00  0.00     0.074 A 
ATOM     59  C   UNL     1       9.857 -11.670  -4.531  1.00  0.00     0.029 A 
ATOM     60  N   UNL     1       9.020 -10.367  -2.936  1.00  0.00    -0.354 N 
ATOM     61  N   UNL     1       8.440  -9.594  -0.169  1.00  0.00    -0.248 NA
ATOM     62  C   UNL     1       8.412 -10.091   2.111  1.00  0.00     0.031 C 
ATOM     63  C   UNL     1      10.035 -12.310  -3.300  1.00  0.00     0.029 A 
ATOM     64  C   UNL     1       9.534 -11.489  -2.304  1.00  0.00     0.049 A 
ATOM     65  H   UNL     1       8.591  -9.608  -2.479  1.00  0.00     0.167 HD
ATOM     66  C   UNL     1       9.023 -10.838   0.033  1.00  0.00     0.074 A 
ATOM     67  C   UNL     1       9.013 -11.077   1.461  1.00  0.00     0.031 C 
ATOM     68  C   UNL     1       9.520 -11.708  -0.880  1.00  0.00     0.037 A 
BRANCH  55  69
ATOM     69  C   UNL     1       9.008  -9.776  -6.721  1.00  0.00     0.064 A 
ATOM     70  C   UNL     1       9.981  -9.076  -7.449  1.00  0.00     0.173 A 
ATOM     71  C   UNL     1       8.302 -10.794  -7.378  1.00  0.00     0.173 A 
ATOM     72  F   UNL     1      10.674  -8.084  -6.869  1.00  0.00    -0.203 F 
ATOM     73  C   UNL     1      10.228  -9.375  -8.786  1.00  0.00     0.198 A 
ATOM     74  C   UNL     1       8.569 -11.109  -8.708  1.00  0.00     0.198 A 
ATOM     75  F   UNL     1       7.362 -11.496  -6.726  1.00  0.00    -0.203 F 
ATOM     76  F   UNL     1      11.138  -8.671  -9.472  1.00  0.00    -0.200 F 
ATOM     77  C   UNL     1       9.528 -10.396  -9.412  1.00  0.00     0.200 A 
ATOM     78  F   UNL     1       7.900 -12.103  -9.307  1.00  0.00    -0.200 F 
ATOM     79  F   UNL     1       9.776 -10.692 -10.695  1.00  0.00    -0.200 F 
ENDBRANCH  55  69
BRANCH  56  80
ATOM     80  C   UNL     1       7.171  -7.545   2.835  1.00  0.00     0.064 A 
ATOM     81  C   UNL     1       8.204  -7.353   3.763  1.00  0.00     0.173 A 
ATOM     82  C   UNL     1       5.851  -7.481   3.307  1.00  0.00     0.173 A 
ATOM     83  F   UNL     1       9.483  -7.430   3.365  1.00  0.00    -0.203 F 
ATOM     84  C   UNL     1       7.930  -7.135   5.111  1.00  0.00     0.198 A 
ATOM     85  C   UNL     1       5.577  -7.232   4.650  1.00  0.00     0.198 A 
ATOM     86  F   UNL     1       4.826  -7.659   2.461  1.00  0.00    -0.203 F 
ATOM     87  F   UNL     1       8.937  -7.012   5.986  1.00  0.00    -0.200 F 
ATOM     88  C   UNL     1       6.617  -7.071   5.553  1.00  0.00     0.200 A 
ATOM     89  F   UNL     1       4.307  -7.159   5.069  1.00  0.00    -0.200 F 
ATOM     90  F   UNL     1       6.353  -6.864   6.850  1.00  0.00    -0.200 F 
ENDBRANCH  56  80
BRANCH  68  91
ATOM     91  C   UNL     1      10.120 -12.983  -0.360  1.00  0.00     0.064 A 
ATOM     92  C   UNL     1       9.324 -14.002   0.184  1.00  0.00     0.173 A 
ATOM     93  C   UNL     1      11.505 -13.196  -0.427  1.00  0.00     0.173 A 
ATOM     94  F   UNL     1       7.996 -13.841   0.283  1.00  0.00    -0.203 F 
ATOM     95  C   UNL     1       9.897 -15.174   0.671  1.00  0.00     0.198 A 
ATOM     96  C   UNL     1      12.071 -14.383   0.032  1.00  0.00     0.198 A 
ATOM     97  F   UNL     1      12.310 -12.257  -0.946  1.00  0.00    -0.203 F 
ATOM     98  F   UNL     1       9.123 -16.110   1.237  1.00  0.00    -0.200 F 
ATOM     99  C   UNL     1      11.268 -15.366   0.590  1.00  0.00     0.200 A 
ATOM    100  F   UNL     1      13.394 -14.572  -0.059  1.00  0.00    -0.200 F 
ATOM    101  F   UNL     1      11.817 -16.495   1.058  1.00  0.00    -0.200 F 
ENDBRANCH  68  91
ENDBRANCH  42  43
ENDBRANCH  35  37
ENDBRANCH  34  35
ENDBRANCH  33  34
ENDBRANCH  32  33
ENDBRANCH  31  32
ENDBRANCH   1  31
TORSDOF 20
