REMARK SMILES COC[C@H]1CCN(C(=O)N2CC[C@H](C(=O)OCCOCCOC(=O)c3ccc(-c4c5nc(c(-c6c(F)c(F)c(F)c(F)c6F)c6ccc([nH]6)c(-c6c(F)c(F)c(F)c(F)c6F)c6nc(c(-c7c(F)c(F)c(F)c(F)c7F)c7ccc4[nH]7)C=C6)C=C5)cc3)[C@@H]2C)C1
REMARK SMILES IDX 18 1 17 2 16 3 14 4 15 5 13 6 10 7 11 8 88 9 12 10 89 11
REMARK SMILES IDX 8 12 9 13 7 14 4 15 5 16 90 17 6 18 3 19 2 20 1 21 19 22
REMARK SMILES IDX 20 23 21 24 22 25 23 26 24 27 25 28 26 29 87 30 27 31 86 32
REMARK SMILES IDX 28 33 29 34 30 35 80 36 31 37 85 38 79 39 81 40 32 41 84 42
REMARK SMILES IDX 78 43 77 44 33 46 65 47 45 48 64 49 46 50 49 51 63 52 82 53
REMARK SMILES IDX 47 54 48 55 62 57 83 58 50 59 34 60 35 61 43 62 36 63 37 64
REMARK SMILES IDX 41 65 44 66 38 67 39 68 42 69 40 70 66 71 67 72 75 73 68 74
REMARK SMILES IDX 69 75 73 76 76 77 70 78 71 79 74 80 72 81 51 82 52 83 60 84
REMARK SMILES IDX 53 85 54 86 58 87 61 88 55 89 56 90 59 91 57 92
REMARK H PARENT 81 45 49 56
REMARK Flexibility Score: inf
ROOT
ATOM      1  C   UNL     1       1.730  -7.763   8.505  1.00  0.00     0.202 C 
ENDROOT
BRANCH   1   2
ATOM      2  C   UNL     1       2.715  -7.828   7.336  1.00  0.00     0.261 C 
BRANCH   2   3
ATOM      3  O   UNL     1       2.034  -7.761   6.071  1.00  0.00    -0.463 OA
BRANCH   3   4
ATOM      4  C   UNL     1       2.179  -8.841   5.257  1.00  0.00     0.311 C 
ATOM      5  O   UNL     1       2.877  -9.817   5.498  1.00  0.00    -0.252 OA
BRANCH   4   6
ATOM      6  C   UNL     1       1.411  -8.695   3.966  1.00  0.00     0.123 C 
ATOM      7  N   UNL     1       1.099  -6.987   2.357  1.00  0.00    -0.321 N 
ATOM      8  C   UNL     1      -0.204  -7.524   2.682  1.00  0.00     0.122 C 
ATOM      9  C   UNL     1       2.143  -7.866   2.890  1.00  0.00     0.098 C 
ATOM     10  C   UNL     1       0.015  -8.056   4.080  1.00  0.00     0.039 C 
ATOM     11  C   UNL     1       3.357  -7.068   3.362  1.00  0.00     0.032 C 
BRANCH   7  12
ATOM     12  C   UNL     1       1.354  -6.159   1.298  1.00  0.00     0.320 C 
ATOM     13  O   UNL     1       2.192  -6.455   0.447  1.00  0.00    -0.248 OA
BRANCH  12  14
ATOM     14  N   UNL     1       0.740  -4.929   1.313  1.00  0.00    -0.324 N 
ATOM     15  C   UNL     1       0.569  -2.616   0.827  1.00  0.00     0.036 C 
ATOM     16  C   UNL     1      -0.571  -3.039   1.749  1.00  0.00     0.029 C 
ATOM     17  C   UNL     1       1.109  -3.948   0.304  1.00  0.00     0.127 C 
ATOM     18  C   UNL     1      -0.006  -4.296   2.391  1.00  0.00     0.122 C 
BRANCH  15  19
ATOM     19  C   UNL     1       0.145  -1.673  -0.288  1.00  0.00     0.165 C 
BRANCH  19  20
ATOM     20  O   UNL     1       1.198  -1.437  -1.221  1.00  0.00    -0.384 OA
ATOM     21  C   UNL     1       2.248  -0.628  -0.709  1.00  0.00     0.194 C 
ENDBRANCH  19  20
ENDBRANCH  15  19
ENDBRANCH  12  14
ENDBRANCH   7  12
ENDBRANCH   4   6
ENDBRANCH   3   4
ENDBRANCH   2   3
ENDBRANCH   1   2
BRANCH   1  22
ATOM     22  O   UNL     1       0.822  -8.855   8.626  1.00  0.00    -0.374 OA
BRANCH  22  23
ATOM     23  C   UNL     1      -0.283  -8.899   7.724  1.00  0.00     0.202 C 
BRANCH  23  24
ATOM     24  C   UNL     1      -1.444  -7.942   8.019  1.00  0.00     0.261 C 
BRANCH  24  25
ATOM     25  O   UNL     1      -1.069  -6.558   7.878  1.00  0.00    -0.460 OA
BRANCH  25  26
ATOM     26  C   UNL     1      -1.087  -5.850   9.030  1.00  0.00     0.338 C 
ATOM     27  O   UNL     1      -1.447  -6.239  10.136  1.00  0.00    -0.246 OA
BRANCH  26  28
ATOM     28  C   UNL     1      -0.461  -4.530   8.844  1.00  0.00     0.060 A 
ATOM     29  C   UNL     1       0.581  -4.183   9.712  1.00  0.00     0.016 A 
ATOM     30  C   UNL     1      -0.963  -3.601   7.929  1.00  0.00     0.016 A 
ATOM     31  C   UNL     1       1.086  -2.885   9.713  1.00  0.00     0.010 A 
ATOM     32  C   UNL     1      -0.460  -2.295   7.937  1.00  0.00     0.010 A 
ATOM     33  C   UNL     1       0.536  -1.921   8.858  1.00  0.00    -0.014 A 
BRANCH  33  34
ATOM     34  C   UNL     1       0.890  -0.493   9.053  1.00  0.00     0.031 A 
ATOM     35  C   UNL     1      -0.032   0.384   9.855  1.00  0.00     0.074 A 
ATOM     36  C   UNL     1       2.039   0.006   8.565  1.00  0.00     0.049 A 
ATOM     37  N   UNL     1       0.072   1.657  10.145  1.00  0.00    -0.248 NA
ATOM     38  C   UNL     1      -1.236  -0.261  10.404  1.00  0.00     0.031 C 
ATOM     39  C   UNL     1       3.034  -0.750   7.809  1.00  0.00     0.029 A 
ATOM     40  N   UNL     1       2.559   1.275   8.634  1.00  0.00    -0.354 N 
ATOM     41  C   UNL     1      -1.049   1.963  10.906  1.00  0.00     0.074 A 
ATOM     42  C   UNL     1      -1.837   0.753  11.008  1.00  0.00     0.031 C 
ATOM     43  C   UNL     1       4.045   0.071   7.478  1.00  0.00     0.029 A 
ATOM     44  C   UNL     1       3.754   1.415   7.975  1.00  0.00     0.049 A 
ATOM     45  H   UNL     1       2.116   2.014   9.111  1.00  0.00     0.167 HD
ATOM     46  C   UNL     1      -1.386   3.144  11.478  1.00  0.00     0.037 A 
ATOM     47  C   UNL     1       4.517   2.509   7.784  1.00  0.00     0.037 A 
ATOM     48  C   UNL     1      -0.601   4.346  11.383  1.00  0.00     0.049 A 
ATOM     49  C   UNL     1       4.090   3.826   8.378  1.00  0.00     0.074 A 
ATOM     50  C   UNL     1      -0.853   5.588  11.940  1.00  0.00     0.029 A 
ATOM     51  N   UNL     1       0.589   4.457  10.680  1.00  0.00    -0.354 N 
ATOM     52  N   UNL     1       3.039   4.101   9.112  1.00  0.00    -0.248 NA
ATOM     53  C   UNL     1       4.958   4.983   8.120  1.00  0.00     0.031 C 
ATOM     54  C   UNL     1       0.164   6.462  11.537  1.00  0.00     0.029 A 
ATOM     55  C   UNL     1       1.072   5.752  10.769  1.00  0.00     0.049 A 
ATOM     56  H   UNL     1       1.025   3.723  10.189  1.00  0.00     0.167 HD
ATOM     57  C   UNL     1       3.134   5.451   9.425  1.00  0.00     0.074 A 
ATOM     58  C   UNL     1       4.351   5.938   8.811  1.00  0.00     0.031 C 
ATOM     59  C   UNL     1       2.290   6.218  10.158  1.00  0.00     0.037 A 
BRANCH  46  60
ATOM     60  C   UNL     1      -2.676   3.198  12.242  1.00  0.00     0.064 A 
ATOM     61  C   UNL     1      -2.816   2.583  13.495  1.00  0.00     0.173 A 
ATOM     62  C   UNL     1      -3.776   3.900  11.727  1.00  0.00     0.173 A 
ATOM     63  F   UNL     1      -1.798   1.887  14.022  1.00  0.00    -0.203 F 
ATOM     64  C   UNL     1      -4.018   2.650  14.194  1.00  0.00     0.198 A 
ATOM     65  C   UNL     1      -4.968   3.986  12.440  1.00  0.00     0.198 A 
ATOM     66  F   UNL     1      -3.692   4.507  10.534  1.00  0.00    -0.203 F 
ATOM     67  F   UNL     1      -4.144   2.019  15.370  1.00  0.00    -0.200 F 
ATOM     68  C   UNL     1      -5.091   3.357  13.670  1.00  0.00     0.200 A 
ATOM     69  F   UNL     1      -6.000   4.677  11.936  1.00  0.00    -0.200 F 
ATOM     70  F   UNL     1      -6.246   3.424  14.346  1.00  0.00    -0.200 F 
ENDBRANCH  46  60
BRANCH  47  71
ATOM     71  C   UNL     1       5.766   2.410   6.985  1.00  0.00     0.064 A 
ATOM     72  C   UNL     1       7.024   2.543   7.588  1.00  0.00     0.173 A 
ATOM     73  C   UNL     1       5.724   2.197   5.599  1.00  0.00     0.173 A 
ATOM     74  F   UNL     1       7.113   2.775   8.906  1.00  0.00    -0.203 F 
ATOM     75  C   UNL     1       8.193   2.484   6.832  1.00  0.00     0.198 A 
ATOM     76  C   UNL     1       6.895   2.112   4.849  1.00  0.00     0.198 A 
ATOM     77  F   UNL     1       4.545   2.065   4.975  1.00  0.00    -0.203 F 
ATOM     78  F   UNL     1       9.382   2.659   7.426  1.00  0.00    -0.200 F 
ATOM     79  C   UNL     1       8.128   2.263   5.464  1.00  0.00     0.200 A 
ATOM     80  F   UNL     1       6.826   1.889   3.529  1.00  0.00    -0.200 F 
ATOM     81  F   UNL     1       9.252   2.205   4.738  1.00  0.00    -0.200 F 
ENDBRANCH  47  71
BRANCH  59  82
ATOM     82  C   UNL     1       2.669   7.656  10.366  1.00  0.00     0.064 A 
ATOM     83  C   UNL     1       2.573   8.598   9.332  1.00  0.00     0.173 A 
ATOM     84  C   UNL     1       3.092   8.103  11.627  1.00  0.00     0.173 A 
ATOM     85  F   UNL     1       2.187   8.217   8.105  1.00  0.00    -0.203 F 
ATOM     86  C   UNL     1       2.910   9.932   9.547  1.00  0.00     0.198 A 
ATOM     87  C   UNL     1       3.403   9.442  11.845  1.00  0.00     0.198 A 
ATOM     88  F   UNL     1       3.193   7.242  12.651  1.00  0.00    -0.203 F 
ATOM     89  F   UNL     1       2.853  10.808   8.534  1.00  0.00    -0.200 F 
ATOM     90  C   UNL     1       3.318  10.354  10.805  1.00  0.00     0.200 A 
ATOM     91  F   UNL     1       3.784   9.850  13.064  1.00  0.00    -0.200 F 
ATOM     92  F   UNL     1       3.636  11.640  11.011  1.00  0.00    -0.200 F 
ENDBRANCH  59  82
ENDBRANCH  33  34
ENDBRANCH  26  28
ENDBRANCH  25  26
ENDBRANCH  24  25
ENDBRANCH  23  24
ENDBRANCH  22  23
ENDBRANCH   1  22
TORSDOF 18
