REMARK SMILES Cc1ccccc1CNc1ccc(C(=O)OCCOCCOC(=O)c2ccc(-c3c4nc(c(-c5c(F)c(F)c(F)c(F)c5F)c5ccc([nH]5)c(-c5c(F)c(F)c(F)c(F)c5F)c5nc(c(-c6c(F)c(F)c(F)c(F)c6F)c6ccc3[nH]6)C=C5)C=C4)cc2)c(F)c1F
REMARK SMILES IDX 18 1 17 2 16 3 14 4 15 5 13 6 10 7 11 8 90 9 12 10 88 11
REMARK SMILES IDX 91 12 89 13 9 14 8 16 7 17 1 18 2 19 3 20 4 21 6 22 5 23
REMARK SMILES IDX 19 24 20 25 21 26 22 27 23 28 24 29 25 30 26 31 87 32 27 33
REMARK SMILES IDX 86 34 28 35 29 36 30 37 80 38 31 39 85 40 79 41 81 42 32 43
REMARK SMILES IDX 84 44 78 45 77 46 33 48 65 49 45 50 64 51 46 52 49 53 63 54
REMARK SMILES IDX 82 55 47 56 48 57 62 59 83 60 50 61 34 62 35 63 43 64 36 65
REMARK SMILES IDX 37 66 41 67 44 68 38 69 39 70 42 71 40 72 66 73 67 74 75 75
REMARK SMILES IDX 68 76 69 77 73 78 76 79 70 80 71 81 74 82 72 83 51 84 52 85
REMARK SMILES IDX 60 86 53 87 54 88 58 89 61 90 55 91 56 92 59 93 57 94
REMARK H PARENT 9 15 81 47 49 58
REMARK Flexibility Score: inf
ROOT
ATOM      1  C   UNL     1       0.165  10.074  -1.821  1.00  0.00     0.202 C 
ENDROOT
BRANCH   1   2
ATOM      2  C   UNL     1      -0.425   9.849  -0.469  1.00  0.00     0.261 C 
BRANCH   2   3
ATOM      3  O   UNL     1      -0.483   8.452  -0.177  1.00  0.00    -0.460 OA
BRANCH   3   4
ATOM      4  C   UNL     1      -1.437   7.681  -0.784  1.00  0.00     0.341 C 
ATOM      5  O   UNL     1      -2.522   8.009  -1.175  1.00  0.00    -0.246 OA
BRANCH   4   6
ATOM      6  C   UNL     1      -0.798   6.365  -0.944  1.00  0.00     0.099 A 
ATOM      7  C   UNL     1       0.552   3.974  -1.358  1.00  0.00     0.074 A 
ATOM      8  C   UNL     1       1.079   4.928  -0.488  1.00  0.00     0.030 A 
ATOM      9  C   UNL     1      -0.628   4.257  -2.063  1.00  0.00     0.182 A 
ATOM     10  C   UNL     1       0.385   6.089  -0.241  1.00  0.00     0.021 A 
ATOM     11  C   UNL     1      -1.303   5.452  -1.862  1.00  0.00     0.175 A 
ATOM     12  F   UNL     1      -1.137   3.338  -2.899  1.00  0.00    -0.201 F 
ATOM     13  F   UNL     1      -2.432   5.689  -2.546  1.00  0.00    -0.203 F 
BRANCH   7  14
ATOM     14  N   UNL     1       1.097   2.690  -1.337  1.00  0.00    -0.379 N 
ATOM     15  H   UNL     1       1.393   2.216  -2.148  1.00  0.00     0.161 HD
BRANCH  14  16
ATOM     16  C   UNL     1       1.184   2.118   0.002  1.00  0.00     0.149 C 
BRANCH  16  17
ATOM     17  C   UNL     1       0.430   0.822   0.027  1.00  0.00    -0.026 A 
ATOM     18  C   UNL     1       2.559  -0.599  -0.068  1.00  0.00     0.044 C 
ATOM     19  C   UNL     1       1.065  -0.427  -0.015  1.00  0.00    -0.046 A 
ATOM     20  C   UNL     1       0.267  -1.581  -0.004  1.00  0.00     0.004 A 
ATOM     21  C   UNL     1      -1.127  -1.499   0.023  1.00  0.00     0.000 A 
ATOM     22  C   UNL     1      -0.981   0.893   0.048  1.00  0.00     0.006 A 
ATOM     23  C   UNL     1      -1.754  -0.260   0.043  1.00  0.00     0.000 A 
ENDBRANCH  16  17
ENDBRANCH  14  16
ENDBRANCH   7  14
ENDBRANCH   4   6
ENDBRANCH   3   4
ENDBRANCH   2   3
ENDBRANCH   1   2
BRANCH   1  24
ATOM     24  O   UNL     1      -0.866   9.709  -2.722  1.00  0.00    -0.374 OA
BRANCH  24  25
ATOM     25  C   UNL     1      -0.570   9.870  -4.091  1.00  0.00     0.202 C 
BRANCH  25  26
ATOM     26  C   UNL     1      -0.223  11.321  -4.446  1.00  0.00     0.261 C 
BRANCH  26  27
ATOM     27  O   UNL     1      -1.344  12.172  -4.115  1.00  0.00    -0.460 OA
BRANCH  27  28
ATOM     28  C   UNL     1      -1.222  12.935  -2.991  1.00  0.00     0.338 C 
ATOM     29  O   UNL     1      -0.245  13.603  -2.694  1.00  0.00    -0.246 OA
BRANCH  28  30
ATOM     30  C   UNL     1      -2.319  12.600  -2.030  1.00  0.00     0.060 A 
ATOM     31  C   UNL     1      -2.233  13.011  -0.683  1.00  0.00     0.016 A 
ATOM     32  C   UNL     1      -3.231  11.612  -2.388  1.00  0.00     0.016 A 
ATOM     33  C   UNL     1      -2.940  12.321   0.321  1.00  0.00     0.010 A 
ATOM     34  C   UNL     1      -3.844  10.878  -1.392  1.00  0.00     0.010 A 
ATOM     35  C   UNL     1      -3.679  11.191  -0.029  1.00  0.00    -0.014 A 
BRANCH  35  36
ATOM     36  C   UNL     1      -4.204  10.165   0.889  1.00  0.00     0.031 A 
ATOM     37  C   UNL     1      -5.651   9.844   0.823  1.00  0.00     0.074 A 
ATOM     38  C   UNL     1      -3.374   9.298   1.531  1.00  0.00     0.049 A 
ATOM     39  N   UNL     1      -6.239   9.036   1.634  1.00  0.00    -0.248 NA
ATOM     40  C   UNL     1      -6.588  10.445  -0.129  1.00  0.00     0.031 C 
ATOM     41  C   UNL     1      -3.658   7.912   1.929  1.00  0.00     0.029 A 
ATOM     42  N   UNL     1      -2.038   9.454   1.930  1.00  0.00    -0.354 N 
ATOM     43  C   UNL     1      -7.466   8.728   1.102  1.00  0.00     0.074 A 
ATOM     44  C   UNL     1      -7.700   9.743   0.111  1.00  0.00     0.031 C 
ATOM     45  C   UNL     1      -2.679   7.454   2.728  1.00  0.00     0.029 A 
ATOM     46  C   UNL     1      -1.786   8.566   2.993  1.00  0.00     0.049 A 
ATOM     47  H   UNL     1      -1.387  10.078   1.534  1.00  0.00     0.167 HD
ATOM     48  C   UNL     1      -8.057   7.563   1.491  1.00  0.00     0.037 A 
ATOM     49  C   UNL     1      -1.351   9.024   4.197  1.00  0.00     0.037 A 
ATOM     50  C   UNL     1      -7.319   6.966   2.616  1.00  0.00     0.049 A 
ATOM     51  C   UNL     1      -2.423   8.766   5.212  1.00  0.00     0.074 A 
ATOM     52  C   UNL     1      -6.524   5.841   2.751  1.00  0.00     0.029 A 
ATOM     53  N   UNL     1      -7.098   7.736   3.764  1.00  0.00    -0.354 N 
ATOM     54  N   UNL     1      -3.647   8.492   4.852  1.00  0.00    -0.248 NA
ATOM     55  C   UNL     1      -2.243   8.716   6.656  1.00  0.00     0.031 C 
ATOM     56  C   UNL     1      -5.747   5.999   3.939  1.00  0.00     0.029 A 
ATOM     57  C   UNL     1      -6.104   7.192   4.555  1.00  0.00     0.049 A 
ATOM     58  H   UNL     1      -7.589   8.561   3.980  1.00  0.00     0.167 HD
ATOM     59  C   UNL     1      -4.392   8.183   5.937  1.00  0.00     0.074 A 
ATOM     60  C   UNL     1      -3.482   8.367   7.055  1.00  0.00     0.031 C 
ATOM     61  C   UNL     1      -5.701   7.829   5.812  1.00  0.00     0.037 A 
BRANCH  48  62
ATOM     62  C   UNL     1      -9.204   6.866   0.776  1.00  0.00     0.064 A 
ATOM     63  C   UNL     1      -9.783   5.706   1.337  1.00  0.00     0.173 A 
ATOM     64  C   UNL     1      -9.731   7.222  -0.487  1.00  0.00     0.173 A 
ATOM     65  F   UNL     1      -9.370   5.229   2.520  1.00  0.00    -0.203 F 
ATOM     66  C   UNL     1     -10.800   4.981   0.700  1.00  0.00     0.198 A 
ATOM     67  C   UNL     1     -10.784   6.529  -1.097  1.00  0.00     0.198 A 
ATOM     68  F   UNL     1      -9.223   8.214  -1.222  1.00  0.00    -0.203 F 
ATOM     69  F   UNL     1     -11.276   3.863   1.265  1.00  0.00    -0.200 F 
ATOM     70  C   UNL     1     -11.313   5.404  -0.509  1.00  0.00     0.200 A 
ATOM     71  F   UNL     1     -11.263   6.956  -2.276  1.00  0.00    -0.200 F 
ATOM     72  F   UNL     1     -12.297   4.722  -1.112  1.00  0.00    -0.200 F 
ENDBRANCH  48  62
BRANCH  49  73
ATOM     73  C   UNL     1      -0.445  10.199   4.031  1.00  0.00     0.064 A 
ATOM     74  C   UNL     1       0.804   9.937   3.419  1.00  0.00     0.173 A 
ATOM     75  C   UNL     1      -0.952  11.502   3.916  1.00  0.00     0.173 A 
ATOM     76  F   UNL     1       1.323   8.698   3.462  1.00  0.00    -0.203 F 
ATOM     77  C   UNL     1       1.426  10.879   2.599  1.00  0.00     0.198 A 
ATOM     78  C   UNL     1      -0.325  12.441   3.087  1.00  0.00     0.198 A 
ATOM     79  F   UNL     1      -2.132  11.817   4.465  1.00  0.00    -0.203 F 
ATOM     80  F   UNL     1       2.503  10.529   1.879  1.00  0.00    -0.200 F 
ATOM     81  C   UNL     1       0.835  12.114   2.397  1.00  0.00     0.200 A 
ATOM     82  F   UNL     1      -0.910  13.626   2.857  1.00  0.00    -0.200 F 
ATOM     83  F   UNL     1       1.331  12.949   1.472  1.00  0.00    -0.200 F 
ENDBRANCH  49  73
BRANCH  61  84
ATOM     84  C   UNL     1      -6.685   8.003   6.926  1.00  0.00     0.064 A 
ATOM     85  C   UNL     1      -6.522   8.963   7.942  1.00  0.00     0.173 A 
ATOM     86  C   UNL     1      -7.919   7.321   6.914  1.00  0.00     0.173 A 
ATOM     87  F   UNL     1      -5.465   9.787   7.968  1.00  0.00    -0.203 F 
ATOM     88  C   UNL     1      -7.476   9.148   8.937  1.00  0.00     0.198 A 
ATOM     89  C   UNL     1      -8.902   7.564   7.867  1.00  0.00     0.198 A 
ATOM     90  F   UNL     1      -8.219   6.428   5.960  1.00  0.00    -0.203 F 
ATOM     91  F   UNL     1      -7.240  10.025   9.923  1.00  0.00    -0.200 F 
ATOM     92  C   UNL     1      -8.669   8.454   8.896  1.00  0.00     0.200 A 
ATOM     93  F   UNL     1     -10.086   6.944   7.771  1.00  0.00    -0.200 F 
ATOM     94  F   UNL     1      -9.602   8.663   9.832  1.00  0.00    -0.200 F 
ENDBRANCH  61  84
ENDBRANCH  35  36
ENDBRANCH  28  30
ENDBRANCH  27  28
ENDBRANCH  26  27
ENDBRANCH  25  26
ENDBRANCH  24  25
ENDBRANCH   1  24
TORSDOF 17
