REMARK SMILES C[NH2+][C@@](C)(CCCC[N@H+]1C[C@H]2CCC[N@@H+]2C[C@@H]1C)C(=O)OCCOCCOC(=O)c1ccc(-c2c3nc(c(-c4c(F)c(F)c(F)c(F)c4F)c4ccc([nH]4)c(-c4c(F)c(F)c(F)c(F)c4F)c4nc(c(-c5c(F)c(F)c(F)c(F)c5F)c5ccc2[nH]5)C=C4)C=C3)cc1
REMARK SMILES IDX 22 1 21 2 19 3 20 4 3 5 4 6 2 7 1 8 5 11 6 12 7 13 8 14 9 15
REMARK SMILES IDX 10 16 17 17 11 19 16 20 18 21 12 22 15 23 13 24 14 25 23 27
REMARK SMILES IDX 24 28 25 29 26 30 27 31 28 32 29 33 30 34 31 35 92 36 32 37
REMARK SMILES IDX 91 38 33 39 34 40 35 41 85 42 36 43 90 44 84 45 86 46 37 47
REMARK SMILES IDX 89 48 83 49 82 50 38 52 70 53 50 54 69 55 51 56 54 57 68 58
REMARK SMILES IDX 87 59 52 60 53 61 67 63 88 64 55 65 39 66 40 67 48 68 41 69
REMARK SMILES IDX 42 70 46 71 49 72 43 73 44 74 47 75 45 76 71 77 72 78 80 79
REMARK SMILES IDX 73 80 74 81 78 82 81 83 75 84 76 85 79 86 77 87 56 88 57 89
REMARK SMILES IDX 65 90 58 91 59 92 63 93 66 94 60 95 61 96 64 97 62 98
REMARK H PARENT 2 9 2 10 9 18 15 26 86 51 54 62
REMARK Flexibility Score: inf
ROOT
ATOM      1  C   UNL     1      -2.926   2.081   0.076  1.00  0.00     0.261 C 
ENDROOT
BRANCH   1   2
ATOM      2  O   UNL     1      -2.338   0.909   0.688  1.00  0.00    -0.459 OA
BRANCH   2   3
ATOM      3  C   UNL     1      -1.173   0.506   0.110  1.00  0.00     0.367 C 
ATOM      4  O   UNL     1      -0.617   1.167  -0.765  1.00  0.00    -0.245 OA
BRANCH   3   5
ATOM      5  C   UNL     1      -0.714  -0.940   0.504  1.00  0.00     0.191 C 
ATOM      6  C   UNL     1      -1.135  -1.811  -0.708  1.00  0.00     0.092 C 
BRANCH   5   7
ATOM      7  N   UNL     1       0.764  -1.022   0.712  1.00  0.00    -0.335 N 
ATOM      8  C   UNL     1       1.604  -0.379  -0.289  1.00  0.00     0.331 C 
ATOM      9  H   UNL     1       0.973  -0.592   1.613  1.00  0.00     0.347 HD
ATOM     10  H   UNL     1       0.988  -2.015   0.650  1.00  0.00     0.347 HD
ENDBRANCH   5   7
BRANCH   5  11
ATOM     11  C   UNL     1      -1.378  -1.621   1.745  1.00  0.00     0.081 C 
BRANCH  11  12
ATOM     12  C   UNL     1      -0.871  -1.261   3.152  1.00  0.00     0.013 C 
BRANCH  12  13
ATOM     13  C   UNL     1      -1.388   0.058   3.691  1.00  0.00     0.062 C 
BRANCH  13  14
ATOM     14  C   UNL     1      -2.899   0.167   3.950  1.00  0.00     0.262 C 
BRANCH  14  15
ATOM     15  N   UNL     1      -3.406  -0.121   5.302  1.00  0.00    -0.323 N 
ATOM     16  C   UNL     1      -3.647  -1.567   5.427  1.00  0.00     0.328 C 
ATOM     17  C   UNL     1      -2.691   0.560   6.420  1.00  0.00     0.236 C 
ATOM     18  H   UNL     1      -4.312   0.333   5.417  1.00  0.00     0.348 HD
ATOM     19  C   UNL     1      -3.435  -2.147   6.815  1.00  0.00     0.240 C 
ATOM     20  C   UNL     1      -2.120  -0.307   7.592  1.00  0.00     0.328 C 
ATOM     21  C   UNL     1      -3.586   1.642   7.060  1.00  0.00     0.081 C 
ATOM     22  C   UNL     1      -3.259  -3.655   6.832  1.00  0.00     0.077 C 
ATOM     23  N   UNL     1      -2.137  -1.742   7.352  1.00  0.00    -0.323 N 
ATOM     24  C   UNL     1      -2.603  -3.889   8.189  1.00  0.00     0.068 C 
ATOM     25  C   UNL     1      -1.937  -2.558   8.546  1.00  0.00     0.263 C 
ATOM     26  H   UNL     1      -1.363  -1.899   6.707  1.00  0.00     0.348 HD
ENDBRANCH  14  15
ENDBRANCH  13  14
ENDBRANCH  12  13
ENDBRANCH  11  12
ENDBRANCH   5  11
ENDBRANCH   3   5
ENDBRANCH   2   3
ENDBRANCH   1   2
BRANCH   1  27
ATOM     27  C   UNL     1      -2.947   3.303   0.991  1.00  0.00     0.202 C 
BRANCH  27  28
ATOM     28  O   UNL     1      -1.715   3.977   1.236  1.00  0.00    -0.374 OA
BRANCH  28  29
ATOM     29  C   UNL     1      -0.915   3.479   2.305  1.00  0.00     0.202 C 
BRANCH  29  30
ATOM     30  C   UNL     1      -1.421   3.765   3.738  1.00  0.00     0.261 C 
BRANCH  30  31
ATOM     31  O   UNL     1      -2.776   3.326   3.971  1.00  0.00    -0.460 OA
BRANCH  31  32
ATOM     32  C   UNL     1      -3.727   4.292   4.043  1.00  0.00     0.338 C 
ATOM     33  O   UNL     1      -3.524   5.485   4.140  1.00  0.00    -0.246 OA
BRANCH  32  34
ATOM     34  C   UNL     1      -5.100   3.740   3.802  1.00  0.00     0.060 A 
ATOM     35  C   UNL     1      -5.961   4.518   3.025  1.00  0.00     0.016 A 
ATOM     36  C   UNL     1      -5.579   2.532   4.316  1.00  0.00     0.016 A 
ATOM     37  C   UNL     1      -7.301   4.149   2.864  1.00  0.00     0.010 A 
ATOM     38  C   UNL     1      -6.917   2.152   4.155  1.00  0.00     0.010 A 
ATOM     39  C   UNL     1      -7.803   2.994   3.478  1.00  0.00    -0.014 A 
BRANCH  39  40
ATOM     40  C   UNL     1      -9.267   2.744   3.493  1.00  0.00     0.031 A 
ATOM     41  C   UNL     1     -10.060   3.018   4.744  1.00  0.00     0.074 A 
ATOM     42  C   UNL     1      -9.897   2.329   2.381  1.00  0.00     0.049 A 
ATOM     43  N   UNL     1     -11.359   3.028   4.918  1.00  0.00    -0.248 NA
ATOM     44  C   UNL     1      -9.293   3.312   5.965  1.00  0.00     0.031 C 
ATOM     45  C   UNL     1      -9.242   1.988   1.121  1.00  0.00     0.029 A 
ATOM     46  N   UNL     1     -11.233   2.137   2.131  1.00  0.00    -0.354 N 
ATOM     47  C   UNL     1     -11.562   3.349   6.254  1.00  0.00     0.074 A 
ATOM     48  C   UNL     1     -10.255   3.464   6.863  1.00  0.00     0.031 C 
ATOM     49  C   UNL     1     -10.180   1.654   0.219  1.00  0.00     0.029 A 
ATOM     50  C   UNL     1     -11.500   1.748   0.842  1.00  0.00     0.049 A 
ATOM     51  H   UNL     1     -11.933   2.266   2.811  1.00  0.00     0.167 HD
ATOM     52  C   UNL     1     -12.731   3.554   6.909  1.00  0.00     0.037 A 
ATOM     53  C   UNL     1     -12.676   1.508   0.230  1.00  0.00     0.037 A 
ATOM     54  C   UNL     1     -14.032   3.432   6.303  1.00  0.00     0.049 A 
ATOM     55  C   UNL     1     -13.963   1.714   0.987  1.00  0.00     0.074 A 
ATOM     56  C   UNL     1     -15.273   3.679   6.865  1.00  0.00     0.029 A 
ATOM     57  N   UNL     1     -14.262   3.007   5.002  1.00  0.00    -0.354 N 
ATOM     58  N   UNL     1     -14.146   2.127   2.218  1.00  0.00    -0.248 NA
ATOM     59  C   UNL     1     -15.210   1.435   0.260  1.00  0.00     0.031 C 
ATOM     60  C   UNL     1     -16.254   3.340   5.928  1.00  0.00     0.029 A 
ATOM     61  C   UNL     1     -15.625   2.948   4.757  1.00  0.00     0.049 A 
ATOM     62  H   UNL     1     -13.560   2.781   4.350  1.00  0.00     0.167 HD
ATOM     63  C   UNL     1     -15.522   2.188   2.401  1.00  0.00     0.074 A 
ATOM     64  C   UNL     1     -16.128   1.786   1.150  1.00  0.00     0.031 C 
ATOM     65  C   UNL     1     -16.221   2.548   3.507  1.00  0.00     0.037 A 
BRANCH  52  66
ATOM     66  C   UNL     1     -12.663   3.929   8.363  1.00  0.00     0.064 A 
ATOM     67  C   UNL     1     -12.173   5.177   8.780  1.00  0.00     0.173 A 
ATOM     68  C   UNL     1     -13.147   3.055   9.348  1.00  0.00     0.173 A 
ATOM     69  F   UNL     1     -11.694   6.050   7.880  1.00  0.00    -0.203 F 
ATOM     70  C   UNL     1     -12.143   5.522  10.129  1.00  0.00     0.198 A 
ATOM     71  C   UNL     1     -13.145   3.417  10.693  1.00  0.00     0.198 A 
ATOM     72  F   UNL     1     -13.636   1.854   9.006  1.00  0.00    -0.203 F 
ATOM     73  F   UNL     1     -11.627   6.701  10.506  1.00  0.00    -0.200 F 
ATOM     74  C   UNL     1     -12.636   4.646  11.083  1.00  0.00     0.200 A 
ATOM     75  F   UNL     1     -13.639   2.576  11.612  1.00  0.00    -0.200 F 
ATOM     76  F   UNL     1     -12.618   4.984  12.380  1.00  0.00    -0.200 F 
ENDBRANCH  52  66
BRANCH  53  77
ATOM     77  C   UNL     1     -12.694   1.078  -1.193  1.00  0.00     0.064 A 
ATOM     78  C   UNL     1     -13.200   1.915  -2.197  1.00  0.00     0.173 A 
ATOM     79  C   UNL     1     -12.217  -0.184  -1.575  1.00  0.00     0.173 A 
ATOM     80  F   UNL     1     -13.688   3.124  -1.879  1.00  0.00    -0.203 F 
ATOM     81  C   UNL     1     -13.248   1.498  -3.525  1.00  0.00     0.198 A 
ATOM     82  C   UNL     1     -12.237  -0.588  -2.907  1.00  0.00     0.198 A 
ATOM     83  F   UNL     1     -11.720  -1.022  -0.653  1.00  0.00    -0.203 F 
ATOM     84  F   UNL     1     -13.784   2.298  -4.458  1.00  0.00    -0.200 F 
ATOM     85  C   UNL     1     -12.761   0.249  -3.880  1.00  0.00     0.200 A 
ATOM     86  F   UNL     1     -11.751  -1.789  -3.248  1.00  0.00    -0.200 F 
ATOM     87  F   UNL     1     -12.804  -0.151  -5.159  1.00  0.00    -0.200 F 
ENDBRANCH  53  77
BRANCH  65  88
ATOM     88  C   UNL     1     -17.721   2.557   3.409  1.00  0.00     0.064 A 
ATOM     89  C   UNL     1     -18.463   1.371   3.302  1.00  0.00     0.173 A 
ATOM     90  C   UNL     1     -18.429   3.768   3.463  1.00  0.00     0.173 A 
ATOM     91  F   UNL     1     -17.837   0.186   3.234  1.00  0.00    -0.203 F 
ATOM     92  C   UNL     1     -19.854   1.400   3.220  1.00  0.00     0.198 A 
ATOM     93  C   UNL     1     -19.820   3.791   3.416  1.00  0.00     0.198 A 
ATOM     94  F   UNL     1     -17.771   4.932   3.574  1.00  0.00    -0.203 F 
ATOM     95  F   UNL     1     -20.537   0.258   3.063  1.00  0.00    -0.200 F 
ATOM     96  C   UNL     1     -20.531   2.608   3.285  1.00  0.00     0.200 A 
ATOM     97  F   UNL     1     -20.473   4.959   3.498  1.00  0.00    -0.200 F 
ATOM     98  F   UNL     1     -21.869   2.633   3.215  1.00  0.00    -0.200 F 
ENDBRANCH  65  88
ENDBRANCH  39  40
ENDBRANCH  32  34
ENDBRANCH  31  32
ENDBRANCH  30  31
ENDBRANCH  29  30
ENDBRANCH  28  29
ENDBRANCH  27  28
ENDBRANCH   1  27
TORSDOF 20
