REMARK SMILES CC1=C(C(=O)OCCOCCOC(=O)c2ccc(-c3c4nc(c(-c5c(F)c(F)c(F)c(F)c5F)c5ccc([nH]5)c(-c5c(F)c(F)c(F)c(F)c5F)c5nc(c(-c6c(F)c(F)c(F)c(F)c6F)c6ccc3[nH]6)C=C5)C=C4)cc2)N2C(=O)[C@H](NC(=O)c3c(Cl)c(C(F)(F)F)nn3C)[C@@H]2SC1
REMARK SMILES IDX 8 1 7 2 6 3 4 4 5 5 3 6 1 7 2 8 98 9 78 10 97 11 79 12 96 13
REMARK SMILES IDX 80 14 81 15 82 16 83 17 84 19 85 20 86 21 94 22 87 23 88 24
REMARK SMILES IDX 93 25 95 26 89 27 90 28 91 29 92 30 9 31 10 32 11 33 12 34
REMARK SMILES IDX 13 35 14 36 15 37 16 38 77 39 17 40 76 41 18 42 19 43 20 44
REMARK SMILES IDX 70 45 21 46 75 47 69 48 71 49 22 50 74 51 68 52 67 53 23 55
REMARK SMILES IDX 55 56 35 57 54 58 36 59 39 60 53 61 72 62 37 63 38 64 52 66
REMARK SMILES IDX 73 67 40 68 24 69 25 70 33 71 26 72 27 73 31 74 34 75 28 76
REMARK SMILES IDX 29 77 32 78 30 79 56 80 57 81 65 82 58 83 59 84 63 85 66 86
REMARK SMILES IDX 60 87 61 88 64 89 62 90 41 91 42 92 50 93 43 94 44 95 48 96
REMARK SMILES IDX 51 97 45 98 46 99 49 100 47 101
REMARK H PARENT 82 18 71 54 39 65
REMARK Flexibility Score: inf
ROOT
ATOM      1  C   UNL     1      -0.054  -4.582  -0.478  1.00  0.00     0.202 C 
ENDROOT
BRANCH   1   2
ATOM      2  C   UNL     1       1.234  -3.910  -0.956  1.00  0.00     0.261 C 
BRANCH   2   3
ATOM      3  O   UNL     1       1.005  -2.497  -1.050  1.00  0.00    -0.459 OA
BRANCH   3   4
ATOM      4  C   UNL     1       1.594  -1.884  -2.104  1.00  0.00     0.355 C 
ATOM      5  O   UNL     1       2.501  -2.327  -2.787  1.00  0.00    -0.244 OA
BRANCH   4   6
ATOM      6  C   UNL     1       0.885  -0.593  -2.383  1.00  0.00     0.131 C 
ATOM      7  C   UNL     1       1.289   0.247  -0.047  1.00  0.00     0.043 C 
ATOM      8  C   UNL     1       0.825   0.411  -1.475  1.00  0.00    -0.032 C 
ATOM      9  C   UNL     1       0.321   1.808  -1.793  1.00  0.00     0.105 C 
ATOM     10  N   UNL     1       0.340  -0.442  -3.620  1.00  0.00    -0.289 N 
ATOM     11  S   UNL     1       0.260   2.189  -3.575  1.00  0.00    -0.129 SA
ATOM     12  C   UNL     1       0.193  -1.158  -4.751  1.00  0.00     0.253 C 
ATOM     13  C   UNL     1      -0.552   0.632  -3.986  1.00  0.00     0.181 C 
ATOM     14  O   UNL     1       0.470  -2.295  -5.055  1.00  0.00    -0.272 OA
ATOM     15  C   UNL     1      -0.463   0.094  -5.450  1.00  0.00     0.206 C 
BRANCH  15  16
ATOM     16  N   UNL     1       0.430   0.815  -6.393  1.00  0.00    -0.336 N 
ATOM     17  C   UNL     1       0.163   1.328  -7.637  1.00  0.00     0.271 C 
ATOM     18  H   UNL     1       1.354   0.944  -6.077  1.00  0.00     0.164 HD
ATOM     19  O   UNL     1       1.101   1.778  -8.289  1.00  0.00    -0.267 OA
BRANCH  17  20
ATOM     20  C   UNL     1      -1.187   1.319  -8.125  1.00  0.00     0.145 A 
ATOM     21  C   UNL     1      -1.660   0.825  -9.327  1.00  0.00     0.104 A 
ATOM     22  N   UNL     1      -2.268   1.942  -7.560  1.00  0.00    -0.261 N 
ATOM     23  Cl  UNL     1      -0.782   0.028 -10.543  1.00  0.00    -0.079 Cl
ATOM     24  C   UNL     1      -3.049   1.104  -9.353  1.00  0.00     0.185 A 
ATOM     25  N   UNL     1      -3.421   1.745  -8.225  1.00  0.00    -0.166 NA
ATOM     26  C   UNL     1      -2.296   2.800  -6.397  1.00  0.00     0.174 C 
BRANCH  24  27
ATOM     27  C   UNL     1      -4.005   0.767 -10.461  1.00  0.00     0.436 C 
ATOM     28  F   UNL     1      -3.713   1.444 -11.605  1.00  0.00    -0.164 F 
ATOM     29  F   UNL     1      -3.978  -0.557 -10.774  1.00  0.00    -0.164 F 
ATOM     30  F   UNL     1      -5.300   1.060 -10.161  1.00  0.00    -0.164 F 
ENDBRANCH  24  27
ENDBRANCH  17  20
ENDBRANCH  15  16
ENDBRANCH   4   6
ENDBRANCH   3   4
ENDBRANCH   2   3
ENDBRANCH   1   2
BRANCH   1  31
ATOM     31  O   UNL     1      -1.129  -4.582  -1.422  1.00  0.00    -0.374 OA
BRANCH  31  32
ATOM     32  C   UNL     1      -1.802  -3.347  -1.659  1.00  0.00     0.202 C 
BRANCH  32  33
ATOM     33  C   UNL     1      -2.880  -2.968  -0.638  1.00  0.00     0.261 C 
BRANCH  33  34
ATOM     34  O   UNL     1      -2.344  -2.763   0.681  1.00  0.00    -0.460 OA
BRANCH  34  35
ATOM     35  C   UNL     1      -2.650  -3.743   1.567  1.00  0.00     0.338 C 
ATOM     36  O   UNL     1      -3.368  -4.711   1.385  1.00  0.00    -0.246 OA
BRANCH  35  37
ATOM     37  C   UNL     1      -1.862  -3.574   2.802  1.00  0.00     0.060 A 
ATOM     38  C   UNL     1      -1.116  -4.671   3.248  1.00  0.00     0.016 A 
ATOM     39  C   UNL     1      -1.923  -2.401   3.558  1.00  0.00     0.016 A 
ATOM     40  C   UNL     1      -0.459  -4.617   4.476  1.00  0.00     0.010 A 
ATOM     41  C   UNL     1      -1.269  -2.351   4.795  1.00  0.00     0.010 A 
ATOM     42  C   UNL     1      -0.562  -3.470   5.273  1.00  0.00    -0.014 A 
BRANCH  42  43
ATOM     43  C   UNL     1      -0.043  -3.494   6.662  1.00  0.00     0.031 A 
ATOM     44  C   UNL     1      -1.000  -3.725   7.799  1.00  0.00     0.074 A 
ATOM     45  C   UNL     1       1.270  -3.337   6.907  1.00  0.00     0.049 A 
ATOM     46  N   UNL     1      -0.770  -3.752   9.087  1.00  0.00    -0.248 NA
ATOM     47  C   UNL     1      -2.406  -3.956   7.433  1.00  0.00     0.031 C 
ATOM     48  C   UNL     1       2.300  -3.143   5.889  1.00  0.00     0.029 A 
ATOM     49  N   UNL     1       1.958  -3.310   8.094  1.00  0.00    -0.354 N 
ATOM     50  C   UNL     1      -2.000  -3.997   9.685  1.00  0.00     0.074 A 
ATOM     51  C   UNL     1      -2.978  -4.080   8.622  1.00  0.00     0.031 C 
ATOM     52  C   UNL     1       3.491  -3.007   6.496  1.00  0.00     0.029 A 
ATOM     53  C   UNL     1       3.302  -3.074   7.944  1.00  0.00     0.049 A 
ATOM     54  H   UNL     1       1.529  -3.447   8.970  1.00  0.00     0.167 HD
ATOM     55  C   UNL     1      -2.284  -4.148  11.000  1.00  0.00     0.037 A 
ATOM     56  C   UNL     1       4.264  -2.910   8.873  1.00  0.00     0.037 A 
ATOM     57  C   UNL     1      -1.309  -4.071  12.056  1.00  0.00     0.049 A 
ATOM     58  C   UNL     1       3.910  -3.018  10.334  1.00  0.00     0.074 A 
ATOM     59  C   UNL     1      -1.496  -4.234  13.418  1.00  0.00     0.029 A 
ATOM     60  N   UNL     1       0.038  -3.800  11.868  1.00  0.00    -0.354 N 
ATOM     61  N   UNL     1       2.750  -3.275  10.889  1.00  0.00    -0.248 NA
ATOM     62  C   UNL     1       5.001  -2.814  11.297  1.00  0.00     0.031 C 
ATOM     63  C   UNL     1      -0.272  -4.014  14.057  1.00  0.00     0.029 A 
ATOM     64  C   UNL     1       0.689  -3.765  13.091  1.00  0.00     0.049 A 
ATOM     65  H   UNL     1       0.468  -3.655  10.994  1.00  0.00     0.167 HD
ATOM     66  C   UNL     1       2.977  -3.294  12.259  1.00  0.00     0.074 A 
ATOM     67  C   UNL     1       4.388  -3.033  12.452  1.00  0.00     0.031 C 
ATOM     68  C   UNL     1       2.096  -3.511  13.267  1.00  0.00     0.037 A 
BRANCH  55  69
ATOM     69  C   UNL     1      -3.717  -4.391  11.375  1.00  0.00     0.064 A 
ATOM     70  C   UNL     1      -4.351  -5.614  11.111  1.00  0.00     0.173 A 
ATOM     71  C   UNL     1      -4.453  -3.399  12.040  1.00  0.00     0.173 A 
ATOM     72  F   UNL     1      -3.695  -6.589  10.465  1.00  0.00    -0.203 F 
ATOM     73  C   UNL     1      -5.679  -5.825  11.476  1.00  0.00     0.198 A 
ATOM     74  C   UNL     1      -5.771  -3.624  12.429  1.00  0.00     0.198 A 
ATOM     75  F   UNL     1      -3.892  -2.213  12.320  1.00  0.00    -0.203 F 
ATOM     76  F   UNL     1      -6.279  -6.985  11.174  1.00  0.00    -0.200 F 
ATOM     77  C   UNL     1      -6.385  -4.834  12.141  1.00  0.00     0.200 A 
ATOM     78  F   UNL     1      -6.448  -2.669  13.081  1.00  0.00    -0.200 F 
ATOM     79  F   UNL     1      -7.660  -5.041  12.498  1.00  0.00    -0.200 F 
ENDBRANCH  55  69
BRANCH  56  80
ATOM     80  C   UNL     1       5.658  -2.615   8.451  1.00  0.00     0.064 A 
ATOM     81  C   UNL     1       6.684  -3.552   8.636  1.00  0.00     0.173 A 
ATOM     82  C   UNL     1       5.995  -1.384   7.870  1.00  0.00     0.173 A 
ATOM     83  F   UNL     1       6.415  -4.734   9.211  1.00  0.00    -0.203 F 
ATOM     84  C   UNL     1       7.997  -3.262   8.271  1.00  0.00     0.198 A 
ATOM     85  C   UNL     1       7.303  -1.106   7.481  1.00  0.00     0.198 A 
ATOM     86  F   UNL     1       5.050  -0.453   7.674  1.00  0.00    -0.203 F 
ATOM     87  F   UNL     1       8.966  -4.158   8.501  1.00  0.00    -0.200 F 
ATOM     88  C   UNL     1       8.305  -2.042   7.689  1.00  0.00     0.200 A 
ATOM     89  F   UNL     1       7.593   0.070   6.908  1.00  0.00    -0.200 F 
ATOM     90  F   UNL     1       9.567  -1.765   7.335  1.00  0.00    -0.200 F 
ENDBRANCH  56  80
BRANCH  68  91
ATOM     91  C   UNL     1       2.635  -3.510  14.668  1.00  0.00     0.064 A 
ATOM     92  C   UNL     1       3.037  -2.325  15.303  1.00  0.00     0.173 A 
ATOM     93  C   UNL     1       2.711  -4.705  15.400  1.00  0.00     0.173 A 
ATOM     94  F   UNL     1       2.997  -1.159  14.641  1.00  0.00    -0.203 F 
ATOM     95  C   UNL     1       3.516  -2.341  16.610  1.00  0.00     0.198 A 
ATOM     96  C   UNL     1       3.163  -4.713  16.716  1.00  0.00     0.198 A 
ATOM     97  F   UNL     1       2.333  -5.865  14.842  1.00  0.00    -0.203 F 
ATOM     98  F   UNL     1       3.936  -1.203  17.181  1.00  0.00    -0.200 F 
ATOM     99  C   UNL     1       3.572  -3.532  17.318  1.00  0.00     0.200 A 
ATOM    100  F   UNL     1       3.204  -5.863  17.403  1.00  0.00    -0.200 F 
ATOM    101  F   UNL     1       4.027  -3.543  18.578  1.00  0.00    -0.200 F 
ENDBRANCH  68  91
ENDBRANCH  42  43
ENDBRANCH  35  37
ENDBRANCH  34  35
ENDBRANCH  33  34
ENDBRANCH  32  33
ENDBRANCH  31  32
ENDBRANCH   1  31
TORSDOF 17
