REMARK SMILES O=C(OCCOCCOC(=O)[C@H]1C[NH2+]CCN1c1ncc(C(F)(F)F)cc1Cl)c1ccc(-c2c3nc(c(-c4c(F)c(F)c(F)c(F)c4F)c4ccc([nH]4)c(-c4c(F)c(F)c(F)c(F)c4F)c4nc(c(-c5c(F)c(F)c(F)c(F)c5F)c5ccc2[nH]5)C=C4)C=C3)cc1
REMARK SMILES IDX 6 1 5 2 4 3 3 4 2 5 1 6 29 7 30 8 91 9 31 10 90 11 32 12
REMARK SMILES IDX 33 13 34 14 84 15 35 16 89 17 83 18 85 19 36 20 88 21 82 22
REMARK SMILES IDX 81 23 37 25 69 26 49 27 68 28 50 29 53 30 67 31 86 32 51 33
REMARK SMILES IDX 52 34 66 36 87 37 54 38 38 39 39 40 47 41 40 42 41 43 45 44
REMARK SMILES IDX 48 45 42 46 43 47 46 48 44 49 70 50 71 51 79 52 72 53 73 54
REMARK SMILES IDX 77 55 80 56 74 57 75 58 78 59 76 60 55 61 56 62 64 63 57 64
REMARK SMILES IDX 58 65 62 66 65 67 59 68 60 69 63 70 61 71 7 72 8 73 9 74
REMARK SMILES IDX 10 75 11 76 12 77 13 78 17 79 14 80 16 81 15 82 18 85 19 86
REMARK SMILES IDX 27 87 20 88 26 89 28 90 21 91 22 92 23 93 24 94 25 95
REMARK H PARENT 85 24 53 35 14 83 14 84
REMARK Flexibility Score: inf
ROOT
ATOM      1  O   UNL     1       4.289  -3.235   1.145  1.00  0.00    -0.374 OA
ENDROOT
BRANCH   1   2
ATOM      2  C   UNL     1       3.159  -3.374   0.280  1.00  0.00     0.202 C 
BRANCH   2   3
ATOM      3  C   UNL     1       1.832  -3.462   1.037  1.00  0.00     0.261 C 
BRANCH   3   4
ATOM      4  O   UNL     1       1.736  -2.411   2.012  1.00  0.00    -0.460 OA
BRANCH   4   5
ATOM      5  C   UNL     1       2.094  -2.477   3.317  1.00  0.00     0.338 C 
ATOM      6  O   UNL     1       2.051  -1.454   3.998  1.00  0.00    -0.246 OA
BRANCH   5   7
ATOM      7  C   UNL     1       2.468  -3.751   4.001  1.00  0.00     0.060 A 
ATOM      8  C   UNL     1       3.210  -4.784   3.423  1.00  0.00     0.016 A 
ATOM      9  C   UNL     1       2.121  -3.869   5.357  1.00  0.00     0.016 A 
ATOM     10  C   UNL     1       3.561  -5.917   4.137  1.00  0.00     0.010 A 
ATOM     11  C   UNL     1       2.501  -4.992   6.098  1.00  0.00     0.010 A 
ATOM     12  C   UNL     1       3.218  -6.021   5.480  1.00  0.00    -0.014 A 
BRANCH  12  13
ATOM     13  C   UNL     1       3.567  -7.263   6.184  1.00  0.00     0.031 A 
ATOM     14  C   UNL     1       2.491  -8.270   6.424  1.00  0.00     0.074 A 
ATOM     15  C   UNL     1       4.853  -7.512   6.483  1.00  0.00     0.049 A 
ATOM     16  N   UNL     1       2.538  -9.388   7.093  1.00  0.00    -0.248 NA
ATOM     17  C   UNL     1       1.182  -7.981   5.814  1.00  0.00     0.031 C 
ATOM     18  C   UNL     1       5.978  -6.633   6.154  1.00  0.00     0.029 A 
ATOM     19  N   UNL     1       5.436  -8.583   7.102  1.00  0.00    -0.354 N 
ATOM     20  C   UNL     1       1.258  -9.917   7.021  1.00  0.00     0.074 A 
ATOM     21  C   UNL     1       0.458  -9.008   6.232  1.00  0.00     0.031 C 
ATOM     22  C   UNL     1       7.119  -7.212   6.560  1.00  0.00     0.029 A 
ATOM     23  C   UNL     1       6.796  -8.460   7.242  1.00  0.00     0.049 A 
ATOM     24  H   UNL     1       4.929  -9.366   7.417  1.00  0.00     0.167 HD
ATOM     25  C   UNL     1       0.802 -11.058   7.587  1.00  0.00     0.037 A 
ATOM     26  C   UNL     1       7.666  -9.256   7.889  1.00  0.00     0.037 A 
ATOM     27  C   UNL     1       1.633 -11.934   8.366  1.00  0.00     0.049 A 
ATOM     28  C   UNL     1       7.120 -10.478   8.575  1.00  0.00     0.074 A 
ATOM     29  C   UNL     1       1.283 -13.075   9.063  1.00  0.00     0.029 A 
ATOM     30  N   UNL     1       3.001 -11.756   8.541  1.00  0.00    -0.354 N 
ATOM     31  N   UNL     1       5.888 -10.932   8.595  1.00  0.00    -0.248 NA
ATOM     32  C   UNL     1       8.071 -11.285   9.348  1.00  0.00     0.031 C 
ATOM     33  C   UNL     1       2.435 -13.568   9.688  1.00  0.00     0.029 A 
ATOM     34  C   UNL     1       3.511 -12.760   9.344  1.00  0.00     0.049 A 
ATOM     35  H   UNL     1       3.529 -11.023   8.151  1.00  0.00     0.167 HD
ATOM     36  C   UNL     1       5.914 -12.079   9.372  1.00  0.00     0.074 A 
ATOM     37  C   UNL     1       7.292 -12.264   9.787  1.00  0.00     0.031 C 
ATOM     38  C   UNL     1       4.895 -12.903   9.723  1.00  0.00     0.037 A 
BRANCH  25  39
ATOM     39  C   UNL     1      -0.662 -11.345   7.446  1.00  0.00     0.064 A 
ATOM     40  C   UNL     1      -1.229 -11.746   6.227  1.00  0.00     0.173 A 
ATOM     41  C   UNL     1      -1.522 -11.155   8.539  1.00  0.00     0.173 A 
ATOM     42  F   UNL     1      -0.455 -11.908   5.144  1.00  0.00    -0.203 F 
ATOM     43  C   UNL     1      -2.607 -11.914   6.099  1.00  0.00     0.198 A 
ATOM     44  C   UNL     1      -2.896 -11.348   8.414  1.00  0.00     0.198 A 
ATOM     45  F   UNL     1      -1.033 -10.761   9.724  1.00  0.00    -0.203 F 
ATOM     46  F   UNL     1      -3.134 -12.232   4.909  1.00  0.00    -0.200 F 
ATOM     47  C   UNL     1      -3.438 -11.716   7.192  1.00  0.00     0.200 A 
ATOM     48  F   UNL     1      -3.697 -11.155   9.470  1.00  0.00    -0.200 F 
ATOM     49  F   UNL     1      -4.764 -11.861   7.063  1.00  0.00    -0.200 F 
ENDBRANCH  25  39
BRANCH  26  50
ATOM     50  C   UNL     1       9.106  -8.891   7.959  1.00  0.00     0.064 A 
ATOM     51  C   UNL     1      10.086  -9.676   7.338  1.00  0.00     0.173 A 
ATOM     52  C   UNL     1       9.533  -7.740   8.642  1.00  0.00     0.173 A 
ATOM     53  F   UNL     1       9.736 -10.797   6.692  1.00  0.00    -0.203 F 
ATOM     54  C   UNL     1      11.436  -9.329   7.404  1.00  0.00     0.198 A 
ATOM     55  C   UNL     1      10.878  -7.379   8.681  1.00  0.00     0.198 A 
ATOM     56  F   UNL     1       8.638  -6.954   9.258  1.00  0.00    -0.203 F 
ATOM     57  F   UNL     1      12.356 -10.119   6.833  1.00  0.00    -0.200 F 
ATOM     58  C   UNL     1      11.829  -8.177   8.068  1.00  0.00     0.200 A 
ATOM     59  F   UNL     1      11.250  -6.257   9.313  1.00  0.00    -0.200 F 
ATOM     60  F   UNL     1      13.125  -7.841   8.123  1.00  0.00    -0.200 F 
ENDBRANCH  26  50
BRANCH  38  61
ATOM     61  C   UNL     1       5.248 -14.084  10.572  1.00  0.00     0.064 A 
ATOM     62  C   UNL     1       5.525 -13.943  11.939  1.00  0.00     0.173 A 
ATOM     63  C   UNL     1       5.257 -15.373  10.021  1.00  0.00     0.173 A 
ATOM     64  F   UNL     1       5.543 -12.726  12.503  1.00  0.00    -0.203 F 
ATOM     65  C   UNL     1       5.815 -15.055  12.723  1.00  0.00     0.198 A 
ATOM     66  C   UNL     1       5.522 -16.484  10.813  1.00  0.00     0.198 A 
ATOM     67  F   UNL     1       4.992 -15.553   8.718  1.00  0.00    -0.203 F 
ATOM     68  F   UNL     1       6.113 -14.898  14.020  1.00  0.00    -0.200 F 
ATOM     69  C   UNL     1       5.806 -16.324  12.162  1.00  0.00     0.200 A 
ATOM     70  F   UNL     1       5.502 -17.710  10.273  1.00  0.00    -0.200 F 
ATOM     71  F   UNL     1       6.076 -17.395  12.921  1.00  0.00    -0.200 F 
ENDBRANCH  38  61
ENDBRANCH  12  13
ENDBRANCH   5   7
ENDBRANCH   4   5
ENDBRANCH   3   4
ENDBRANCH   2   3
ENDBRANCH   1   2
BRANCH   1  72
ATOM     72  C   UNL     1       4.750  -1.898   1.325  1.00  0.00     0.202 C 
BRANCH  72  73
ATOM     73  C   UNL     1       6.042  -1.696   0.538  1.00  0.00     0.261 C 
BRANCH  73  74
ATOM     74  O   UNL     1       5.785  -1.918  -0.862  1.00  0.00    -0.462 OA
BRANCH  74  75
ATOM     75  C   UNL     1       6.050  -3.182  -1.313  1.00  0.00     0.334 C 
ATOM     76  O   UNL     1       6.641  -4.046  -0.670  1.00  0.00    -0.250 OA
BRANCH  75  77
ATOM     77  C   UNL     1       5.514  -3.369  -2.744  1.00  0.00     0.249 C 
ATOM     78  C   UNL     1       6.687  -3.885  -3.616  1.00  0.00     0.298 C 
ATOM     79  N   UNL     1       4.392  -4.339  -2.806  1.00  0.00    -0.331 N 
ATOM     80  N   UNL     1       7.108  -5.281  -3.330  1.00  0.00    -0.343 N 
ATOM     81  C   UNL     1       4.741  -5.736  -2.503  1.00  0.00     0.180 C 
ATOM     82  C   UNL     1       5.931  -6.175  -3.391  1.00  0.00     0.282 C 
ATOM     83  H   UNL     1       7.521  -5.327  -2.398  1.00  0.00     0.346 HD
ATOM     84  H   UNL     1       7.796  -5.577  -4.022  1.00  0.00     0.346 HD
BRANCH  79  85
ATOM     85  C   UNL     1       3.093  -4.059  -3.158  1.00  0.00     0.148 A 
ATOM     86  N   UNL     1       2.141  -4.721  -2.442  1.00  0.00    -0.237 NA
ATOM     87  C   UNL     1       2.692  -3.192  -4.188  1.00  0.00     0.084 A 
ATOM     88  C   UNL     1       0.828  -4.528  -2.715  1.00  0.00     0.126 A 
ATOM     89  C   UNL     1       1.326  -3.002  -4.447  1.00  0.00     0.039 A 
ATOM     90  Cl  UNL     1       3.779  -2.413  -5.283  1.00  0.00    -0.080 Cl
ATOM     91  C   UNL     1       0.365  -3.683  -3.701  1.00  0.00     0.075 A 
BRANCH  91  92
ATOM     92  C   UNL     1      -1.105  -3.529  -3.929  1.00  0.00     0.417 C 
ATOM     93  F   UNL     1      -1.748  -4.726  -4.015  1.00  0.00    -0.166 F 
ATOM     94  F   UNL     1      -1.714  -2.849  -2.920  1.00  0.00    -0.166 F 
ATOM     95  F   UNL     1      -1.408  -2.858  -5.073  1.00  0.00    -0.166 F 
ENDBRANCH  91  92
ENDBRANCH  79  85
ENDBRANCH  75  77
ENDBRANCH  74  75
ENDBRANCH  73  74
ENDBRANCH  72  73
ENDBRANCH   1  72
TORSDOF 16
