REMARK SMILES C[C@H]1CCC[C@@H]([NH2+]Cc2ccc(C(=O)OCCOCCOC(=O)c3ccc(-c4c5nc(c(-c6c(F)c(F)c(F)c(F)c6F)c6ccc([nH]6)c(-c6c(F)c(F)c(F)c(F)c6F)c6nc(c(-c7c(F)c(F)c(F)c(F)c7F)c7ccc4[nH]7)C=C6)C=C5)cc3)cn2)C1
REMARK SMILES IDX 17 1 16 2 15 3 13 4 14 5 12 6 9 7 10 8 88 9 11 10 87 11 8 12
REMARK SMILES IDX 7 13 6 16 1 17 2 18 3 19 89 20 4 21 5 22 18 23 19 24 20 25
REMARK SMILES IDX 21 26 22 27 23 28 24 29 25 30 86 31 26 32 85 33 27 34 28 35
REMARK SMILES IDX 29 36 79 37 30 38 84 39 78 40 80 41 31 42 83 43 77 44 76 45
REMARK SMILES IDX 32 47 64 48 44 49 63 50 45 51 48 52 62 53 81 54 46 55 47 56
REMARK SMILES IDX 61 58 82 59 49 60 33 61 34 62 42 63 35 64 36 65 40 66 43 67
REMARK SMILES IDX 37 68 38 69 41 70 39 71 65 72 66 73 74 74 67 75 68 76 72 77
REMARK SMILES IDX 75 78 69 79 70 80 73 81 71 82 50 83 51 84 59 85 52 86 53 87
REMARK SMILES IDX 57 88 60 89 54 90 55 91 58 92 56 93
REMARK H PARENT 7 14 7 15 80 46 48 57
REMARK Flexibility Score: inf
ROOT
ATOM      1  C   UNL     1      -6.629  -9.625  -2.856  1.00  0.00     0.202 C 
ENDROOT
BRANCH   1   2
ATOM      2  C   UNL     1      -5.700  -8.892  -3.828  1.00  0.00     0.261 C 
BRANCH   2   3
ATOM      3  O   UNL     1      -4.917  -7.899  -3.148  1.00  0.00    -0.460 OA
BRANCH   3   4
ATOM      4  C   UNL     1      -5.255  -6.617  -3.428  1.00  0.00     0.339 C 
ATOM      5  O   UNL     1      -6.039  -6.240  -4.288  1.00  0.00    -0.246 OA
BRANCH   4   6
ATOM      6  C   UNL     1      -4.658  -5.704  -2.441  1.00  0.00     0.078 A 
ATOM      7  C   UNL     1      -3.692  -3.809  -0.695  1.00  0.00     0.094 A 
ATOM      8  C   UNL     1      -3.006  -5.020  -0.838  1.00  0.00     0.031 A 
ATOM      9  N   UNL     1      -4.868  -3.568  -1.327  1.00  0.00    -0.254 NA
ATOM     10  C   UNL     1      -3.493  -5.978  -1.727  1.00  0.00     0.019 A 
ATOM     11  C   UNL     1      -5.316  -4.510  -2.188  1.00  0.00     0.127 A 
BRANCH   7  12
ATOM     12  C   UNL     1      -3.105  -2.667   0.122  1.00  0.00     0.318 C 
BRANCH  12  13
ATOM     13  N   UNL     1      -1.731  -2.369  -0.298  1.00  0.00    -0.339 N 
ATOM     14  H   UNL     1      -1.140  -3.156  -0.028  1.00  0.00     0.346 HD
ATOM     15  H   UNL     1      -1.769  -2.216  -1.305  1.00  0.00     0.346 HD
BRANCH  13  16
ATOM     16  C   UNL     1      -1.154  -1.152   0.277  1.00  0.00     0.182 C 
ATOM     17  C   UNL     1       2.532   0.059  -0.087  1.00  0.00     0.008 C 
ATOM     18  C   UNL     1       1.074   0.098   0.369  1.00  0.00    -0.008 C 
ATOM     19  C   UNL     1       0.377   1.360  -0.148  1.00  0.00     0.004 C 
ATOM     20  C   UNL     1       0.338  -1.161  -0.104  1.00  0.00     0.068 C 
ATOM     21  C   UNL     1      -1.099   1.381   0.234  1.00  0.00     0.006 C 
ATOM     22  C   UNL     1      -1.827   0.127  -0.245  1.00  0.00     0.065 C 
ENDBRANCH  13  16
ENDBRANCH  12  13
ENDBRANCH   7  12
ENDBRANCH   4   6
ENDBRANCH   3   4
ENDBRANCH   2   3
ENDBRANCH   1   2
BRANCH   1  23
ATOM     23  O   UNL     1      -7.628  -8.841  -2.208  1.00  0.00    -0.374 OA
BRANCH  23  24
ATOM     24  C   UNL     1      -7.231  -8.065  -1.077  1.00  0.00     0.202 C 
BRANCH  24  25
ATOM     25  C   UNL     1      -7.043  -8.813   0.248  1.00  0.00     0.261 C 
BRANCH  25  26
ATOM     26  O   UNL     1      -5.939  -9.735   0.202  1.00  0.00    -0.460 OA
BRANCH  26  27
ATOM     27  C   UNL     1      -6.292 -11.041   0.191  1.00  0.00     0.338 C 
ATOM     28  O   UNL     1      -7.417 -11.509   0.290  1.00  0.00    -0.246 OA
BRANCH  27  29
ATOM     29  C   UNL     1      -5.124 -11.874  -0.143  1.00  0.00     0.060 A 
ATOM     30  C   UNL     1      -5.248 -12.764  -1.217  1.00  0.00     0.016 A 
ATOM     31  C   UNL     1      -3.959 -11.845   0.626  1.00  0.00     0.016 A 
ATOM     32  C   UNL     1      -4.226 -13.668  -1.497  1.00  0.00     0.010 A 
ATOM     33  C   UNL     1      -2.937 -12.758   0.349  1.00  0.00     0.010 A 
ATOM     34  C   UNL     1      -3.081 -13.697  -0.690  1.00  0.00    -0.014 A 
BRANCH  34  35
ATOM     35  C   UNL     1      -2.108 -14.806  -0.838  1.00  0.00     0.031 A 
ATOM     36  C   UNL     1      -2.152 -15.949   0.137  1.00  0.00     0.074 A 
ATOM     37  C   UNL     1      -1.212 -14.806  -1.841  1.00  0.00     0.049 A 
ATOM     38  N   UNL     1      -1.370 -16.994   0.231  1.00  0.00    -0.248 NA
ATOM     39  C   UNL     1      -3.222 -15.905   1.147  1.00  0.00     0.031 C 
ATOM     40  C   UNL     1      -1.100 -13.777  -2.872  1.00  0.00     0.029 A 
ATOM     41  N   UNL     1      -0.221 -15.704  -2.149  1.00  0.00    -0.354 N 
ATOM     42  C   UNL     1      -1.846 -17.726   1.312  1.00  0.00     0.074 A 
ATOM     43  C   UNL     1      -2.964 -16.990   1.862  1.00  0.00     0.031 C 
ATOM     44  C   UNL     1      -0.086 -14.095  -3.695  1.00  0.00     0.029 A 
ATOM     45  C   UNL     1       0.542 -15.330  -3.227  1.00  0.00     0.049 A 
ATOM     46  H   UNL     1      -0.071 -16.536  -1.645  1.00  0.00     0.167 HD
ATOM     47  C   UNL     1      -1.397 -18.909   1.794  1.00  0.00     0.037 A 
ATOM     48  C   UNL     1       1.637 -15.907  -3.758  1.00  0.00     0.037 A 
ATOM     49  C   UNL     1      -0.287 -19.640   1.240  1.00  0.00     0.049 A 
ATOM     50  C   UNL     1       2.162 -17.186  -3.157  1.00  0.00     0.074 A 
ATOM     51  C   UNL     1       0.232 -20.858   1.643  1.00  0.00     0.029 A 
ATOM     52  N   UNL     1       0.480 -19.214   0.166  1.00  0.00    -0.354 N 
ATOM     53  N   UNL     1       1.693 -17.884  -2.151  1.00  0.00    -0.248 NA
ATOM     54  C   UNL     1       3.369 -17.759  -3.770  1.00  0.00     0.031 C 
ATOM     55  C   UNL     1       1.348 -21.142   0.850  1.00  0.00     0.029 A 
ATOM     56  C   UNL     1       1.488 -20.131  -0.088  1.00  0.00     0.049 A 
ATOM     57  H   UNL     1       0.332 -18.383  -0.341  1.00  0.00     0.167 HD
ATOM     58  C   UNL     1       2.525 -18.990  -2.031  1.00  0.00     0.074 A 
ATOM     59  C   UNL     1       3.522 -18.877  -3.075  1.00  0.00     0.031 C 
ATOM     60  C   UNL     1       2.468 -20.009  -1.137  1.00  0.00     0.037 A 
BRANCH  47  61
ATOM     61  C   UNL     1      -2.089 -19.474   3.001  1.00  0.00     0.064 A 
ATOM     62  C   UNL     1      -3.393 -19.989   2.933  1.00  0.00     0.173 A 
ATOM     63  C   UNL     1      -1.426 -19.532   4.236  1.00  0.00     0.173 A 
ATOM     64  F   UNL     1      -4.077 -19.945   1.779  1.00  0.00    -0.203 F 
ATOM     65  C   UNL     1      -4.016 -20.515   4.062  1.00  0.00     0.198 A 
ATOM     66  C   UNL     1      -2.040 -20.087   5.355  1.00  0.00     0.198 A 
ATOM     67  F   UNL     1      -0.177 -19.058   4.356  1.00  0.00    -0.203 F 
ATOM     68  F   UNL     1      -5.279 -20.956   3.985  1.00  0.00    -0.200 F 
ATOM     69  C   UNL     1      -3.336 -20.570   5.270  1.00  0.00     0.200 A 
ATOM     70  F   UNL     1      -1.377 -20.151   6.518  1.00  0.00    -0.200 F 
ATOM     71  F   UNL     1      -3.934 -21.083   6.354  1.00  0.00    -0.200 F 
ENDBRANCH  47  61
BRANCH  48  72
ATOM     72  C   UNL     1       2.322 -15.276  -4.916  1.00  0.00     0.064 A 
ATOM     73  C   UNL     1       2.329 -15.889  -6.176  1.00  0.00     0.173 A 
ATOM     74  C   UNL     1       3.002 -14.056  -4.781  1.00  0.00     0.173 A 
ATOM     75  F   UNL     1       1.715 -17.069  -6.349  1.00  0.00    -0.203 F 
ATOM     76  C   UNL     1       3.004 -15.316  -7.252  1.00  0.00     0.198 A 
ATOM     77  C   UNL     1       3.651 -13.469  -5.865  1.00  0.00     0.198 A 
ATOM     78  F   UNL     1       3.028 -13.428  -3.596  1.00  0.00    -0.203 F 
ATOM     79  F   UNL     1       3.036 -15.949  -8.433  1.00  0.00    -0.200 F 
ATOM     80  C   UNL     1       3.660 -14.104  -7.098  1.00  0.00     0.200 A 
ATOM     81  F   UNL     1       4.272 -12.291  -5.714  1.00  0.00    -0.200 F 
ATOM     82  F   UNL     1       4.307 -13.553  -8.133  1.00  0.00    -0.200 F 
ENDBRANCH  48  72
BRANCH  60  83
ATOM     83  C   UNL     1       3.486 -21.106  -1.273  1.00  0.00     0.064 A 
ATOM     84  C   UNL     1       4.837 -20.904  -0.952  1.00  0.00     0.173 A 
ATOM     85  C   UNL     1       3.095 -22.388  -1.688  1.00  0.00     0.173 A 
ATOM     86  F   UNL     1       5.265 -19.694  -0.563  1.00  0.00    -0.203 F 
ATOM     87  C   UNL     1       5.762 -21.939  -1.069  1.00  0.00     0.198 A 
ATOM     88  C   UNL     1       4.017 -23.428  -1.772  1.00  0.00     0.198 A 
ATOM     89  F   UNL     1       1.814 -22.637  -1.999  1.00  0.00    -0.203 F 
ATOM     90  F   UNL     1       7.056 -21.710  -0.806  1.00  0.00    -0.200 F 
ATOM     91  C   UNL     1       5.351 -23.201  -1.471  1.00  0.00     0.200 A 
ATOM     92  F   UNL     1       3.614 -24.651  -2.146  1.00  0.00    -0.200 F 
ATOM     93  F   UNL     1       6.242 -24.197  -1.575  1.00  0.00    -0.200 F 
ENDBRANCH  60  83
ENDBRANCH  34  35
ENDBRANCH  27  29
ENDBRANCH  26  27
ENDBRANCH  25  26
ENDBRANCH  24  25
ENDBRANCH  23  24
ENDBRANCH   1  23
TORSDOF 17
