REMARK SMILES CN1C(=O)C[C@@H](C(=O)OCCOCCOC(=O)c2ccc(-c3c4nc(c(-c5c(F)c(F)c(F)c(F)c5F)c5ccc([nH]5)c(-c5c(F)c(F)c(F)c(F)c5F)c5nc(c(-c6c(F)c(F)c(F)c(F)c6F)c6ccc3[nH]6)C=C5)C=C4)cc2)C12CC[NH+](CCSc1ccccc1)CC2
REMARK SMILES IDX 11 1 10 2 9 3 7 4 8 5 6 6 1 7 2 8 3 9 81 10 4 11 5 12 82 13
REMARK SMILES IDX 95 14 83 15 94 16 84 17 85 19 86 20 87 21 88 22 89 23 93 24
REMARK SMILES IDX 90 25 92 26 91 27 12 28 13 29 14 30 15 31 16 32 17 33 18 34
REMARK SMILES IDX 19 35 80 36 20 37 79 38 21 39 22 40 23 41 73 42 24 43 78 44
REMARK SMILES IDX 72 45 74 46 25 47 77 48 71 49 70 50 26 52 58 53 38 54 57 55
REMARK SMILES IDX 39 56 42 57 56 58 75 59 40 60 41 61 55 63 76 64 43 65 27 66
REMARK SMILES IDX 28 67 36 68 29 69 30 70 34 71 37 72 31 73 32 74 35 75 33 76
REMARK SMILES IDX 59 77 60 78 68 79 61 80 62 81 66 82 69 83 63 84 64 85 67 86
REMARK SMILES IDX 65 87 44 88 45 89 53 90 46 91 47 92 51 93 54 94 48 95 49 96
REMARK SMILES IDX 52 97 50 98
REMARK H PARENT 84 18 74 51 42 62
REMARK Flexibility Score: inf
ROOT
ATOM      1  C   UNL     1      -5.370  -0.874   3.111  1.00  0.00     0.202 C 
ENDROOT
BRANCH   1   2
ATOM      2  C   UNL     1      -3.908  -1.034   3.560  1.00  0.00     0.261 C 
BRANCH   2   3
ATOM      3  O   UNL     1      -2.912  -0.899   2.515  1.00  0.00    -0.463 OA
BRANCH   3   4
ATOM      4  C   UNL     1      -2.300  -2.060   2.213  1.00  0.00     0.311 C 
ATOM      5  O   UNL     1      -2.603  -3.138   2.729  1.00  0.00    -0.252 OA
BRANCH   4   6
ATOM      6  C   UNL     1      -1.250  -2.060   1.130  1.00  0.00     0.134 C 
ATOM      7  C   UNL     1       1.420   0.575   0.719  1.00  0.00     0.147 C 
ATOM      8  N   UNL     1       0.582  -0.581   0.987  1.00  0.00    -0.339 N 
ATOM      9  C   UNL     1       0.987  -1.581   1.855  1.00  0.00     0.223 C 
ATOM     10  C   UNL     1      -0.639  -0.924   0.241  1.00  0.00     0.067 C 
ATOM     11  O   UNL     1       1.999  -1.590   2.536  1.00  0.00    -0.275 OA
ATOM     12  C   UNL     1       0.001  -2.707   1.774  1.00  0.00     0.118 C 
ATOM     13  C   UNL     1      -1.440   0.332  -0.232  1.00  0.00     0.091 C 
ATOM     14  C   UNL     1      -0.254  -1.668  -1.043  1.00  0.00     0.091 C 
ATOM     15  C   UNL     1      -1.797   0.509  -1.773  1.00  0.00     0.264 C 
ATOM     16  C   UNL     1      -1.525  -1.823  -1.873  1.00  0.00     0.264 C 
ATOM     17  N   UNL     1      -1.673  -0.649  -2.668  1.00  0.00    -0.334 N 
ATOM     18  H   UNL     1      -2.542  -0.628  -3.201  1.00  0.00     0.348 HD
BRANCH  17  19
ATOM     19  C   UNL     1      -0.692  -0.620  -3.792  1.00  0.00     0.273 C 
BRANCH  19  20
ATOM     20  C   UNL     1       0.364  -1.802  -4.055  1.00  0.00     0.136 C 
BRANCH  20  21
ATOM     21  S   UNL     1      -0.213  -3.518  -4.581  1.00  0.00    -0.120 SA
BRANCH  21  22
ATOM     22  C   UNL     1       0.100  -4.655  -3.193  1.00  0.00     0.007 A 
ATOM     23  C   UNL     1      -0.906  -4.948  -2.252  1.00  0.00     0.015 A 
ATOM     24  C   UNL     1       1.240  -5.469  -3.164  1.00  0.00     0.015 A 
ATOM     25  C   UNL     1      -0.739  -5.898  -1.238  1.00  0.00     0.001 A 
ATOM     26  C   UNL     1       1.375  -6.490  -2.201  1.00  0.00     0.001 A 
ATOM     27  C   UNL     1       0.399  -6.687  -1.224  1.00  0.00     0.000 A 
ENDBRANCH  21  22
ENDBRANCH  20  21
ENDBRANCH  19  20
ENDBRANCH  17  19
ENDBRANCH   4   6
ENDBRANCH   3   4
ENDBRANCH   2   3
ENDBRANCH   1   2
BRANCH   1  28
ATOM     28  O   UNL     1      -5.885  -1.779   2.139  1.00  0.00    -0.374 OA
BRANCH  28  29
ATOM     29  C   UNL     1      -5.335  -1.753   0.823  1.00  0.00     0.202 C 
BRANCH  29  30
ATOM     30  C   UNL     1      -5.317  -0.402   0.095  1.00  0.00     0.261 C 
BRANCH  30  31
ATOM     31  O   UNL     1      -4.531   0.560   0.820  1.00  0.00    -0.460 OA
BRANCH  31  32
ATOM     32  C   UNL     1      -4.955   1.841   0.781  1.00  0.00     0.338 C 
ATOM     33  O   UNL     1      -5.833   2.308   0.084  1.00  0.00    -0.246 OA
BRANCH  32  34
ATOM     34  C   UNL     1      -4.281   2.600   1.857  1.00  0.00     0.060 A 
ATOM     35  C   UNL     1      -4.999   2.848   3.030  1.00  0.00     0.016 A 
ATOM     36  C   UNL     1      -3.016   3.164   1.672  1.00  0.00     0.016 A 
ATOM     37  C   UNL     1      -4.479   3.708   3.996  1.00  0.00     0.010 A 
ATOM     38  C   UNL     1      -2.490   4.022   2.650  1.00  0.00     0.010 A 
ATOM     39  C   UNL     1      -3.245   4.343   3.792  1.00  0.00    -0.014 A 
BRANCH  39  40
ATOM     40  C   UNL     1      -2.888   5.479   4.685  1.00  0.00     0.031 A 
ATOM     41  C   UNL     1      -3.148   6.887   4.211  1.00  0.00     0.074 A 
ATOM     42  C   UNL     1      -2.480   5.264   5.950  1.00  0.00     0.049 A 
ATOM     43  N   UNL     1      -3.093   8.013   4.878  1.00  0.00    -0.248 NA
ATOM     44  C   UNL     1      -3.531   7.048   2.799  1.00  0.00     0.031 C 
ATOM     45  C   UNL     1      -2.205   3.955   6.538  1.00  0.00     0.029 A 
ATOM     46  N   UNL     1      -2.252   6.149   6.978  1.00  0.00    -0.354 N 
ATOM     47  C   UNL     1      -3.464   9.004   3.978  1.00  0.00     0.074 A 
ATOM     48  C   UNL     1      -3.680   8.360   2.701  1.00  0.00     0.031 C 
ATOM     49  C   UNL     1      -1.867   4.119   7.830  1.00  0.00     0.029 A 
ATOM     50  C   UNL     1      -1.894   5.543   8.158  1.00  0.00     0.049 A 
ATOM     51  H   UNL     1      -2.339   7.124   6.877  1.00  0.00     0.167 HD
ATOM     52  C   UNL     1      -3.642  10.328   4.198  1.00  0.00     0.037 A 
ATOM     53  C   UNL     1      -1.628   6.079   9.367  1.00  0.00     0.037 A 
ATOM     54  C   UNL     1      -3.423  10.980   5.461  1.00  0.00     0.049 A 
ATOM     55  C   UNL     1      -1.772   7.568   9.566  1.00  0.00     0.074 A 
ATOM     56  C   UNL     1      -3.565  12.320   5.778  1.00  0.00     0.029 A 
ATOM     57  N   UNL     1      -3.013  10.337   6.618  1.00  0.00    -0.354 N 
ATOM     58  N   UNL     1      -2.174   8.485   8.720  1.00  0.00    -0.248 NA
ATOM     59  C   UNL     1      -1.440   8.094  10.900  1.00  0.00     0.031 C 
ATOM     60  C   UNL     1      -3.203  12.495   7.117  1.00  0.00     0.029 A 
ATOM     61  C   UNL     1      -2.880  11.256   7.646  1.00  0.00     0.049 A 
ATOM     62  H   UNL     1      -2.841   9.371   6.697  1.00  0.00     0.167 HD
ATOM     63  C   UNL     1      -2.169   9.684   9.423  1.00  0.00     0.074 A 
ATOM     64  C   UNL     1      -1.750   9.376  10.773  1.00  0.00     0.031 C 
ATOM     65  C   UNL     1      -2.476  10.931   8.989  1.00  0.00     0.037 A 
BRANCH  52  66
ATOM     66  C   UNL     1      -4.110  11.167   3.046  1.00  0.00     0.064 A 
ATOM     67  C   UNL     1      -5.432  11.092   2.581  1.00  0.00     0.173 A 
ATOM     68  C   UNL     1      -3.251  12.094   2.438  1.00  0.00     0.173 A 
ATOM     69  F   UNL     1      -6.288  10.210   3.120  1.00  0.00    -0.203 F 
ATOM     70  C   UNL     1      -5.873  11.904   1.540  1.00  0.00     0.198 A 
ATOM     71  C   UNL     1      -3.702  12.923   1.414  1.00  0.00     0.198 A 
ATOM     72  F   UNL     1      -1.979  12.207   2.848  1.00  0.00    -0.203 F 
ATOM     73  F   UNL     1      -7.130  11.792   1.090  1.00  0.00    -0.200 F 
ATOM     74  C   UNL     1      -5.010  12.825   0.963  1.00  0.00     0.200 A 
ATOM     75  F   UNL     1      -2.872  13.820   0.865  1.00  0.00    -0.200 F 
ATOM     76  F   UNL     1      -5.439  13.616  -0.030  1.00  0.00    -0.200 F 
ENDBRANCH  52  66
BRANCH  53  77
ATOM     77  C   UNL     1      -1.200   5.212  10.499  1.00  0.00     0.064 A 
ATOM     78  C   UNL     1      -1.996   5.057  11.643  1.00  0.00     0.173 A 
ATOM     79  C   UNL     1       0.049   4.575  10.486  1.00  0.00     0.173 A 
ATOM     80  F   UNL     1      -3.188   5.668  11.717  1.00  0.00    -0.203 F 
ATOM     81  C   UNL     1      -1.544   4.330  12.743  1.00  0.00     0.198 A 
ATOM     82  C   UNL     1       0.486   3.821  11.573  1.00  0.00     0.198 A 
ATOM     83  F   UNL     1       0.853   4.693   9.419  1.00  0.00    -0.203 F 
ATOM     84  F   UNL     1      -2.296   4.257  13.850  1.00  0.00    -0.200 F 
ATOM     85  C   UNL     1      -0.305   3.710  12.707  1.00  0.00     0.200 A 
ATOM     86  F   UNL     1       1.682   3.217  11.530  1.00  0.00    -0.200 F 
ATOM     87  F   UNL     1       0.134   3.021  13.768  1.00  0.00    -0.200 F 
ENDBRANCH  53  77
BRANCH  65  88
ATOM     88  C   UNL     1      -2.400  12.050   9.988  1.00  0.00     0.064 A 
ATOM     89  C   UNL     1      -1.170  12.520  10.472  1.00  0.00     0.173 A 
ATOM     90  C   UNL     1      -3.569  12.682  10.440  1.00  0.00     0.173 A 
ATOM     91  F   UNL     1      -0.025  11.941  10.080  1.00  0.00    -0.203 F 
ATOM     92  C   UNL     1      -1.115  13.561  11.394  1.00  0.00     0.198 A 
ATOM     93  C   UNL     1      -3.508  13.743  11.339  1.00  0.00     0.198 A 
ATOM     94  F   UNL     1      -4.770  12.278  10.001  1.00  0.00    -0.203 F 
ATOM     95  F   UNL     1       0.069  13.959  11.882  1.00  0.00    -0.200 F 
ATOM     96  C   UNL     1      -2.282  14.176  11.822  1.00  0.00     0.200 A 
ATOM     97  F   UNL     1      -4.636  14.346  11.740  1.00  0.00    -0.200 F 
ATOM     98  F   UNL     1      -2.226  15.181  12.707  1.00  0.00    -0.200 F 
ENDBRANCH  65  88
ENDBRANCH  39  40
ENDBRANCH  32  34
ENDBRANCH  31  32
ENDBRANCH  30  31
ENDBRANCH  29  30
ENDBRANCH  28  29
ENDBRANCH   1  28
TORSDOF 18
