REMARK SMILES CC[C@H]1CC[C@](O)([C@H](F)C(=O)OCCOCCOC(=O)c2ccc(-c3c4nc(c(-c5c(F)c(F)c(F)c(F)c5F)c5ccc([nH]5)c(-c5c(F)c(F)c(F)c(F)c5F)c5nc(c(-c6c(F)c(F)c(F)c(F)c6F)c6ccc3[nH]6)C=C5)C=C4)cc2)CC1
REMARK SMILES IDX 15 1 14 2 13 3 12 4 10 5 11 6 8 7 9 8 6 9 3 10 4 11 85 12
REMARK SMILES IDX 5 13 84 14 2 15 1 16 7 17 16 19 17 20 18 21 19 22 20 23
REMARK SMILES IDX 21 24 22 25 83 26 23 27 82 28 24 29 25 30 26 31 76 32 27 33
REMARK SMILES IDX 81 34 75 35 77 36 28 37 80 38 74 39 73 40 29 42 61 43 41 44
REMARK SMILES IDX 60 45 42 46 45 47 59 48 78 49 43 50 44 51 58 53 79 54 46 55
REMARK SMILES IDX 30 56 31 57 39 58 32 59 33 60 37 61 40 62 34 63 35 64 38 65
REMARK SMILES IDX 36 66 62 67 63 68 71 69 64 70 65 71 69 72 72 73 66 74 67 75
REMARK SMILES IDX 70 76 68 77 47 78 48 79 56 80 49 81 50 82 54 83 57 84 51 85
REMARK SMILES IDX 52 86 55 87 53 88
REMARK H PARENT 7 18 77 41 45 52
REMARK Flexibility Score: inf
ROOT
ATOM      1  O   UNL     1       4.674   1.339   7.450  1.00  0.00    -0.374 OA
ENDROOT
BRANCH   1   2
ATOM      2  C   UNL     1       4.699   2.714   7.059  1.00  0.00     0.202 C 
BRANCH   2   3
ATOM      3  C   UNL     1       5.538   2.989   5.810  1.00  0.00     0.261 C 
BRANCH   3   4
ATOM      4  O   UNL     1       4.829   2.489   4.666  1.00  0.00    -0.461 OA
BRANCH   4   5
ATOM      5  C   UNL     1       5.540   1.797   3.734  1.00  0.00     0.343 C 
ATOM      6  O   UNL     1       6.753   1.635   3.762  1.00  0.00    -0.249 OA
BRANCH   5   7
ATOM      7  C   UNL     1       4.610   1.206   2.679  1.00  0.00     0.307 C 
ATOM      8  F   UNL     1       3.564   0.530   3.245  1.00  0.00    -0.232 F 
BRANCH   7   9
ATOM      9  C   UNL     1       4.079   2.262   1.677  1.00  0.00     0.107 C 
ATOM     10  C   UNL     1       1.056   2.437   1.460  1.00  0.00    -0.011 C 
ATOM     11  C   UNL     1       1.823   2.903   2.703  1.00  0.00     0.006 C 
ATOM     12  C   UNL     1       1.821   1.258   0.831  1.00  0.00     0.006 C 
ATOM     13  C   UNL     1       3.223   3.373   2.321  1.00  0.00     0.039 C 
ATOM     14  C   UNL     1       3.292   1.573   0.530  1.00  0.00     0.039 C 
BRANCH  10  15
ATOM     15  C   UNL     1       0.808   3.562   0.425  1.00  0.00    -0.000 C 
ATOM     16  C   UNL     1       0.245   4.849   1.016  1.00  0.00     0.004 C 
ENDBRANCH  10  15
BRANCH   9  17
ATOM     17  O   UNL     1       5.224   2.890   1.070  1.00  0.00    -0.386 OA
ATOM     18  H   UNL     1       4.927   3.559   0.434  1.00  0.00     0.211 HD
ENDBRANCH   9  17
ENDBRANCH   7   9
ENDBRANCH   5   7
ENDBRANCH   4   5
ENDBRANCH   3   4
ENDBRANCH   2   3
ENDBRANCH   1   2
BRANCH   1  19
ATOM     19  C   UNL     1       3.817   0.478   6.699  1.00  0.00     0.202 C 
BRANCH  19  20
ATOM     20  C   UNL     1       2.372   0.407   7.203  1.00  0.00     0.261 C 
BRANCH  20  21
ATOM     21  O   UNL     1       1.690   1.669   7.090  1.00  0.00    -0.460 OA
BRANCH  21  22
ATOM     22  C   UNL     1       1.558   2.343   8.255  1.00  0.00     0.338 C 
ATOM     23  O   UNL     1       1.913   1.982   9.369  1.00  0.00    -0.246 OA
BRANCH  22  24
ATOM     24  C   UNL     1       1.010   3.689   8.012  1.00  0.00     0.060 A 
ATOM     25  C   UNL     1       1.672   4.772   8.602  1.00  0.00     0.016 A 
ATOM     26  C   UNL     1      -0.188   3.881   7.319  1.00  0.00     0.016 A 
ATOM     27  C   UNL     1       1.109   6.045   8.551  1.00  0.00     0.010 A 
ATOM     28  C   UNL     1      -0.755   5.159   7.273  1.00  0.00     0.010 A 
ATOM     29  C   UNL     1      -0.129   6.238   7.922  1.00  0.00    -0.014 A 
BRANCH  29  30
ATOM     30  C   UNL     1      -0.824   7.540   8.067  1.00  0.00     0.031 A 
ATOM     31  C   UNL     1      -1.904   7.685   9.102  1.00  0.00     0.074 A 
ATOM     32  C   UNL     1      -0.477   8.590   7.304  1.00  0.00     0.049 A 
ATOM     33  N   UNL     1      -2.642   8.726   9.394  1.00  0.00    -0.248 NA
ATOM     34  C   UNL     1      -2.193   6.495   9.917  1.00  0.00     0.031 C 
ATOM     35  C   UNL     1       0.569   8.580   6.285  1.00  0.00     0.029 A 
ATOM     36  N   UNL     1      -0.977   9.867   7.266  1.00  0.00    -0.354 N 
ATOM     37  C   UNL     1      -3.485   8.316  10.419  1.00  0.00     0.074 A 
ATOM     38  C   UNL     1      -3.188   6.924  10.679  1.00  0.00     0.031 C 
ATOM     39  C   UNL     1       0.627   9.794   5.711  1.00  0.00     0.029 A 
ATOM     40  C   UNL     1      -0.394  10.655   6.306  1.00  0.00     0.049 A 
ATOM     41  H   UNL     1      -1.685  10.188   7.870  1.00  0.00     0.167 HD
ATOM     42  C   UNL     1      -4.415   9.039  11.088  1.00  0.00     0.037 A 
ATOM     43  C   UNL     1      -0.668  11.921   5.937  1.00  0.00     0.037 A 
ATOM     44  C   UNL     1      -4.706  10.425  10.832  1.00  0.00     0.049 A 
ATOM     45  C   UNL     1      -1.740  12.690   6.662  1.00  0.00     0.074 A 
ATOM     46  C   UNL     1      -5.600  11.255  11.485  1.00  0.00     0.029 A 
ATOM     47  N   UNL     1      -4.113  11.183   9.834  1.00  0.00    -0.354 N 
ATOM     48  N   UNL     1      -2.502  12.309   7.658  1.00  0.00    -0.248 NA
ATOM     49  C   UNL     1      -1.985  14.069   6.214  1.00  0.00     0.031 C 
ATOM     50  C   UNL     1      -5.585  12.502  10.849  1.00  0.00     0.029 A 
ATOM     51  C   UNL     1      -4.645  12.463   9.831  1.00  0.00     0.049 A 
ATOM     52  H   UNL     1      -3.417  10.860   9.217  1.00  0.00     0.167 HD
ATOM     53  C   UNL     1      -3.301  13.401   7.969  1.00  0.00     0.074 A 
ATOM     54  C   UNL     1      -2.922  14.467   7.064  1.00  0.00     0.031 C 
ATOM     55  C   UNL     1      -4.261  13.512   8.921  1.00  0.00     0.037 A 
BRANCH  42  56
ATOM     56  C   UNL     1      -5.209   8.329  12.146  1.00  0.00     0.064 A 
ATOM     57  C   UNL     1      -4.638   7.951  13.370  1.00  0.00     0.173 A 
ATOM     58  C   UNL     1      -6.567   8.042  11.938  1.00  0.00     0.173 A 
ATOM     59  F   UNL     1      -3.340   8.191  13.612  1.00  0.00    -0.203 F 
ATOM     60  C   UNL     1      -5.389   7.284  14.335  1.00  0.00     0.198 A 
ATOM     61  C   UNL     1      -7.322   7.400  12.916  1.00  0.00     0.198 A 
ATOM     62  F   UNL     1      -7.163   8.387  10.787  1.00  0.00    -0.203 F 
ATOM     63  F   UNL     1      -4.810   6.889  15.477  1.00  0.00    -0.200 F 
ATOM     64  C   UNL     1      -6.731   7.014  14.110  1.00  0.00     0.200 A 
ATOM     65  F   UNL     1      -8.620   7.149  12.701  1.00  0.00    -0.200 F 
ATOM     66  F   UNL     1      -7.452   6.374  15.040  1.00  0.00    -0.200 F 
ENDBRANCH  42  56
BRANCH  43  67
ATOM     67  C   UNL     1       0.089  12.536   4.818  1.00  0.00     0.064 A 
ATOM     68  C   UNL     1       1.026  13.552   5.048  1.00  0.00     0.173 A 
ATOM     69  C   UNL     1      -0.101  12.108   3.496  1.00  0.00     0.173 A 
ATOM     70  F   UNL     1       1.224  14.011   6.292  1.00  0.00    -0.203 F 
ATOM     71  C   UNL     1       1.739  14.123   3.995  1.00  0.00     0.198 A 
ATOM     72  C   UNL     1       0.630  12.662   2.448  1.00  0.00     0.198 A 
ATOM     73  F   UNL     1      -0.987  11.138   3.225  1.00  0.00    -0.203 F 
ATOM     74  F   UNL     1       2.606  15.115   4.237  1.00  0.00    -0.200 F 
ATOM     75  C   UNL     1       1.547  13.672   2.698  1.00  0.00     0.200 A 
ATOM     76  F   UNL     1       0.450  12.214   1.198  1.00  0.00    -0.200 F 
ATOM     77  F   UNL     1       2.241  14.213   1.688  1.00  0.00    -0.200 F 
ENDBRANCH  43  67
BRANCH  55  78
ATOM     78  C   UNL     1      -4.957  14.836   9.047  1.00  0.00     0.064 A 
ATOM     79  C   UNL     1      -5.893  15.267   8.096  1.00  0.00     0.173 A 
ATOM     80  C   UNL     1      -4.717  15.663  10.155  1.00  0.00     0.173 A 
ATOM     81  F   UNL     1      -6.146  14.520   7.011  1.00  0.00    -0.203 F 
ATOM     82  C   UNL     1      -6.547  16.489   8.238  1.00  0.00     0.198 A 
ATOM     83  C   UNL     1      -5.393  16.871  10.308  1.00  0.00     0.198 A 
ATOM     84  F   UNL     1      -3.836  15.294  11.096  1.00  0.00    -0.203 F 
ATOM     85  F   UNL     1      -7.406  16.900   7.295  1.00  0.00    -0.200 F 
ATOM     86  C   UNL     1      -6.303  17.285   9.347  1.00  0.00     0.200 A 
ATOM     87  F   UNL     1      -5.164  17.634  11.386  1.00  0.00    -0.200 F 
ATOM     88  F   UNL     1      -6.938  18.457   9.485  1.00  0.00    -0.200 F 
ENDBRANCH  55  78
ENDBRANCH  29  30
ENDBRANCH  22  24
ENDBRANCH  21  22
ENDBRANCH  20  21
ENDBRANCH  19  20
ENDBRANCH   1  19
TORSDOF 17
