REMARK SMILES Cc1n[nH]c(C(=O)N[C@@H](CC(C)C)C(=O)OCCOCCOC(=O)c2ccc(-c3c4nc(c(-c5c(F)c(F)c(F)c(F)c5F)c5ccc([nH]5)c(-c5c(F)c(F)c(F)c(F)c5F)c5nc(c(-c6c(F)c(F)c(F)c(F)c6F)c6ccc3[nH]6)C=C5)C=C4)cc2)n1
REMARK SMILES IDX 19 1 18 2 17 3 16 4 14 5 15 6 9 7 8 8 6 9 7 10 5 12 1 13
REMARK SMILES IDX 2 14 3 15 88 16 4 17 10 19 11 20 12 21 13 22 20 23 21 24
REMARK SMILES IDX 22 25 23 26 24 27 25 28 26 29 87 30 27 31 86 32 28 33 29 34
REMARK SMILES IDX 30 35 80 36 31 37 85 38 79 39 81 40 32 41 84 42 78 43 77 44
REMARK SMILES IDX 33 46 65 47 45 48 64 49 46 50 49 51 63 52 82 53 47 54 48 55
REMARK SMILES IDX 62 57 83 58 50 59 34 60 35 61 43 62 36 63 37 64 41 65 44 66
REMARK SMILES IDX 38 67 39 68 42 69 40 70 66 71 67 72 75 73 68 74 69 75 73 76
REMARK SMILES IDX 76 77 70 78 71 79 74 80 72 81 51 82 52 83 60 84 53 85 54 86
REMARK SMILES IDX 58 87 61 88 55 89 56 90 59 91 57 92
REMARK H PARENT 8 11 4 18 81 45 49 56
REMARK Flexibility Score: inf
ROOT
ATOM      1  O   UNL     1       2.098   4.436  -6.746  1.00  0.00    -0.374 OA
ENDROOT
BRANCH   1   2
ATOM      2  C   UNL     1       1.682   5.771  -7.018  1.00  0.00     0.202 C 
BRANCH   2   3
ATOM      3  C   UNL     1       0.271   6.174  -6.596  1.00  0.00     0.261 C 
BRANCH   3   4
ATOM      4  O   UNL     1       0.031   5.982  -5.190  1.00  0.00    -0.462 OA
BRANCH   4   5
ATOM      5  C   UNL     1      -1.098   5.286  -4.888  1.00  0.00     0.328 C 
ATOM      6  O   UNL     1      -1.877   4.816  -5.709  1.00  0.00    -0.250 OA
BRANCH   5   7
ATOM      7  C   UNL     1      -1.370   5.208  -3.378  1.00  0.00     0.192 C 
BRANCH   7   8
ATOM      8  N   UNL     1      -0.246   5.504  -2.496  1.00  0.00    -0.336 N 
ATOM      9  C   UNL     1       0.499   4.738  -1.624  1.00  0.00     0.289 C 
ATOM     10  O   UNL     1       1.323   5.383  -0.968  1.00  0.00    -0.266 OA
ATOM     11  H   UNL     1       0.041   6.446  -2.531  1.00  0.00     0.164 HD
BRANCH   9  12
ATOM     12  C   UNL     1       0.353   3.293  -1.490  1.00  0.00     0.214 A 
ATOM     13  C   UNL     1       1.062   0.168   0.060  1.00  0.00     0.092 C 
ATOM     14  C   UNL     1       0.604   1.296  -0.780  1.00  0.00     0.148 A 
ATOM     15  N   UNL     1      -0.072   1.124  -1.918  1.00  0.00    -0.159 NA
ATOM     16  N   UNL     1       0.877   2.604  -0.483  1.00  0.00    -0.207 NA
ATOM     17  N   UNL     1      -0.197   2.387  -2.351  1.00  0.00    -0.255 N 
ATOM     18  H   UNL     1      -0.637   2.633  -3.196  1.00  0.00     0.192 HD
ENDBRANCH   9  12
ENDBRANCH   7   8
BRANCH   7  19
ATOM     19  C   UNL     1      -2.622   6.032  -3.033  1.00  0.00     0.040 C 
BRANCH  19  20
ATOM     20  C   UNL     1      -2.528   7.574  -3.001  1.00  0.00    -0.015 C 
ATOM     21  C   UNL     1      -1.932   8.220  -4.250  1.00  0.00     0.007 C 
ATOM     22  C   UNL     1      -3.941   8.131  -2.783  1.00  0.00     0.007 C 
ENDBRANCH  19  20
ENDBRANCH   7  19
ENDBRANCH   5   7
ENDBRANCH   4   5
ENDBRANCH   3   4
ENDBRANCH   2   3
ENDBRANCH   1   2
BRANCH   1  23
ATOM     23  C   UNL     1       2.141   3.964  -5.404  1.00  0.00     0.202 C 
BRANCH  23  24
ATOM     24  C   UNL     1       3.146   4.590  -4.447  1.00  0.00     0.261 C 
BRANCH  24  25
ATOM     25  O   UNL     1       2.976   5.994  -4.301  1.00  0.00    -0.460 OA
BRANCH  25  26
ATOM     26  C   UNL     1       3.932   6.705  -4.945  1.00  0.00     0.338 C 
ATOM     27  O   UNL     1       4.626   6.336  -5.873  1.00  0.00    -0.246 OA
BRANCH  26  28
ATOM     28  C   UNL     1       4.156   7.966  -4.237  1.00  0.00     0.060 A 
ATOM     29  C   UNL     1       5.110   8.818  -4.802  1.00  0.00     0.016 A 
ATOM     30  C   UNL     1       3.710   8.106  -2.916  1.00  0.00     0.016 A 
ATOM     31  C   UNL     1       5.786   9.678  -3.971  1.00  0.00     0.010 A 
ATOM     32  C   UNL     1       4.394   8.959  -2.086  1.00  0.00     0.010 A 
ATOM     33  C   UNL     1       5.476   9.667  -2.608  1.00  0.00    -0.014 A 
BRANCH  33  34
ATOM     34  C   UNL     1       6.280  10.492  -1.733  1.00  0.00     0.031 A 
ATOM     35  C   UNL     1       5.951  11.927  -1.847  1.00  0.00     0.074 A 
ATOM     36  C   UNL     1       7.129   9.948  -0.840  1.00  0.00     0.049 A 
ATOM     37  N   UNL     1       6.735  12.901  -2.163  1.00  0.00    -0.248 NA
ATOM     38  C   UNL     1       4.532  12.310  -1.730  1.00  0.00     0.031 C 
ATOM     39  C   UNL     1       7.246   8.522  -0.509  1.00  0.00     0.029 A 
ATOM     40  N   UNL     1       7.971  10.544   0.052  1.00  0.00    -0.354 N 
ATOM     41  C   UNL     1       5.951  14.047  -2.059  1.00  0.00     0.074 A 
ATOM     42  C   UNL     1       4.584  13.614  -1.999  1.00  0.00     0.031 C 
ATOM     43  C   UNL     1       7.922   8.391   0.652  1.00  0.00     0.029 A 
ATOM     44  C   UNL     1       8.387   9.701   1.075  1.00  0.00     0.049 A 
ATOM     45  H   UNL     1       8.258  11.483  -0.022  1.00  0.00     0.167 HD
ATOM     46  C   UNL     1       6.518  15.218  -1.671  1.00  0.00     0.037 A 
ATOM     47  C   UNL     1       9.005  10.063   2.225  1.00  0.00     0.037 A 
ATOM     48  C   UNL     1       7.943  15.194  -1.874  1.00  0.00     0.049 A 
ATOM     49  C   UNL     1       9.582  11.413   2.038  1.00  0.00     0.074 A 
ATOM     50  C   UNL     1       8.812  15.372  -2.927  1.00  0.00     0.029 A 
ATOM     51  N   UNL     1       8.642  14.593  -0.864  1.00  0.00    -0.354 N 
ATOM     52  N   UNL     1      10.589  11.668   1.250  1.00  0.00    -0.248 NA
ATOM     53  C   UNL     1       8.839  12.584   2.500  1.00  0.00     0.031 C 
ATOM     54  C   UNL     1      10.047  14.773  -2.539  1.00  0.00     0.029 A 
ATOM     55  C   UNL     1       9.906  14.249  -1.258  1.00  0.00     0.049 A 
ATOM     56  H   UNL     1       8.279  14.427   0.036  1.00  0.00     0.167 HD
ATOM     57  C   UNL     1      10.345  12.947   0.793  1.00  0.00     0.074 A 
ATOM     58  C   UNL     1       9.384  13.522   1.721  1.00  0.00     0.031 C 
ATOM     59  C   UNL     1      10.667  13.301  -0.482  1.00  0.00     0.037 A 
BRANCH  46  60
ATOM     60  C   UNL     1       5.906  16.143  -0.635  1.00  0.00     0.064 A 
ATOM     61  C   UNL     1       6.582  17.342  -0.331  1.00  0.00     0.173 A 
ATOM     62  C   UNL     1       4.907  15.762   0.291  1.00  0.00     0.173 A 
ATOM     63  F   UNL     1       7.551  17.804  -1.137  1.00  0.00    -0.203 F 
ATOM     64  C   UNL     1       6.346  18.045   0.854  1.00  0.00     0.198 A 
ATOM     65  C   UNL     1       4.641  16.494   1.446  1.00  0.00     0.198 A 
ATOM     66  F   UNL     1       4.223  14.619   0.188  1.00  0.00    -0.203 F 
ATOM     67  F   UNL     1       7.104  19.106   1.160  1.00  0.00    -0.200 F 
ATOM     68  C   UNL     1       5.383  17.614   1.747  1.00  0.00     0.200 A 
ATOM     69  F   UNL     1       3.712  16.049   2.306  1.00  0.00    -0.200 F 
ATOM     70  F   UNL     1       5.200  18.247   2.912  1.00  0.00    -0.200 F 
ENDBRANCH  46  60
BRANCH  47  71
ATOM     71  C   UNL     1       8.952   9.411   3.553  1.00  0.00     0.064 A 
ATOM     72  C   UNL     1       9.928   9.680   4.526  1.00  0.00     0.173 A 
ATOM     73  C   UNL     1       7.804   8.721   3.988  1.00  0.00     0.173 A 
ATOM     74  F   UNL     1      11.034  10.364   4.202  1.00  0.00    -0.203 F 
ATOM     75  C   UNL     1       9.750   9.311   5.863  1.00  0.00     0.198 A 
ATOM     76  C   UNL     1       7.634   8.342   5.320  1.00  0.00     0.198 A 
ATOM     77  F   UNL     1       6.784   8.486   3.151  1.00  0.00    -0.203 F 
ATOM     78  F   UNL     1      10.672   9.647   6.776  1.00  0.00    -0.200 F 
ATOM     79  C   UNL     1       8.598   8.652   6.260  1.00  0.00     0.200 A 
ATOM     80  F   UNL     1       6.501   7.734   5.697  1.00  0.00    -0.200 F 
ATOM     81  F   UNL     1       8.399   8.356   7.551  1.00  0.00    -0.200 F 
ENDBRANCH  47  71
BRANCH  59  82
ATOM     82  C   UNL     1      11.749  12.521  -1.152  1.00  0.00     0.064 A 
ATOM     83  C   UNL     1      11.634  11.172  -1.521  1.00  0.00     0.173 A 
ATOM     84  C   UNL     1      12.939  13.187  -1.471  1.00  0.00     0.173 A 
ATOM     85  F   UNL     1      10.496  10.497  -1.313  1.00  0.00    -0.203 F 
ATOM     86  C   UNL     1      12.690  10.508  -2.142  1.00  0.00     0.198 A 
ATOM     87  C   UNL     1      13.976  12.533  -2.124  1.00  0.00     0.198 A 
ATOM     88  F   UNL     1      13.081  14.489  -1.173  1.00  0.00    -0.203 F 
ATOM     89  F   UNL     1      12.573   9.212  -2.464  1.00  0.00    -0.200 F 
ATOM     90  C   UNL     1      13.857  11.191  -2.447  1.00  0.00     0.200 A 
ATOM     91  F   UNL     1      15.087  13.208  -2.451  1.00  0.00    -0.200 F 
ATOM     92  F   UNL     1      14.863  10.561  -3.071  1.00  0.00    -0.200 F 
ENDBRANCH  59  82
ENDBRANCH  33  34
ENDBRANCH  26  28
ENDBRANCH  25  26
ENDBRANCH  24  25
ENDBRANCH  23  24
ENDBRANCH   1  23
TORSDOF 18
