REMARK SMILES [NH3+][C@@H](Cc1cn(-c2nc(Cl)nc(N3CCOCC3)n2)c2ccccc12)C(=O)OCCOCCOC(=O)c1ccc(-c2c3nc(c(-c4c(F)c(F)c(F)c(F)c4F)c4ccc([nH]4)c(-c4c(F)c(F)c(F)c(F)c4F)c4nc(c(-c5c(F)c(F)c(F)c(F)c5F)c5ccc2[nH]5)C=C4)C=C3)cc1
REMARK SMILES IDX 30 1 29 2 28 3 26 4 27 5 2 6 1 7 3 11 4 12 5 13 25 14 6 15
REMARK SMILES IDX 20 16 24 17 21 18 23 19 22 20 7 21 8 22 19 23 9 24 12 25
REMARK SMILES IDX 10 26 11 27 13 28 14 29 18 30 15 31 17 32 16 33 31 34 32 35
REMARK SMILES IDX 33 36 34 37 35 38 36 39 37 40 38 41 99 42 39 43 98 44 40 45
REMARK SMILES IDX 41 46 42 47 92 48 43 49 97 50 91 51 93 52 44 53 96 54 90 55
REMARK SMILES IDX 89 56 45 58 77 59 57 60 76 61 58 62 61 63 75 64 94 65 59 66
REMARK SMILES IDX 60 67 74 69 95 70 62 71 46 72 47 73 55 74 48 75 49 76 53 77
REMARK SMILES IDX 56 78 50 79 51 80 54 81 52 82 78 83 79 84 87 85 80 86 81 87
REMARK SMILES IDX 85 88 88 89 82 90 83 91 86 92 84 93 63 94 64 95 72 96 65 97
REMARK SMILES IDX 66 98 70 99 73 100 67 101 68 102 71 103 69 104
REMARK H PARENT 1 8 1 9 1 10 93 57 61 68
REMARK Flexibility Score: inf
ROOT
ATOM      1  C   UNL     1      -3.483   0.239  -0.968  1.00  0.00     0.202 C 
ENDROOT
BRANCH   1   2
ATOM      2  C   UNL     1      -2.780  -0.457  -2.131  1.00  0.00     0.261 C 
BRANCH   2   3
ATOM      3  O   UNL     1      -1.398  -0.694  -1.821  1.00  0.00    -0.459 OA
BRANCH   3   4
ATOM      4  C   UNL     1      -0.499   0.086  -2.470  1.00  0.00     0.365 C 
ATOM      5  O   UNL     1      -0.785   0.914  -3.329  1.00  0.00    -0.245 OA
BRANCH   4   6
ATOM      6  C   UNL     1       0.940  -0.158  -2.006  1.00  0.00     0.296 C 
BRANCH   6   7
ATOM      7  N   UNL     1       1.246   0.419  -0.675  1.00  0.00    -0.346 N 
ATOM      8  H   UNL     1       2.217   0.219  -0.433  1.00  0.00     0.345 HD
ATOM      9  H   UNL     1       0.629   0.007   0.025  1.00  0.00     0.345 HD
ATOM     10  H   UNL     1       1.104   1.429  -0.702  1.00  0.00     0.345 HD
ENDBRANCH   6   7
BRANCH   6  11
ATOM     11  C   UNL     1       1.433  -1.585  -2.229  1.00  0.00     0.115 C 
BRANCH  11  12
ATOM     12  C   UNL     1       0.949  -2.776  -1.436  1.00  0.00    -0.015 A 
ATOM     13  C   UNL     1       1.304  -4.053  -1.841  1.00  0.00     0.099 A 
ATOM     14  C   UNL     1       0.220  -2.957  -0.203  1.00  0.00     0.004 A 
ATOM     15  N   UNL     1       0.713  -4.985  -1.029  1.00  0.00    -0.285 N 
ATOM     16  C   UNL     1       0.052  -4.339  -0.003  1.00  0.00     0.056 A 
ATOM     17  C   UNL     1      -0.302  -2.111   0.800  1.00  0.00     0.010 A 
ATOM     18  C   UNL     1      -0.592  -4.877   1.130  1.00  0.00     0.027 A 
ATOM     19  C   UNL     1      -0.858  -2.641   1.971  1.00  0.00     0.001 A 
ATOM     20  C   UNL     1      -1.019  -4.008   2.127  1.00  0.00     0.002 A 
BRANCH  15  21
ATOM     21  C   UNL     1       0.918  -6.383  -1.129  1.00  0.00     0.240 A 
ATOM     22  N   UNL     1      -0.144  -7.178  -1.137  1.00  0.00    -0.181 NA
ATOM     23  N   UNL     1       2.189  -6.790  -1.159  1.00  0.00    -0.176 NA
ATOM     24  C   UNL     1       0.185  -8.449  -1.298  1.00  0.00     0.228 A 
ATOM     25  C   UNL     1       2.378  -8.101  -1.194  1.00  0.00     0.231 A 
ATOM     26  Cl  UNL     1      -1.120  -9.543  -1.435  1.00  0.00    -0.041 Cl
ATOM     27  N   UNL     1       1.400  -8.978  -1.349  1.00  0.00    -0.182 NA
BRANCH  25  28
ATOM     28  N   UNL     1       3.637  -8.568  -0.973  1.00  0.00    -0.336 N 
ATOM     29  C   UNL     1       4.409  -8.110   0.174  1.00  0.00     0.148 C 
ATOM     30  C   UNL     1       4.335  -9.330  -1.993  1.00  0.00     0.148 C 
ATOM     31  C   UNL     1       5.723  -7.466  -0.285  1.00  0.00     0.181 C 
ATOM     32  C   UNL     1       5.637  -8.595  -2.361  1.00  0.00     0.181 C 
ATOM     33  O   UNL     1       6.438  -8.319  -1.196  1.00  0.00    -0.378 OA
ENDBRANCH  25  28
ENDBRANCH  15  21
ENDBRANCH  11  12
ENDBRANCH   6  11
ENDBRANCH   4   6
ENDBRANCH   3   4
ENDBRANCH   2   3
ENDBRANCH   1   2
BRANCH   1  34
ATOM     34  O   UNL     1      -3.058   1.570  -0.664  1.00  0.00    -0.374 OA
BRANCH  34  35
ATOM     35  C   UNL     1      -1.934   1.666   0.220  1.00  0.00     0.202 C 
BRANCH  35  36
ATOM     36  C   UNL     1      -2.275   1.615   1.719  1.00  0.00     0.261 C 
BRANCH  36  37
ATOM     37  O   UNL     1      -2.849   0.341   2.053  1.00  0.00    -0.460 OA
BRANCH  37  38
ATOM     38  C   UNL     1      -4.083   0.386   2.613  1.00  0.00     0.338 C 
ATOM     39  O   UNL     1      -4.564   1.284   3.282  1.00  0.00    -0.246 OA
BRANCH  38  40
ATOM     40  C   UNL     1      -4.864  -0.700   1.988  1.00  0.00     0.060 A 
ATOM     41  C   UNL     1      -4.317  -1.972   1.819  1.00  0.00     0.016 A 
ATOM     42  C   UNL     1      -6.059  -0.350   1.352  1.00  0.00     0.016 A 
ATOM     43  C   UNL     1      -4.902  -2.858   0.925  1.00  0.00     0.010 A 
ATOM     44  C   UNL     1      -6.673  -1.256   0.492  1.00  0.00     0.010 A 
ATOM     45  C   UNL     1      -6.078  -2.499   0.247  1.00  0.00    -0.014 A 
BRANCH  45  46
ATOM     46  C   UNL     1      -6.748  -3.545  -0.538  1.00  0.00     0.031 A 
ATOM     47  C   UNL     1      -7.063  -4.790   0.238  1.00  0.00     0.074 A 
ATOM     48  C   UNL     1      -7.245  -3.396  -1.783  1.00  0.00     0.049 A 
ATOM     49  N   UNL     1      -6.822  -6.028  -0.063  1.00  0.00    -0.248 NA
ATOM     50  C   UNL     1      -7.672  -4.607   1.568  1.00  0.00     0.031 C 
ATOM     51  C   UNL     1      -7.317  -2.179  -2.593  1.00  0.00     0.029 A 
ATOM     52  N   UNL     1      -7.916  -4.313  -2.545  1.00  0.00    -0.354 N 
ATOM     53  C   UNL     1      -7.358  -6.788   0.976  1.00  0.00     0.074 A 
ATOM     54  C   UNL     1      -7.780  -5.863   1.995  1.00  0.00     0.031 C 
ATOM     55  C   UNL     1      -8.188  -2.374  -3.610  1.00  0.00     0.029 A 
ATOM     56  C   UNL     1      -8.635  -3.757  -3.594  1.00  0.00     0.049 A 
ATOM     57  H   UNL     1      -7.892  -5.280  -2.365  1.00  0.00     0.167 HD
ATOM     58  C   UNL     1      -7.572  -8.129   0.878  1.00  0.00     0.037 A 
ATOM     59  C   UNL     1      -9.592  -4.370  -4.335  1.00  0.00     0.037 A 
ATOM     60  C   UNL     1      -6.774  -8.734  -0.147  1.00  0.00     0.049 A 
ATOM     61  C   UNL     1      -9.430  -5.834  -4.175  1.00  0.00     0.074 A 
ATOM     62  C   UNL     1      -5.418  -8.883  -0.364  1.00  0.00     0.029 A 
ATOM     63  N   UNL     1      -7.371  -9.085  -1.330  1.00  0.00    -0.354 N 
ATOM     64  N   UNL     1      -8.444  -6.531  -4.663  1.00  0.00    -0.248 NA
ATOM     65  C   UNL     1     -10.214  -6.494  -3.143  1.00  0.00     0.031 C 
ATOM     66  C   UNL     1      -5.259  -8.826  -1.779  1.00  0.00     0.029 A 
ATOM     67  C   UNL     1      -6.531  -8.666  -2.328  1.00  0.00     0.049 A 
ATOM     68  H   UNL     1      -8.233  -9.547  -1.440  1.00  0.00     0.167 HD
ATOM     69  C   UNL     1      -8.225  -7.528  -3.728  1.00  0.00     0.074 A 
ATOM     70  C   UNL     1      -9.409  -7.524  -2.877  1.00  0.00     0.031 C 
ATOM     71  C   UNL     1      -6.987  -8.076  -3.561  1.00  0.00     0.037 A 
BRANCH  58  72
ATOM     72  C   UNL     1      -8.728  -8.842   1.533  1.00  0.00     0.064 A 
ATOM     73  C   UNL     1      -8.758 -10.250   1.562  1.00  0.00     0.173 A 
ATOM     74  C   UNL     1      -9.938  -8.198   1.871  1.00  0.00     0.173 A 
ATOM     75  F   UNL     1      -7.673 -10.965   1.228  1.00  0.00    -0.203 F 
ATOM     76  C   UNL     1      -9.929 -10.957   1.851  1.00  0.00     0.198 A 
ATOM     77  C   UNL     1     -11.089  -8.906   2.212  1.00  0.00     0.198 A 
ATOM     78  F   UNL     1     -10.083  -6.870   1.778  1.00  0.00    -0.203 F 
ATOM     79  F   UNL     1      -9.941 -12.293   1.753  1.00  0.00    -0.200 F 
ATOM     80  C   UNL     1     -11.094 -10.284   2.173  1.00  0.00     0.200 A 
ATOM     81  F   UNL     1     -12.214  -8.236   2.501  1.00  0.00    -0.200 F 
ATOM     82  F   UNL     1     -12.230 -10.958   2.396  1.00  0.00    -0.200 F 
ENDBRANCH  58  72
BRANCH  59  83
ATOM     83  C   UNL     1     -10.821  -3.789  -4.929  1.00  0.00     0.064 A 
ATOM     84  C   UNL     1     -11.553  -4.492  -5.903  1.00  0.00     0.173 A 
ATOM     85  C   UNL     1     -11.461  -2.677  -4.350  1.00  0.00     0.173 A 
ATOM     86  F   UNL     1     -11.038  -5.590  -6.474  1.00  0.00    -0.203 F 
ATOM     87  C   UNL     1     -12.858  -4.124  -6.248  1.00  0.00     0.198 A 
ATOM     88  C   UNL     1     -12.759  -2.304  -4.704  1.00  0.00     0.198 A 
ATOM     89  F   UNL     1     -10.883  -1.990  -3.355  1.00  0.00    -0.203 F 
ATOM     90  F   UNL     1     -13.551  -4.863  -7.126  1.00  0.00    -0.200 F 
ATOM     91  C   UNL     1     -13.463  -3.037  -5.641  1.00  0.00     0.200 A 
ATOM     92  F   UNL     1     -13.345  -1.271  -4.083  1.00  0.00    -0.200 F 
ATOM     93  F   UNL     1     -14.735  -2.723  -5.922  1.00  0.00    -0.200 F 
ENDBRANCH  59  83
BRANCH  71  94
ATOM     94  C   UNL     1      -5.944  -7.793  -4.601  1.00  0.00     0.064 A 
ATOM     95  C   UNL     1      -5.447  -6.508  -4.879  1.00  0.00     0.173 A 
ATOM     96  C   UNL     1      -5.316  -8.880  -5.225  1.00  0.00     0.173 A 
ATOM     97  F   UNL     1      -5.927  -5.430  -4.247  1.00  0.00    -0.203 F 
ATOM     98  C   UNL     1      -4.395  -6.321  -5.774  1.00  0.00     0.198 A 
ATOM     99  C   UNL     1      -4.241  -8.692  -6.089  1.00  0.00     0.198 A 
ATOM    100  F   UNL     1      -5.714 -10.133  -4.955  1.00  0.00    -0.203 F 
ATOM    101  F   UNL     1      -3.943  -5.085  -6.031  1.00  0.00    -0.200 F 
ATOM    102  C   UNL     1      -3.787  -7.414  -6.370  1.00  0.00     0.200 A 
ATOM    103  F   UNL     1      -3.624  -9.754  -6.626  1.00  0.00    -0.200 F 
ATOM    104  F   UNL     1      -2.744  -7.237  -7.193  1.00  0.00    -0.200 F 
ENDBRANCH  71  94
ENDBRANCH  45  46
ENDBRANCH  38  40
ENDBRANCH  37  38
ENDBRANCH  36  37
ENDBRANCH  35  36
ENDBRANCH  34  35
ENDBRANCH   1  34
TORSDOF 19
