REMARK SMILES O=C(OCCOCCOC(=O)[C@@]1(CCc2ccccc2)CCC[N@@H+](Cc2cccnc2)C1)c1ccc(-c2c3nc(c(-c4c(F)c(F)c(F)c(F)c4F)c4ccc([nH]4)c(-c4c(F)c(F)c(F)c(F)c4F)c4nc(c(-c5c(F)c(F)c(F)c(F)c5F)c5ccc2[nH]5)C=C4)C=C3)cc1
REMARK SMILES IDX 7 1 6 2 5 3 4 4 3 5 2 6 1 7 33 8 34 9 95 10 35 11 94 12
REMARK SMILES IDX 36 13 37 14 38 15 88 16 39 17 93 18 87 19 89 20 40 21 92 22
REMARK SMILES IDX 86 23 85 24 41 26 73 27 53 28 72 29 54 30 57 31 71 32 90 33
REMARK SMILES IDX 55 34 56 35 70 37 91 38 58 39 42 40 43 41 51 42 44 43 45 44
REMARK SMILES IDX 49 45 52 46 46 47 47 48 50 49 48 50 74 51 75 52 83 53 76 54
REMARK SMILES IDX 77 55 81 56 84 57 78 58 79 59 82 60 80 61 59 62 60 63 68 64
REMARK SMILES IDX 61 65 62 66 66 67 69 68 63 69 64 70 67 71 65 72 8 73 9 74
REMARK SMILES IDX 10 75 11 76 12 77 21 78 32 79 22 80 24 81 23 82 13 84 14 85
REMARK SMILES IDX 15 86 16 87 20 88 17 89 19 90 18 91 25 92 26 93 27 94 31 95
REMARK SMILES IDX 28 96 30 97 29 98
REMARK H PARENT 89 25 57 36 24 83
REMARK Flexibility Score: inf
ROOT
ATOM      1  C   UNL     1       3.385  -4.707  -4.778  1.00  0.00     0.202 C 
ENDROOT
BRANCH   1   2
ATOM      2  O   UNL     1       2.765  -3.423  -4.885  1.00  0.00    -0.374 OA
BRANCH   2   3
ATOM      3  C   UNL     1       2.015  -2.972  -3.765  1.00  0.00     0.202 C 
BRANCH   3   4
ATOM      4  C   UNL     1       0.622  -3.569  -3.597  1.00  0.00     0.261 C 
BRANCH   4   5
ATOM      5  O   UNL     1       0.627  -4.983  -3.829  1.00  0.00    -0.460 OA
BRANCH   5   6
ATOM      6  C   UNL     1       0.140  -5.597  -4.935  1.00  0.00     0.338 C 
ATOM      7  O   UNL     1       0.052  -6.821  -4.964  1.00  0.00    -0.246 OA
BRANCH   6   8
ATOM      8  C   UNL     1      -0.322  -4.827  -6.123  1.00  0.00     0.060 A 
ATOM      9  C   UNL     1       0.345  -3.713  -6.629  1.00  0.00     0.016 A 
ATOM     10  C   UNL     1      -1.432  -5.311  -6.824  1.00  0.00     0.016 A 
ATOM     11  C   UNL     1      -0.111  -3.030  -7.740  1.00  0.00     0.010 A 
ATOM     12  C   UNL     1      -1.861  -4.671  -7.990  1.00  0.00     0.010 A 
ATOM     13  C   UNL     1      -1.203  -3.517  -8.442  1.00  0.00    -0.014 A 
BRANCH  13  14
ATOM     14  C   UNL     1      -1.694  -2.719  -9.574  1.00  0.00     0.031 A 
ATOM     15  C   UNL     1      -2.982  -1.984  -9.409  1.00  0.00     0.074 A 
ATOM     16  C   UNL     1      -0.923  -2.555 -10.665  1.00  0.00     0.049 A 
ATOM     17  N   UNL     1      -3.684  -1.327 -10.290  1.00  0.00    -0.248 NA
ATOM     18  C   UNL     1      -3.561  -1.987  -8.054  1.00  0.00     0.031 C 
ATOM     19  C   UNL     1       0.427  -3.103 -10.839  1.00  0.00     0.029 A 
ATOM     20  N   UNL     1      -1.145  -1.849 -11.819  1.00  0.00    -0.354 N 
ATOM     21  C   UNL     1      -4.819  -0.901  -9.616  1.00  0.00     0.074 A 
ATOM     22  C   UNL     1      -4.705  -1.354  -8.248  1.00  0.00     0.031 C 
ATOM     23  C   UNL     1       0.923  -2.679 -12.012  1.00  0.00     0.029 A 
ATOM     24  C   UNL     1      -0.105  -1.916 -12.709  1.00  0.00     0.049 A 
ATOM     25  H   UNL     1      -1.971  -1.342 -11.991  1.00  0.00     0.167 HD
ATOM     26  C   UNL     1      -5.868  -0.211 -10.118  1.00  0.00     0.037 A 
ATOM     27  C   UNL     1      -0.023  -1.447 -13.966  1.00  0.00     0.037 A 
ATOM     28  C   UNL     1      -5.921   0.247 -11.479  1.00  0.00     0.049 A 
ATOM     29  C   UNL     1      -1.231  -0.746 -14.528  1.00  0.00     0.074 A 
ATOM     30  C   UNL     1      -6.944   0.898 -12.140  1.00  0.00     0.029 A 
ATOM     31  N   UNL     1      -4.879   0.103 -12.390  1.00  0.00    -0.354 N 
ATOM     32  N   UNL     1      -2.363  -0.445 -13.934  1.00  0.00    -0.248 NA
ATOM     33  C   UNL     1      -1.165  -0.343 -15.937  1.00  0.00     0.031 C 
ATOM     34  C   UNL     1      -6.536   1.113 -13.462  1.00  0.00     0.029 A 
ATOM     35  C   UNL     1      -5.237   0.646 -13.610  1.00  0.00     0.049 A 
ATOM     36  H   UNL     1      -4.013  -0.323 -12.194  1.00  0.00     0.167 HD
ATOM     37  C   UNL     1      -3.136   0.203 -14.885  1.00  0.00     0.074 A 
ATOM     38  C   UNL     1      -2.334   0.262 -16.094  1.00  0.00     0.031 C 
ATOM     39  C   UNL     1      -4.393   0.700 -14.779  1.00  0.00     0.037 A 
BRANCH  26  40
ATOM     40  C   UNL     1      -7.050  -0.024  -9.214  1.00  0.00     0.064 A 
ATOM     41  C   UNL     1      -7.014   0.818  -8.092  1.00  0.00     0.173 A 
ATOM     42  C   UNL     1      -8.217  -0.770  -9.435  1.00  0.00     0.173 A 
ATOM     43  F   UNL     1      -5.909   1.526  -7.814  1.00  0.00    -0.203 F 
ATOM     44  C   UNL     1      -8.085   0.870  -7.202  1.00  0.00     0.198 A 
ATOM     45  C   UNL     1      -9.298  -0.691  -8.561  1.00  0.00     0.198 A 
ATOM     46  F   UNL     1      -8.302  -1.599 -10.486  1.00  0.00    -0.203 F 
ATOM     47  F   UNL     1      -7.996   1.617  -6.092  1.00  0.00    -0.200 F 
ATOM     48  C   UNL     1      -9.226   0.117  -7.438  1.00  0.00     0.200 A 
ATOM     49  F   UNL     1     -10.399  -1.420  -8.792  1.00  0.00    -0.200 F 
ATOM     50  F   UNL     1     -10.246   0.153  -6.570  1.00  0.00    -0.200 F 
ENDBRANCH  26  40
BRANCH  27  51
ATOM     51  C   UNL     1       1.204  -1.662 -14.780  1.00  0.00     0.064 A 
ATOM     52  C   UNL     1       1.989  -0.582 -15.208  1.00  0.00     0.173 A 
ATOM     53  C   UNL     1       1.619  -2.950 -15.155  1.00  0.00     0.173 A 
ATOM     54  F   UNL     1       1.627   0.672 -14.897  1.00  0.00    -0.203 F 
ATOM     55  C   UNL     1       3.127  -0.779 -15.988  1.00  0.00     0.198 A 
ATOM     56  C   UNL     1       2.775  -3.149 -15.908  1.00  0.00     0.198 A 
ATOM     57  F   UNL     1       0.906  -4.022 -14.779  1.00  0.00    -0.203 F 
ATOM     58  F   UNL     1       3.832   0.276 -16.421  1.00  0.00    -0.200 F 
ATOM     59  C   UNL     1       3.523  -2.063 -16.332  1.00  0.00     0.200 A 
ATOM     60  F   UNL     1       3.160  -4.393 -16.225  1.00  0.00    -0.200 F 
ATOM     61  F   UNL     1       4.620  -2.252 -17.078  1.00  0.00    -0.200 F 
ENDBRANCH  27  51
BRANCH  39  62
ATOM     62  C   UNL     1      -4.944   1.403 -15.982  1.00  0.00     0.064 A 
ATOM     63  C   UNL     1      -5.351   0.702 -17.125  1.00  0.00     0.173 A 
ATOM     64  C   UNL     1      -5.105   2.796 -15.966  1.00  0.00     0.173 A 
ATOM     65  F   UNL     1      -5.200  -0.629 -17.192  1.00  0.00    -0.203 F 
ATOM     66  C   UNL     1      -5.878   1.377 -18.222  1.00  0.00     0.198 A 
ATOM     67  C   UNL     1      -5.662   3.463 -17.051  1.00  0.00     0.198 A 
ATOM     68  F   UNL     1      -4.735   3.508 -14.890  1.00  0.00    -0.203 F 
ATOM     69  F   UNL     1      -6.218   0.695 -19.325  1.00  0.00    -0.200 F 
ATOM     70  C   UNL     1      -6.041   2.754 -18.181  1.00  0.00     0.200 A 
ATOM     71  F   UNL     1      -5.832   4.791 -17.003  1.00  0.00    -0.200 F 
ATOM     72  F   UNL     1      -6.559   3.400 -19.234  1.00  0.00    -0.200 F 
ENDBRANCH  39  62
ENDBRANCH  13  14
ENDBRANCH   6   8
ENDBRANCH   5   6
ENDBRANCH   4   5
ENDBRANCH   3   4
ENDBRANCH   2   3
ENDBRANCH   1   2
BRANCH   1  73
ATOM     73  C   UNL     1       4.827  -4.574  -5.261  1.00  0.00     0.261 C 
BRANCH  73  74
ATOM     74  O   UNL     1       5.489  -3.710  -4.326  1.00  0.00    -0.463 OA
BRANCH  74  75
ATOM     75  C   UNL     1       5.329  -2.378  -4.553  1.00  0.00     0.317 C 
ATOM     76  O   UNL     1       5.153  -1.915  -5.680  1.00  0.00    -0.251 OA
BRANCH  75  77
ATOM     77  C   UNL     1       5.517  -1.553  -3.272  1.00  0.00     0.117 C 
ATOM     78  C   UNL     1       5.345  -2.455  -2.005  1.00  0.00     0.030 C 
ATOM     79  C   UNL     1       6.976  -1.119  -3.364  1.00  0.00     0.281 C 
ATOM     80  C   UNL     1       5.984  -1.869  -0.748  1.00  0.00     0.063 C 
ATOM     81  N   UNL     1       7.468  -0.476  -2.139  1.00  0.00    -0.330 N 
ATOM     82  C   UNL     1       7.418  -1.415  -1.011  1.00  0.00     0.262 C 
ATOM     83  H   UNL     1       6.852   0.303  -1.905  1.00  0.00     0.348 HD
BRANCH  77  84
ATOM     84  C   UNL     1       4.521  -0.351  -3.151  1.00  0.00     0.029 C 
BRANCH  84  85
ATOM     85  C   UNL     1       4.722   0.925  -3.997  1.00  0.00     0.037 C 
BRANCH  85  86
ATOM     86  C   UNL     1       4.357   0.841  -5.457  1.00  0.00    -0.048 A 
ATOM     87  C   UNL     1       3.094   0.388  -5.866  1.00  0.00     0.004 A 
ATOM     88  C   UNL     1       5.287   1.212  -6.438  1.00  0.00     0.004 A 
ATOM     89  C   UNL     1       2.803   0.222  -7.221  1.00  0.00     0.000 A 
ATOM     90  C   UNL     1       4.989   1.057  -7.794  1.00  0.00     0.000 A 
ATOM     91  C   UNL     1       3.755   0.542  -8.184  1.00  0.00     0.000 A 
ENDBRANCH  85  86
ENDBRANCH  84  85
ENDBRANCH  77  84
BRANCH  81  92
ATOM     92  C   UNL     1       8.808   0.110  -2.345  1.00  0.00     0.300 C 
BRANCH  92  93
ATOM     93  C   UNL     1       9.864  -0.835  -2.865  1.00  0.00     0.025 A 
ATOM     94  C   UNL     1       9.961  -1.156  -4.227  1.00  0.00     0.013 A 
ATOM     95  C   UNL     1      10.723  -1.496  -1.996  1.00  0.00     0.120 A 
ATOM     96  C   UNL     1      10.836  -2.150  -4.646  1.00  0.00     0.021 A 
ATOM     97  N   UNL     1      11.605  -2.446  -2.379  1.00  0.00    -0.264 NA
ATOM     98  C   UNL     1      11.629  -2.762  -3.692  1.00  0.00     0.111 A 
ENDBRANCH  92  93
ENDBRANCH  81  92
ENDBRANCH  75  77
ENDBRANCH  74  75
ENDBRANCH  73  74
ENDBRANCH   1  73
TORSDOF 19
