REMARK SMILES O=C(C[NH+]1CC[NH+](Cc2cc(Cl)ccc2[N+](=O)[O-])CC1)OCCOCCOC(=O)c1ccc(-c2c3nc(c(-c4c(F)c(F)c(F)c(F)c4F)c4ccc([nH]4)c(-c4c(F)c(F)c(F)c(F)c4F)c4nc(c(-c5c(F)c(F)c(F)c(F)c5F)c5ccc2[nH]5)C=C4)C=C3)cc1
REMARK SMILES IDX 23 1 22 2 21 3 2 4 1 5 3 6 4 7 5 8 20 9 6 11 19 12 7 13 8 15
REMARK SMILES IDX 9 16 10 17 15 18 11 19 14 20 12 21 13 22 16 23 17 24 18 25
REMARK SMILES IDX 24 26 25 27 26 28 27 29 28 30 29 31 30 32 31 33 92 34 32 35
REMARK SMILES IDX 91 36 33 37 34 38 35 39 85 40 36 41 90 42 84 43 86 44 37 45
REMARK SMILES IDX 89 46 83 47 82 48 38 50 70 51 50 52 69 53 51 54 54 55 68 56
REMARK SMILES IDX 87 57 52 58 53 59 67 61 88 62 55 63 39 64 40 65 48 66 41 67
REMARK SMILES IDX 42 68 46 69 49 70 43 71 44 72 47 73 45 74 71 75 72 76 80 77
REMARK SMILES IDX 73 78 74 79 78 80 81 81 75 82 76 83 79 84 77 85 56 86 57 87
REMARK SMILES IDX 65 88 58 89 59 90 63 91 66 92 60 93 61 94 64 95 62 96
REMARK H PARENT 4 10 7 14 86 49 54 60
REMARK Flexibility Score: inf
ROOT
ATOM      1  C   UNL     1       4.451  -1.118   0.112  1.00  0.00     0.202 C 
ENDROOT
BRANCH   1   2
ATOM      2  C   UNL     1       3.943  -0.014   1.035  1.00  0.00     0.261 C 
BRANCH   2   3
ATOM      3  O   UNL     1       2.517  -0.051   1.261  1.00  0.00    -0.459 OA
BRANCH   3   4
ATOM      4  C   UNL     1       1.537   0.598   0.589  1.00  0.00     0.361 C 
ATOM      5  O   UNL     1       0.375   0.485   0.988  1.00  0.00    -0.245 OA
BRANCH   4   6
ATOM      6  C   UNL     1       1.810   1.339  -0.719  1.00  0.00     0.386 C 
BRANCH   6   7
ATOM      7  N   UNL     1       3.082   2.043  -0.722  1.00  0.00    -0.316 N 
ATOM      8  C   UNL     1       3.741   2.109  -2.026  1.00  0.00     0.325 C 
ATOM      9  C   UNL     1       3.058   3.289   0.043  1.00  0.00     0.325 C 
ATOM     10  H   UNL     1       3.717   1.446  -0.193  1.00  0.00     0.348 HD
ATOM     11  C   UNL     1       3.621   3.443  -2.788  1.00  0.00     0.324 C 
ATOM     12  C   UNL     1       2.861   4.564  -0.794  1.00  0.00     0.324 C 
ATOM     13  N   UNL     1       3.721   4.658  -1.974  1.00  0.00    -0.322 N 
ATOM     14  H   UNL     1       3.339   5.411  -2.546  1.00  0.00     0.348 HD
BRANCH  13  15
ATOM     15  C   UNL     1       5.064   5.221  -1.776  1.00  0.00     0.306 C 
BRANCH  15  16
ATOM     16  C   UNL     1       6.045   4.446  -0.910  1.00  0.00     0.085 A 
ATOM     17  C   UNL     1       6.773   3.417  -1.553  1.00  0.00     0.037 A 
ATOM     18  C   UNL     1       6.243   4.599   0.483  1.00  0.00     0.278 A 
ATOM     19  C   UNL     1       7.535   2.493  -0.835  1.00  0.00     0.042 A 
ATOM     20  C   UNL     1       7.026   3.663   1.199  1.00  0.00     0.088 A 
ATOM     21  Cl  UNL     1       8.286   1.183  -1.654  1.00  0.00    -0.084 Cl
ATOM     22  C   UNL     1       7.644   2.598   0.543  1.00  0.00     0.027 A 
BRANCH  18  23
ATOM     23  N   UNL     1       5.640   5.688   1.282  1.00  0.00     0.063 N 
ATOM     24  O   UNL     1       5.639   5.555   2.515  1.00  0.00    -0.258 OA
ATOM     25  O   UNL     1       5.189   6.678   0.700  1.00  0.00    -0.258 OA
ENDBRANCH  18  23
ENDBRANCH  15  16
ENDBRANCH  13  15
ENDBRANCH   6   7
ENDBRANCH   4   6
ENDBRANCH   3   4
ENDBRANCH   2   3
ENDBRANCH   1   2
BRANCH   1  26
ATOM     26  O   UNL     1       3.956  -1.129  -1.224  1.00  0.00    -0.374 OA
BRANCH  26  27
ATOM     27  C   UNL     1       2.733  -1.840  -1.435  1.00  0.00     0.202 C 
BRANCH  27  28
ATOM     28  C   UNL     1       2.841  -3.355  -1.618  1.00  0.00     0.261 C 
BRANCH  28  29
ATOM     29  O   UNL     1       3.260  -3.996  -0.406  1.00  0.00    -0.460 OA
BRANCH  29  30
ATOM     30  C   UNL     1       4.572  -4.320  -0.370  1.00  0.00     0.338 C 
ATOM     31  O   UNL     1       5.376  -4.254  -1.289  1.00  0.00    -0.246 OA
BRANCH  30  32
ATOM     32  C   UNL     1       4.974  -4.583   1.024  1.00  0.00     0.060 A 
ATOM     33  C   UNL     1       6.215  -4.079   1.432  1.00  0.00     0.016 A 
ATOM     34  C   UNL     1       4.176  -5.314   1.909  1.00  0.00     0.016 A 
ATOM     35  C   UNL     1       6.706  -4.386   2.694  1.00  0.00     0.010 A 
ATOM     36  C   UNL     1       4.668  -5.619   3.179  1.00  0.00     0.010 A 
ATOM     37  C   UNL     1       5.959  -5.205   3.550  1.00  0.00    -0.014 A 
BRANCH  37  38
ATOM     38  C   UNL     1       6.624  -5.771   4.745  1.00  0.00     0.031 A 
ATOM     39  C   UNL     1       7.118  -7.191   4.688  1.00  0.00     0.074 A 
ATOM     40  C   UNL     1       6.857  -5.003   5.822  1.00  0.00     0.049 A 
ATOM     41  N   UNL     1       7.766  -7.883   5.589  1.00  0.00    -0.248 NA
ATOM     42  C   UNL     1       6.843  -7.932   3.445  1.00  0.00     0.031 C 
ATOM     43  C   UNL     1       6.443  -3.609   5.969  1.00  0.00     0.029 A 
ATOM     44  N   UNL     1       7.505  -5.290   6.995  1.00  0.00    -0.354 N 
ATOM     45  C   UNL     1       7.982  -9.132   5.020  1.00  0.00     0.074 A 
ATOM     46  C   UNL     1       7.350  -9.124   3.720  1.00  0.00     0.031 C 
ATOM     47  C   UNL     1       6.846  -3.160   7.169  1.00  0.00     0.029 A 
ATOM     48  C   UNL     1       7.521  -4.243   7.882  1.00  0.00     0.049 A 
ATOM     49  H   UNL     1       7.920  -6.163   7.184  1.00  0.00     0.167 HD
ATOM     50  C   UNL     1       8.666 -10.183   5.529  1.00  0.00     0.037 A 
ATOM     51  C   UNL     1       8.012  -4.179   9.133  1.00  0.00     0.037 A 
ATOM     52  C   UNL     1       9.284 -10.184   6.829  1.00  0.00     0.049 A 
ATOM     53  C   UNL     1       8.716  -5.384   9.701  1.00  0.00     0.074 A 
ATOM     54  C   UNL     1       9.994 -11.195   7.450  1.00  0.00     0.029 A 
ATOM     55  N   UNL     1       9.256  -9.113   7.713  1.00  0.00    -0.354 N 
ATOM     56  N   UNL     1       8.938  -6.553   9.148  1.00  0.00    -0.248 NA
ATOM     57  C   UNL     1       9.252  -5.255  11.062  1.00  0.00     0.031 C 
ATOM     58  C   UNL     1      10.352 -10.756   8.729  1.00  0.00     0.029 A 
ATOM     59  C   UNL     1       9.922  -9.447   8.882  1.00  0.00     0.049 A 
ATOM     60  H   UNL     1       8.827  -8.245   7.536  1.00  0.00     0.167 HD
ATOM     61  C   UNL     1       9.658  -7.288  10.081  1.00  0.00     0.074 A 
ATOM     62  C   UNL     1       9.862  -6.420  11.222  1.00  0.00     0.031 C 
ATOM     63  C   UNL     1      10.109  -8.566  10.007  1.00  0.00     0.037 A 
BRANCH  50  64
ATOM     64  C   UNL     1       8.770 -11.421   4.683  1.00  0.00     0.064 A 
ATOM     65  C   UNL     1       9.539 -11.448   3.509  1.00  0.00     0.173 A 
ATOM     66  C   UNL     1       8.120 -12.603   5.066  1.00  0.00     0.173 A 
ATOM     67  F   UNL     1      10.168 -10.341   3.087  1.00  0.00    -0.203 F 
ATOM     68  C   UNL     1       9.633 -12.605   2.739  1.00  0.00     0.198 A 
ATOM     69  C   UNL     1       8.242 -13.767   4.311  1.00  0.00     0.198 A 
ATOM     70  F   UNL     1       7.371 -12.634   6.179  1.00  0.00    -0.203 F 
ATOM     71  F   UNL     1      10.334 -12.593   1.596  1.00  0.00    -0.200 F 
ATOM     72  C   UNL     1       8.992 -13.766   3.145  1.00  0.00     0.200 A 
ATOM     73  F   UNL     1       7.632 -14.891   4.712  1.00  0.00    -0.200 F 
ATOM     74  F   UNL     1       9.092 -14.881   2.409  1.00  0.00    -0.200 F 
ENDBRANCH  50  64
BRANCH  51  75
ATOM     75  C   UNL     1       7.844  -2.938   9.937  1.00  0.00     0.064 A 
ATOM     76  C   UNL     1       8.945  -2.161  10.322  1.00  0.00     0.173 A 
ATOM     77  C   UNL     1       6.572  -2.518  10.357  1.00  0.00     0.173 A 
ATOM     78  F   UNL     1      10.183  -2.530   9.963  1.00  0.00    -0.203 F 
ATOM     79  C   UNL     1       8.784  -1.030  11.121  1.00  0.00     0.198 A 
ATOM     80  C   UNL     1       6.409  -1.368  11.125  1.00  0.00     0.198 A 
ATOM     81  F   UNL     1       5.484  -3.223  10.013  1.00  0.00    -0.203 F 
ATOM     82  F   UNL     1       9.859  -0.340  11.524  1.00  0.00    -0.200 F 
ATOM     83  C   UNL     1       7.516  -0.631  11.517  1.00  0.00     0.200 A 
ATOM     84  F   UNL     1       5.181  -0.977  11.490  1.00  0.00    -0.200 F 
ATOM     85  F   UNL     1       7.363   0.457  12.283  1.00  0.00    -0.200 F 
ENDBRANCH  51  75
BRANCH  63  86
ATOM     86  C   UNL     1      10.893  -9.082  11.181  1.00  0.00     0.064 A 
ATOM     87  C   UNL     1      10.291  -9.313  12.427  1.00  0.00     0.173 A 
ATOM     88  C   UNL     1      12.264  -9.354  11.055  1.00  0.00     0.173 A 
ATOM     89  F   UNL     1       8.986  -9.059  12.605  1.00  0.00    -0.203 F 
ATOM     90  C   UNL     1      11.042  -9.751  13.515  1.00  0.00     0.198 A 
ATOM     91  C   UNL     1      13.003  -9.830  12.134  1.00  0.00     0.198 A 
ATOM     92  F   UNL     1      12.887  -9.163   9.882  1.00  0.00    -0.203 F 
ATOM     93  F   UNL     1      10.460  -9.893  14.714  1.00  0.00    -0.200 F 
ATOM     94  C   UNL     1      12.396 -10.013  13.366  1.00  0.00     0.200 A 
ATOM     95  F   UNL     1      14.307 -10.101  11.983  1.00  0.00    -0.200 F 
ATOM     96  F   UNL     1      13.117 -10.432  14.415  1.00  0.00    -0.200 F 
ENDBRANCH  63  86
ENDBRANCH  37  38
ENDBRANCH  30  32
ENDBRANCH  29  30
ENDBRANCH  28  29
ENDBRANCH  27  28
ENDBRANCH  26  27
ENDBRANCH   1  26
TORSDOF 18
