REMARK SMILES O=C(OCCOCCOC(=O)c1ccc(-c2ccn(C(F)F)c(=O)c2)cc1O)c1ccc(-c2c3nc(c(-c4c(F)c(F)c(F)c(F)c4F)c4ccc([nH]4)c(-c4c(F)c(F)c(F)c(F)c4F)c4nc(c(-c5c(F)c(F)c(F)c(F)c5F)c5ccc2[nH]5)C=C4)C=C3)cc1
REMARK SMILES IDX 6 1 5 2 4 3 3 4 2 5 1 6 29 7 30 8 91 9 31 10 90 11 32 12
REMARK SMILES IDX 33 13 34 14 84 15 35 16 89 17 83 18 85 19 36 20 88 21 82 22
REMARK SMILES IDX 81 23 37 25 69 26 49 27 68 28 50 29 53 30 67 31 86 32 51 33
REMARK SMILES IDX 52 34 66 36 87 37 54 38 38 39 39 40 47 41 40 42 41 43 45 44
REMARK SMILES IDX 48 45 42 46 43 47 46 48 44 49 70 50 71 51 79 52 72 53 73 54
REMARK SMILES IDX 77 55 80 56 74 57 75 58 78 59 76 60 55 61 56 62 64 63 57 64
REMARK SMILES IDX 58 65 62 66 65 67 59 68 60 69 63 70 61 71 7 72 8 73 9 74
REMARK SMILES IDX 10 75 11 76 12 77 13 78 27 79 14 80 26 81 15 82 28 83 16 85
REMARK SMILES IDX 17 86 25 87 18 88 23 89 19 90 24 91 20 92 21 93 22 94
REMARK H PARENT 85 24 53 35 28 84
REMARK Flexibility Score: inf
ROOT
ATOM      1  O   UNL     1       4.032   0.155  -1.345  1.00  0.00    -0.374 OA
ENDROOT
BRANCH   1   2
ATOM      2  C   UNL     1       4.386  -1.176  -0.967  1.00  0.00     0.202 C 
BRANCH   2   3
ATOM      3  C   UNL     1       4.237  -1.437   0.532  1.00  0.00     0.261 C 
BRANCH   3   4
ATOM      4  O   UNL     1       2.897  -1.192   0.982  1.00  0.00    -0.460 OA
BRANCH   4   5
ATOM      5  C   UNL     1       2.307  -0.041   1.373  1.00  0.00     0.338 C 
ATOM      6  O   UNL     1       1.110  -0.096   1.661  1.00  0.00    -0.246 OA
BRANCH   5   7
ATOM      7  C   UNL     1       2.974   1.305   1.469  1.00  0.00     0.060 A 
ATOM      8  C   UNL     1       2.167   2.355   1.954  1.00  0.00     0.016 A 
ATOM      9  C   UNL     1       4.276   1.632   1.080  1.00  0.00     0.016 A 
ATOM     10  C   UNL     1       2.633   3.671   2.016  1.00  0.00     0.010 A 
ATOM     11  C   UNL     1       4.750   2.942   1.132  1.00  0.00     0.010 A 
ATOM     12  C   UNL     1       3.929   3.967   1.594  1.00  0.00    -0.014 A 
BRANCH  12  13
ATOM     13  C   UNL     1       4.495   5.317   1.734  1.00  0.00     0.031 A 
ATOM     14  C   UNL     1       4.595   6.235   0.559  1.00  0.00     0.074 A 
ATOM     15  C   UNL     1       5.010   5.646   2.930  1.00  0.00     0.049 A 
ATOM     16  N   UNL     1       5.018   7.471   0.518  1.00  0.00    -0.248 NA
ATOM     17  C   UNL     1       4.188   5.690  -0.745  1.00  0.00     0.031 C 
ATOM     18  C   UNL     1       5.038   4.761   4.096  1.00  0.00     0.029 A 
ATOM     19  N   UNL     1       5.622   6.790   3.359  1.00  0.00    -0.354 N 
ATOM     20  C   UNL     1       4.904   7.863  -0.808  1.00  0.00     0.074 A 
ATOM     21  C   UNL     1       4.428   6.716  -1.551  1.00  0.00     0.031 C 
ATOM     22  C   UNL     1       5.633   5.399   5.113  1.00  0.00     0.029 A 
ATOM     23  C   UNL     1       6.021   6.733   4.669  1.00  0.00     0.049 A 
ATOM     24  H   UNL     1       5.763   7.577   2.784  1.00  0.00     0.167 HD
ATOM     25  C   UNL     1       5.159   9.084  -1.337  1.00  0.00     0.037 A 
ATOM     26  C   UNL     1       6.615   7.668   5.431  1.00  0.00     0.037 A 
ATOM     27  C   UNL     1       5.661  10.193  -0.566  1.00  0.00     0.049 A 
ATOM     28  C   UNL     1       6.870   9.018   4.831  1.00  0.00     0.074 A 
ATOM     29  C   UNL     1       5.886  11.497  -0.968  1.00  0.00     0.029 A 
ATOM     30  N   UNL     1       6.037  10.116   0.770  1.00  0.00    -0.354 N 
ATOM     31  N   UNL     1       6.637   9.430   3.607  1.00  0.00    -0.248 NA
ATOM     32  C   UNL     1       7.445  10.037   5.714  1.00  0.00     0.031 C 
ATOM     33  C   UNL     1       6.444  12.195   0.110  1.00  0.00     0.029 A 
ATOM     34  C   UNL     1       6.522  11.340   1.200  1.00  0.00     0.049 A 
ATOM     35  H   UNL     1       5.969   9.309   1.329  1.00  0.00     0.167 HD
ATOM     36  C   UNL     1       7.028  10.758   3.571  1.00  0.00     0.074 A 
ATOM     37  C   UNL     1       7.493  11.088   4.905  1.00  0.00     0.031 C 
ATOM     38  C   UNL     1       7.005  11.627   2.529  1.00  0.00     0.037 A 
BRANCH  25  39
ATOM     39  C   UNL     1       4.884   9.289  -2.799  1.00  0.00     0.064 A 
ATOM     40  C   UNL     1       3.572   9.299  -3.301  1.00  0.00     0.173 A 
ATOM     41  C   UNL     1       5.928   9.539  -3.702  1.00  0.00     0.173 A 
ATOM     42  F   UNL     1       2.535   9.062  -2.484  1.00  0.00    -0.203 F 
ATOM     43  C   UNL     1       3.319   9.532  -4.651  1.00  0.00     0.198 A 
ATOM     44  C   UNL     1       5.670   9.798  -5.047  1.00  0.00     0.198 A 
ATOM     45  F   UNL     1       7.201   9.550  -3.279  1.00  0.00    -0.203 F 
ATOM     46  F   UNL     1       2.060   9.503  -5.110  1.00  0.00    -0.200 F 
ATOM     47  C   UNL     1       4.367   9.789  -5.521  1.00  0.00     0.200 A 
ATOM     48  F   UNL     1       6.683  10.061  -5.885  1.00  0.00    -0.200 F 
ATOM     49  F   UNL     1       4.121  10.027  -6.817  1.00  0.00    -0.200 F 
ENDBRANCH  25  39
BRANCH  26  50
ATOM     50  C   UNL     1       6.895   7.354   6.852  1.00  0.00     0.064 A 
ATOM     51  C   UNL     1       6.071   7.859   7.866  1.00  0.00     0.173 A 
ATOM     52  C   UNL     1       7.902   6.448   7.215  1.00  0.00     0.173 A 
ATOM     53  F   UNL     1       5.097   8.730   7.564  1.00  0.00    -0.203 F 
ATOM     54  C   UNL     1       6.237   7.463   9.190  1.00  0.00     0.198 A 
ATOM     55  C   UNL     1       8.055   6.037   8.538  1.00  0.00     0.198 A 
ATOM     56  F   UNL     1       8.703   5.922   6.276  1.00  0.00    -0.203 F 
ATOM     57  F   UNL     1       5.434   7.959  10.141  1.00  0.00    -0.200 F 
ATOM     58  C   UNL     1       7.221   6.543   9.524  1.00  0.00     0.200 A 
ATOM     59  F   UNL     1       8.991   5.131   8.853  1.00  0.00    -0.200 F 
ATOM     60  F   UNL     1       7.358   6.137  10.793  1.00  0.00    -0.200 F 
ENDBRANCH  26  50
BRANCH  38  61
ATOM     61  C   UNL     1       7.522  13.008   2.790  1.00  0.00     0.064 A 
ATOM     62  C   UNL     1       8.896  13.254   2.926  1.00  0.00     0.173 A 
ATOM     63  C   UNL     1       6.645  14.101   2.848  1.00  0.00     0.173 A 
ATOM     64  F   UNL     1       9.770  12.237   2.893  1.00  0.00    -0.203 F 
ATOM     65  C   UNL     1       9.373  14.545   3.126  1.00  0.00     0.198 A 
ATOM     66  C   UNL     1       7.128  15.394   3.022  1.00  0.00     0.198 A 
ATOM     67  F   UNL     1       5.323  13.916   2.717  1.00  0.00    -0.203 F 
ATOM     68  F   UNL     1      10.686  14.754   3.290  1.00  0.00    -0.200 F 
ATOM     69  C   UNL     1       8.490  15.615   3.165  1.00  0.00     0.200 A 
ATOM     70  F   UNL     1       6.276  16.428   3.047  1.00  0.00    -0.200 F 
ATOM     71  F   UNL     1       8.953  16.859   3.347  1.00  0.00    -0.200 F 
ENDBRANCH  38  61
ENDBRANCH  12  13
ENDBRANCH   5   7
ENDBRANCH   4   5
ENDBRANCH   3   4
ENDBRANCH   2   3
ENDBRANCH   1   2
BRANCH   1  72
ATOM     72  C   UNL     1       2.732   0.288  -1.933  1.00  0.00     0.202 C 
BRANCH  72  73
ATOM     73  C   UNL     1       2.844   0.488  -3.443  1.00  0.00     0.261 C 
BRANCH  73  74
ATOM     74  O   UNL     1       3.369  -0.710  -4.025  1.00  0.00    -0.460 OA
BRANCH  74  75
ATOM     75  C   UNL     1       4.701  -0.719  -4.276  1.00  0.00     0.341 C 
ATOM     76  O   UNL     1       5.475   0.222  -4.218  1.00  0.00    -0.246 OA
BRANCH  75  77
ATOM     77  C   UNL     1       5.137  -2.127  -4.375  1.00  0.00     0.101 A 
ATOM     78  C   UNL     1       6.276  -2.498  -3.643  1.00  0.00     0.020 A 
ATOM     79  C   UNL     1       4.432  -3.089  -5.101  1.00  0.00     0.130 A 
ATOM     80  C   UNL     1       6.688  -3.830  -3.607  1.00  0.00     0.010 A 
ATOM     81  C   UNL     1       4.848  -4.418  -5.077  1.00  0.00     0.055 A 
ATOM     82  C   UNL     1       5.977  -4.791  -4.331  1.00  0.00    -0.014 A 
BRANCH  79  83
ATOM     83  O   UNL     1       3.360  -2.735  -5.870  1.00  0.00    -0.507 OA
ATOM     84  H   UNL     1       3.073  -1.843  -5.892  1.00  0.00     0.293 HD
ENDBRANCH  79  83
BRANCH  82  85
ATOM     85  C   UNL     1       6.462  -6.173  -4.437  1.00  0.00    -0.011 A 
ATOM     86  C   UNL     1       7.236  -6.596  -5.585  1.00  0.00     0.027 A 
ATOM     87  C   UNL     1       6.125  -7.069  -3.495  1.00  0.00     0.080 A 
ATOM     88  C   UNL     1       7.552  -7.883  -5.750  1.00  0.00     0.095 A 
ATOM     89  C   UNL     1       6.498  -8.505  -3.653  1.00  0.00     0.255 A 
ATOM     90  N   UNL     1       7.177  -8.830  -4.818  1.00  0.00    -0.258 N 
ATOM     91  O   UNL     1       6.166  -9.295  -2.775  1.00  0.00    -0.269 OA
BRANCH  90  92
ATOM     92  C   UNL     1       7.467 -10.223  -5.045  1.00  0.00     0.451 C 
ATOM     93  F   UNL     1       8.233 -10.735  -4.053  1.00  0.00    -0.185 F 
ATOM     94  F   UNL     1       6.323 -10.947  -5.114  1.00  0.00    -0.185 F 
ENDBRANCH  90  92
ENDBRANCH  82  85
ENDBRANCH  75  77
ENDBRANCH  74  75
ENDBRANCH  73  74
ENDBRANCH  72  73
ENDBRANCH   1  72
TORSDOF 17
