REMARK SMILES O=C(CCC/[NH+]=C1/CCCc2ccccc2N1)OCCOCCOC(=O)c1ccc(-c2c3nc(c(-c4c(F)c(F)c(F)c(F)c4F)c4ccc([nH]4)c(-c4c(F)c(F)c(F)c(F)c4F)c4nc(c(-c5c(F)c(F)c(F)c(F)c5F)c5ccc2[nH]5)C=C4)C=C3)cc1
REMARK SMILES IDX 19 1 18 2 2 3 1 4 3 5 4 6 5 7 6 8 7 9 17 11 8 13 9 14 16 16
REMARK SMILES IDX 11 17 15 18 12 19 14 20 13 21 10 22 20 24 21 25 22 26 23 27
REMARK SMILES IDX 24 28 25 29 26 30 27 31 28 32 89 33 29 34 88 35 30 36 31 37
REMARK SMILES IDX 32 38 82 39 33 40 87 41 81 42 83 43 34 44 86 45 80 46 79 47
REMARK SMILES IDX 35 49 67 50 47 51 66 52 48 53 51 54 65 55 84 56 49 57 50 58
REMARK SMILES IDX 64 60 85 61 52 62 36 63 37 64 45 65 38 66 39 67 43 68 46 69
REMARK SMILES IDX 40 70 41 71 44 72 42 73 68 74 69 75 77 76 70 77 71 78 75 79
REMARK SMILES IDX 78 80 72 81 73 82 76 83 74 84 53 85 54 86 62 87 55 88 56 89
REMARK SMILES IDX 60 90 63 91 57 92 58 93 61 94 59 95
REMARK H PARENT 6 10 17 12 83 48 51 59
REMARK Flexibility Score: 90.00
ROOT
ATOM      1  C   UNL     1       2.428   2.631  -0.818  1.00  0.00     0.261 C 
ENDROOT
BRANCH   1   2
ATOM      2  O   UNL     1       3.233   1.960  -1.791  1.00  0.00    -0.463 OA
BRANCH   2   3
ATOM      3  C   UNL     1       2.594   0.873  -2.287  1.00  0.00     0.306 C 
ATOM      4  O   UNL     1       1.378   0.821  -2.463  1.00  0.00    -0.252 OA
BRANCH   3   5
ATOM      5  C   UNL     1       3.491  -0.331  -2.457  1.00  0.00     0.127 C 
BRANCH   5   6
ATOM      6  C   UNL     1       4.995  -0.263  -2.120  1.00  0.00     0.057 C 
BRANCH   6   7
ATOM      7  C   UNL     1       5.536   0.374  -0.808  1.00  0.00     0.234 C 
BRANCH   7   8
ATOM      8  N   UNL     1       6.093  -0.559   0.177  1.00  0.00    -0.278 N 
ATOM      9  C   UNL     1       5.748  -0.641   1.424  1.00  0.00     0.247 C 
ATOM     10  H   UNL     1       6.792  -1.178  -0.137  1.00  0.00     0.304 HD
ATOM     11  N   UNL     1       4.477   0.172   2.195  1.00  0.00    -0.245 N 
ATOM     12  H   UNL     1       4.352   1.096   1.878  1.00  0.00     0.312 HD
BRANCH   9  13
ATOM     13  C   UNL     1       6.798  -1.982   2.286  1.00  0.00     0.128 C 
BRANCH  13  14
ATOM     14  C   UNL     1       6.396  -2.888   3.883  1.00  0.00     0.018 CG0
ATOM     15  G   UNL     1       4.669  -2.958   4.656  1.00  0.00     0.000 G0
ENDBRANCH  13  14
ENDBRANCH   9  13
BRANCH  11  16
ATOM     16  C   UNL     1       3.323  -0.305   3.460  1.00  0.00     0.127 A 
ATOM     17  C   UNL     1       3.316  -1.705   4.388  1.00  0.00    -0.001 A 
ATOM     18  C   UNL     1       2.387   0.685   3.723  1.00  0.00     0.052 A 
ATOM     19  C   UNL     1       2.319  -1.845   5.352  1.00  0.00     0.008 A 
ATOM     20  C   UNL     1       1.455   0.421   4.741  1.00  0.00     0.004 A 
ATOM     21  C   UNL     1       1.422  -0.779   5.515  1.00  0.00     0.001 A 
BRANCH  17  22
ATOM     22  C   UNL     1       4.669  -2.958   4.656  1.00  0.00     0.040 CG0
ATOM     23  G   UNL     1       6.396  -2.888   3.883  1.00  0.00     0.000 G0
ENDBRANCH  17  22
ENDBRANCH  11  16
ENDBRANCH   7   8
ENDBRANCH   6   7
ENDBRANCH   5   6
ENDBRANCH   3   5
ENDBRANCH   2   3
ENDBRANCH   1   2
BRANCH   1  24
ATOM     24  C   UNL     1       2.413   1.839   0.496  1.00  0.00     0.202 C 
BRANCH  24  25
ATOM     25  O   UNL     1       2.680   0.432   0.352  1.00  0.00    -0.374 OA
BRANCH  25  26
ATOM     26  C   UNL     1       1.677  -0.544   0.684  1.00  0.00     0.202 C 
BRANCH  26  27
ATOM     27  C   UNL     1       2.301  -1.853   1.322  1.00  0.00     0.261 C 
BRANCH  27  28
ATOM     28  O   UNL     1       3.742  -1.672   1.499  1.00  0.00    -0.460 OA
BRANCH  28  29
ATOM     29  C   UNL     1       4.606  -2.047   2.619  1.00  0.00     0.338 C 
ATOM     30  O   UNL     1       4.707  -3.263   2.458  1.00  0.00    -0.246 OA
BRANCH  29  31
ATOM     31  C   UNL     1       5.562  -0.739   3.897  1.00  0.00     0.060 A 
ATOM     32  C   UNL     1       5.268  -0.527   5.309  1.00  0.00     0.016 A 
ATOM     33  C   UNL     1       6.519   0.371   3.650  1.00  0.00     0.016 A 
ATOM     34  C   UNL     1       5.421   0.643   6.094  1.00  0.00     0.010 A 
ATOM     35  C   UNL     1       6.864   1.497   4.533  1.00  0.00     0.010 A 
ATOM     36  C   UNL     1       6.264   1.679   5.770  1.00  0.00    -0.014 A 
BRANCH  36  37
ATOM     37  C   UNL     1       6.425   2.782   6.796  1.00  0.00     0.031 A 
ATOM     38  C   UNL     1       6.235   4.250   6.477  1.00  0.00     0.074 A 
ATOM     39  C   UNL     1       6.562   2.458   8.111  1.00  0.00     0.049 A 
ATOM     40  N   UNL     1       6.244   5.279   7.299  1.00  0.00    -0.248 NA
ATOM     41  C   UNL     1       6.008   4.619   5.076  1.00  0.00     0.031 C 
ATOM     42  C   UNL     1       6.726   1.097   8.629  1.00  0.00     0.029 A 
ATOM     43  N   UNL     1       6.489   3.221   9.261  1.00  0.00    -0.354 N 
ATOM     44  C   UNL     1       6.069   6.412   6.514  1.00  0.00     0.074 A 
ATOM     45  C   UNL     1       5.955   5.945   5.146  1.00  0.00     0.031 C 
ATOM     46  C   UNL     1       6.557   1.097   9.956  1.00  0.00     0.029 A 
ATOM     47  C   UNL     1       6.452   2.474  10.422  1.00  0.00     0.049 A 
ATOM     48  H   UNL     1       6.466   4.205   9.254  1.00  0.00     0.167 HD
ATOM     49  C   UNL     1       6.010   7.717   6.887  1.00  0.00     0.037 A 
ATOM     50  C   UNL     1       6.378   2.824  11.724  1.00  0.00     0.037 A 
ATOM     51  C   UNL     1       6.083   8.211   8.242  1.00  0.00     0.049 A 
ATOM     52  C   UNL     1       6.389   4.276  12.106  1.00  0.00     0.074 A 
ATOM     53  C   UNL     1       6.047   9.527   8.681  1.00  0.00     0.029 A 
ATOM     54  N   UNL     1       6.193   7.425   9.378  1.00  0.00    -0.354 N 
ATOM     55  N   UNL     1       6.287   5.330  11.339  1.00  0.00    -0.248 NA
ATOM     56  C   UNL     1       6.556   4.588  13.535  1.00  0.00     0.031 C 
ATOM     57  C   UNL     1       6.185   9.539  10.072  1.00  0.00     0.029 A 
ATOM     58  C   UNL     1       6.255   8.229  10.509  1.00  0.00     0.049 A 
ATOM     59  H   UNL     1       6.222   6.441   9.382  1.00  0.00     0.167 HD
ATOM     60  C   UNL     1       6.384   6.426  12.186  1.00  0.00     0.074 A 
ATOM     61  C   UNL     1       6.516   5.914  13.531  1.00  0.00     0.031 C 
ATOM     62  C   UNL     1       6.383   7.739  11.858  1.00  0.00     0.037 A 
BRANCH  49  63
ATOM     63  C   UNL     1       5.898   8.746   5.797  1.00  0.00     0.064 A 
ATOM     64  C   UNL     1       4.703   8.957   5.097  1.00  0.00     0.173 A 
ATOM     65  C   UNL     1       6.989   9.580   5.500  1.00  0.00     0.173 A 
ATOM     66  F   UNL     1       3.632   8.187   5.342  1.00  0.00    -0.203 F 
ATOM     67  C   UNL     1       4.612   9.945   4.119  1.00  0.00     0.198 A 
ATOM     68  C   UNL     1       6.886  10.586   4.542  1.00  0.00     0.198 A 
ATOM     69  F   UNL     1       8.150   9.435   6.157  1.00  0.00    -0.203 F 
ATOM     70  F   UNL     1       3.471  10.101   3.431  1.00  0.00    -0.200 F 
ATOM     71  C   UNL     1       5.700  10.762   3.847  1.00  0.00     0.200 A 
ATOM     72  F   UNL     1       7.932  11.386   4.296  1.00  0.00    -0.200 F 
ATOM     73  F   UNL     1       5.606  11.716   2.910  1.00  0.00    -0.200 F 
ENDBRANCH  49  63
BRANCH  50  74
ATOM     74  C   UNL     1       6.353   1.775  12.785  1.00  0.00     0.064 A 
ATOM     75  C   UNL     1       5.245   1.629  13.632  1.00  0.00     0.173 A 
ATOM     76  C   UNL     1       7.439   0.908  12.983  1.00  0.00     0.173 A 
ATOM     77  F   UNL     1       4.196   2.456  13.513  1.00  0.00    -0.203 F 
ATOM     78  C   UNL     1       5.225   0.656  14.631  1.00  0.00     0.198 A 
ATOM     79  C   UNL     1       7.400  -0.090  13.954  1.00  0.00     0.198 A 
ATOM     80  F   UNL     1       8.532   1.012  12.214  1.00  0.00    -0.203 F 
ATOM     81  F   UNL     1       4.172   0.566  15.456  1.00  0.00    -0.200 F 
ATOM     82  C   UNL     1       6.296  -0.211  14.782  1.00  0.00     0.200 A 
ATOM     83  F   UNL     1       8.432  -0.935  14.082  1.00  0.00    -0.200 F 
ATOM     84  F   UNL     1       6.269  -1.157  15.731  1.00  0.00    -0.200 F 
ENDBRANCH  50  74
BRANCH  62  85
ATOM     85  C   UNL     1       6.525   8.743  12.965  1.00  0.00     0.064 A 
ATOM     86  C   UNL     1       7.753   8.951  13.609  1.00  0.00     0.173 A 
ATOM     87  C   UNL     1       5.447   9.566  13.329  1.00  0.00     0.173 A 
ATOM     88  F   UNL     1       8.810   8.179  13.313  1.00  0.00    -0.203 F 
ATOM     89  C   UNL     1       7.898   9.944  14.575  1.00  0.00     0.198 A 
ATOM     90  C   UNL     1       5.602  10.574  14.277  1.00  0.00     0.198 A 
ATOM     91  F   UNL     1       4.250   9.409  12.745  1.00  0.00    -0.203 F 
ATOM     92  F   UNL     1       9.076  10.110  15.193  1.00  0.00    -0.200 F 
ATOM     93  C   UNL     1       6.827  10.763  14.899  1.00  0.00     0.200 A 
ATOM     94  F   UNL     1       4.569  11.371  14.581  1.00  0.00    -0.200 F 
ATOM     95  F   UNL     1       6.975  11.734  15.812  1.00  0.00    -0.200 F 
ENDBRANCH  62  85
ENDBRANCH  36  37
ENDBRANCH  29  31
ENDBRANCH  28  29
ENDBRANCH  27  28
ENDBRANCH  26  27
ENDBRANCH  25  26
ENDBRANCH  24  25
ENDBRANCH   1  24
TORSDOF 17
