REMARK SMILES [NH3+][C@]1(C(=O)OCCOCCOC(=O)c2ccc(-c3c4nc(c(-c5c(F)c(F)c(F)c(F)c5F)c5ccc([nH]5)c(-c5c(F)c(F)c(F)c(F)c5F)c5nc(c(-c6c(F)c(F)c(F)c(F)c6F)c6ccc3[nH]6)C=C5)C=C4)cc2)CC[N@H+](Cc2ccccc2O)C1
REMARK SMILES IDX 7 1 6 2 5 3 3 4 4 5 2 6 77 7 88 8 78 9 79 10 1 12 80 16
REMARK SMILES IDX 81 17 82 18 86 19 83 20 85 21 84 22 87 23 8 25 9 26 10 27
REMARK SMILES IDX 11 28 12 29 13 30 14 31 15 32 76 33 16 34 75 35 17 36 18 37
REMARK SMILES IDX 19 38 69 39 20 40 74 41 68 42 70 43 21 44 73 45 67 46 66 47
REMARK SMILES IDX 22 49 54 50 34 51 53 52 35 53 38 54 52 55 71 56 36 57 37 58
REMARK SMILES IDX 51 60 72 61 39 62 23 63 24 64 32 65 25 66 26 67 30 68 33 69
REMARK SMILES IDX 27 70 28 71 31 72 29 73 55 74 56 75 64 76 57 77 58 78 62 79
REMARK SMILES IDX 65 80 59 81 60 82 63 83 61 84 40 85 41 86 49 87 42 88 43 89
REMARK SMILES IDX 47 90 50 91 44 92 45 93 48 94 46 95
REMARK H PARENT 79 11 1 13 1 14 1 15 87 24 70 48 38 59
REMARK Flexibility Score: inf
ROOT
ATOM      1  C   UNL     1       2.243   0.440   2.549  1.00  0.00     0.202 C 
ENDROOT
BRANCH   1   2
ATOM      2  C   UNL     1       2.368  -0.681   1.513  1.00  0.00     0.261 C 
BRANCH   2   3
ATOM      3  O   UNL     1       1.916  -0.296   0.199  1.00  0.00    -0.458 OA
BRANCH   3   4
ATOM      4  C   UNL     1       0.748  -0.888  -0.191  1.00  0.00     0.374 C 
ATOM      5  O   UNL     1       0.132  -1.699   0.494  1.00  0.00    -0.244 OA
BRANCH   4   6
ATOM      6  C   UNL     1       0.339  -0.505  -1.627  1.00  0.00     0.246 C 
ATOM      7  C   UNL     1      -1.041  -1.096  -1.917  1.00  0.00     0.148 C 
ATOM      8  C   UNL     1       0.060   0.997  -1.854  1.00  0.00     0.344 C 
ATOM      9  C   UNL     1      -1.581  -0.244  -3.045  1.00  0.00     0.270 C 
ATOM     10  N   UNL     1      -1.052   1.098  -2.816  1.00  0.00    -0.325 N 
ATOM     11  H   UNL     1      -1.775   1.675  -2.386  1.00  0.00     0.348 HD
BRANCH   6  12
ATOM     12  N   UNL     1       1.348  -1.009  -2.593  1.00  0.00    -0.338 N 
ATOM     13  H   UNL     1       1.071  -0.751  -3.540  1.00  0.00     0.345 HD
ATOM     14  H   UNL     1       1.410  -2.025  -2.521  1.00  0.00     0.345 HD
ATOM     15  H   UNL     1       2.257  -0.598  -2.381  1.00  0.00     0.345 HD
ENDBRANCH   6  12
BRANCH  10  16
ATOM     16  C   UNL     1      -0.827   1.908  -4.017  1.00  0.00     0.303 C 
BRANCH  16  17
ATOM     17  C   UNL     1       0.363   1.549  -4.887  1.00  0.00     0.048 A 
ATOM     18  C   UNL     1       1.561   2.271  -4.711  1.00  0.00     0.013 A 
ATOM     19  C   UNL     1       0.363   0.525  -5.845  1.00  0.00     0.124 A 
ATOM     20  C   UNL     1       2.725   1.930  -5.403  1.00  0.00     0.001 A 
ATOM     21  C   UNL     1       1.535   0.153  -6.504  1.00  0.00     0.046 A 
ATOM     22  C   UNL     1       2.719   0.850  -6.279  1.00  0.00     0.004 A 
BRANCH  19  23
ATOM     23  O   UNL     1      -0.755  -0.161  -6.230  1.00  0.00    -0.507 OA
ATOM     24  H   UNL     1      -1.582   0.031  -5.833  1.00  0.00     0.293 HD
ENDBRANCH  19  23
ENDBRANCH  16  17
ENDBRANCH  10  16
ENDBRANCH   4   6
ENDBRANCH   3   4
ENDBRANCH   2   3
ENDBRANCH   1   2
BRANCH   1  25
ATOM     25  O   UNL     1       0.938   0.952   2.809  1.00  0.00    -0.374 OA
BRANCH  25  26
ATOM     26  C   UNL     1       0.388   1.833   1.832  1.00  0.00     0.202 C 
BRANCH  26  27
ATOM     27  C   UNL     1       0.864   3.289   1.860  1.00  0.00     0.261 C 
BRANCH  27  28
ATOM     28  O   UNL     1       2.265   3.391   1.547  1.00  0.00    -0.460 OA
BRANCH  28  29
ATOM     29  C   UNL     1       3.048   3.747   2.591  1.00  0.00     0.338 C 
ATOM     30  O   UNL     1       2.685   4.106   3.703  1.00  0.00    -0.246 OA
BRANCH  29  31
ATOM     31  C   UNL     1       4.461   3.461   2.284  1.00  0.00     0.060 A 
ATOM     32  C   UNL     1       5.177   2.705   3.221  1.00  0.00     0.016 A 
ATOM     33  C   UNL     1       5.093   3.967   1.146  1.00  0.00     0.016 A 
ATOM     34  C   UNL     1       6.544   2.506   3.060  1.00  0.00     0.010 A 
ATOM     35  C   UNL     1       6.471   3.777   0.991  1.00  0.00     0.010 A 
ATOM     36  C   UNL     1       7.206   3.084   1.970  1.00  0.00    -0.014 A 
BRANCH  36  37
ATOM     37  C   UNL     1       8.688   3.115   1.964  1.00  0.00     0.031 A 
ATOM     38  C   UNL     1       9.383   4.351   2.462  1.00  0.00     0.074 A 
ATOM     39  C   UNL     1       9.400   2.045   1.572  1.00  0.00     0.049 A 
ATOM     40  N   UNL     1      10.663   4.612   2.542  1.00  0.00    -0.248 NA
ATOM     41  C   UNL     1       8.517   5.443   2.936  1.00  0.00     0.031 C 
ATOM     42  C   UNL     1       8.836   0.777   1.116  1.00  0.00     0.029 A 
ATOM     43  N   UNL     1      10.757   1.859   1.497  1.00  0.00    -0.354 N 
ATOM     44  C   UNL     1      10.754   5.893   3.070  1.00  0.00     0.074 A 
ATOM     45  C   UNL     1       9.403   6.371   3.263  1.00  0.00     0.031 C 
ATOM     46  C   UNL     1       9.841  -0.057   0.797  1.00  0.00     0.029 A 
ATOM     47  C   UNL     1      11.116   0.630   1.001  1.00  0.00     0.049 A 
ATOM     48  H   UNL     1      11.411   2.541   1.772  1.00  0.00     0.167 HD
ATOM     49  C   UNL     1      11.866   6.603   3.375  1.00  0.00     0.037 A 
ATOM     50  C   UNL     1      12.336   0.130   0.726  1.00  0.00     0.037 A 
ATOM     51  C   UNL     1      13.208   6.122   3.183  1.00  0.00     0.049 A 
ATOM     52  C   UNL     1      13.557   0.967   1.008  1.00  0.00     0.074 A 
ATOM     53  C   UNL     1      14.402   6.757   3.475  1.00  0.00     0.029 A 
ATOM     54  N   UNL     1      13.532   4.886   2.643  1.00  0.00    -0.354 N 
ATOM     55  N   UNL     1      13.636   2.168   1.527  1.00  0.00    -0.248 NA
ATOM     56  C   UNL     1      14.859   0.376   0.667  1.00  0.00     0.031 C 
ATOM     57  C   UNL     1      15.450   5.924   3.067  1.00  0.00     0.029 A 
ATOM     58  C   UNL     1      14.909   4.750   2.568  1.00  0.00     0.049 A 
ATOM     59  H   UNL     1      12.880   4.207   2.356  1.00  0.00     0.167 HD
ATOM     60  C   UNL     1      14.991   2.466   1.601  1.00  0.00     0.074 A 
ATOM     61  C   UNL     1      15.699   1.314   1.083  1.00  0.00     0.031 C 
ATOM     62  C   UNL     1      15.595   3.591   2.056  1.00  0.00     0.037 A 
BRANCH  49  63
ATOM     63  C   UNL     1      11.675   7.986   3.923  1.00  0.00     0.064 A 
ATOM     64  C   UNL     1      11.198   8.205   5.224  1.00  0.00     0.173 A 
ATOM     65  C   UNL     1      12.001   9.107   3.145  1.00  0.00     0.173 A 
ATOM     66  F   UNL     1      10.857   7.166   6.001  1.00  0.00    -0.203 F 
ATOM     67  C   UNL     1      11.032   9.497   5.717  1.00  0.00     0.198 A 
ATOM     68  C   UNL     1      11.860  10.396   3.651  1.00  0.00     0.198 A 
ATOM     69  F   UNL     1      12.463   8.952   1.895  1.00  0.00    -0.203 F 
ATOM     70  F   UNL     1      10.532   9.684   6.947  1.00  0.00    -0.200 F 
ATOM     71  C   UNL     1      11.369  10.590   4.934  1.00  0.00     0.200 A 
ATOM     72  F   UNL     1      12.195  11.451   2.896  1.00  0.00    -0.200 F 
ATOM     73  F   UNL     1      11.214  11.833   5.412  1.00  0.00    -0.200 F 
ENDBRANCH  49  63
BRANCH  50  74
ATOM     74  C   UNL     1      12.465  -1.230   0.139  1.00  0.00     0.064 A 
ATOM     75  C   UNL     1      13.024  -2.285   0.871  1.00  0.00     0.173 A 
ATOM     76  C   UNL     1      12.044  -1.496  -1.172  1.00  0.00     0.173 A 
ATOM     77  F   UNL     1      13.465  -2.074   2.120  1.00  0.00    -0.203 F 
ATOM     78  C   UNL     1      13.171  -3.552   0.309  1.00  0.00     0.198 A 
ATOM     79  C   UNL     1      12.166  -2.769  -1.724  1.00  0.00     0.198 A 
ATOM     80  F   UNL     1      11.504  -0.518  -1.916  1.00  0.00    -0.203 F 
ATOM     81  F   UNL     1      13.749  -4.533   1.015  1.00  0.00    -0.200 F 
ATOM     82  C   UNL     1      12.737  -3.794  -0.986  1.00  0.00     0.200 A 
ATOM     83  F   UNL     1      11.735  -3.000  -2.971  1.00  0.00    -0.200 F 
ATOM     84  F   UNL     1      12.876  -5.013  -1.525  1.00  0.00    -0.200 F 
ENDBRANCH  50  74
BRANCH  62  85
ATOM     85  C   UNL     1      17.095   3.621   2.047  1.00  0.00     0.064 A 
ATOM     86  C   UNL     1      17.821   3.749   0.854  1.00  0.00     0.173 A 
ATOM     87  C   UNL     1      17.813   3.568   3.252  1.00  0.00     0.173 A 
ATOM     88  F   UNL     1      17.181   3.789  -0.324  1.00  0.00    -0.203 F 
ATOM     89  C   UNL     1      19.213   3.801   0.867  1.00  0.00     0.198 A 
ATOM     90  C   UNL     1      19.202   3.650   3.263  1.00  0.00     0.198 A 
ATOM     91  F   UNL     1      17.164   3.454   4.421  1.00  0.00    -0.203 F 
ATOM     92  F   UNL     1      19.888   3.881  -0.288  1.00  0.00    -0.200 F 
ATOM     93  C   UNL     1      19.901   3.760   2.070  1.00  0.00     0.200 A 
ATOM     94  F   UNL     1      19.865   3.623   4.427  1.00  0.00    -0.200 F 
ATOM     95  F   UNL     1      21.240   3.819   2.080  1.00  0.00    -0.200 F 
ENDBRANCH  62  85
ENDBRANCH  36  37
ENDBRANCH  29  31
ENDBRANCH  28  29
ENDBRANCH  27  28
ENDBRANCH  26  27
ENDBRANCH  25  26
ENDBRANCH   1  25
TORSDOF 18
