REMARK SMILES C[C@H](CCC(=O)OCCOCCOC(=O)c1ccc(-c2c3nc(c(-c4c(F)c(F)c(F)c(F)c4F)c4ccc([nH]4)c(-c4c(F)c(F)c(F)c(F)c4F)c4nc(c(-c5c(F)c(F)c(F)c(F)c5F)c5ccc2[nH]5)C=C4)C=C3)cc1)[C@H]1CC[C@@H]2[C@H]3CC[C@H]4C[C@@H](O)CC[C@@]4(C)C3=CC(=O)[C@]12C
REMARK SMILES IDX 9 1 8 2 7 3 5 4 6 5 4 6 3 7 2 8 1 9 79 10 80 11 98 12 81 13
REMARK SMILES IDX 82 14 96 15 99 16 83 17 95 18 97 19 84 20 94 21 85 22 92 23
REMARK SMILES IDX 86 24 91 25 93 26 87 27 90 28 88 29 89 30 10 32 11 33 12 34
REMARK SMILES IDX 13 35 14 36 15 37 16 38 17 39 78 40 18 41 77 42 19 43 20 44
REMARK SMILES IDX 21 45 71 46 22 47 76 48 70 49 72 50 23 51 75 52 69 53 68 54
REMARK SMILES IDX 24 56 56 57 36 58 55 59 37 60 40 61 54 62 73 63 38 64 39 65
REMARK SMILES IDX 53 67 74 68 41 69 25 70 26 71 34 72 27 73 28 74 32 75 35 76
REMARK SMILES IDX 29 77 30 78 33 79 31 80 57 81 58 82 66 83 59 84 60 85 64 86
REMARK SMILES IDX 67 87 61 88 62 89 65 90 63 91 42 92 43 93 51 94 44 95 45 96
REMARK SMILES IDX 49 97 52 98 46 99 47 100 50 101 48 102
REMARK H PARENT 89 31 72 55 40 66
REMARK Flexibility Score: inf
ROOT
ATOM      1  C   UNL     1       3.158   5.941  -0.516  1.00  0.00     0.202 C 
ENDROOT
BRANCH   1   2
ATOM      2  C   UNL     1       1.933   5.903  -1.433  1.00  0.00     0.261 C 
BRANCH   2   3
ATOM      3  O   UNL     1       1.177   4.710  -1.194  1.00  0.00    -0.463 OA
BRANCH   3   4
ATOM      4  C   UNL     1       0.805   3.991  -2.284  1.00  0.00     0.305 C 
ATOM      5  O   UNL     1       0.930   4.358  -3.445  1.00  0.00    -0.252 OA
BRANCH   4   6
ATOM      6  C   UNL     1       0.302   2.619  -1.905  1.00  0.00     0.123 C 
BRANCH   6   7
ATOM      7  C   UNL     1       0.132   2.389  -0.407  1.00  0.00     0.015 C 
BRANCH   7   8
ATOM      8  C   UNL     1      -1.190   2.873   0.251  1.00  0.00    -0.010 C 
ATOM      9  C   UNL     1      -2.112   3.748  -0.573  1.00  0.00     0.008 C 
BRANCH   8  10
ATOM     10  C   UNL     1      -1.841   1.708   0.992  1.00  0.00     0.006 C 
ATOM     11  C   UNL     1      -3.071   1.971   1.961  1.00  0.00     0.005 C 
ATOM     12  C   UNL     1      -2.240   0.336   0.372  1.00  0.00     0.037 C 
ATOM     13  C   UNL     1      -3.591   0.512   2.348  1.00  0.00     0.005 C 
ATOM     14  C   UNL     1      -2.453  -0.354   1.771  1.00  0.00     0.010 C 
ATOM     15  C   UNL     1      -1.336  -0.492  -0.551  1.00  0.00     0.162 C 
ATOM     16  C   UNL     1      -3.521   0.492  -0.512  1.00  0.00     0.020 C 
ATOM     17  C   UNL     1      -1.232  -1.237   2.206  1.00  0.00     0.020 C 
ATOM     18  C   UNL     1      -0.809  -1.820  -0.141  1.00  0.00     0.048 C 
ATOM     19  O   UNL     1      -1.060  -0.125  -1.697  1.00  0.00    -0.294 OA
ATOM     20  C   UNL     1      -1.369  -1.761   3.639  1.00  0.00     0.009 C 
ATOM     21  C   UNL     1      -0.679  -2.168   1.151  1.00  0.00    -0.057 C 
ATOM     22  C   UNL     1      -0.122  -2.537   4.037  1.00  0.00     0.005 C 
ATOM     23  C   UNL     1       0.395  -3.195   1.596  1.00  0.00    -0.008 C 
ATOM     24  C   UNL     1       0.140  -3.686   3.057  1.00  0.00     0.001 C 
ATOM     25  C   UNL     1       0.568  -4.451   0.686  1.00  0.00     0.014 C 
ATOM     26  C   UNL     1       1.759  -2.440   1.525  1.00  0.00     0.016 C 
ATOM     27  C   UNL     1      -1.030  -4.682   3.123  1.00  0.00     0.036 C 
ATOM     28  C   UNL     1      -0.551  -5.479   0.805  1.00  0.00     0.032 C 
ATOM     29  C   UNL     1      -0.783  -5.898   2.251  1.00  0.00     0.114 C 
BRANCH  29  30
ATOM     30  O   UNL     1      -1.920  -6.751   2.304  1.00  0.00    -0.393 OA
ATOM     31  H   UNL     1      -2.697  -6.273   1.974  1.00  0.00     0.210 HD
ENDBRANCH  29  30
ENDBRANCH   8  10
ENDBRANCH   7   8
ENDBRANCH   6   7
ENDBRANCH   4   6
ENDBRANCH   3   4
ENDBRANCH   2   3
ENDBRANCH   1   2
BRANCH   1  32
ATOM     32  O   UNL     1       4.198   5.009  -0.815  1.00  0.00    -0.374 OA
BRANCH  32  33
ATOM     33  C   UNL     1       3.954   3.625  -0.568  1.00  0.00     0.202 C 
BRANCH  33  34
ATOM     34  C   UNL     1       3.982   3.179   0.900  1.00  0.00     0.261 C 
BRANCH  34  35
ATOM     35  O   UNL     1       2.910   3.746   1.679  1.00  0.00    -0.460 OA
BRANCH  35  36
ATOM     36  C   UNL     1       3.306   4.576   2.666  1.00  0.00     0.338 C 
ATOM     37  O   UNL     1       4.461   4.846   2.995  1.00  0.00    -0.246 OA
BRANCH  36  38
ATOM     38  C   UNL     1       2.160   5.269   3.272  1.00  0.00     0.060 A 
ATOM     39  C   UNL     1       2.194   6.668   3.293  1.00  0.00     0.016 A 
ATOM     40  C   UNL     1       1.160   4.572   3.956  1.00  0.00     0.016 A 
ATOM     41  C   UNL     1       1.280   7.376   4.068  1.00  0.00     0.010 A 
ATOM     42  C   UNL     1       0.242   5.287   4.737  1.00  0.00     0.010 A 
ATOM     43  C   UNL     1       0.336   6.687   4.841  1.00  0.00    -0.014 A 
BRANCH  43  44
ATOM     44  C   UNL     1      -0.400   7.432   5.895  1.00  0.00     0.031 A 
ATOM     45  C   UNL     1       0.089   7.358   7.318  1.00  0.00     0.074 A 
ATOM     46  C   UNL     1      -1.436   8.230   5.583  1.00  0.00     0.049 A 
ATOM     47  N   UNL     1      -0.358   7.968   8.387  1.00  0.00    -0.248 NA
ATOM     48  C   UNL     1       1.241   6.477   7.569  1.00  0.00     0.031 C 
ATOM     49  C   UNL     1      -1.980   8.420   4.240  1.00  0.00     0.029 A 
ATOM     50  N   UNL     1      -2.207   9.041   6.378  1.00  0.00    -0.354 N 
ATOM     51  C   UNL     1       0.450   7.540   9.434  1.00  0.00     0.074 A 
ATOM     52  C   UNL     1       1.393   6.594   8.880  1.00  0.00     0.031 C 
ATOM     53  C   UNL     1      -2.994   9.301   4.303  1.00  0.00     0.029 A 
ATOM     54  C   UNL     1      -3.183   9.718   5.691  1.00  0.00     0.049 A 
ATOM     55  H   UNL     1      -2.073   9.128   7.350  1.00  0.00     0.167 HD
ATOM     56  C   UNL     1       0.418   7.913  10.736  1.00  0.00     0.037 A 
ATOM     57  C   UNL     1      -4.122  10.576   6.135  1.00  0.00     0.037 A 
ATOM     58  C   UNL     1      -0.508   8.867  11.286  1.00  0.00     0.049 A 
ATOM     59  C   UNL     1      -4.163  10.941   7.597  1.00  0.00     0.074 A 
ATOM     60  C   UNL     1      -0.605   9.325  12.589  1.00  0.00     0.029 A 
ATOM     61  N   UNL     1      -1.501   9.509  10.562  1.00  0.00    -0.354 N 
ATOM     62  N   UNL     1      -3.376  10.556   8.572  1.00  0.00    -0.248 NA
ATOM     63  C   UNL     1      -5.219  11.874   8.016  1.00  0.00     0.031 C 
ATOM     64  C   UNL     1      -1.687  10.209  12.663  1.00  0.00     0.029 A 
ATOM     65  C   UNL     1      -2.229  10.344  11.395  1.00  0.00     0.049 A 
ATOM     66  H   UNL     1      -1.665   9.389   9.599  1.00  0.00     0.167 HD
ATOM     67  C   UNL     1      -3.813  11.228   9.706  1.00  0.00     0.074 A 
ATOM     68  C   UNL     1      -4.932  12.051   9.297  1.00  0.00     0.031 C 
ATOM     69  C   UNL     1      -3.328  11.173  10.971  1.00  0.00     0.037 A 
BRANCH  56  70
ATOM     70  C   UNL     1       1.403   7.263  11.666  1.00  0.00     0.064 A 
ATOM     71  C   UNL     1       2.773   7.562  11.620  1.00  0.00     0.173 A 
ATOM     72  C   UNL     1       0.963   6.348  12.634  1.00  0.00     0.173 A 
ATOM     73  F   UNL     1       3.247   8.419  10.704  1.00  0.00    -0.203 F 
ATOM     74  C   UNL     1       3.669   6.948  12.492  1.00  0.00     0.198 A 
ATOM     75  C   UNL     1       1.857   5.759  13.523  1.00  0.00     0.198 A 
ATOM     76  F   UNL     1      -0.337   6.030  12.723  1.00  0.00    -0.203 F 
ATOM     77  F   UNL     1       4.980   7.211  12.398  1.00  0.00    -0.200 F 
ATOM     78  C   UNL     1       3.210   6.052  13.446  1.00  0.00     0.200 A 
ATOM     79  F   UNL     1       1.410   4.902  14.452  1.00  0.00    -0.200 F 
ATOM     80  F   UNL     1       4.073   5.465  14.287  1.00  0.00    -0.200 F 
ENDBRANCH  56  70
BRANCH  57  81
ATOM     81  C   UNL     1      -5.096  11.169   5.182  1.00  0.00     0.064 A 
ATOM     82  C   UNL     1      -5.064  12.536   4.871  1.00  0.00     0.173 A 
ATOM     83  C   UNL     1      -6.094  10.387   4.583  1.00  0.00     0.173 A 
ATOM     84  F   UNL     1      -4.144  13.330   5.439  1.00  0.00    -0.203 F 
ATOM     85  C   UNL     1      -6.005  13.101   4.013  1.00  0.00     0.198 A 
ATOM     86  C   UNL     1      -7.017  10.948   3.703  1.00  0.00     0.198 A 
ATOM     87  F   UNL     1      -6.169   9.075   4.849  1.00  0.00    -0.203 F 
ATOM     88  F   UNL     1      -5.982  14.419   3.772  1.00  0.00    -0.200 F 
ATOM     89  C   UNL     1      -6.977  12.306   3.426  1.00  0.00     0.200 A 
ATOM     90  F   UNL     1      -7.949  10.174   3.130  1.00  0.00    -0.200 F 
ATOM     91  F   UNL     1      -7.882  12.850   2.601  1.00  0.00    -0.200 F 
ENDBRANCH  57  81
BRANCH  69  92
ATOM     92  C   UNL     1      -3.964  12.071  11.995  1.00  0.00     0.064 A 
ATOM     93  C   UNL     1      -5.258  11.840  12.484  1.00  0.00     0.173 A 
ATOM     94  C   UNL     1      -3.253  13.166  12.512  1.00  0.00     0.173 A 
ATOM     95  F   UNL     1      -5.984  10.815  12.013  1.00  0.00    -0.203 F 
ATOM     96  C   UNL     1      -5.829  12.691  13.427  1.00  0.00     0.198 A 
ATOM     97  C   UNL     1      -3.815  13.996  13.477  1.00  0.00     0.198 A 
ATOM     98  F   UNL     1      -2.008  13.426  12.085  1.00  0.00    -0.203 F 
ATOM     99  F   UNL     1      -7.088  12.483  13.838  1.00  0.00    -0.200 F 
ATOM    100  C   UNL     1      -5.106  13.764  13.927  1.00  0.00     0.200 A 
ATOM    101  F   UNL     1      -3.109  15.023  13.970  1.00  0.00    -0.200 F 
ATOM    102  F   UNL     1      -5.657  14.581  14.835  1.00  0.00    -0.200 F 
ENDBRANCH  69  92
ENDBRANCH  43  44
ENDBRANCH  36  38
ENDBRANCH  35  36
ENDBRANCH  34  35
ENDBRANCH  33  34
ENDBRANCH  32  33
ENDBRANCH   1  32
TORSDOF 18
