REMARK SMILES CC(=O)Oc1ccc2oc(N)c([C@@H]3[NH2+][C@@H](C(=O)OCCOCCOC(=O)c4ccc(-c5c6nc(c(-c7c(F)c(F)c(F)c(F)c7F)c7ccc([nH]7)c(-c7c(F)c(F)c(F)c(F)c7F)c7nc(c(-c8c(F)c(F)c(F)c(F)c8F)c8ccc5[nH]8)C=C7)C=C6)cc4)C(C)(C)S3)c(=O)c2c1
REMARK SMILES IDX 20 1 19 2 18 3 16 4 17 5 15 6 13 7 14 8 93 9 90 12 91 13
REMARK SMILES IDX 92 14 12 15 5 16 6 17 97 18 7 19 96 20 8 21 94 22 9 23 95 24
REMARK SMILES IDX 10 25 4 26 2 27 1 28 3 29 11 30 21 33 22 34 23 35 24 36
REMARK SMILES IDX 25 37 26 38 27 39 28 40 89 41 29 42 88 43 30 44 31 45 32 46
REMARK SMILES IDX 82 47 33 48 87 49 81 50 83 51 34 52 86 53 80 54 79 55 35 57
REMARK SMILES IDX 67 58 47 59 66 60 48 61 51 62 65 63 84 64 49 65 50 66 64 68
REMARK SMILES IDX 85 69 52 70 36 71 37 72 45 73 38 74 39 75 43 76 46 77 40 78
REMARK SMILES IDX 41 79 44 80 42 81 68 82 69 83 77 84 70 85 71 86 75 87 78 88
REMARK SMILES IDX 72 89 73 90 76 91 74 92 53 93 54 94 62 95 55 96 56 97 60 98
REMARK SMILES IDX 63 99 57 100 58 101 61 102 59 103
REMARK H PARENT 14 10 14 11 11 31 11 32 83 56 51 67
REMARK Flexibility Score: inf
ROOT
ATOM      1  C   UNL     1       0.120   1.216  14.645  1.00  0.00     0.202 C 
ENDROOT
BRANCH   1   2
ATOM      2  C   UNL     1       0.265   1.576  13.162  1.00  0.00     0.261 C 
BRANCH   2   3
ATOM      3  O   UNL     1       0.487   0.413  12.339  1.00  0.00    -0.459 OA
BRANCH   3   4
ATOM      4  C   UNL     1       1.780   0.225  11.972  1.00  0.00     0.366 C 
ATOM      5  O   UNL     1       2.688   1.006  12.242  1.00  0.00    -0.245 OA
BRANCH   4   6
ATOM      6  C   UNL     1       2.025  -1.056  11.168  1.00  0.00     0.310 C 
ATOM      7  C   UNL     1       2.187  -2.002   9.007  1.00  0.00     0.284 C 
ATOM      8  N   UNL     1       1.766  -0.793   9.730  1.00  0.00    -0.318 N 
ATOM      9  S   UNL     1       1.691  -3.420  10.032  1.00  0.00    -0.081 SA
ATOM     10  H   UNL     1       0.773  -0.618   9.576  1.00  0.00     0.348 HD
ATOM     11  H   UNL     1       2.276   0.029   9.406  1.00  0.00     0.348 HD
ATOM     12  C   UNL     1       1.369  -2.410  11.552  1.00  0.00     0.079 C 
ATOM     13  C   UNL     1      -0.150  -2.380  11.756  1.00  0.00     0.030 C 
ATOM     14  C   UNL     1       2.055  -3.160  12.710  1.00  0.00     0.030 C 
BRANCH   7  15
ATOM     15  C   UNL     1       3.654  -1.977   8.618  1.00  0.00     0.128 A 
ATOM     16  C   UNL     1       6.837  -1.842   4.878  1.00  0.00     0.131 A 
ATOM     17  C   UNL     1       7.886  -1.953   5.793  1.00  0.00     0.051 A 
ATOM     18  C   UNL     1       5.516  -1.704   5.299  1.00  0.00     0.063 A 
ATOM     19  C   UNL     1       7.600  -1.985   7.154  1.00  0.00     0.052 A 
ATOM     20  C   UNL     1       5.245  -1.743   6.666  1.00  0.00     0.069 A 
ATOM     21  C   UNL     1       6.276  -1.899   7.578  1.00  0.00     0.140 A 
ATOM     22  C   UNL     1       3.874  -1.647   7.177  1.00  0.00     0.205 A 
ATOM     23  O   UNL     1       6.052  -1.992   8.916  1.00  0.00    -0.440 OA
ATOM     24  O   UNL     1       2.958  -1.364   6.413  1.00  0.00    -0.288 OA
ATOM     25  C   UNL     1       4.762  -2.197   9.368  1.00  0.00     0.205 A 
BRANCH  16  26
ATOM     26  O   UNL     1       7.086  -1.791   3.503  1.00  0.00    -0.427 OA
BRANCH  26  27
ATOM     27  C   UNL     1       7.704  -2.921   2.977  1.00  0.00     0.308 C 
ATOM     28  C   UNL     1       7.940  -2.696   1.515  1.00  0.00     0.139 C 
ATOM     29  O   UNL     1       8.006  -3.945   3.575  1.00  0.00    -0.252 OA
ENDBRANCH  26  27
ENDBRANCH  16  26
BRANCH  25  30
ATOM     30  N   UNL     1       4.788  -2.634  10.658  1.00  0.00    -0.369 N 
ATOM     31  H   UNL     1       5.650  -2.763  11.117  1.00  0.00     0.159 HD
ATOM     32  H   UNL     1       3.946  -2.821  11.132  1.00  0.00     0.159 HD
ENDBRANCH  25  30
ENDBRANCH   7  15
ENDBRANCH   4   6
ENDBRANCH   3   4
ENDBRANCH   2   3
ENDBRANCH   1   2
BRANCH   1  33
ATOM     33  O   UNL     1       1.273   0.726  15.325  1.00  0.00    -0.374 OA
BRANCH  33  34
ATOM     34  C   UNL     1       1.618  -0.640  15.118  1.00  0.00     0.202 C 
BRANCH  34  35
ATOM     35  C   UNL     1       0.836  -1.692  15.915  1.00  0.00     0.261 C 
BRANCH  35  36
ATOM     36  O   UNL     1      -0.517  -1.800  15.437  1.00  0.00    -0.460 OA
BRANCH  36  37
ATOM     37  C   UNL     1      -1.453  -1.250  16.247  1.00  0.00     0.338 C 
ATOM     38  O   UNL     1      -1.285  -0.801  17.369  1.00  0.00    -0.246 OA
BRANCH  37  39
ATOM     39  C   UNL     1      -2.699  -1.043  15.480  1.00  0.00     0.060 A 
ATOM     40  C   UNL     1      -3.255  -2.040  14.676  1.00  0.00     0.016 A 
ATOM     41  C   UNL     1      -3.316   0.211  15.584  1.00  0.00     0.016 A 
ATOM     42  C   UNL     1      -4.462  -1.790  14.015  1.00  0.00     0.010 A 
ATOM     43  C   UNL     1      -4.518   0.459  14.925  1.00  0.00     0.010 A 
ATOM     44  C   UNL     1      -5.115  -0.551  14.161  1.00  0.00    -0.014 A 
BRANCH  44  45
ATOM     45  C   UNL     1      -6.497  -0.361  13.657  1.00  0.00     0.031 A 
ATOM     46  C   UNL     1      -6.799   0.520  12.486  1.00  0.00     0.074 A 
ATOM     47  C   UNL     1      -7.500  -0.964  14.322  1.00  0.00     0.049 A 
ATOM     48  N   UNL     1      -7.952   0.762  11.914  1.00  0.00    -0.248 NA
ATOM     49  C   UNL     1      -5.664   1.232  11.884  1.00  0.00     0.031 C 
ATOM     50  C   UNL     1      -7.327  -1.807  15.506  1.00  0.00     0.029 A 
ATOM     51  N   UNL     1      -8.853  -0.968  14.102  1.00  0.00    -0.354 N 
ATOM     52  C   UNL     1      -7.682   1.633  10.868  1.00  0.00     0.074 A 
ATOM     53  C   UNL     1      -6.264   1.928  10.927  1.00  0.00     0.031 C 
ATOM     54  C   UNL     1      -8.522  -2.283  15.881  1.00  0.00     0.029 A 
ATOM     55  C   UNL     1      -9.548  -1.749  14.991  1.00  0.00     0.049 A 
ATOM     56  H   UNL     1      -9.283  -0.460  13.377  1.00  0.00     0.167 HD
ATOM     57  C   UNL     1      -8.536   2.117   9.933  1.00  0.00     0.037 A 
ATOM     58  C   UNL     1     -10.865  -2.014  15.076  1.00  0.00     0.037 A 
ATOM     59  C   UNL     1      -9.952   1.846   9.907  1.00  0.00     0.049 A 
ATOM     60  C   UNL     1     -11.803  -1.408  14.072  1.00  0.00     0.074 A 
ATOM     61  C   UNL     1     -10.898   2.275   8.992  1.00  0.00     0.029 A 
ATOM     62  N   UNL     1     -10.633   1.089  10.853  1.00  0.00    -0.354 N 
ATOM     63  N   UNL     1     -11.529  -0.643  13.044  1.00  0.00    -0.248 NA
ATOM     64  C   UNL     1     -13.232  -1.702  14.241  1.00  0.00     0.031 C 
ATOM     65  C   UNL     1     -12.155   1.830   9.415  1.00  0.00     0.029 A 
ATOM     66  C   UNL     1     -11.989   1.068  10.560  1.00  0.00     0.049 A 
ATOM     67  H   UNL     1     -10.214   0.634  11.619  1.00  0.00     0.167 HD
ATOM     68  C   UNL     1     -12.745  -0.380  12.429  1.00  0.00     0.074 A 
ATOM     69  C   UNL     1     -13.758  -1.081  13.193  1.00  0.00     0.031 C 
ATOM     70  C   UNL     1     -12.995   0.376  11.331  1.00  0.00     0.037 A 
BRANCH  57  71
ATOM     71  C   UNL     1      -7.955   2.992   8.856  1.00  0.00     0.064 A 
ATOM     72  C   UNL     1      -7.074   2.474   7.893  1.00  0.00     0.173 A 
ATOM     73  C   UNL     1      -8.302   4.348   8.761  1.00  0.00     0.173 A 
ATOM     74  F   UNL     1      -6.705   1.185   7.938  1.00  0.00    -0.203 F 
ATOM     75  C   UNL     1      -6.533   3.289   6.901  1.00  0.00     0.198 A 
ATOM     76  C   UNL     1      -7.785   5.152   7.747  1.00  0.00     0.198 A 
ATOM     77  F   UNL     1      -9.148   4.895   9.646  1.00  0.00    -0.203 F 
ATOM     78  F   UNL     1      -5.649   2.783   6.030  1.00  0.00    -0.200 F 
ATOM     79  C   UNL     1      -6.893   4.625   6.825  1.00  0.00     0.200 A 
ATOM     80  F   UNL     1      -8.148   6.439   7.664  1.00  0.00    -0.200 F 
ATOM     81  F   UNL     1      -6.374   5.407   5.869  1.00  0.00    -0.200 F 
ENDBRANCH  57  71
BRANCH  58  82
ATOM     82  C   UNL     1     -11.343  -2.954  16.120  1.00  0.00     0.064 A 
ATOM     83  C   UNL     1     -11.767  -4.244  15.772  1.00  0.00     0.173 A 
ATOM     84  C   UNL     1     -11.309  -2.620  17.482  1.00  0.00     0.173 A 
ATOM     85  F   UNL     1     -11.829  -4.602  14.481  1.00  0.00    -0.203 F 
ATOM     86  C   UNL     1     -12.132  -5.167  16.748  1.00  0.00     0.198 A 
ATOM     87  C   UNL     1     -11.649  -3.554  18.458  1.00  0.00     0.198 A 
ATOM     88  F   UNL     1     -10.901  -1.401  17.864  1.00  0.00    -0.203 F 
ATOM     89  F   UNL     1     -12.546  -6.390  16.388  1.00  0.00    -0.200 F 
ATOM     90  C   UNL     1     -12.061  -4.826  18.090  1.00  0.00     0.200 A 
ATOM     91  F   UNL     1     -11.559  -3.227  19.754  1.00  0.00    -0.200 F 
ATOM     92  F   UNL     1     -12.384  -5.725  19.030  1.00  0.00    -0.200 F 
ENDBRANCH  58  82
BRANCH  70  93
ATOM     93  C   UNL     1     -14.423   0.487  10.875  1.00  0.00     0.064 A 
ATOM     94  C   UNL     1     -15.371   1.223  11.601  1.00  0.00     0.173 A 
ATOM     95  C   UNL     1     -14.832  -0.090   9.662  1.00  0.00     0.173 A 
ATOM     96  F   UNL     1     -15.038   1.782  12.774  1.00  0.00    -0.203 F 
ATOM     97  C   UNL     1     -16.677   1.365  11.137  1.00  0.00     0.198 A 
ATOM     98  C   UNL     1     -16.129   0.082   9.185  1.00  0.00     0.198 A 
ATOM     99  F   UNL     1     -13.965  -0.801   8.925  1.00  0.00    -0.203 F 
ATOM    100  F   UNL     1     -17.576   2.041  11.867  1.00  0.00    -0.200 F 
ATOM    101  C   UNL     1     -17.051   0.805   9.925  1.00  0.00     0.200 A 
ATOM    102  F   UNL     1     -16.483  -0.447   8.006  1.00  0.00    -0.200 F 
ATOM    103  F   UNL     1     -18.303   0.960   9.471  1.00  0.00    -0.200 F 
ENDBRANCH  70  93
ENDBRANCH  44  45
ENDBRANCH  37  39
ENDBRANCH  36  37
ENDBRANCH  35  36
ENDBRANCH  34  35
ENDBRANCH  33  34
ENDBRANCH   1  33
TORSDOF 18
