REMARK SMILES CCOc1cc(C[NH+]2CCC3(CC2)[C@H](C(=O)OCCOCCOC(=O)c2ccc(-c4c5nc(c(-c6c(F)c(F)c(F)c(F)c6F)c6ccc([nH]6)c(-c6c(F)c(F)c(F)c(F)c6F)c6nc(c(-c7c(F)c(F)c(F)c(F)c7F)c7ccc4[nH]7)C=C6)C=C5)cc2)CC(=O)N3C)ccc1OC
REMARK SMILES IDX 19 1 18 2 17 3 15 4 16 5 14 6 8 7 9 8 13 9 10 11 12 12 11 13
REMARK SMILES IDX 92 14 89 15 90 16 93 17 91 18 7 19 6 20 4 21 5 22 96 23
REMARK SMILES IDX 95 24 94 25 3 26 2 27 1 28 97 29 98 30 20 31 21 32 22 33
REMARK SMILES IDX 23 34 24 35 25 36 26 37 27 38 88 39 28 40 87 41 29 42 30 43
REMARK SMILES IDX 31 44 81 45 32 46 86 47 80 48 82 49 33 50 85 51 79 52 78 53
REMARK SMILES IDX 34 55 66 56 46 57 65 58 47 59 50 60 64 61 83 62 48 63 49 64
REMARK SMILES IDX 63 66 84 67 51 68 35 69 36 70 44 71 37 72 38 73 42 74 45 75
REMARK SMILES IDX 39 76 40 77 43 78 41 79 67 80 68 81 76 82 69 83 70 84 74 85
REMARK SMILES IDX 77 86 71 87 72 88 75 89 73 90 52 91 53 92 61 93 54 94 55 95
REMARK SMILES IDX 59 96 62 97 56 98 57 99 60 100 58 101
REMARK H PARENT 8 10 82 54 50 65
REMARK Flexibility Score: inf
ROOT
ATOM      1  C   UNL     1       5.021  -2.144  -3.637  1.00  0.00     0.202 C 
ENDROOT
BRANCH   1   2
ATOM      2  C   UNL     1       3.529  -2.248  -3.943  1.00  0.00     0.261 C 
BRANCH   2   3
ATOM      3  O   UNL     1       2.941  -0.959  -4.247  1.00  0.00    -0.463 OA
BRANCH   3   4
ATOM      4  C   UNL     1       1.779  -0.709  -3.605  1.00  0.00     0.311 C 
ATOM      5  O   UNL     1       1.248  -1.516  -2.841  1.00  0.00    -0.252 OA
BRANCH   4   6
ATOM      6  C   UNL     1       1.136   0.655  -3.820  1.00  0.00     0.134 C 
ATOM      7  N   UNL     1       3.452   4.193  -4.172  1.00  0.00    -0.331 N 
ATOM      8  C   UNL     1       3.915   3.154  -5.065  1.00  0.00     0.265 C 
ATOM      9  C   UNL     1       2.029   4.430  -4.265  1.00  0.00     0.265 C 
ATOM     10  H   UNL     1       3.868   5.046  -4.545  1.00  0.00     0.348 HD
ATOM     11  C   UNL     1       3.194   1.819  -4.870  1.00  0.00     0.091 C 
ATOM     12  C   UNL     1       1.163   3.178  -4.053  1.00  0.00     0.091 C 
ATOM     13  C   UNL     1       1.662   1.847  -4.698  1.00  0.00     0.067 C 
ATOM     14  N   UNL     1       0.920   1.634  -5.952  1.00  0.00    -0.339 N 
ATOM     15  C   UNL     1      -0.270   0.381  -4.355  1.00  0.00     0.118 C 
ATOM     16  C   UNL     1      -0.196   0.817  -5.787  1.00  0.00     0.223 C 
ATOM     17  C   UNL     1       0.939   2.543  -7.081  1.00  0.00     0.147 C 
ATOM     18  O   UNL     1      -1.045   0.574  -6.629  1.00  0.00    -0.275 OA
BRANCH   7  19
ATOM     19  C   UNL     1       4.224   4.586  -2.982  1.00  0.00     0.299 C 
BRANCH  19  20
ATOM     20  C   UNL     1       3.980   3.820  -1.692  1.00  0.00     0.010 A 
ATOM     21  C   UNL     1       2.410   2.555  -0.352  1.00  0.00     0.161 A 
ATOM     22  C   UNL     1       2.687   3.601  -1.227  1.00  0.00     0.060 A 
ATOM     23  C   UNL     1       3.454   1.876   0.263  1.00  0.00     0.160 A 
ATOM     24  C   UNL     1       4.758   2.338   0.079  1.00  0.00     0.051 A 
ATOM     25  C   UNL     1       5.024   3.285  -0.924  1.00  0.00     0.013 A 
BRANCH  21  26
ATOM     26  O   UNL     1       1.133   2.073  -0.407  1.00  0.00    -0.490 OA
BRANCH  26  27
ATOM     27  C   UNL     1       0.359   2.279   0.768  1.00  0.00     0.226 C 
ATOM     28  C   UNL     1      -0.290   0.956   1.137  1.00  0.00     0.049 C 
ENDBRANCH  26  27
ENDBRANCH  21  26
BRANCH  23  29
ATOM     29  O   UNL     1       3.274   0.756   1.027  1.00  0.00    -0.493 OA
ATOM     30  C   UNL     1       2.779  -0.353   0.263  1.00  0.00     0.278 C 
ENDBRANCH  23  29
ENDBRANCH  19  20
ENDBRANCH   7  19
ENDBRANCH   4   6
ENDBRANCH   3   4
ENDBRANCH   2   3
ENDBRANCH   1   2
BRANCH   1  31
ATOM     31  O   UNL     1       5.398  -1.575  -2.387  1.00  0.00    -0.374 OA
BRANCH  31  32
ATOM     32  C   UNL     1       5.152  -0.187  -2.201  1.00  0.00     0.202 C 
BRANCH  32  33
ATOM     33  C   UNL     1       6.114   0.795  -2.880  1.00  0.00     0.261 C 
BRANCH  33  34
ATOM     34  O   UNL     1       6.272   0.545  -4.272  1.00  0.00    -0.460 OA
BRANCH  34  35
ATOM     35  C   UNL     1       7.504   0.123  -4.626  1.00  0.00     0.338 C 
ATOM     36  O   UNL     1       8.520   0.086  -3.953  1.00  0.00    -0.246 OA
BRANCH  35  37
ATOM     37  C   UNL     1       7.355  -0.531  -5.926  1.00  0.00     0.060 A 
ATOM     38  C   UNL     1       7.619  -1.904  -5.974  1.00  0.00     0.016 A 
ATOM     39  C   UNL     1       6.883   0.168  -7.039  1.00  0.00     0.016 A 
ATOM     40  C   UNL     1       7.428  -2.592  -7.161  1.00  0.00     0.010 A 
ATOM     41  C   UNL     1       6.718  -0.518  -8.237  1.00  0.00     0.010 A 
ATOM     42  C   UNL     1       7.016  -1.891  -8.300  1.00  0.00    -0.014 A 
BRANCH  42  43
ATOM     43  C   UNL     1       7.094  -2.566  -9.606  1.00  0.00     0.031 A 
ATOM     44  C   UNL     1       8.335  -2.365 -10.420  1.00  0.00     0.074 A 
ATOM     45  C   UNL     1       6.099  -3.369 -10.014  1.00  0.00     0.049 A 
ATOM     46  N   UNL     1       8.634  -2.824 -11.604  1.00  0.00    -0.248 NA
ATOM     47  C   UNL     1       9.385  -1.528  -9.813  1.00  0.00     0.031 C 
ATOM     48  C   UNL     1       4.884  -3.659  -9.256  1.00  0.00     0.029 A 
ATOM     49  N   UNL     1       5.957  -4.085 -11.172  1.00  0.00    -0.354 N 
ATOM     50  C   UNL     1       9.901  -2.331 -11.884  1.00  0.00     0.074 A 
ATOM     51  C   UNL     1      10.304  -1.512 -10.765  1.00  0.00     0.031 C 
ATOM     52  C   UNL     1       4.109  -4.487  -9.978  1.00  0.00     0.029 A 
ATOM     53  C   UNL     1       4.760  -4.750 -11.259  1.00  0.00     0.049 A 
ATOM     54  H   UNL     1       6.646  -4.120 -11.874  1.00  0.00     0.167 HD
ATOM     55  C   UNL     1      10.658  -2.555 -12.982  1.00  0.00     0.037 A 
ATOM     56  C   UNL     1       4.248  -5.463 -12.280  1.00  0.00     0.037 A 
ATOM     57  C   UNL     1      10.227  -3.368 -14.087  1.00  0.00     0.049 A 
ATOM     58  C   UNL     1       5.075  -5.621 -13.530  1.00  0.00     0.074 A 
ATOM     59  C   UNL     1      10.906  -3.675 -15.250  1.00  0.00     0.029 A 
ATOM     60  N   UNL     1       8.988  -3.992 -14.165  1.00  0.00    -0.354 N 
ATOM     61  N   UNL     1       6.284  -5.176 -13.786  1.00  0.00    -0.248 NA
ATOM     62  C   UNL     1       4.470  -6.377 -14.633  1.00  0.00     0.031 C 
ATOM     63  C   UNL     1      10.054  -4.431 -16.060  1.00  0.00     0.029 A 
ATOM     64  C   UNL     1       8.868  -4.653 -15.375  1.00  0.00     0.049 A 
ATOM     65  H   UNL     1       8.298  -3.967 -13.463  1.00  0.00     0.167 HD
ATOM     66  C   UNL     1       6.592  -5.615 -15.066  1.00  0.00     0.074 A 
ATOM     67  C   UNL     1       5.450  -6.379 -15.526  1.00  0.00     0.031 C 
ATOM     68  C   UNL     1       7.715  -5.407 -15.799  1.00  0.00     0.037 A 
BRANCH  55  69
ATOM     69  C   UNL     1      11.996  -1.880 -13.052  1.00  0.00     0.064 A 
ATOM     70  C   UNL     1      13.059  -2.247 -12.212  1.00  0.00     0.173 A 
ATOM     71  C   UNL     1      12.222  -0.855 -13.983  1.00  0.00     0.173 A 
ATOM     72  F   UNL     1      12.890  -3.206 -11.288  1.00  0.00    -0.203 F 
ATOM     73  C   UNL     1      14.288  -1.596 -12.283  1.00  0.00     0.198 A 
ATOM     74  C   UNL     1      13.462  -0.228 -14.074  1.00  0.00     0.198 A 
ATOM     75  F   UNL     1      11.240  -0.461 -14.807  1.00  0.00    -0.203 F 
ATOM     76  F   UNL     1      15.270  -1.926 -11.434  1.00  0.00    -0.200 F 
ATOM     77  C   UNL     1      14.491  -0.593 -13.219  1.00  0.00     0.200 A 
ATOM     78  F   UNL     1      13.658   0.734 -14.985  1.00  0.00    -0.200 F 
ATOM     79  F   UNL     1      15.675   0.029 -13.291  1.00  0.00    -0.200 F 
ENDBRANCH  55  69
BRANCH  56  80
ATOM     80  C   UNL     1       2.888  -6.051 -12.171  1.00  0.00     0.064 A 
ATOM     81  C   UNL     1       2.695  -7.439 -12.150  1.00  0.00     0.173 A 
ATOM     82  C   UNL     1       1.747  -5.236 -12.094  1.00  0.00     0.173 A 
ATOM     83  F   UNL     1       3.750  -8.262 -12.242  1.00  0.00    -0.203 F 
ATOM     84  C   UNL     1       1.416  -7.988 -12.075  1.00  0.00     0.198 A 
ATOM     85  C   UNL     1       0.471  -5.786 -11.988  1.00  0.00     0.198 A 
ATOM     86  F   UNL     1       1.874  -3.901 -12.111  1.00  0.00    -0.203 F 
ATOM     87  F   UNL     1       1.259  -9.319 -12.106  1.00  0.00    -0.200 F 
ATOM     88  C   UNL     1       0.306  -7.162 -11.988  1.00  0.00     0.200 A 
ATOM     89  F   UNL     1      -0.596  -4.982 -11.890  1.00  0.00    -0.200 F 
ATOM     90  F   UNL     1      -0.922  -7.691 -11.913  1.00  0.00    -0.200 F 
ENDBRANCH  56  80
BRANCH  68  91
ATOM     91  C   UNL     1       7.770  -6.035 -17.161  1.00  0.00     0.064 A 
ATOM     92  C   UNL     1       6.991  -5.555 -18.224  1.00  0.00     0.173 A 
ATOM     93  C   UNL     1       8.660  -7.089 -17.419  1.00  0.00     0.173 A 
ATOM     94  F   UNL     1       6.116  -4.558 -18.024  1.00  0.00    -0.203 F 
ATOM     95  C   UNL     1       7.085  -6.123 -19.491  1.00  0.00     0.198 A 
ATOM     96  C   UNL     1       8.777  -7.630 -18.695  1.00  0.00     0.198 A 
ATOM     97  F   UNL     1       9.434  -7.577 -16.438  1.00  0.00    -0.203 F 
ATOM     98  F   UNL     1       6.298  -5.681 -20.481  1.00  0.00    -0.200 F 
ATOM     99  C   UNL     1       7.984  -7.152 -19.728  1.00  0.00     0.200 A 
ATOM    100  F   UNL     1       9.660  -8.611 -18.927  1.00  0.00    -0.200 F 
ATOM    101  F   UNL     1       8.084  -7.688 -20.952  1.00  0.00    -0.200 F 
ENDBRANCH  68  91
ENDBRANCH  42  43
ENDBRANCH  35  37
ENDBRANCH  34  35
ENDBRANCH  33  34
ENDBRANCH  32  33
ENDBRANCH  31  32
ENDBRANCH   1  31
TORSDOF 19
