REMARK SMILES O=C(OCCOCCOC(=O)c1cccnc1-c1ccccn1)c1ccc(-c2c3nc(c(-c4c(F)c(F)c(F)c(F)c4F)c4ccc([nH]4)c(-c4c(F)c(F)c(F)c(F)c4F)c4nc(c(-c5c(F)c(F)c(F)c(F)c5F)c5ccc2[nH]5)C=C4)C=C3)cc1
REMARK SMILES IDX 5 1 4 2 3 3 2 4 1 5 24 6 25 7 86 8 26 9 85 10 27 11 28 12
REMARK SMILES IDX 29 13 79 14 30 15 84 16 78 17 80 18 31 19 83 20 77 21 76 22
REMARK SMILES IDX 32 24 64 25 44 26 63 27 45 28 48 29 62 30 81 31 46 32 47 33
REMARK SMILES IDX 61 35 82 36 49 37 33 38 34 39 42 40 35 41 36 42 40 43 43 44
REMARK SMILES IDX 37 45 38 46 41 47 39 48 65 49 66 50 74 51 67 52 68 53 72 54
REMARK SMILES IDX 75 55 69 56 70 57 73 58 71 59 50 60 51 61 59 62 52 63 53 64
REMARK SMILES IDX 57 65 60 66 54 67 55 68 58 69 56 70 6 71 7 72 8 73 9 74
REMARK SMILES IDX 10 75 11 76 12 77 13 78 17 79 14 80 16 81 15 82 18 83 19 84
REMARK SMILES IDX 23 85 20 86 22 87 21 88
REMARK H PARENT 80 23 48 34
REMARK Flexibility Score: inf
ROOT
ATOM      1  C   UNL     1       3.915  -1.146  -0.379  1.00  0.00     0.202 C 
ENDROOT
BRANCH   1   2
ATOM      2  C   UNL     1       3.269  -0.314   0.729  1.00  0.00     0.261 C 
BRANCH   2   3
ATOM      3  O   UNL     1       1.887  -0.030   0.450  1.00  0.00    -0.460 OA
BRANCH   3   4
ATOM      4  C   UNL     1       1.393   1.210   0.199  1.00  0.00     0.338 C 
ATOM      5  O   UNL     1       0.194   1.439   0.318  1.00  0.00    -0.246 OA
BRANCH   4   6
ATOM      6  C   UNL     1       2.296   2.315  -0.224  1.00  0.00     0.060 A 
ATOM      7  C   UNL     1       3.387   2.096  -1.057  1.00  0.00     0.016 A 
ATOM      8  C   UNL     1       2.001   3.630   0.140  1.00  0.00     0.016 A 
ATOM      9  C   UNL     1       4.255   3.095  -1.427  1.00  0.00     0.010 A 
ATOM     10  C   UNL     1       2.795   4.677  -0.342  1.00  0.00     0.010 A 
ATOM     11  C   UNL     1       3.923   4.403  -1.133  1.00  0.00    -0.014 A 
BRANCH  11  12
ATOM     12  C   UNL     1       4.795   5.458  -1.667  1.00  0.00     0.031 A 
ATOM     13  C   UNL     1       5.566   6.285  -0.701  1.00  0.00     0.074 A 
ATOM     14  C   UNL     1       4.933   5.595  -2.999  1.00  0.00     0.049 A 
ATOM     15  N   UNL     1       6.206   7.402  -0.897  1.00  0.00    -0.248 NA
ATOM     16  C   UNL     1       5.613   5.789   0.684  1.00  0.00     0.031 C 
ATOM     17  C   UNL     1       4.331   4.719  -4.012  1.00  0.00     0.029 A 
ATOM     18  N   UNL     1       5.633   6.512  -3.734  1.00  0.00    -0.354 N 
ATOM     19  C   UNL     1       6.667   7.785   0.352  1.00  0.00     0.074 A 
ATOM     20  C   UNL     1       6.250   6.773   1.297  1.00  0.00     0.031 C 
ATOM     21  C   UNL     1       4.703   5.131  -5.232  1.00  0.00     0.029 A 
ATOM     22  C   UNL     1       5.466   6.361  -5.090  1.00  0.00     0.049 A 
ATOM     23  H   UNL     1       6.199   7.210  -3.332  1.00  0.00     0.167 HD
ATOM     24  C   UNL     1       7.356   8.906   0.661  1.00  0.00     0.037 A 
ATOM     25  C   UNL     1       5.832   7.176  -6.095  1.00  0.00     0.037 A 
ATOM     26  C   UNL     1       7.754   9.868  -0.331  1.00  0.00     0.049 A 
ATOM     27  C   UNL     1       6.527   8.456  -5.721  1.00  0.00     0.074 A 
ATOM     28  C   UNL     1       8.399  11.076  -0.164  1.00  0.00     0.029 A 
ATOM     29  N   UNL     1       7.538   9.710  -1.698  1.00  0.00    -0.354 N 
ATOM     30  N   UNL     1       6.870   8.890  -4.530  1.00  0.00    -0.248 NA
ATOM     31  C   UNL     1       6.862   9.370  -6.817  1.00  0.00     0.031 C 
ATOM     32  C   UNL     1       8.534  11.669  -1.425  1.00  0.00     0.029 A 
ATOM     33  C   UNL     1       8.028  10.804  -2.386  1.00  0.00     0.049 A 
ATOM     34  H   UNL     1       7.099   8.932  -2.114  1.00  0.00     0.167 HD
ATOM     35  C   UNL     1       7.483  10.116  -4.730  1.00  0.00     0.074 A 
ATOM     36  C   UNL     1       7.471  10.350  -6.163  1.00  0.00     0.031 C 
ATOM     37  C   UNL     1       8.007  10.974  -3.820  1.00  0.00     0.037 A 
BRANCH  24  38
ATOM     38  C   UNL     1       7.605   9.167   2.116  1.00  0.00     0.064 A 
ATOM     39  C   UNL     1       8.468   8.371   2.885  1.00  0.00     0.173 A 
ATOM     40  C   UNL     1       6.896  10.184   2.774  1.00  0.00     0.173 A 
ATOM     41  F   UNL     1       9.144   7.362   2.314  1.00  0.00    -0.203 F 
ATOM     42  C   UNL     1       8.574   8.551   4.263  1.00  0.00     0.198 A 
ATOM     43  C   UNL     1       7.029  10.383   4.146  1.00  0.00     0.198 A 
ATOM     44  F   UNL     1       6.048  10.968   2.092  1.00  0.00    -0.203 F 
ATOM     45  F   UNL     1       9.336   7.721   4.988  1.00  0.00    -0.200 F 
ATOM     46  C   UNL     1       7.856   9.557   4.891  1.00  0.00     0.200 A 
ATOM     47  F   UNL     1       6.335  11.357   4.750  1.00  0.00    -0.200 F 
ATOM     48  F   UNL     1       7.942   9.715   6.219  1.00  0.00    -0.200 F 
ENDBRANCH  24  38
BRANCH  25  49
ATOM     49  C   UNL     1       5.488   6.838  -7.502  1.00  0.00     0.064 A 
ATOM     50  C   UNL     1       6.487   6.556  -8.443  1.00  0.00     0.173 A 
ATOM     51  C   UNL     1       4.153   6.771  -7.935  1.00  0.00     0.173 A 
ATOM     52  F   UNL     1       7.778   6.623  -8.088  1.00  0.00    -0.203 F 
ATOM     53  C   UNL     1       6.166   6.232  -9.761  1.00  0.00     0.198 A 
ATOM     54  C   UNL     1       3.833   6.415  -9.244  1.00  0.00     0.198 A 
ATOM     55  F   UNL     1       3.154   7.029  -7.078  1.00  0.00    -0.203 F 
ATOM     56  F   UNL     1       7.144   6.006 -10.649  1.00  0.00    -0.200 F 
ATOM     57  C   UNL     1       4.840   6.154 -10.158  1.00  0.00     0.200 A 
ATOM     58  F   UNL     1       2.549   6.325  -9.617  1.00  0.00    -0.200 F 
ATOM     59  F   UNL     1       4.533   5.834 -11.423  1.00  0.00    -0.200 F 
ENDBRANCH  25  49
BRANCH  37  60
ATOM     60  C   UNL     1       8.662  12.208  -4.359  1.00  0.00     0.064 A 
ATOM     61  C   UNL     1       7.915  13.277  -4.869  1.00  0.00     0.173 A 
ATOM     62  C   UNL     1      10.057  12.341  -4.294  1.00  0.00     0.173 A 
ATOM     63  F   UNL     1       6.580  13.184  -4.966  1.00  0.00    -0.203 F 
ATOM     64  C   UNL     1       8.545  14.436  -5.311  1.00  0.00     0.198 A 
ATOM     65  C   UNL     1      10.680  13.513  -4.706  1.00  0.00     0.198 A 
ATOM     66  F   UNL     1      10.810  11.343  -3.807  1.00  0.00    -0.203 F 
ATOM     67  F   UNL     1       7.819  15.434  -5.832  1.00  0.00    -0.200 F 
ATOM     68  C   UNL     1       9.925  14.557  -5.218  1.00  0.00     0.200 A 
ATOM     69  F   UNL     1      12.010  13.634  -4.599  1.00  0.00    -0.200 F 
ATOM     70  F   UNL     1      10.528  15.682  -5.625  1.00  0.00    -0.200 F 
ENDBRANCH  37  60
ENDBRANCH  11  12
ENDBRANCH   4   6
ENDBRANCH   3   4
ENDBRANCH   2   3
ENDBRANCH   1   2
BRANCH   1  71
ATOM     71  O   UNL     1       3.552  -0.790  -1.704  1.00  0.00    -0.374 OA
BRANCH  71  72
ATOM     72  C   UNL     1       2.422  -1.450  -2.249  1.00  0.00     0.202 C 
BRANCH  72  73
ATOM     73  C   UNL     1       2.914  -2.473  -3.265  1.00  0.00     0.261 C 
BRANCH  73  74
ATOM     74  O   UNL     1       3.681  -3.480  -2.578  1.00  0.00    -0.460 OA
BRANCH  74  75
ATOM     75  C   UNL     1       5.030  -3.287  -2.484  1.00  0.00     0.340 C 
ATOM     76  O   UNL     1       5.683  -2.427  -3.041  1.00  0.00    -0.246 OA
BRANCH  75  77
ATOM     77  C   UNL     1       5.534  -4.320  -1.550  1.00  0.00     0.088 A 
ATOM     78  C   UNL     1       5.027  -5.623  -1.716  1.00  0.00     0.019 A 
ATOM     79  C   UNL     1       6.378  -4.069  -0.462  1.00  0.00     0.103 A 
ATOM     80  C   UNL     1       5.361  -6.627  -0.819  1.00  0.00     0.021 A 
ATOM     81  N   UNL     1       6.699  -5.067   0.423  1.00  0.00    -0.254 NA
ATOM     82  C   UNL     1       6.204  -6.304   0.222  1.00  0.00     0.112 A 
BRANCH  79  83
ATOM     83  C   UNL     1       6.895  -2.756  -0.025  1.00  0.00     0.089 A 
ATOM     84  C   UNL     1       6.596  -2.273   1.259  1.00  0.00     0.031 A 
ATOM     85  N   UNL     1       7.701  -2.067  -0.866  1.00  0.00    -0.255 NA
ATOM     86  C   UNL     1       7.098  -1.040   1.672  1.00  0.00     0.004 A 
ATOM     87  C   UNL     1       8.198  -0.883  -0.430  1.00  0.00     0.112 A 
ATOM     88  C   UNL     1       7.920  -0.330   0.811  1.00  0.00     0.020 A 
ENDBRANCH  79  83
ENDBRANCH  75  77
ENDBRANCH  74  75
ENDBRANCH  73  74
ENDBRANCH  72  73
ENDBRANCH  71  72
ENDBRANCH   1  71
TORSDOF 15
