REMARK SMILES CO[C@H]1C[C@@H](C(=O)OCCOCCOC(=O)c2ccc(-c3c4nc(c(-c5c(F)c(F)c(F)c(F)c5F)c5ccc([nH]5)c(-c5c(F)c(F)c(F)c(F)c5F)c5nc(c(-c6c(F)c(F)c(F)c(F)c6F)c6ccc3[nH]6)C=C5)C=C4)cc2)N(C(=O)CSc2cccs2)C1
REMARK SMILES IDX 10 1 9 2 8 3 6 4 7 5 5 6 3 7 4 8 90 9 80 10 2 11 1 12 81 13
REMARK SMILES IDX 82 14 83 15 84 16 85 17 86 18 89 19 87 20 88 21 11 22 12 23
REMARK SMILES IDX 13 24 14 25 15 26 16 27 17 28 18 29 79 30 19 31 78 32 20 33
REMARK SMILES IDX 21 34 22 35 72 36 23 37 77 38 71 39 73 40 24 41 76 42 70 43
REMARK SMILES IDX 69 44 25 46 57 47 37 48 56 49 38 50 41 51 55 52 74 53 39 54
REMARK SMILES IDX 40 55 54 57 75 58 42 59 26 60 27 61 35 62 28 63 29 64 33 65
REMARK SMILES IDX 36 66 30 67 31 68 34 69 32 70 58 71 59 72 67 73 60 74 61 75
REMARK SMILES IDX 65 76 68 77 62 78 63 79 66 80 64 81 43 82 44 83 52 84 45 85
REMARK SMILES IDX 46 86 50 87 53 88 47 89 48 90 51 91 49 92
REMARK H PARENT 73 45 41 56
REMARK Flexibility Score: inf
ROOT
ATOM      1  C   UNL     1       7.162  -1.061   3.127  1.00  0.00     0.202 C 
ENDROOT
BRANCH   1   2
ATOM      2  C   UNL     1       6.653  -0.114   2.035  1.00  0.00     0.261 C 
BRANCH   2   3
ATOM      3  O   UNL     1       5.212  -0.117   2.001  1.00  0.00    -0.462 OA
BRANCH   3   4
ATOM      4  C   UNL     1       4.629  -0.637   0.883  1.00  0.00     0.329 C 
ATOM      5  O   UNL     1       5.259  -0.922  -0.124  1.00  0.00    -0.250 OA
BRANCH   4   6
ATOM      6  C   UNL     1       3.095  -0.833   1.031  1.00  0.00     0.197 C 
ATOM      7  C   UNL     1       1.105  -0.049   2.120  1.00  0.00     0.140 C 
ATOM      8  C   UNL     1       2.589   0.229   2.034  1.00  0.00     0.071 C 
ATOM      9  C   UNL     1       1.082  -1.574   2.133  1.00  0.00     0.152 C 
ATOM     10  N   UNL     1       2.309  -2.040   1.460  1.00  0.00    -0.325 N 
BRANCH   7  11
ATOM     11  O   UNL     1       0.580   0.512   3.315  1.00  0.00    -0.380 OA
ATOM     12  C   UNL     1      -0.776   0.916   3.167  1.00  0.00     0.195 C 
ENDBRANCH   7  11
BRANCH  10  13
ATOM     13  C   UNL     1       2.242  -3.363   1.040  1.00  0.00     0.233 C 
ATOM     14  O   UNL     1       1.215  -4.016   1.301  1.00  0.00    -0.274 OA
BRANCH  13  15
ATOM     15  C   UNL     1       3.398  -4.174   0.493  1.00  0.00     0.175 C 
BRANCH  15  16
ATOM     16  S   UNL     1       4.222  -3.529  -0.950  1.00  0.00    -0.105 SA
BRANCH  16  17
ATOM     17  C   UNL     1       3.219  -4.186  -2.208  1.00  0.00     0.060 A 
ATOM     18  C   UNL     1       3.181  -5.506  -2.596  1.00  0.00     0.027 A 
ATOM     19  S   UNL     1       2.148  -3.212  -3.104  1.00  0.00    -0.137 S 
ATOM     20  C   UNL     1       2.217  -5.727  -3.619  1.00  0.00     0.013 A 
ATOM     21  C   UNL     1       1.583  -4.561  -3.988  1.00  0.00     0.066 A 
ENDBRANCH  16  17
ENDBRANCH  15  16
ENDBRANCH  13  15
ENDBRANCH  10  13
ENDBRANCH   4   6
ENDBRANCH   3   4
ENDBRANCH   2   3
ENDBRANCH   1   2
BRANCH   1  22
ATOM     22  O   UNL     1       6.823  -2.439   2.955  1.00  0.00    -0.374 OA
BRANCH  22  23
ATOM     23  C   UNL     1       5.428  -2.714   3.063  1.00  0.00     0.202 C 
BRANCH  23  24
ATOM     24  C   UNL     1       5.113  -3.899   3.969  1.00  0.00     0.261 C 
BRANCH  24  25
ATOM     25  O   UNL     1       5.296  -3.447   5.317  1.00  0.00    -0.460 OA
BRANCH  25  26
ATOM     26  C   UNL     1       6.583  -3.516   5.725  1.00  0.00     0.338 C 
ATOM     27  O   UNL     1       7.438  -4.293   5.335  1.00  0.00    -0.246 OA
BRANCH  26  28
ATOM     28  C   UNL     1       6.869  -2.347   6.578  1.00  0.00     0.060 A 
ATOM     29  C   UNL     1       8.149  -1.788   6.483  1.00  0.00     0.016 A 
ATOM     30  C   UNL     1       5.912  -1.794   7.436  1.00  0.00     0.016 A 
ATOM     31  C   UNL     1       8.507  -0.728   7.305  1.00  0.00     0.010 A 
ATOM     32  C   UNL     1       6.270  -0.729   8.262  1.00  0.00     0.010 A 
ATOM     33  C   UNL     1       7.583  -0.231   8.232  1.00  0.00    -0.014 A 
BRANCH  33  34
ATOM     34  C   UNL     1       8.059   0.661   9.309  1.00  0.00     0.031 A 
ATOM     35  C   UNL     1       8.361   0.052  10.648  1.00  0.00     0.074 A 
ATOM     36  C   UNL     1       8.255   1.969   9.078  1.00  0.00     0.049 A 
ATOM     37  N   UNL     1       8.772   0.624  11.749  1.00  0.00    -0.248 NA
ATOM     38  C   UNL     1       8.168  -1.404  10.762  1.00  0.00     0.031 C 
ATOM     39  C   UNL     1       8.027   2.644   7.802  1.00  0.00     0.029 A 
ATOM     40  N   UNL     1       8.688   2.963   9.916  1.00  0.00    -0.354 N 
ATOM     41  C   UNL     1       8.882  -0.399  12.682  1.00  0.00     0.074 A 
ATOM     42  C   UNL     1       8.459  -1.619  12.035  1.00  0.00     0.031 C 
ATOM     43  C   UNL     1       8.318   3.949   7.943  1.00  0.00     0.029 A 
ATOM     44  C   UNL     1       8.719   4.201   9.326  1.00  0.00     0.049 A 
ATOM     45  H   UNL     1       8.952   2.804  10.851  1.00  0.00     0.167 HD
ATOM     46  C   UNL     1       9.312  -0.322  13.963  1.00  0.00     0.037 A 
ATOM     47  C   UNL     1       9.019   5.401   9.857  1.00  0.00     0.037 A 
ATOM     48  C   UNL     1       9.727   0.903  14.592  1.00  0.00     0.049 A 
ATOM     49  C   UNL     1       9.428   5.470  11.307  1.00  0.00     0.074 A 
ATOM     50  C   UNL     1      10.191   1.100  15.879  1.00  0.00     0.029 A 
ATOM     51  N   UNL     1       9.716   2.146  13.973  1.00  0.00    -0.354 N 
ATOM     52  N   UNL     1       9.557   4.498  12.179  1.00  0.00    -0.248 NA
ATOM     53  C   UNL     1       9.738   6.801  11.844  1.00  0.00     0.031 C 
ATOM     54  C   UNL     1      10.407   2.470  16.058  1.00  0.00     0.029 A 
ATOM     55  C   UNL     1      10.139   3.120  14.862  1.00  0.00     0.049 A 
ATOM     56  H   UNL     1       9.447   2.311  13.041  1.00  0.00     0.167 HD
ATOM     57  C   UNL     1       9.991   5.093  13.356  1.00  0.00     0.074 A 
ATOM     58  C   UNL     1      10.117   6.510  13.081  1.00  0.00     0.031 C 
ATOM     59  C   UNL     1      10.262   4.523  14.557  1.00  0.00     0.037 A 
BRANCH  46  60
ATOM     60  C   UNL     1       9.321  -1.588  14.770  1.00  0.00     0.064 A 
ATOM     61  C   UNL     1      10.224  -2.630  14.505  1.00  0.00     0.173 A 
ATOM     62  C   UNL     1       8.427  -1.754  15.838  1.00  0.00     0.173 A 
ATOM     63  F   UNL     1      11.088  -2.530  13.483  1.00  0.00    -0.203 F 
ATOM     64  C   UNL     1      10.212  -3.800  15.260  1.00  0.00     0.198 A 
ATOM     65  C   UNL     1       8.439  -2.912  16.612  1.00  0.00     0.198 A 
ATOM     66  F   UNL     1       7.542  -0.791  16.136  1.00  0.00    -0.203 F 
ATOM     67  F   UNL     1      11.048  -4.802  14.955  1.00  0.00    -0.200 F 
ATOM     68  C   UNL     1       9.325  -3.937  16.318  1.00  0.00     0.200 A 
ATOM     69  F   UNL     1       7.589  -3.037  17.641  1.00  0.00    -0.200 F 
ATOM     70  F   UNL     1       9.319  -5.060  17.049  1.00  0.00    -0.200 F 
ENDBRANCH  46  60
BRANCH  47  71
ATOM     71  C   UNL     1       8.938   6.627   9.021  1.00  0.00     0.064 A 
ATOM     72  C   UNL     1      10.088   7.356   8.688  1.00  0.00     0.173 A 
ATOM     73  C   UNL     1       7.707   7.102   8.545  1.00  0.00     0.173 A 
ATOM     74  F   UNL     1      11.287   6.956   9.136  1.00  0.00    -0.203 F 
ATOM     75  C   UNL     1      10.008   8.522   7.929  1.00  0.00     0.198 A 
ATOM     76  C   UNL     1       7.631   8.250   7.760  1.00  0.00     0.198 A 
ATOM     77  F   UNL     1       6.575   6.442   8.832  1.00  0.00    -0.203 F 
ATOM     78  F   UNL     1      11.118   9.225   7.666  1.00  0.00    -0.200 F 
ATOM     79  C   UNL     1       8.780   8.965   7.460  1.00  0.00     0.200 A 
ATOM     80  F   UNL     1       6.444   8.665   7.296  1.00  0.00    -0.200 F 
ATOM     81  F   UNL     1       8.704  10.083   6.726  1.00  0.00    -0.200 F 
ENDBRANCH  47  71
BRANCH  59  82
ATOM     82  C   UNL     1      10.759   5.426  15.649  1.00  0.00     0.064 A 
ATOM     83  C   UNL     1       9.920   6.358  16.276  1.00  0.00     0.173 A 
ATOM     84  C   UNL     1      12.083   5.323  16.104  1.00  0.00     0.173 A 
ATOM     85  F   UNL     1       8.650   6.505  15.870  1.00  0.00    -0.203 F 
ATOM     86  C   UNL     1      10.397   7.175  17.299  1.00  0.00     0.198 A 
ATOM     87  C   UNL     1      12.546   6.115  17.150  1.00  0.00     0.198 A 
ATOM     88  F   UNL     1      12.924   4.439  15.544  1.00  0.00    -0.203 F 
ATOM     89  F   UNL     1       9.593   8.095  17.848  1.00  0.00    -0.200 F 
ATOM     90  C   UNL     1      11.706   7.046  17.740  1.00  0.00     0.200 A 
ATOM     91  F   UNL     1      13.805   5.977  17.587  1.00  0.00    -0.200 F 
ATOM     92  F   UNL     1      12.159   7.827  18.730  1.00  0.00    -0.200 F 
ENDBRANCH  59  82
ENDBRANCH  33  34
ENDBRANCH  26  28
ENDBRANCH  25  26
ENDBRANCH  24  25
ENDBRANCH  23  24
ENDBRANCH  22  23
ENDBRANCH   1  22
TORSDOF 19
