REMARK SMILES NS(=O)(=O)c1ccc(-n2nc(C(=O)NCCCCCCCCCCC(=O)OCCOCCOC(=O)c3ccc(-c4c5nc(c(-c6c(F)c(F)c(F)c(F)c6F)c6ccc([nH]6)c(-c6c(F)c(F)c(F)c(F)c6F)c6nc(c(-c7c(F)c(F)c(F)c(F)c7F)c7ccc4[nH]7)C=C6)C=C5)cc3)cc2-c2ccccc2)cc1
REMARK SMILES IDX 23 1 22 2 21 3 20 4 19 5 18 6 17 7 16 8 15 9 14 10 12 11
REMARK SMILES IDX 13 12 11 14 9 15 10 16 100 17 99 18 8 19 5 20 6 21 108 22
REMARK SMILES IDX 7 23 107 24 2 25 3 26 4 27 1 28 101 31 102 32 106 33 103 34
REMARK SMILES IDX 105 35 104 36 24 37 25 38 26 39 27 40 28 41 29 42 30 43
REMARK SMILES IDX 31 44 32 45 33 46 34 47 35 48 36 49 37 50 98 51 38 52 97 53
REMARK SMILES IDX 39 54 40 55 41 56 91 57 42 58 96 59 90 60 92 61 43 62 95 63
REMARK SMILES IDX 89 64 88 65 44 67 76 68 56 69 75 70 57 71 60 72 74 73 93 74
REMARK SMILES IDX 58 75 59 76 73 78 94 79 61 80 45 81 46 82 54 83 47 84 48 85
REMARK SMILES IDX 52 86 55 87 49 88 50 89 53 90 51 91 77 92 78 93 86 94 79 95
REMARK SMILES IDX 80 96 84 97 87 98 81 99 82 100 85 101 83 102 62 103 63 104
REMARK SMILES IDX 71 105 64 106 65 107 69 108 72 109 66 110 67 111 70 112
REMARK SMILES IDX 68 113
REMARK H PARENT 14 13 1 29 1 30 92 66 60 77
REMARK Flexibility Score: inf
ROOT
ATOM      1  C   UNL     1       6.212 -11.069  13.237  1.00  0.00     0.012 C 
ENDROOT
BRANCH   1   2
ATOM      2  C   UNL     1       5.132 -10.124  13.767  1.00  0.00     0.001 C 
BRANCH   2   3
ATOM      3  C   UNL     1       5.526  -8.652  13.684  1.00  0.00     0.000 C 
BRANCH   3   4
ATOM      4  C   UNL     1       5.600  -8.164  12.237  1.00  0.00     0.000 C 
BRANCH   4   5
ATOM      5  C   UNL     1       4.250  -8.255  11.518  1.00  0.00     0.000 C 
BRANCH   5   6
ATOM      6  C   UNL     1       3.151  -7.457  12.230  1.00  0.00     0.000 C 
BRANCH   6   7
ATOM      7  C   UNL     1       3.433  -5.949  12.261  1.00  0.00     0.002 C 
BRANCH   7   8
ATOM      8  C   UNL     1       3.629  -5.352  10.863  1.00  0.00     0.021 C 
BRANCH   8   9
ATOM      9  C   UNL     1       2.368  -5.516  10.019  1.00  0.00     0.116 C 
BRANCH   9  10
ATOM     10  N   UNL     1       1.481  -4.406  10.267  1.00  0.00    -0.351 N 
ATOM     11  C   UNL     1       1.232  -3.255   9.561  1.00  0.00     0.271 C 
ATOM     12  O   UNL     1       0.466  -2.452  10.100  1.00  0.00    -0.267 OA
ATOM     13  H   UNL     1       0.957  -4.489  11.097  1.00  0.00     0.163 HD
BRANCH  11  14
ATOM     14  C   UNL     1       1.793  -3.046   8.212  1.00  0.00     0.151 A 
ATOM     15  N   UNL     1       1.798  -2.313   6.195  1.00  0.00    -0.232 N 
ATOM     16  N   UNL     1       1.282  -2.085   7.419  1.00  0.00    -0.162 NA
ATOM     17  C   UNL     1       2.750  -3.314   6.206  1.00  0.00     0.075 A 
ATOM     18  C   UNL     1       2.848  -3.694   7.526  1.00  0.00     0.065 A 
BRANCH  15  19
ATOM     19  C   UNL     1       1.373  -1.540   5.095  1.00  0.00     0.065 A 
ATOM     20  C   UNL     1       0.772   0.020   2.890  1.00  0.00     0.082 A 
ATOM     21  C   UNL     1       0.782  -1.373   2.764  1.00  0.00     0.024 A 
ATOM     22  C   UNL     1       1.024   0.637   4.120  1.00  0.00     0.024 A 
ATOM     23  C   UNL     1       1.101  -2.156   3.868  1.00  0.00     0.030 A 
ATOM     24  C   UNL     1       1.292  -0.149   5.240  1.00  0.00     0.030 A 
BRANCH  20  25
ATOM     25  S   UNL     1       0.510   1.021   1.460  1.00  0.00     0.238 S 
ATOM     26  O   UNL     1       1.276   2.239   1.593  1.00  0.00    -0.207 OA
ATOM     27  O   UNL     1      -0.895   1.005   1.139  1.00  0.00    -0.207 OA
BRANCH  25  28
ATOM     28  N   UNL     1       1.282   0.157   0.239  1.00  0.00    -0.225 NA
ATOM     29  H   UNL     1       1.187   0.658  -0.645  1.00  0.00     0.137 HD
ATOM     30  H   UNL     1       0.855  -0.766   0.153  1.00  0.00     0.137 HD
ENDBRANCH  25  28
ENDBRANCH  20  25
ENDBRANCH  15  19
BRANCH  17  31
ATOM     31  C   UNL     1       3.566  -3.751   5.082  1.00  0.00     0.000 A 
ATOM     32  C   UNL     1       4.516  -2.893   4.519  1.00  0.00     0.010 A 
ATOM     33  C   UNL     1       3.416  -5.046   4.571  1.00  0.00     0.010 A 
ATOM     34  C   UNL     1       5.299  -3.321   3.447  1.00  0.00     0.001 A 
ATOM     35  C   UNL     1       4.197  -5.471   3.496  1.00  0.00     0.001 A 
ATOM     36  C   UNL     1       5.137  -4.608   2.935  1.00  0.00     0.000 A 
ENDBRANCH  17  31
ENDBRANCH  11  14
ENDBRANCH   9  10
ENDBRANCH   8   9
ENDBRANCH   7   8
ENDBRANCH   6   7
ENDBRANCH   5   6
ENDBRANCH   4   5
ENDBRANCH   3   4
ENDBRANCH   2   3
ENDBRANCH   1   2
BRANCH   1  37
ATOM     37  C   UNL     1       7.628 -10.853  13.790  1.00  0.00     0.123 C 
BRANCH  37  38
ATOM     38  C   UNL     1       7.847 -11.023  15.282  1.00  0.00     0.305 C 
ATOM     39  O   UNL     1       8.951 -11.237  15.765  1.00  0.00    -0.252 OA
BRANCH  38  40
ATOM     40  O   UNL     1       6.698 -10.935  15.989  1.00  0.00    -0.463 OA
BRANCH  40  41
ATOM     41  C   UNL     1       6.733 -11.331  17.369  1.00  0.00     0.261 C 
BRANCH  41  42
ATOM     42  C   UNL     1       5.902 -12.598  17.568  1.00  0.00     0.202 C 
BRANCH  42  43
ATOM     43  O   UNL     1       6.437 -13.805  17.020  1.00  0.00    -0.374 OA
BRANCH  43  44
ATOM     44  C   UNL     1       6.371 -14.014  15.612  1.00  0.00     0.202 C 
BRANCH  44  45
ATOM     45  C   UNL     1       5.032 -14.460  15.039  1.00  0.00     0.261 C 
BRANCH  45  46
ATOM     46  O   UNL     1       4.042 -13.451  15.192  1.00  0.00    -0.460 OA
BRANCH  46  47
ATOM     47  C   UNL     1       3.215 -13.625  16.244  1.00  0.00     0.338 C 
ATOM     48  O   UNL     1       3.316 -14.451  17.141  1.00  0.00    -0.246 OA
BRANCH  47  49
ATOM     49  C   UNL     1       2.052 -12.754  16.062  1.00  0.00     0.060 A 
ATOM     50  C   UNL     1       0.949 -13.044  16.863  1.00  0.00     0.016 A 
ATOM     51  C   UNL     1       1.954 -11.946  14.919  1.00  0.00     0.016 A 
ATOM     52  C   UNL     1      -0.296 -12.780  16.349  1.00  0.00     0.010 A 
ATOM     53  C   UNL     1       0.711 -11.679  14.407  1.00  0.00     0.010 A 
ATOM     54  C   UNL     1      -0.385 -12.207  15.075  1.00  0.00    -0.014 A 
BRANCH  54  55
ATOM     55  C   UNL     1      -1.691 -12.120  14.471  1.00  0.00     0.031 A 
ATOM     56  C   UNL     1      -2.526 -11.085  15.105  1.00  0.00     0.074 A 
ATOM     57  C   UNL     1      -2.048 -12.880  13.421  1.00  0.00     0.049 A 
ATOM     58  N   UNL     1      -3.566 -11.271  15.844  1.00  0.00    -0.248 NA
ATOM     59  C   UNL     1      -2.026  -9.701  15.093  1.00  0.00     0.031 C 
ATOM     60  C   UNL     1      -1.219 -13.755  12.589  1.00  0.00     0.029 A 
ATOM     61  N   UNL     1      -3.264 -12.951  12.821  1.00  0.00    -0.354 N 
ATOM     62  C   UNL     1      -3.968 -10.003  16.240  1.00  0.00     0.074 A 
ATOM     63  C   UNL     1      -2.886  -9.110  15.921  1.00  0.00     0.031 C 
ATOM     64  C   UNL     1      -1.902 -14.078  11.465  1.00  0.00     0.029 A 
ATOM     65  C   UNL     1      -3.248 -13.541  11.563  1.00  0.00     0.049 A 
ATOM     66  H   UNL     1      -4.088 -12.613  13.242  1.00  0.00     0.167 HD
ATOM     67  C   UNL     1      -5.266  -9.759  16.559  1.00  0.00     0.037 A 
ATOM     68  C   UNL     1      -4.261 -13.461  10.662  1.00  0.00     0.037 A 
ATOM     69  C   UNL     1      -5.967 -10.984  16.852  1.00  0.00     0.049 A 
ATOM     70  C   UNL     1      -5.498 -13.125  11.425  1.00  0.00     0.074 A 
ATOM     71  C   UNL     1      -5.820 -11.970  17.810  1.00  0.00     0.029 A 
ATOM     72  N   UNL     1      -6.738 -11.540  15.860  1.00  0.00    -0.354 N 
ATOM     73  N   UNL     1      -6.064 -13.946  12.268  1.00  0.00    -0.248 NA
ATOM     74  C   UNL     1      -5.799 -11.714  11.633  1.00  0.00     0.031 C 
ATOM     75  C   UNL     1      -6.089 -13.193  17.129  1.00  0.00     0.029 A 
ATOM     76  C   UNL     1      -6.455 -12.883  15.819  1.00  0.00     0.049 A 
ATOM     77  H   UNL     1      -7.376 -11.062  15.283  1.00  0.00     0.167 HD
ATOM     78  C   UNL     1      -6.426 -13.152  13.348  1.00  0.00     0.074 A 
ATOM     79  C   UNL     1      -6.290 -11.776  12.874  1.00  0.00     0.031 C 
ATOM     80  C   UNL     1      -6.506 -13.669  14.610  1.00  0.00     0.037 A 
BRANCH  67  81
ATOM     81  C   UNL     1      -5.977  -8.476  16.219  1.00  0.00     0.064 A 
ATOM     82  C   UNL     1      -7.288  -8.283  16.692  1.00  0.00     0.173 A 
ATOM     83  C   UNL     1      -5.552  -7.576  15.216  1.00  0.00     0.173 A 
ATOM     84  F   UNL     1      -7.799  -9.088  17.636  1.00  0.00    -0.203 F 
ATOM     85  C   UNL     1      -8.136  -7.323  16.137  1.00  0.00     0.198 A 
ATOM     86  C   UNL     1      -6.382  -6.583  14.704  1.00  0.00     0.198 A 
ATOM     87  F   UNL     1      -4.368  -7.686  14.604  1.00  0.00    -0.203 F 
ATOM     88  F   UNL     1      -9.417  -7.266  16.524  1.00  0.00    -0.200 F 
ATOM     89  C   UNL     1      -7.685  -6.479  15.138  1.00  0.00     0.200 A 
ATOM     90  F   UNL     1      -5.928  -5.789  13.724  1.00  0.00    -0.200 F 
ATOM     91  F   UNL     1      -8.515  -5.604  14.557  1.00  0.00    -0.200 F 
ENDBRANCH  67  81
BRANCH  68  92
ATOM     92  C   UNL     1      -4.148 -13.251   9.196  1.00  0.00     0.064 A 
ATOM     93  C   UNL     1      -5.269 -13.380   8.359  1.00  0.00     0.173 A 
ATOM     94  C   UNL     1      -3.012 -12.645   8.622  1.00  0.00     0.173 A 
ATOM     95  F   UNL     1      -6.408 -13.905   8.835  1.00  0.00    -0.203 F 
ATOM     96  C   UNL     1      -5.264 -12.905   7.042  1.00  0.00     0.198 A 
ATOM     97  C   UNL     1      -3.006 -12.178   7.306  1.00  0.00     0.198 A 
ATOM     98  F   UNL     1      -1.914 -12.402   9.350  1.00  0.00    -0.203 F 
ATOM     99  F   UNL     1      -6.375 -12.988   6.296  1.00  0.00    -0.200 F 
ATOM    100  C   UNL     1      -4.136 -12.294   6.521  1.00  0.00     0.200 A 
ATOM    101  F   UNL     1      -1.917 -11.557   6.829  1.00  0.00    -0.200 F 
ATOM    102  F   UNL     1      -4.149 -11.781   5.283  1.00  0.00    -0.200 F 
ENDBRANCH  68  92
BRANCH  80 103
ATOM    103  C   UNL     1      -6.418 -15.162  14.763  1.00  0.00     0.064 A 
ATOM    104  C   UNL     1      -5.295 -15.927  14.396  1.00  0.00     0.173 A 
ATOM    105  C   UNL     1      -7.452 -15.825  15.436  1.00  0.00     0.173 A 
ATOM    106  F   UNL     1      -4.217 -15.350  13.850  1.00  0.00    -0.203 F 
ATOM    107  C   UNL     1      -5.240 -17.298  14.642  1.00  0.00     0.198 A 
ATOM    108  C   UNL     1      -7.378 -17.186  15.717  1.00  0.00     0.198 A 
ATOM    109  F   UNL     1      -8.521 -15.137  15.866  1.00  0.00    -0.203 F 
ATOM    110  F   UNL     1      -4.165 -18.007  14.266  1.00  0.00    -0.200 F 
ATOM    111  C   UNL     1      -6.279 -17.925  15.308  1.00  0.00     0.200 A 
ATOM    112  F   UNL     1      -8.362 -17.776  16.409  1.00  0.00    -0.200 F 
ATOM    113  F   UNL     1      -6.212 -19.235  15.581  1.00  0.00    -0.200 F 
ENDBRANCH  80 103
ENDBRANCH  54  55
ENDBRANCH  47  49
ENDBRANCH  46  47
ENDBRANCH  45  46
ENDBRANCH  44  45
ENDBRANCH  43  44
ENDBRANCH  42  43
ENDBRANCH  41  42
ENDBRANCH  40  41
ENDBRANCH  38  40
ENDBRANCH  37  38
ENDBRANCH   1  37
TORSDOF 29
