REMARK SMILES CC(C)(C)OC(=O)N1CCC[C@](Cc2ccccc2)(C(=O)OCCOCCOC(=O)c2ccc(-c3c4nc(c(-c5c(F)c(F)c(F)c(F)c5F)c5ccc([nH]5)c(-c5c(F)c(F)c(F)c(F)c5F)c5nc(c(-c6c(F)c(F)c(F)c(F)c6F)c6ccc3[nH]6)C=C5)C=C4)cc2)C1
REMARK SMILES IDX 24 1 23 2 22 3 20 4 21 5 12 6 8 7 9 8 94 9 10 10 11 11 6 12
REMARK SMILES IDX 7 13 5 14 2 15 1 16 3 17 4 18 13 19 14 20 15 21 19 22 16 23
REMARK SMILES IDX 18 24 17 25 25 26 26 27 27 28 28 29 29 30 30 31 31 32 32 33
REMARK SMILES IDX 93 34 33 35 92 36 34 37 35 38 36 39 86 40 37 41 91 42 85 43
REMARK SMILES IDX 87 44 38 45 90 46 84 47 83 48 39 50 71 51 51 52 70 53 52 54
REMARK SMILES IDX 55 55 69 56 88 57 53 58 54 59 68 61 89 62 56 63 40 64 41 65
REMARK SMILES IDX 49 66 42 67 43 68 47 69 50 70 44 71 45 72 48 73 46 74 72 75
REMARK SMILES IDX 73 76 81 77 74 78 75 79 79 80 82 81 76 82 77 83 80 84 78 85
REMARK SMILES IDX 57 86 58 87 66 88 59 89 60 90 64 91 67 92 61 93 62 94 65 95
REMARK SMILES IDX 63 96
REMARK H PARENT 87 49 55 60
REMARK Flexibility Score: inf
ROOT
ATOM      1  C   UNL     1       2.155  -2.511   7.612  1.00  0.00     0.202 C 
ENDROOT
BRANCH   1   2
ATOM      2  C   UNL     1       3.079  -2.304   6.409  1.00  0.00     0.261 C 
BRANCH   2   3
ATOM      3  O   UNL     1       2.680  -3.079   5.257  1.00  0.00    -0.463 OA
BRANCH   3   4
ATOM      4  C   UNL     1       3.477  -4.138   4.961  1.00  0.00     0.314 C 
ATOM      5  O   UNL     1       4.407  -4.494   5.679  1.00  0.00    -0.252 OA
BRANCH   4   6
ATOM      6  C   UNL     1       3.072  -4.898   3.682  1.00  0.00     0.090 C 
ATOM      7  N   UNL     1       0.959  -3.755   2.885  1.00  0.00    -0.307 N 
ATOM      8  C   UNL     1       0.151  -4.936   3.121  1.00  0.00     0.123 C 
ATOM      9  C   UNL     1       2.388  -3.967   2.642  1.00  0.00     0.142 C 
ATOM     10  C   UNL     1       0.693  -5.708   4.302  1.00  0.00     0.023 C 
ATOM     11  C   UNL     1       2.158  -6.087   4.084  1.00  0.00     0.023 C 
BRANCH   7  12
ATOM     12  C   UNL     1       0.320  -2.535   2.757  1.00  0.00     0.410 C 
ATOM     13  O   UNL     1      -0.780  -2.303   3.244  1.00  0.00    -0.224 OA
BRANCH  12  14
ATOM     14  O   UNL     1       1.012  -1.678   1.966  1.00  0.00    -0.444 OA
BRANCH  14  15
ATOM     15  C   UNL     1       0.473  -0.382   1.581  1.00  0.00     0.106 C 
ATOM     16  C   UNL     1       1.180  -0.041   0.261  1.00  0.00     0.056 C 
ATOM     17  C   UNL     1       0.862   0.638   2.653  1.00  0.00     0.056 C 
ATOM     18  C   UNL     1      -1.041  -0.357   1.318  1.00  0.00     0.056 C 
ENDBRANCH  14  15
ENDBRANCH  12  14
ENDBRANCH   7  12
BRANCH   6  19
ATOM     19  C   UNL     1       4.450  -5.409   3.130  1.00  0.00     0.056 C 
BRANCH  19  20
ATOM     20  C   UNL     1       4.452  -6.410   1.999  1.00  0.00    -0.047 A 
ATOM     21  C   UNL     1       4.563  -7.782   2.278  1.00  0.00     0.004 A 
ATOM     22  C   UNL     1       4.394  -5.995   0.664  1.00  0.00     0.004 A 
ATOM     23  C   UNL     1       4.593  -8.718   1.245  1.00  0.00     0.000 A 
ATOM     24  C   UNL     1       4.415  -6.933  -0.368  1.00  0.00     0.000 A 
ATOM     25  C   UNL     1       4.513  -8.293  -0.078  1.00  0.00     0.000 A 
ENDBRANCH  19  20
ENDBRANCH   6  19
ENDBRANCH   4   6
ENDBRANCH   3   4
ENDBRANCH   2   3
ENDBRANCH   1   2
BRANCH   1  26
ATOM     26  O   UNL     1       2.336  -3.724   8.344  1.00  0.00    -0.374 OA
BRANCH  26  27
ATOM     27  C   UNL     1       1.732  -4.895   7.798  1.00  0.00     0.202 C 
BRANCH  27  28
ATOM     28  C   UNL     1       0.231  -5.046   8.076  1.00  0.00     0.261 C 
BRANCH  28  29
ATOM     29  O   UNL     1      -0.522  -3.987   7.455  1.00  0.00    -0.460 OA
BRANCH  29  30
ATOM     30  C   UNL     1      -1.213  -3.209   8.321  1.00  0.00     0.338 C 
ATOM     31  O   UNL     1      -1.420  -3.430   9.504  1.00  0.00    -0.246 OA
BRANCH  30  32
ATOM     32  C   UNL     1      -1.556  -1.912   7.702  1.00  0.00     0.060 A 
ATOM     33  C   UNL     1      -1.240  -0.768   8.443  1.00  0.00     0.016 A 
ATOM     34  C   UNL     1      -2.230  -1.799   6.484  1.00  0.00     0.016 A 
ATOM     35  C   UNL     1      -1.676   0.482   8.017  1.00  0.00     0.010 A 
ATOM     36  C   UNL     1      -2.672  -0.537   6.056  1.00  0.00     0.010 A 
ATOM     37  C   UNL     1      -2.444   0.601   6.850  1.00  0.00    -0.014 A 
BRANCH  37  38
ATOM     38  C   UNL     1      -3.117   1.900   6.597  1.00  0.00     0.031 A 
ATOM     39  C   UNL     1      -4.544   2.084   7.041  1.00  0.00     0.074 A 
ATOM     40  C   UNL     1      -2.430   2.945   6.100  1.00  0.00     0.049 A 
ATOM     41  N   UNL     1      -5.260   3.179   7.106  1.00  0.00    -0.248 NA
ATOM     42  C   UNL     1      -5.260   0.874   7.477  1.00  0.00     0.031 C 
ATOM     43  C   UNL     1      -1.046   2.901   5.637  1.00  0.00     0.029 A 
ATOM     44  N   UNL     1      -2.804   4.255   5.928  1.00  0.00    -0.354 N 
ATOM     45  C   UNL     1      -6.500   2.793   7.597  1.00  0.00     0.074 A 
ATOM     46  C   UNL     1      -6.456   1.359   7.780  1.00  0.00     0.031 C 
ATOM     47  C   UNL     1      -0.680   4.133   5.242  1.00  0.00     0.029 A 
ATOM     48  C   UNL     1      -1.804   5.050   5.425  1.00  0.00     0.049 A 
ATOM     49  H   UNL     1      -3.703   4.592   6.144  1.00  0.00     0.167 HD
ATOM     50  C   UNL     1      -7.574   3.566   7.885  1.00  0.00     0.037 A 
ATOM     51  C   UNL     1      -1.795   6.370   5.156  1.00  0.00     0.037 A 
ATOM     52  C   UNL     1      -7.619   4.995   7.721  1.00  0.00     0.049 A 
ATOM     53  C   UNL     1      -3.009   7.205   5.479  1.00  0.00     0.074 A 
ATOM     54  C   UNL     1      -8.644   5.869   8.043  1.00  0.00     0.029 A 
ATOM     55  N   UNL     1      -6.597   5.759   7.181  1.00  0.00    -0.354 N 
ATOM     56  N   UNL     1      -4.144   6.843   6.025  1.00  0.00    -0.248 NA
ATOM     57  C   UNL     1      -2.929   8.639   5.165  1.00  0.00     0.031 C 
ATOM     58  C   UNL     1      -8.261   7.156   7.652  1.00  0.00     0.029 A 
ATOM     59  C   UNL     1      -6.979   7.090   7.129  1.00  0.00     0.049 A 
ATOM     60  H   UNL     1      -5.729   5.408   6.878  1.00  0.00     0.167 HD
ATOM     61  C   UNL     1      -4.901   8.002   6.138  1.00  0.00     0.074 A 
ATOM     62  C   UNL     1      -4.087   9.084   5.629  1.00  0.00     0.031 C 
ATOM     63  C   UNL     1      -6.160   8.157   6.617  1.00  0.00     0.037 A 
BRANCH  50  64
ATOM     64  C   UNL     1      -8.805   2.885   8.402  1.00  0.00     0.064 A 
ATOM     65  C   UNL     1      -8.882   2.405   9.717  1.00  0.00     0.173 A 
ATOM     66  C   UNL     1      -9.944   2.772   7.591  1.00  0.00     0.173 A 
ATOM     67  F   UNL     1      -7.816   2.481  10.528  1.00  0.00    -0.203 F 
ATOM     68  C   UNL     1     -10.053   1.825  10.199  1.00  0.00     0.198 A 
ATOM     69  C   UNL     1     -11.120   2.213   8.083  1.00  0.00     0.198 A 
ATOM     70  F   UNL     1      -9.921   3.221   6.327  1.00  0.00    -0.203 F 
ATOM     71  F   UNL     1     -10.099   1.350  11.451  1.00  0.00    -0.200 F 
ATOM     72  C   UNL     1     -11.173   1.738   9.385  1.00  0.00     0.200 A 
ATOM     73  F   UNL     1     -12.204   2.139   7.299  1.00  0.00    -0.200 F 
ATOM     74  F   UNL     1     -12.304   1.193   9.855  1.00  0.00    -0.200 F 
ENDBRANCH  50  64
BRANCH  51  75
ATOM     75  C   UNL     1      -0.592   6.998   4.552  1.00  0.00     0.064 A 
ATOM     76  C   UNL     1       0.192   7.914   5.268  1.00  0.00     0.173 A 
ATOM     77  C   UNL     1      -0.229   6.726   3.224  1.00  0.00     0.173 A 
ATOM     78  F   UNL     1      -0.130   8.226   6.532  1.00  0.00    -0.203 F 
ATOM     79  C   UNL     1       1.276   8.554   4.670  1.00  0.00     0.198 A 
ATOM     80  C   UNL     1       0.871   7.346   2.637  1.00  0.00     0.198 A 
ATOM     81  F   UNL     1      -0.947   5.859   2.496  1.00  0.00    -0.203 F 
ATOM     82  F   UNL     1       1.974   9.467   5.359  1.00  0.00    -0.200 F 
ATOM     83  C   UNL     1       1.617   8.267   3.357  1.00  0.00     0.200 A 
ATOM     84  F   UNL     1       1.202   7.058   1.371  1.00  0.00    -0.200 F 
ATOM     85  F   UNL     1       2.655   8.887   2.781  1.00  0.00    -0.200 F 
ENDBRANCH  51  75
BRANCH  63  86
ATOM     86  C   UNL     1      -6.727   9.547   6.624  1.00  0.00     0.064 A 
ATOM     87  C   UNL     1      -7.097  10.193   5.434  1.00  0.00     0.173 A 
ATOM     88  C   UNL     1      -6.920  10.234   7.832  1.00  0.00     0.173 A 
ATOM     89  F   UNL     1      -6.920   9.583   4.253  1.00  0.00    -0.203 F 
ATOM     90  C   UNL     1      -7.608  11.488   5.452  1.00  0.00     0.198 A 
ATOM     91  C   UNL     1      -7.458  11.518   7.847  1.00  0.00     0.198 A 
ATOM     92  F   UNL     1      -6.591   9.659   8.998  1.00  0.00    -0.203 F 
ATOM     93  F   UNL     1      -7.903  12.105   4.299  1.00  0.00    -0.200 F 
ATOM     94  C   UNL     1      -7.793  12.147   6.657  1.00  0.00     0.200 A 
ATOM     95  F   UNL     1      -7.647  12.150   9.014  1.00  0.00    -0.200 F 
ATOM     96  F   UNL     1      -8.283  13.394   6.672  1.00  0.00    -0.200 F 
ENDBRANCH  63  86
ENDBRANCH  37  38
ENDBRANCH  30  32
ENDBRANCH  29  30
ENDBRANCH  28  29
ENDBRANCH  27  28
ENDBRANCH  26  27
ENDBRANCH   1  26
TORSDOF 19
