REMARK SMILES CC(C)[C@H](NC(=O)[C@H](Cc1ccccc1)n1c(=O)[nH]c2ccccc2c1=O)C(=O)OCCOCCOC(=O)c1ccc(-c2c3nc(c(-c4c(F)c(F)c(F)c(F)c4F)c4ccc([nH]4)c(-c4c(F)c(F)c(F)c(F)c4F)c4nc(c(-c5c(F)c(F)c(F)c(F)c5F)c5ccc2[nH]5)C=C4)C=C3)cc1
REMARK SMILES IDX 32 1 31 2 30 3 28 4 29 5 4 6 2 7 1 8 3 9 5 10 6 11 7 13 8 14
REMARK SMILES IDX 16 15 17 16 26 17 18 18 19 19 25 20 27 21 20 22 24 24 21 25
REMARK SMILES IDX 23 26 22 27 9 28 10 29 11 30 15 31 12 32 14 33 13 34 33 35
REMARK SMILES IDX 34 36 35 37 36 38 37 39 38 40 39 41 40 42 101 43 41 44
REMARK SMILES IDX 100 45 42 46 43 47 44 48 94 49 45 50 99 51 93 52 95 53 46 54
REMARK SMILES IDX 98 55 92 56 91 57 47 59 79 60 59 61 78 62 60 63 63 64 77 65
REMARK SMILES IDX 96 66 61 67 62 68 76 70 97 71 64 72 48 73 49 74 57 75 50 76
REMARK SMILES IDX 51 77 55 78 58 79 52 80 53 81 56 82 54 83 80 84 81 85 89 86
REMARK SMILES IDX 82 87 83 88 87 89 90 90 84 91 85 92 88 93 86 94 65 95 66 96
REMARK SMILES IDX 74 97 67 98 68 99 72 100 75 101 69 102 70 103 73 104 71 105
REMARK H PARENT 5 12 19 23 95 58 63 69
REMARK Flexibility Score: inf
ROOT
ATOM      1  C   UNL     1      -4.979   4.003   1.250  1.00  0.00     0.202 C 
ENDROOT
BRANCH   1   2
ATOM      2  C   UNL     1      -4.666   3.478   2.664  1.00  0.00     0.261 C 
BRANCH   2   3
ATOM      3  O   UNL     1      -3.292   3.726   2.964  1.00  0.00    -0.462 OA
BRANCH   3   4
ATOM      4  C   UNL     1      -2.667   2.741   3.673  1.00  0.00     0.328 C 
ATOM      5  O   UNL     1      -3.173   2.134   4.608  1.00  0.00    -0.250 OA
BRANCH   4   6
ATOM      6  C   UNL     1      -1.284   2.421   3.061  1.00  0.00     0.194 C 
BRANCH   6   7
ATOM      7  C   UNL     1      -0.153   2.709   4.076  1.00  0.00     0.017 C 
ATOM      8  C   UNL     1       0.175   1.410   4.831  1.00  0.00     0.010 C 
ATOM      9  C   UNL     1       1.143   3.256   3.469  1.00  0.00     0.010 C 
ENDBRANCH   6   7
BRANCH   6  10
ATOM     10  N   UNL     1      -1.177   3.133   1.791  1.00  0.00    -0.341 N 
ATOM     11  C   UNL     1      -1.703   2.803   0.575  1.00  0.00     0.244 C 
ATOM     12  H   UNL     1      -0.654   3.967   1.815  1.00  0.00     0.164 HD
ATOM     13  O   UNL     1      -1.543   3.664  -0.305  1.00  0.00    -0.273 OA
BRANCH  11  14
ATOM     14  C   UNL     1      -2.328   1.402   0.210  1.00  0.00     0.189 C 
BRANCH  14  15
ATOM     15  N   UNL     1      -1.332   0.716  -0.600  1.00  0.00    -0.247 N 
ATOM     16  C   UNL     1      -0.187   0.246   0.011  1.00  0.00     0.329 A 
ATOM     17  C   UNL     1      -1.573   0.610  -1.964  1.00  0.00     0.264 A 
ATOM     18  O   UNL     1       0.216   0.592   1.119  1.00  0.00    -0.248 OA
ATOM     19  N   UNL     1       0.487  -0.727  -0.660  1.00  0.00    -0.307 N 
ATOM     20  C   UNL     1      -0.851  -0.470  -2.640  1.00  0.00     0.064 A 
ATOM     21  O   UNL     1      -2.390   1.268  -2.602  1.00  0.00    -0.268 OA
ATOM     22  C   UNL     1       0.091  -1.186  -1.910  1.00  0.00     0.055 A 
ATOM     23  H   UNL     1       1.287  -1.122  -0.243  1.00  0.00     0.171 HD
ATOM     24  C   UNL     1      -1.216  -0.864  -3.926  1.00  0.00     0.016 A 
ATOM     25  C   UNL     1       0.607  -2.370  -2.413  1.00  0.00     0.027 A 
ATOM     26  C   UNL     1      -0.700  -2.051  -4.434  1.00  0.00     0.001 A 
ATOM     27  C   UNL     1       0.180  -2.818  -3.665  1.00  0.00     0.002 A 
ENDBRANCH  14  15
BRANCH  14  28
ATOM     28  C   UNL     1      -3.032   0.457   1.228  1.00  0.00     0.071 C 
BRANCH  28  29
ATOM     29  C   UNL     1      -4.372  -0.253   0.940  1.00  0.00    -0.045 A 
ATOM     30  C   UNL     1      -5.603   0.426   0.890  1.00  0.00     0.004 A 
ATOM     31  C   UNL     1      -4.438  -1.653   0.995  1.00  0.00     0.004 A 
ATOM     32  C   UNL     1      -6.835  -0.239   0.969  1.00  0.00     0.000 A 
ATOM     33  C   UNL     1      -5.669  -2.326   1.067  1.00  0.00     0.000 A 
ATOM     34  C   UNL     1      -6.868  -1.620   1.077  1.00  0.00     0.000 A 
ENDBRANCH  28  29
ENDBRANCH  14  28
ENDBRANCH  11  14
ENDBRANCH   6  10
ENDBRANCH   4   6
ENDBRANCH   3   4
ENDBRANCH   2   3
ENDBRANCH   1   2
BRANCH   1  35
ATOM     35  O   UNL     1      -4.343   3.264   0.218  1.00  0.00    -0.374 OA
BRANCH  35  36
ATOM     36  C   UNL     1      -4.857   3.355  -1.129  1.00  0.00     0.202 C 
BRANCH  36  37
ATOM     37  C   UNL     1      -4.831   4.750  -1.754  1.00  0.00     0.261 C 
BRANCH  37  38
ATOM     38  O   UNL     1      -5.810   5.596  -1.143  1.00  0.00    -0.460 OA
BRANCH  38  39
ATOM     39  C   UNL     1      -7.081   5.122  -1.234  1.00  0.00     0.338 C 
ATOM     40  O   UNL     1      -7.545   4.411  -2.092  1.00  0.00    -0.246 OA
BRANCH  39  41
ATOM     41  C   UNL     1      -7.679   5.322   0.104  1.00  0.00     0.060 A 
ATOM     42  C   UNL     1      -8.478   4.287   0.615  1.00  0.00     0.016 A 
ATOM     43  C   UNL     1      -7.302   6.407   0.910  1.00  0.00     0.016 A 
ATOM     44  C   UNL     1      -8.991   4.391   1.901  1.00  0.00     0.010 A 
ATOM     45  C   UNL     1      -7.812   6.514   2.196  1.00  0.00     0.010 A 
ATOM     46  C   UNL     1      -8.730   5.551   2.643  1.00  0.00    -0.014 A 
BRANCH  46  47
ATOM     47  C   UNL     1      -9.752   5.966   3.619  1.00  0.00     0.031 A 
ATOM     48  C   UNL     1     -10.847   6.852   3.084  1.00  0.00     0.074 A 
ATOM     49  C   UNL     1      -9.751   5.504   4.876  1.00  0.00     0.049 A 
ATOM     50  N   UNL     1     -11.862   7.392   3.699  1.00  0.00    -0.248 NA
ATOM     51  C   UNL     1     -10.787   7.171   1.644  1.00  0.00     0.031 C 
ATOM     52  C   UNL     1      -8.773   4.576   5.439  1.00  0.00     0.029 A 
ATOM     53  N   UNL     1     -10.619   5.753   5.903  1.00  0.00    -0.354 N 
ATOM     54  C   UNL     1     -12.544   8.112   2.725  1.00  0.00     0.074 A 
ATOM     55  C   UNL     1     -11.818   7.979   1.489  1.00  0.00     0.031 C 
ATOM     56  C   UNL     1      -9.099   4.331   6.721  1.00  0.00     0.029 A 
ATOM     57  C   UNL     1     -10.278   5.120   7.070  1.00  0.00     0.049 A 
ATOM     58  H   UNL     1     -11.412   6.330   5.812  1.00  0.00     0.167 HD
ATOM     59  C   UNL     1     -13.688   8.817   2.853  1.00  0.00     0.037 A 
ATOM     60  C   UNL     1     -10.856   5.206   8.283  1.00  0.00     0.037 A 
ATOM     61  C   UNL     1     -14.386   8.941   4.099  1.00  0.00     0.049 A 
ATOM     62  C   UNL     1     -12.078   6.080   8.426  1.00  0.00     0.074 A 
ATOM     63  C   UNL     1     -15.534   9.652   4.382  1.00  0.00     0.029 A 
ATOM     64  N   UNL     1     -13.980   8.331   5.280  1.00  0.00    -0.354 N 
ATOM     65  N   UNL     1     -12.713   6.777   7.511  1.00  0.00    -0.248 NA
ATOM     66  C   UNL     1     -12.662   6.183   9.768  1.00  0.00     0.031 C 
ATOM     67  C   UNL     1     -15.790   9.521   5.750  1.00  0.00     0.029 A 
ATOM     68  C   UNL     1     -14.842   8.672   6.304  1.00  0.00     0.049 A 
ATOM     69  H   UNL     1     -13.195   7.744   5.372  1.00  0.00     0.167 HD
ATOM     70  C   UNL     1     -13.785   7.376   8.158  1.00  0.00     0.074 A 
ATOM     71  C   UNL     1     -13.722   6.946   9.541  1.00  0.00     0.031 C 
ATOM     72  C   UNL     1     -14.739   8.208   7.665  1.00  0.00     0.037 A 
BRANCH  59  73
ATOM     73  C   UNL     1     -14.192   9.541   1.639  1.00  0.00     0.064 A 
ATOM     74  C   UNL     1     -14.702   8.861   0.521  1.00  0.00     0.173 A 
ATOM     75  C   UNL     1     -14.131  10.941   1.580  1.00  0.00     0.173 A 
ATOM     76  F   UNL     1     -14.748   7.519   0.510  1.00  0.00    -0.203 F 
ATOM     77  C   UNL     1     -15.104   9.553  -0.619  1.00  0.00     0.198 A 
ATOM     78  C   UNL     1     -14.565  11.632   0.452  1.00  0.00     0.198 A 
ATOM     79  F   UNL     1     -13.637  11.640   2.613  1.00  0.00    -0.203 F 
ATOM     80  F   UNL     1     -15.527   8.879  -1.697  1.00  0.00    -0.200 F 
ATOM     81  C   UNL     1     -15.043  10.938  -0.649  1.00  0.00     0.200 A 
ATOM     82  F   UNL     1     -14.508  12.971   0.427  1.00  0.00    -0.200 F 
ATOM     83  F   UNL     1     -15.430  11.604  -1.746  1.00  0.00    -0.200 F 
ENDBRANCH  59  73
BRANCH  60  84
ATOM     84  C   UNL     1     -10.276   4.479   9.443  1.00  0.00     0.064 A 
ATOM     85  C   UNL     1     -10.980   3.453  10.089  1.00  0.00     0.173 A 
ATOM     86  C   UNL     1      -9.006   4.807   9.942  1.00  0.00     0.173 A 
ATOM     87  F   UNL     1     -12.206   3.112   9.666  1.00  0.00    -0.203 F 
ATOM     88  C   UNL     1     -10.447   2.801  11.201  1.00  0.00     0.198 A 
ATOM     89  C   UNL     1      -8.460   4.133  11.033  1.00  0.00     0.198 A 
ATOM     90  F   UNL     1      -8.288   5.782   9.365  1.00  0.00    -0.203 F 
ATOM     91  F   UNL     1     -11.164   1.861  11.831  1.00  0.00    -0.200 F 
ATOM     92  C   UNL     1      -9.185   3.137  11.668  1.00  0.00     0.200 A 
ATOM     93  F   UNL     1      -7.235   4.453  11.471  1.00  0.00    -0.200 F 
ATOM     94  F   UNL     1      -8.673   2.510  12.735  1.00  0.00    -0.200 F 
ENDBRANCH  60  84
BRANCH  72  95
ATOM     95  C   UNL     1     -15.804   8.664   8.617  1.00  0.00     0.064 A 
ATOM     96  C   UNL     1     -15.532   9.578   9.645  1.00  0.00     0.173 A 
ATOM     97  C   UNL     1     -17.125   8.220   8.460  1.00  0.00     0.173 A 
ATOM     98  F   UNL     1     -14.282  10.024   9.840  1.00  0.00    -0.203 F 
ATOM     99  C   UNL     1     -16.541  10.005  10.503  1.00  0.00     0.198 A 
ATOM    100  C   UNL     1     -18.138   8.679   9.295  1.00  0.00     0.198 A 
ATOM    101  F   UNL     1     -17.437   7.356   7.481  1.00  0.00    -0.203 F 
ATOM    102  F   UNL     1     -16.250  10.835  11.514  1.00  0.00    -0.200 F 
ATOM    103  C   UNL     1     -17.843   9.562  10.321  1.00  0.00     0.200 A 
ATOM    104  F   UNL     1     -19.399   8.267   9.104  1.00  0.00    -0.200 F 
ATOM    105  F   UNL     1     -18.815   9.984  11.142  1.00  0.00    -0.200 F 
ENDBRANCH  72  95
ENDBRANCH  46  47
ENDBRANCH  39  41
ENDBRANCH  38  39
ENDBRANCH  37  38
ENDBRANCH  36  37
ENDBRANCH  35  36
ENDBRANCH   1  35
TORSDOF 20
