REMARK SMILES Cn1c(=O)c2c(nc(Nc3cccc(Cl)c3Cl)n2CC(=O)OCCOCCOC(=O)c2ccc(-c3c4nc(c(-c5c(F)c(F)c(F)c(F)c5F)c5ccc([nH]5)c(-c5c(F)c(F)c(F)c(F)c5F)c5nc(c(-c6c(F)c(F)c(F)c(F)c6F)c6ccc3[nH]6)C=C5)C=C4)cc2)n(C)c1=O
REMARK SMILES IDX 24 1 23 2 22 3 20 4 21 5 19 6 18 7 1 8 2 9 3 10 96 11 4 12
REMARK SMILES IDX 5 13 94 14 97 15 6 16 95 17 7 18 8 19 9 20 10 22 11 23 16 24
REMARK SMILES IDX 12 25 14 26 17 27 13 28 15 29 25 30 26 31 27 32 28 33 29 34
REMARK SMILES IDX 30 35 31 36 32 37 93 38 33 39 92 40 34 41 35 42 36 43 86 44
REMARK SMILES IDX 37 45 91 46 85 47 87 48 38 49 90 50 84 51 83 52 39 54 71 55
REMARK SMILES IDX 51 56 70 57 52 58 55 59 69 60 88 61 53 62 54 63 68 65 89 66
REMARK SMILES IDX 56 67 40 68 41 69 49 70 42 71 43 72 47 73 50 74 44 75 45 76
REMARK SMILES IDX 48 77 46 78 72 79 73 80 81 81 74 82 75 83 79 84 82 85 76 86
REMARK SMILES IDX 77 87 80 88 78 89 57 90 58 91 66 92 59 93 60 94 64 95 67 96
REMARK SMILES IDX 61 97 62 98 65 99 63 100
REMARK H PARENT 9 21 87 53 55 64
REMARK Flexibility Score: inf
ROOT
ATOM      1  C   UNL     1       6.172   4.167   1.327  1.00  0.00     0.202 C 
ENDROOT
BRANCH   1   2
ATOM      2  C   UNL     1       5.387   5.463   1.074  1.00  0.00     0.261 C 
BRANCH   2   3
ATOM      3  O   UNL     1       3.994   5.247   0.739  1.00  0.00    -0.462 OA
BRANCH   3   4
ATOM      4  C   UNL     1       3.518   6.021  -0.277  1.00  0.00     0.326 C 
ATOM      5  O   UNL     1       4.153   6.940  -0.788  1.00  0.00    -0.250 OA
BRANCH   4   6
ATOM      6  C   UNL     1       2.231   5.527  -0.883  1.00  0.00     0.248 C 
BRANCH   6   7
ATOM      7  N   UNL     1       1.124   5.191  -0.002  1.00  0.00    -0.293 N 
ATOM      8  C   UNL     1       0.656   0.273  -0.360  1.00  0.00     0.159 C 
ATOM      9  N   UNL     1       0.243   1.594   0.079  1.00  0.00    -0.261 N 
ATOM     10  C   UNL     1       0.827   2.691  -0.563  1.00  0.00     0.282 A 
ATOM     11  C   UNL     1      -0.774   1.672   1.045  1.00  0.00     0.332 A 
ATOM     12  O   UNL     1       1.499   2.598  -1.584  1.00  0.00    -0.267 OA
ATOM     13  C   UNL     1       0.563   3.928   0.096  1.00  0.00     0.154 A 
ATOM     14  N   UNL     1      -1.122   2.947   1.492  1.00  0.00    -0.279 N 
ATOM     15  O   UNL     1      -1.335   0.659   1.471  1.00  0.00    -0.247 OA
ATOM     16  C   UNL     1      -0.404   4.032   1.045  1.00  0.00     0.170 A 
ATOM     17  C   UNL     1      -2.217   3.120   2.430  1.00  0.00     0.157 C 
ATOM     18  N   UNL     1      -0.551   5.307   1.466  1.00  0.00    -0.194 NA
ATOM     19  C   UNL     1       0.324   6.019   0.778  1.00  0.00     0.210 A 
BRANCH  19  20
ATOM     20  N   UNL     1       0.380   7.357   0.935  1.00  0.00    -0.324 N 
ATOM     21  H   UNL     1      -0.212   7.685   1.649  1.00  0.00     0.170 HD
BRANCH  20  22
ATOM     22  C   UNL     1       1.097   8.383   0.302  1.00  0.00     0.061 A 
ATOM     23  C   UNL     1       1.849   9.220   1.146  1.00  0.00     0.028 A 
ATOM     24  C   UNL     1       1.029   8.703  -1.069  1.00  0.00     0.083 A 
ATOM     25  C   UNL     1       2.610  10.270   0.639  1.00  0.00     0.004 A 
ATOM     26  C   UNL     1       1.850   9.719  -1.587  1.00  0.00     0.061 A 
ATOM     27  Cl  UNL     1      -0.141   7.914  -2.088  1.00  0.00    -0.080 Cl
ATOM     28  C   UNL     1       2.641  10.493  -0.733  1.00  0.00     0.022 A 
ATOM     29  Cl  UNL     1       1.937  10.070  -3.279  1.00  0.00    -0.083 Cl
ENDBRANCH  20  22
ENDBRANCH  19  20
ENDBRANCH   6   7
ENDBRANCH   4   6
ENDBRANCH   3   4
ENDBRANCH   2   3
ENDBRANCH   1   2
BRANCH   1  30
ATOM     30  O   UNL     1       6.265   3.224   0.262  1.00  0.00    -0.374 OA
BRANCH  30  31
ATOM     31  C   UNL     1       5.071   2.771  -0.358  1.00  0.00     0.202 C 
BRANCH  31  32
ATOM     32  C   UNL     1       4.096   1.968   0.491  1.00  0.00     0.261 C 
BRANCH  32  33
ATOM     33  O   UNL     1       3.665   2.615   1.679  1.00  0.00    -0.460 OA
BRANCH  33  34
ATOM     34  C   UNL     1       4.207   2.091   2.804  1.00  0.00     0.338 C 
ATOM     35  O   UNL     1       5.164   1.343   2.876  1.00  0.00    -0.246 OA
BRANCH  34  36
ATOM     36  C   UNL     1       3.356   2.422   3.953  1.00  0.00     0.060 A 
ATOM     37  C   UNL     1       3.744   1.877   5.177  1.00  0.00     0.016 A 
ATOM     38  C   UNL     1       2.086   2.985   3.763  1.00  0.00     0.016 A 
ATOM     39  C   UNL     1       2.780   1.687   6.139  1.00  0.00     0.010 A 
ATOM     40  C   UNL     1       1.120   2.788   4.723  1.00  0.00     0.010 A 
ATOM     41  C   UNL     1       1.460   2.060   5.856  1.00  0.00    -0.014 A 
BRANCH  41  42
ATOM     42  C   UNL     1       0.459   1.719   6.841  1.00  0.00     0.031 A 
ATOM     43  C   UNL     1       0.588   2.505   8.086  1.00  0.00     0.074 A 
ATOM     44  C   UNL     1      -0.501   0.804   6.620  1.00  0.00     0.049 A 
ATOM     45  N   UNL     1       0.946   2.086   9.254  1.00  0.00    -0.248 NA
ATOM     46  C   UNL     1       0.472   3.968   7.972  1.00  0.00     0.031 C 
ATOM     47  C   UNL     1      -0.895   0.163   5.364  1.00  0.00     0.029 A 
ATOM     48  N   UNL     1      -1.392   0.302   7.514  1.00  0.00    -0.354 N 
ATOM     49  C   UNL     1       0.936   3.209  10.070  1.00  0.00     0.074 A 
ATOM     50  C   UNL     1       0.804   4.352   9.204  1.00  0.00     0.031 C 
ATOM     51  C   UNL     1      -2.080  -0.469   5.542  1.00  0.00     0.029 A 
ATOM     52  C   UNL     1      -2.450  -0.391   6.945  1.00  0.00     0.049 A 
ATOM     53  H   UNL     1      -1.294   0.420   8.486  1.00  0.00     0.167 HD
ATOM     54  C   UNL     1       0.800   3.102  11.418  1.00  0.00     0.037 A 
ATOM     55  C   UNL     1      -3.576  -0.771   7.599  1.00  0.00     0.037 A 
ATOM     56  C   UNL     1       1.138   1.784  11.884  1.00  0.00     0.049 A 
ATOM     57  C   UNL     1      -3.261  -0.773   9.055  1.00  0.00     0.074 A 
ATOM     58  C   UNL     1       2.293   1.026  11.873  1.00  0.00     0.029 A 
ATOM     59  N   UNL     1       0.116   0.899  12.123  1.00  0.00    -0.354 N 
ATOM     60  N   UNL     1      -2.438  -1.615   9.618  1.00  0.00    -0.248 NA
ATOM     61  C   UNL     1      -3.501   0.457   9.797  1.00  0.00     0.031 C 
ATOM     62  C   UNL     1       1.859  -0.308  11.618  1.00  0.00     0.029 A 
ATOM     63  C   UNL     1       0.466  -0.295  11.544  1.00  0.00     0.049 A 
ATOM     64  H   UNL     1      -0.714   1.086  12.619  1.00  0.00     0.167 HD
ATOM     65  C   UNL     1      -1.746  -0.863  10.557  1.00  0.00     0.074 A 
ATOM     66  C   UNL     1      -2.490   0.389  10.668  1.00  0.00     0.031 C 
ATOM     67  C   UNL     1      -0.482  -1.204  10.943  1.00  0.00     0.037 A 
BRANCH  54  68
ATOM     68  C   UNL     1       0.026   4.092  12.240  1.00  0.00     0.064 A 
ATOM     69  C   UNL     1       0.113   4.053  13.642  1.00  0.00     0.173 A 
ATOM     70  C   UNL     1      -1.008   4.896  11.710  1.00  0.00     0.173 A 
ATOM     71  F   UNL     1       1.033   3.288  14.248  1.00  0.00    -0.203 F 
ATOM     72  C   UNL     1      -0.799   4.736  14.452  1.00  0.00     0.198 A 
ATOM     73  C   UNL     1      -1.877   5.622  12.519  1.00  0.00     0.198 A 
ATOM     74  F   UNL     1      -1.292   4.921  10.402  1.00  0.00    -0.203 F 
ATOM     75  F   UNL     1      -0.751   4.582  15.782  1.00  0.00    -0.200 F 
ATOM     76  C   UNL     1      -1.791   5.520  13.890  1.00  0.00     0.200 A 
ATOM     77  F   UNL     1      -2.846   6.355  11.952  1.00  0.00    -0.200 F 
ATOM     78  F   UNL     1      -2.695   6.135  14.663  1.00  0.00    -0.200 F 
ENDBRANCH  54  68
BRANCH  55  79
ATOM     79  C   UNL     1      -4.971  -0.714   7.095  1.00  0.00     0.064 A 
ATOM     80  C   UNL     1      -6.014  -1.347   7.793  1.00  0.00     0.173 A 
ATOM     81  C   UNL     1      -5.354   0.202   6.094  1.00  0.00     0.173 A 
ATOM     82  F   UNL     1      -5.737  -2.195   8.794  1.00  0.00    -0.203 F 
ATOM     83  C   UNL     1      -7.357  -1.057   7.526  1.00  0.00     0.198 A 
ATOM     84  C   UNL     1      -6.694   0.483   5.825  1.00  0.00     0.198 A 
ATOM     85  F   UNL     1      -4.440   0.921   5.429  1.00  0.00    -0.203 F 
ATOM     86  F   UNL     1      -8.322  -1.627   8.261  1.00  0.00    -0.200 F 
ATOM     87  C   UNL     1      -7.695  -0.134   6.551  1.00  0.00     0.200 A 
ATOM     88  F   UNL     1      -7.005   1.409   4.907  1.00  0.00    -0.200 F 
ATOM     89  F   UNL     1      -8.977   0.195   6.342  1.00  0.00    -0.200 F 
ENDBRANCH  55  79
BRANCH  67  90
ATOM     90  C   UNL     1       0.050  -2.538  10.497  1.00  0.00     0.064 A 
ATOM     91  C   UNL     1       0.283  -2.876   9.151  1.00  0.00     0.173 A 
ATOM     92  C   UNL     1       0.493  -3.439  11.473  1.00  0.00     0.173 A 
ATOM     93  F   UNL     1      -0.022  -2.024   8.165  1.00  0.00    -0.203 F 
ATOM     94  C   UNL     1       0.898  -4.078   8.803  1.00  0.00     0.198 A 
ATOM     95  C   UNL     1       1.141  -4.621  11.124  1.00  0.00     0.198 A 
ATOM     96  F   UNL     1       0.348  -3.144  12.774  1.00  0.00    -0.203 F 
ATOM     97  F   UNL     1       1.106  -4.380   7.513  1.00  0.00    -0.200 F 
ATOM     98  C   UNL     1       1.336  -4.945   9.791  1.00  0.00     0.200 A 
ATOM     99  F   UNL     1       1.607  -5.432  12.084  1.00  0.00    -0.200 F 
ATOM    100  F   UNL     1       1.973  -6.077   9.460  1.00  0.00    -0.200 F 
ENDBRANCH  67  90
ENDBRANCH  41  42
ENDBRANCH  34  36
ENDBRANCH  33  34
ENDBRANCH  32  33
ENDBRANCH  31  32
ENDBRANCH  30  31
ENDBRANCH   1  30
TORSDOF 17
