REMARK SMILES CN(CC(N)=O)S(=O)(=O)c1ccc(C(=O)OCCOCCOC(=O)c2ccc(-c3c4nc(c(-c5c(F)c(F)c(F)c(F)c5F)c5ccc([nH]5)c(-c5c(F)c(F)c(F)c(F)c5F)c5nc(c(-c6c(F)c(F)c(F)c(F)c6F)c6ccc3[nH]6)C=C5)C=C4)cc2)cc1Br
REMARK SMILES IDX 18 1 17 2 16 3 14 4 15 5 13 6 10 7 11 8 89 9 12 10 88 11
REMARK SMILES IDX 90 12 7 13 8 14 9 15 2 16 1 17 3 18 4 19 5 20 6 21 19 24
REMARK SMILES IDX 20 25 21 26 22 27 23 28 24 29 25 30 26 31 87 32 27 33 86 34
REMARK SMILES IDX 28 35 29 36 30 37 80 38 31 39 85 40 79 41 81 42 32 43 84 44
REMARK SMILES IDX 78 45 77 46 33 48 65 49 45 50 64 51 46 52 49 53 63 54 82 55
REMARK SMILES IDX 47 56 48 57 62 59 83 60 50 61 34 62 35 63 43 64 36 65 37 66
REMARK SMILES IDX 41 67 44 68 38 69 39 70 42 71 40 72 66 73 67 74 75 75 68 76
REMARK SMILES IDX 69 77 73 78 76 79 70 80 71 81 74 82 72 83 51 84 52 85 60 86
REMARK SMILES IDX 53 87 54 88 58 89 61 90 55 91 56 92 59 93 57 94
REMARK H PARENT 5 22 5 23 81 47 49 58
REMARK Flexibility Score: inf
ROOT
ATOM      1  C   UNL     1      -1.531  -7.245   7.320  1.00  0.00     0.202 C 
ENDROOT
BRANCH   1   2
ATOM      2  C   UNL     1      -0.135  -6.651   7.523  1.00  0.00     0.261 C 
BRANCH   2   3
ATOM      3  O   UNL     1       0.117  -5.627   6.540  1.00  0.00    -0.460 OA
BRANCH   3   4
ATOM      4  C   UNL     1       1.038  -5.948   5.602  1.00  0.00     0.338 C 
ATOM      5  O   UNL     1       1.753  -6.935   5.577  1.00  0.00    -0.246 OA
BRANCH   4   6
ATOM      6  C   UNL     1       0.962  -4.994   4.472  1.00  0.00     0.061 A 
ATOM      7  C   UNL     1       1.010  -3.270   2.258  1.00  0.00     0.096 A 
ATOM      8  C   UNL     1       1.119  -4.664   2.088  1.00  0.00     0.024 A 
ATOM      9  C   UNL     1       0.849  -2.743   3.544  1.00  0.00     0.038 A 
ATOM     10  C   UNL     1       1.112  -5.518   3.188  1.00  0.00     0.017 A 
ATOM     11  C   UNL     1       0.797  -3.616   4.650  1.00  0.00     0.032 A 
ATOM     12  Br  UNL     1       0.772  -0.896   3.965  1.00  0.00    -0.049 Br
BRANCH   7  13
ATOM     13  S   UNL     1       1.278  -2.319   0.776  1.00  0.00     0.244 S 
ATOM     14  O   UNL     1       0.747  -3.109  -0.315  1.00  0.00    -0.207 OA
ATOM     15  O   UNL     1       2.676  -1.944   0.810  1.00  0.00    -0.207 OA
BRANCH  13  16
ATOM     16  N   UNL     1       0.341  -0.912   0.851  1.00  0.00    -0.192 NA
ATOM     17  C   UNL     1       0.844   0.163  -0.043  1.00  0.00     0.125 C 
BRANCH  16  18
ATOM     18  C   UNL     1      -1.132  -1.067   0.781  1.00  0.00     0.201 C 
BRANCH  18  19
ATOM     19  C   UNL     1      -1.705  -1.395  -0.589  1.00  0.00     0.232 C 
ATOM     20  N   UNL     1      -2.322  -2.606  -0.710  1.00  0.00    -0.369 N 
ATOM     21  O   UNL     1      -1.657  -0.624  -1.544  1.00  0.00    -0.274 OA
ATOM     22  H   UNL     1      -2.358  -3.219   0.059  1.00  0.00     0.159 HD
ATOM     23  H   UNL     1      -2.732  -2.866  -1.567  1.00  0.00     0.159 HD
ENDBRANCH  18  19
ENDBRANCH  16  18
ENDBRANCH  13  16
ENDBRANCH   7  13
ENDBRANCH   4   6
ENDBRANCH   3   4
ENDBRANCH   2   3
ENDBRANCH   1   2
BRANCH   1  24
ATOM     24  O   UNL     1      -1.632  -8.069   6.155  1.00  0.00    -0.374 OA
BRANCH  24  25
ATOM     25  C   UNL     1      -1.995  -7.390   4.951  1.00  0.00     0.202 C 
BRANCH  25  26
ATOM     26  C   UNL     1      -3.507  -7.339   4.717  1.00  0.00     0.261 C 
BRANCH  26  27
ATOM     27  O   UNL     1      -4.124  -6.465   5.680  1.00  0.00    -0.460 OA
BRANCH  27  28
ATOM     28  C   UNL     1      -4.884  -7.090   6.610  1.00  0.00     0.338 C 
ATOM     29  O   UNL     1      -5.224  -8.261   6.619  1.00  0.00    -0.246 OA
BRANCH  28  30
ATOM     30  C   UNL     1      -5.146  -6.179   7.744  1.00  0.00     0.060 A 
ATOM     31  C   UNL     1      -5.092  -6.734   9.028  1.00  0.00     0.016 A 
ATOM     32  C   UNL     1      -5.482  -4.832   7.572  1.00  0.00     0.016 A 
ATOM     33  C   UNL     1      -5.431  -5.963  10.137  1.00  0.00     0.010 A 
ATOM     34  C   UNL     1      -5.825  -4.058   8.687  1.00  0.00     0.010 A 
ATOM     35  C   UNL     1      -5.838  -4.632   9.969  1.00  0.00    -0.014 A 
BRANCH  35  36
ATOM     36  C   UNL     1      -6.412  -3.916  11.133  1.00  0.00     0.031 A 
ATOM     37  C   UNL     1      -7.902  -3.924  11.332  1.00  0.00     0.074 A 
ATOM     38  C   UNL     1      -5.614  -3.336  12.046  1.00  0.00     0.049 A 
ATOM     39  N   UNL     1      -8.609  -3.471  12.336  1.00  0.00    -0.248 NA
ATOM     40  C   UNL     1      -8.704  -4.528  10.255  1.00  0.00     0.031 C 
ATOM     41  C   UNL     1      -4.156  -3.270  11.973  1.00  0.00     0.029 A 
ATOM     42  N   UNL     1      -5.923  -2.703  13.223  1.00  0.00    -0.354 N 
ATOM     43  C   UNL     1      -9.932  -3.749  12.022  1.00  0.00     0.074 A 
ATOM     44  C   UNL     1      -9.937  -4.373  10.716  1.00  0.00     0.031 C 
ATOM     45  C   UNL     1      -3.695  -2.635  13.064  1.00  0.00     0.029 A 
ATOM     46  C   UNL     1      -4.825  -2.249  13.908  1.00  0.00     0.049 A 
ATOM     47  H   UNL     1      -6.846  -2.586  13.546  1.00  0.00     0.167 HD
ATOM     48  C   UNL     1     -11.042  -3.522  12.762  1.00  0.00     0.037 A 
ATOM     49  C   UNL     1      -4.743  -1.602  15.087  1.00  0.00     0.037 A 
ATOM     50  C   UNL     1     -11.045  -2.900  14.059  1.00  0.00     0.049 A 
ATOM     51  C   UNL     1      -5.997  -1.329  15.874  1.00  0.00     0.074 A 
ATOM     52  C   UNL     1     -12.119  -2.647  14.894  1.00  0.00     0.029 A 
ATOM     53  N   UNL     1      -9.914  -2.426  14.705  1.00  0.00    -0.354 N 
ATOM     54  N   UNL     1      -7.237  -1.645  15.593  1.00  0.00    -0.248 NA
ATOM     55  C   UNL     1      -5.834  -0.621  17.153  1.00  0.00     0.031 C 
ATOM     56  C   UNL     1     -11.642  -1.988  16.033  1.00  0.00     0.029 A 
ATOM     57  C   UNL     1     -10.267  -1.863  15.921  1.00  0.00     0.049 A 
ATOM     58  H   UNL     1      -8.997  -2.482  14.353  1.00  0.00     0.167 HD
ATOM     59  C   UNL     1      -7.998  -1.195  16.664  1.00  0.00     0.074 A 
ATOM     60  C   UNL     1      -7.078  -0.597  17.609  1.00  0.00     0.031 C 
ATOM     61  C   UNL     1      -9.339  -1.272  16.849  1.00  0.00     0.037 A 
BRANCH  48  62
ATOM     62  C   UNL     1     -12.354  -3.947  12.178  1.00  0.00     0.064 A 
ATOM     63  C   UNL     1     -12.731  -5.297  12.136  1.00  0.00     0.173 A 
ATOM     64  C   UNL     1     -13.256  -2.994  11.683  1.00  0.00     0.173 A 
ATOM     65  F   UNL     1     -11.895  -6.246  12.583  1.00  0.00    -0.203 F 
ATOM     66  C   UNL     1     -13.959  -5.680  11.602  1.00  0.00     0.198 A 
ATOM     67  C   UNL     1     -14.490  -3.379  11.168  1.00  0.00     0.198 A 
ATOM     68  F   UNL     1     -12.939  -1.691  11.701  1.00  0.00    -0.203 F 
ATOM     69  F   UNL     1     -14.285  -6.978  11.538  1.00  0.00    -0.200 F 
ATOM     70  C   UNL     1     -14.839  -4.721  11.123  1.00  0.00     0.200 A 
ATOM     71  F   UNL     1     -15.342  -2.451  10.710  1.00  0.00    -0.200 F 
ATOM     72  F   UNL     1     -16.021  -5.090  10.612  1.00  0.00    -0.200 F 
ENDBRANCH  48  62
BRANCH  49  73
ATOM     73  C   UNL     1      -3.418  -1.182  15.607  1.00  0.00     0.064 A 
ATOM     74  C   UNL     1      -2.836  -1.827  16.706  1.00  0.00     0.173 A 
ATOM     75  C   UNL     1      -2.719  -0.116  15.025  1.00  0.00     0.173 A 
ATOM     76  F   UNL     1      -3.481  -2.835  17.311  1.00  0.00    -0.203 F 
ATOM     77  C   UNL     1      -1.606  -1.411  17.213  1.00  0.00     0.198 A 
ATOM     78  C   UNL     1      -1.480   0.285  15.519  1.00  0.00     0.198 A 
ATOM     79  F   UNL     1      -3.238   0.532  13.972  1.00  0.00    -0.203 F 
ATOM     80  F   UNL     1      -1.087  -2.018  18.289  1.00  0.00    -0.200 F 
ATOM     81  C   UNL     1      -0.928  -0.358  16.617  1.00  0.00     0.200 A 
ATOM     82  F   UNL     1      -0.824   1.298  14.936  1.00  0.00    -0.200 F 
ATOM     83  F   UNL     1       0.255   0.042  17.104  1.00  0.00    -0.200 F 
ENDBRANCH  49  73
BRANCH  61  84
ATOM     84  C   UNL     1      -9.887  -0.710  18.126  1.00  0.00     0.064 A 
ATOM     85  C   UNL     1      -9.990   0.673  18.332  1.00  0.00     0.173 A 
ATOM     86  C   UNL     1     -10.344  -1.563  19.142  1.00  0.00     0.173 A 
ATOM     87  F   UNL     1      -9.552   1.528  17.395  1.00  0.00    -0.203 F 
ATOM     88  C   UNL     1     -10.509   1.183  19.519  1.00  0.00     0.198 A 
ATOM     89  C   UNL     1     -10.884  -1.050  20.318  1.00  0.00     0.198 A 
ATOM     90  F   UNL     1     -10.272  -2.894  18.989  1.00  0.00    -0.203 F 
ATOM     91  F   UNL     1     -10.559   2.508  19.711  1.00  0.00    -0.200 F 
ATOM     92  C   UNL     1     -10.960   0.321  20.508  1.00  0.00     0.200 A 
ATOM     93  F   UNL     1     -11.326  -1.883  21.270  1.00  0.00    -0.200 F 
ATOM     94  F   UNL     1     -11.460   0.814  21.650  1.00  0.00    -0.200 F 
ENDBRANCH  61  84
ENDBRANCH  35  36
ENDBRANCH  28  30
ENDBRANCH  27  28
ENDBRANCH  26  27
ENDBRANCH  25  26
ENDBRANCH  24  25
ENDBRANCH   1  24
TORSDOF 18
