REMARK SMILES CC[C@H](C(=O)OCCOCCOC(=O)c1ccc(-c2c3nc(c(-c4c(F)c(F)c(F)c(F)c4F)c4ccc([nH]4)c(-c4c(F)c(F)c(F)c(F)c4F)c4nc(c(-c5c(F)c(F)c(F)c(F)c5F)c5ccc2[nH]5)C=C4)C=C3)cc1)N1C(=O)/C(=C\c2cccs2)SC1=S
REMARK SMILES IDX 9 1 8 2 7 3 6 4 4 5 5 6 3 7 2 8 1 9 78 10 79 11 89 12 80 13
REMARK SMILES IDX 81 14 88 15 90 16 82 17 83 18 84 19 87 20 85 21 86 22 10 23
REMARK SMILES IDX 11 24 12 25 13 26 14 27 15 28 16 29 77 30 17 31 76 32 18 33
REMARK SMILES IDX 19 34 20 35 70 36 21 37 75 38 69 39 71 40 22 41 74 42 68 43
REMARK SMILES IDX 67 44 23 46 55 47 35 48 54 49 36 50 39 51 53 52 72 53 37 54
REMARK SMILES IDX 38 55 52 57 73 58 40 59 24 60 25 61 33 62 26 63 27 64 31 65
REMARK SMILES IDX 34 66 28 67 29 68 32 69 30 70 56 71 57 72 65 73 58 74 59 75
REMARK SMILES IDX 63 76 66 77 60 78 61 79 64 80 62 81 41 82 42 83 50 84 43 85
REMARK SMILES IDX 44 86 48 87 51 88 45 89 46 90 49 91 47 92
REMARK H PARENT 71 45 39 56
REMARK Flexibility Score: inf
ROOT
ATOM      1  O   UNL     1       0.746   1.762  -1.464  1.00  0.00    -0.374 OA
ENDROOT
BRANCH   1   2
ATOM      2  C   UNL     1      -0.637   1.453  -1.609  1.00  0.00     0.202 C 
BRANCH   2   3
ATOM      3  C   UNL     1      -0.954   0.011  -2.001  1.00  0.00     0.261 C 
BRANCH   3   4
ATOM      4  O   UNL     1      -0.551  -0.930  -0.991  1.00  0.00    -0.462 OA
BRANCH   4   5
ATOM      5  C   UNL     1       0.345  -1.875  -1.387  1.00  0.00     0.329 C 
ATOM      6  O   UNL     1       0.888  -1.913  -2.486  1.00  0.00    -0.250 OA
BRANCH   5   7
ATOM      7  C   UNL     1       0.577  -2.950  -0.322  1.00  0.00     0.201 C 
BRANCH   7   8
ATOM      8  C   UNL     1      -0.096  -2.796   1.053  1.00  0.00     0.034 C 
ATOM      9  C   UNL     1       0.760  -1.986   2.023  1.00  0.00     0.007 C 
ENDBRANCH   7   8
BRANCH   7  10
ATOM     10  N   UNL     1       0.348  -4.298  -0.885  1.00  0.00    -0.278 N 
ATOM     11  C   UNL     1       1.224  -5.294  -0.483  1.00  0.00     0.267 C 
ATOM     12  C   UNL     1      -0.757  -4.721  -1.594  1.00  0.00     0.149 C 
ATOM     13  O   UNL     1       2.210  -5.115   0.217  1.00  0.00    -0.268 OA
ATOM     14  C   UNL     1       0.748  -6.623  -0.955  1.00  0.00     0.081 C 
ATOM     15  S   UNL     1      -0.526  -6.396  -2.092  1.00  0.00    -0.054 SA
ATOM     16  S   UNL     1      -2.158  -3.893  -1.959  1.00  0.00    -0.052 S 
ATOM     17  C   UNL     1       1.107  -7.832  -0.500  1.00  0.00     0.040 C 
BRANCH  17  18
ATOM     18  C   UNL     1       1.924  -7.995   0.649  1.00  0.00     0.028 A 
ATOM     19  C   UNL     1       1.616  -7.693   1.966  1.00  0.00     0.020 A 
ATOM     20  S   UNL     1       3.493  -8.673   0.525  1.00  0.00    -0.144 S 
ATOM     21  C   UNL     1       2.690  -7.965   2.859  1.00  0.00     0.012 A 
ATOM     22  C   UNL     1       3.779  -8.488   2.201  1.00  0.00     0.065 A 
ENDBRANCH  17  18
ENDBRANCH   7  10
ENDBRANCH   5   7
ENDBRANCH   4   5
ENDBRANCH   3   4
ENDBRANCH   2   3
ENDBRANCH   1   2
BRANCH   1  23
ATOM     23  C   UNL     1       1.409   1.299  -0.286  1.00  0.00     0.202 C 
BRANCH  23  24
ATOM     24  C   UNL     1       0.979   1.970   1.022  1.00  0.00     0.261 C 
BRANCH  24  25
ATOM     25  O   UNL     1      -0.327   1.522   1.443  1.00  0.00    -0.460 OA
BRANCH  25  26
ATOM     26  C   UNL     1      -1.200   2.517   1.718  1.00  0.00     0.338 C 
ATOM     27  O   UNL     1      -0.976   3.720   1.728  1.00  0.00    -0.246 OA
BRANCH  26  28
ATOM     28  C   UNL     1      -2.567   1.993   1.876  1.00  0.00     0.060 A 
ATOM     29  C   UNL     1      -3.548   2.490   1.010  1.00  0.00     0.016 A 
ATOM     30  C   UNL     1      -2.918   1.187   2.961  1.00  0.00     0.016 A 
ATOM     31  C   UNL     1      -4.895   2.259   1.278  1.00  0.00     0.010 A 
ATOM     32  C   UNL     1      -4.274   0.958   3.232  1.00  0.00     0.010 A 
ATOM     33  C   UNL     1      -5.268   1.546   2.426  1.00  0.00    -0.014 A 
BRANCH  33  34
ATOM     34  C   UNL     1      -6.680   1.625   2.879  1.00  0.00     0.031 A 
ATOM     35  C   UNL     1      -7.050   2.644   3.927  1.00  0.00     0.074 A 
ATOM     36  C   UNL     1      -7.639   0.876   2.307  1.00  0.00     0.049 A 
ATOM     37  N   UNL     1      -8.225   2.946   4.419  1.00  0.00    -0.248 NA
ATOM     38  C   UNL     1      -5.944   3.434   4.491  1.00  0.00     0.031 C 
ATOM     39  C   UNL     1      -7.422  -0.116   1.258  1.00  0.00     0.029 A 
ATOM     40  N   UNL     1      -8.995   0.850   2.523  1.00  0.00    -0.354 N 
ATOM     41  C   UNL     1      -8.000   3.958   5.343  1.00  0.00     0.074 A 
ATOM     42  C   UNL     1      -6.573   4.195   5.374  1.00  0.00     0.031 C 
ATOM     43  C   UNL     1      -8.606  -0.654   0.916  1.00  0.00     0.029 A 
ATOM     44  C   UNL     1      -9.660  -0.053   1.733  1.00  0.00     0.049 A 
ATOM     45  H   UNL     1      -9.446   1.425   3.183  1.00  0.00     0.167 HD
ATOM     46  C   UNL     1      -8.900   4.644   6.088  1.00  0.00     0.037 A 
ATOM     47  C   UNL     1     -10.971  -0.359   1.678  1.00  0.00     0.037 A 
ATOM     48  C   UNL     1     -10.321   4.421   6.059  1.00  0.00     0.049 A 
ATOM     49  C   UNL     1     -11.946   0.382   2.556  1.00  0.00     0.074 A 
ATOM     50  C   UNL     1     -11.313   5.073   6.770  1.00  0.00     0.029 A 
ATOM     51  N   UNL     1     -10.951   3.468   5.274  1.00  0.00    -0.354 N 
ATOM     52  N   UNL     1     -11.726   1.355   3.406  1.00  0.00    -0.248 NA
ATOM     53  C   UNL     1     -13.359  -0.015   2.456  1.00  0.00     0.031 C 
ATOM     54  C   UNL     1     -12.542   4.486   6.445  1.00  0.00     0.029 A 
ATOM     55  C   UNL     1     -12.318   3.500   5.499  1.00  0.00     0.049 A 
ATOM     56  H   UNL     1     -10.495   2.858   4.650  1.00  0.00     0.167 HD
ATOM     57  C   UNL     1     -12.968   1.703   3.921  1.00  0.00     0.074 A 
ATOM     58  C   UNL     1     -13.942   0.849   3.275  1.00  0.00     0.031 C 
ATOM     59  C   UNL     1     -13.276   2.646   4.845  1.00  0.00     0.037 A 
BRANCH  46  60
ATOM     60  C   UNL     1      -8.367   5.697   7.014  1.00  0.00     0.064 A 
ATOM     61  C   UNL     1      -7.879   6.921   6.531  1.00  0.00     0.173 A 
ATOM     62  C   UNL     1      -8.368   5.490   8.401  1.00  0.00     0.173 A 
ATOM     63  F   UNL     1      -7.842   7.160   5.212  1.00  0.00    -0.203 F 
ATOM     64  C   UNL     1      -7.389   7.890   7.403  1.00  0.00     0.198 A 
ATOM     65  C   UNL     1      -7.901   6.471   9.271  1.00  0.00     0.198 A 
ATOM     66  F   UNL     1      -8.826   4.338   8.912  1.00  0.00    -0.203 F 
ATOM     67  F   UNL     1      -6.887   9.034   6.918  1.00  0.00    -0.200 F 
ATOM     68  C   UNL     1      -7.406   7.667   8.772  1.00  0.00     0.200 A 
ATOM     69  F   UNL     1      -7.925   6.258  10.594  1.00  0.00    -0.200 F 
ATOM     70  F   UNL     1      -6.937   8.602   9.610  1.00  0.00    -0.200 F 
ENDBRANCH  46  60
BRANCH  47  71
ATOM     71  C   UNL     1     -11.447  -1.418   0.752  1.00  0.00     0.064 A 
ATOM     72  C   UNL     1     -12.229  -1.104  -0.368  1.00  0.00     0.173 A 
ATOM     73  C   UNL     1     -11.155  -2.769   0.988  1.00  0.00     0.173 A 
ATOM     74  F   UNL     1     -12.559   0.172  -0.618  1.00  0.00    -0.203 F 
ATOM     75  C   UNL     1     -12.717  -2.104  -1.207  1.00  0.00     0.198 A 
ATOM     76  C   UNL     1     -11.622  -3.766   0.134  1.00  0.00     0.198 A 
ATOM     77  F   UNL     1     -10.415  -3.121   2.049  1.00  0.00    -0.203 F 
ATOM     78  F   UNL     1     -13.503  -1.781  -2.243  1.00  0.00    -0.200 F 
ATOM     79  C   UNL     1     -12.409  -3.433  -0.958  1.00  0.00     0.200 A 
ATOM     80  F   UNL     1     -11.316  -5.048   0.374  1.00  0.00    -0.200 F 
ATOM     81  F   UNL     1     -12.881  -4.394  -1.764  1.00  0.00    -0.200 F 
ENDBRANCH  47  71
BRANCH  59  82
ATOM     82  C   UNL     1     -14.726   2.822   5.192  1.00  0.00     0.064 A 
ATOM     83  C   UNL     1     -15.419   1.871   5.955  1.00  0.00     0.173 A 
ATOM     84  C   UNL     1     -15.422   3.967   4.778  1.00  0.00     0.173 A 
ATOM     85  F   UNL     1     -14.801   0.752   6.363  1.00  0.00    -0.203 F 
ATOM     86  C   UNL     1     -16.765   2.046   6.265  1.00  0.00     0.198 A 
ATOM     87  C   UNL     1     -16.761   4.152   5.114  1.00  0.00     0.198 A 
ATOM     88  F   UNL     1     -14.803   4.911   4.053  1.00  0.00    -0.203 F 
ATOM     89  F   UNL     1     -17.421   1.101   6.952  1.00  0.00    -0.200 F 
ATOM     90  C   UNL     1     -17.433   3.188   5.849  1.00  0.00     0.200 A 
ATOM     91  F   UNL     1     -17.402   5.262   4.721  1.00  0.00    -0.200 F 
ATOM     92  F   UNL     1     -18.729   3.355   6.149  1.00  0.00    -0.200 F 
ENDBRANCH  59  82
ENDBRANCH  33  34
ENDBRANCH  26  28
ENDBRANCH  25  26
ENDBRANCH  24  25
ENDBRANCH  23  24
ENDBRANCH   1  23
TORSDOF 17
