REMARK SMILES Cc1n[nH]c2c1[C@@]1(C(=O)N([C@@H](C)C(=O)OCCOCCOC(=O)c3ccc(-c4c5nc(c(-c6c(F)c(F)c(F)c(F)c6F)c6ccc([nH]6)c(-c6c(F)c(F)c(F)c(F)c6F)c6nc(c(-c7c(F)c(F)c(F)c(F)c7F)c7ccc4[nH]7)C=C6)C=C5)cc3)c3ccccc31)C(C#N)=C(N)O2
REMARK SMILES IDX 18 1 17 2 16 3 15 4 13 5 14 6 11 7 12 8 10 9 1 10 2 11 3 12
REMARK SMILES IDX 6 13 4 14 5 15 7 16 98 18 8 19 92 20 93 21 96 22 9 23 87 24
REMARK SMILES IDX 91 25 88 26 90 27 89 28 94 29 95 30 97 31 19 34 20 35 21 36
REMARK SMILES IDX 22 37 23 38 24 39 25 40 86 41 26 42 85 43 27 44 28 45 29 46
REMARK SMILES IDX 79 47 30 48 84 49 78 50 80 51 31 52 83 53 77 54 76 55 32 57
REMARK SMILES IDX 64 58 44 59 63 60 45 61 48 62 62 63 81 64 46 65 47 66 61 68
REMARK SMILES IDX 82 69 49 70 33 71 34 72 42 73 35 74 36 75 40 76 43 77 37 78
REMARK SMILES IDX 38 79 41 80 39 81 65 82 66 83 74 84 67 85 68 86 72 87 75 88
REMARK SMILES IDX 69 89 70 90 73 91 71 92 50 93 51 94 59 95 52 96 53 97 57 98
REMARK SMILES IDX 60 99 54 100 55 101 58 102 56 103
REMARK H PARENT 4 17 97 32 97 33 80 56 48 67
REMARK Flexibility Score: inf
ROOT
ATOM      1  O   UNL     1      -6.631   1.829  -2.507  1.00  0.00    -0.374 OA
ENDROOT
BRANCH   1   2
ATOM      2  C   UNL     1      -6.516   0.682  -3.337  1.00  0.00     0.202 C 
BRANCH   2   3
ATOM      3  C   UNL     1      -5.138   0.329  -3.905  1.00  0.00     0.261 C 
BRANCH   3   4
ATOM      4  O   UNL     1      -4.104   0.372  -2.916  1.00  0.00    -0.462 OA
BRANCH   4   5
ATOM      5  C   UNL     1      -3.256   1.416  -3.046  1.00  0.00     0.329 C 
ATOM      6  O   UNL     1      -3.273   2.213  -3.982  1.00  0.00    -0.250 OA
BRANCH   5   7
ATOM      7  C   UNL     1      -2.216   1.529  -1.930  1.00  0.00     0.197 C 
ATOM      8  C   UNL     1      -0.860   1.258  -2.580  1.00  0.00     0.044 C 
BRANCH   7   9
ATOM      9  N   UNL     1      -2.373   0.834  -0.630  1.00  0.00    -0.297 N 
ATOM     10  C   UNL     1       1.030  -0.083   0.137  1.00  0.00     0.069 C 
ATOM     11  C   UNL     1       0.495  -1.173   0.984  1.00  0.00     0.068 A 
ATOM     12  N   UNL     1       1.343  -2.103   1.454  1.00  0.00    -0.177 NA
ATOM     13  C   UNL     1      -0.847  -1.456   1.349  1.00  0.00     0.063 A 
ATOM     14  N   UNL     1       0.548  -3.009   2.047  1.00  0.00    -0.246 N 
ATOM     15  C   UNL     1      -0.764  -2.680   1.965  1.00  0.00     0.222 A 
ATOM     16  C   UNL     1      -2.194  -0.831   1.117  1.00  0.00     0.149 C 
ATOM     17  H   UNL     1       0.881  -3.821   2.492  1.00  0.00     0.193 HD
ATOM     18  O   UNL     1      -1.748  -3.454   2.398  1.00  0.00    -0.422 OA
ATOM     19  C   UNL     1      -2.385  -0.565  -0.428  1.00  0.00     0.248 C 
ATOM     20  C   UNL     1      -2.119   0.581   1.657  1.00  0.00     0.002 A 
ATOM     21  C   UNL     1      -3.282  -1.684   1.796  1.00  0.00     0.114 C 
ATOM     22  C   UNL     1      -3.034  -2.907   2.348  1.00  0.00     0.208 C 
ATOM     23  O   UNL     1      -2.450  -1.418  -1.302  1.00  0.00    -0.273 OA
ATOM     24  C   UNL     1      -2.258   1.504   0.611  1.00  0.00     0.050 A 
ATOM     25  C   UNL     1      -1.994   1.004   2.978  1.00  0.00     0.008 A 
ATOM     26  C   UNL     1      -2.268   2.866   0.871  1.00  0.00     0.027 A 
ATOM     27  C   UNL     1      -2.016   2.371   3.243  1.00  0.00     0.001 A 
ATOM     28  C   UNL     1      -2.153   3.295   2.199  1.00  0.00     0.002 A 
BRANCH  21  29
ATOM     29  C   UNL     1      -4.533  -1.095   2.115  1.00  0.00     0.102 C 
ATOM     30  N   UNL     1      -5.531  -0.635   2.512  1.00  0.00    -0.193 NA
ENDBRANCH  21  29
BRANCH  22  31
ATOM     31  N   UNL     1      -3.961  -3.691   2.974  1.00  0.00    -0.369 N 
ATOM     32  H   UNL     1      -4.904  -3.409   3.005  1.00  0.00     0.159 HD
ATOM     33  H   UNL     1      -3.687  -4.537   3.395  1.00  0.00     0.159 HD
ENDBRANCH  22  31
ENDBRANCH   7   9
ENDBRANCH   5   7
ENDBRANCH   4   5
ENDBRANCH   3   4
ENDBRANCH   2   3
ENDBRANCH   1   2
BRANCH   1  34
ATOM     34  C   UNL     1      -5.972   1.815  -1.244  1.00  0.00     0.202 C 
BRANCH  34  35
ATOM     35  C   UNL     1      -6.145   0.622  -0.285  1.00  0.00     0.261 C 
BRANCH  35  36
ATOM     36  O   UNL     1      -5.797  -0.653  -0.858  1.00  0.00    -0.460 OA
BRANCH  36  37
ATOM     37  C   UNL     1      -6.685  -1.667  -0.639  1.00  0.00     0.338 C 
ATOM     38  O   UNL     1      -7.525  -1.744   0.239  1.00  0.00    -0.246 OA
BRANCH  37  39
ATOM     39  C   UNL     1      -6.755  -2.454  -1.889  1.00  0.00     0.060 A 
ATOM     40  C   UNL     1      -5.614  -2.921  -2.541  1.00  0.00     0.016 A 
ATOM     41  C   UNL     1      -7.997  -2.425  -2.546  1.00  0.00     0.016 A 
ATOM     42  C   UNL     1      -5.704  -3.225  -3.901  1.00  0.00     0.010 A 
ATOM     43  C   UNL     1      -8.070  -2.682  -3.909  1.00  0.00     0.010 A 
ATOM     44  C   UNL     1      -6.911  -3.016  -4.606  1.00  0.00    -0.014 A 
BRANCH  44  45
ATOM     45  C   UNL     1      -6.988  -3.378  -6.029  1.00  0.00     0.031 A 
ATOM     46  C   UNL     1      -6.800  -4.847  -6.209  1.00  0.00     0.074 A 
ATOM     47  C   UNL     1      -7.296  -2.565  -7.072  1.00  0.00     0.049 A 
ATOM     48  N   UNL     1      -5.815  -5.438  -6.799  1.00  0.00    -0.248 NA
ATOM     49  C   UNL     1      -7.699  -5.767  -5.490  1.00  0.00     0.031 C 
ATOM     50  C   UNL     1      -7.716  -1.161  -7.070  1.00  0.00     0.029 A 
ATOM     51  N   UNL     1      -7.329  -2.866  -8.414  1.00  0.00    -0.354 N 
ATOM     52  C   UNL     1      -6.042  -6.806  -6.668  1.00  0.00     0.074 A 
ATOM     53  C   UNL     1      -7.135  -6.949  -5.745  1.00  0.00     0.031 C 
ATOM     54  C   UNL     1      -8.167  -0.806  -8.302  1.00  0.00     0.029 A 
ATOM     55  C   UNL     1      -7.939  -1.901  -9.229  1.00  0.00     0.049 A 
ATOM     56  H   UNL     1      -6.951  -3.700  -8.777  1.00  0.00     0.167 HD
ATOM     57  C   UNL     1      -5.416  -7.693  -7.490  1.00  0.00     0.037 A 
ATOM     58  C   UNL     1      -8.214  -1.999 -10.565  1.00  0.00     0.037 A 
ATOM     59  C   UNL     1      -4.276  -7.077  -8.118  1.00  0.00     0.049 A 
ATOM     60  C   UNL     1      -7.314  -3.042 -11.114  1.00  0.00     0.074 A 
ATOM     61  C   UNL     1      -3.054  -6.612  -7.679  1.00  0.00     0.029 A 
ATOM     62  N   UNL     1      -4.469  -6.523  -9.357  1.00  0.00    -0.354 N 
ATOM     63  N   UNL     1      -6.022  -2.899 -11.193  1.00  0.00    -0.248 NA
ATOM     64  C   UNL     1      -7.809  -4.408 -11.092  1.00  0.00     0.031 C 
ATOM     65  C   UNL     1      -2.805  -5.442  -8.455  1.00  0.00     0.029 A 
ATOM     66  C   UNL     1      -3.839  -5.309  -9.381  1.00  0.00     0.049 A 
ATOM     67  H   UNL     1      -4.973  -6.928 -10.100  1.00  0.00     0.167 HD
ATOM     68  C   UNL     1      -5.522  -4.117 -10.766  1.00  0.00     0.074 A 
ATOM     69  C   UNL     1      -6.675  -5.019 -10.742  1.00  0.00     0.031 C 
ATOM     70  C   UNL     1      -4.291  -4.203 -10.187  1.00  0.00     0.037 A 
BRANCH  57  71
ATOM     71  C   UNL     1      -6.036  -8.956  -8.040  1.00  0.00     0.064 A 
ATOM     72  C   UNL     1      -5.266  -9.761  -8.910  1.00  0.00     0.173 A 
ATOM     73  C   UNL     1      -7.419  -9.231  -8.028  1.00  0.00     0.173 A 
ATOM     74  F   UNL     1      -3.938  -9.598  -9.000  1.00  0.00    -0.203 F 
ATOM     75  C   UNL     1      -5.853 -10.679  -9.783  1.00  0.00     0.198 A 
ATOM     76  C   UNL     1      -7.995 -10.181  -8.870  1.00  0.00     0.198 A 
ATOM     77  F   UNL     1      -8.282  -8.527  -7.288  1.00  0.00    -0.203 F 
ATOM     78  F   UNL     1      -5.096 -11.315 -10.687  1.00  0.00    -0.200 F 
ATOM     79  C   UNL     1      -7.220 -10.878  -9.773  1.00  0.00     0.200 A 
ATOM     80  F   UNL     1      -9.325 -10.352  -8.855  1.00  0.00    -0.200 F 
ATOM     81  F   UNL     1      -7.795 -11.703 -10.657  1.00  0.00    -0.200 F 
ENDBRANCH  57  71
BRANCH  58  82
ATOM     82  C   UNL     1      -9.432  -1.590 -11.331  1.00  0.00     0.064 A 
ATOM     83  C   UNL     1      -9.462  -1.612 -12.743  1.00  0.00     0.173 A 
ATOM     84  C   UNL     1     -10.684  -1.509 -10.695  1.00  0.00     0.173 A 
ATOM     85  F   UNL     1      -8.324  -1.740 -13.442  1.00  0.00    -0.203 F 
ATOM     86  C   UNL     1     -10.667  -1.590 -13.464  1.00  0.00     0.198 A 
ATOM     87  C   UNL     1     -11.885  -1.492 -11.415  1.00  0.00     0.198 A 
ATOM     88  F   UNL     1     -10.771  -1.552  -9.359  1.00  0.00    -0.203 F 
ATOM     89  F   UNL     1     -10.654  -1.679 -14.803  1.00  0.00    -0.200 F 
ATOM     90  C   UNL     1     -11.878  -1.547 -12.797  1.00  0.00     0.200 A 
ATOM     91  F   UNL     1     -13.053  -1.495 -10.757  1.00  0.00    -0.200 F 
ATOM     92  F   UNL     1     -13.033  -1.603 -13.477  1.00  0.00    -0.200 F 
ENDBRANCH  58  82
BRANCH  70  93
ATOM     93  C   UNL     1      -3.405  -2.990 -10.223  1.00  0.00     0.064 A 
ATOM     94  C   UNL     1      -3.682  -1.786  -9.550  1.00  0.00     0.173 A 
ATOM     95  C   UNL     1      -2.143  -3.123 -10.815  1.00  0.00     0.173 A 
ATOM     96  F   UNL     1      -4.833  -1.613  -8.888  1.00  0.00    -0.203 F 
ATOM     97  C   UNL     1      -2.739  -0.759  -9.492  1.00  0.00     0.198 A 
ATOM     98  C   UNL     1      -1.192  -2.112 -10.725  1.00  0.00     0.198 A 
ATOM     99  F   UNL     1      -1.810  -4.269 -11.428  1.00  0.00    -0.203 F 
ATOM    100  F   UNL     1      -3.020   0.379  -8.840  1.00  0.00    -0.200 F 
ATOM    101  C   UNL     1      -1.490  -0.929 -10.069  1.00  0.00     0.200 A 
ATOM    102  F   UNL     1       0.030  -2.304 -11.240  1.00  0.00    -0.200 F 
ATOM    103  F   UNL     1      -0.563   0.034  -9.969  1.00  0.00    -0.200 F 
ENDBRANCH  70  93
ENDBRANCH  44  45
ENDBRANCH  37  39
ENDBRANCH  36  37
ENDBRANCH  35  36
ENDBRANCH  34  35
ENDBRANCH   1  34
TORSDOF 17
