REMARK SMILES Nc1nc(Nc2ccc(C(=O)OCCOCCOC(=O)c3ccc(-c4c5nc(c(-c6c(F)c(F)c(F)c(F)c6F)c6ccc([nH]6)c(-c6c(F)c(F)c(F)c(F)c6F)c6nc(c(-c7c(F)c(F)c(F)c(F)c7F)c7ccc4[nH]7)C=C6)C=C5)cc3)cc2)ccc1[N+](=O)[O-]
REMARK SMILES IDX 14 1 13 2 12 3 10 4 11 5 9 6 6 7 7 8 85 9 8 10 84 11 5 12
REMARK SMILES IDX 4 14 2 15 3 16 88 17 87 18 86 19 1 20 89 23 90 24 91 25
REMARK SMILES IDX 15 26 16 27 17 28 18 29 19 30 20 31 21 32 22 33 83 34 23 35
REMARK SMILES IDX 82 36 24 37 25 38 26 39 76 40 27 41 81 42 75 43 77 44 28 45
REMARK SMILES IDX 80 46 74 47 73 48 29 50 61 51 41 52 60 53 42 54 45 55 59 56
REMARK SMILES IDX 78 57 43 58 44 59 58 61 79 62 46 63 30 64 31 65 39 66 32 67
REMARK SMILES IDX 33 68 37 69 40 70 34 71 35 72 38 73 36 74 62 75 63 76 71 77
REMARK SMILES IDX 64 78 65 79 69 80 72 81 66 82 67 83 70 84 68 85 47 86 48 87
REMARK SMILES IDX 56 88 49 89 50 90 54 91 57 92 51 93 52 94 55 95 53 96
REMARK H PARENT 5 13 1 21 1 22 77 49 45 60
REMARK Flexibility Score: inf
ROOT
ATOM      1  C   UNL     1       2.652   9.677  -0.123  1.00  0.00     0.202 C 
ENDROOT
BRANCH   1   2
ATOM      2  C   UNL     1       3.394   8.414   0.322  1.00  0.00     0.261 C 
BRANCH   2   3
ATOM      3  O   UNL     1       2.637   7.235   0.009  1.00  0.00    -0.460 OA
BRANCH   3   4
ATOM      4  C   UNL     1       2.114   6.596   1.082  1.00  0.00     0.338 C 
ATOM      5  O   UNL     1       2.339   6.839   2.259  1.00  0.00    -0.246 OA
BRANCH   4   6
ATOM      6  C   UNL     1       1.088   5.619   0.655  1.00  0.00     0.060 A 
ATOM      7  C   UNL     1      -0.798   3.623   0.086  1.00  0.00     0.040 A 
ATOM      8  C   UNL     1      -0.922   4.401   1.242  1.00  0.00     0.027 A 
ATOM      9  C   UNL     1       0.236   3.912  -0.819  1.00  0.00     0.027 A 
ATOM     10  C   UNL     1       0.021   5.386   1.531  1.00  0.00     0.018 A 
ATOM     11  C   UNL     1       1.172   4.914  -0.547  1.00  0.00     0.018 A 
BRANCH   7  12
ATOM     12  N   UNL     1      -1.565   2.444  -0.031  1.00  0.00    -0.340 N 
ATOM     13  H   UNL     1      -2.544   2.529  -0.091  1.00  0.00     0.168 HD
BRANCH  12  14
ATOM     14  C   UNL     1      -1.004   1.150  -0.067  1.00  0.00     0.133 A 
ATOM     15  C   UNL     1       0.906  -0.214  -0.065  1.00  0.00     0.204 A 
ATOM     16  N   UNL     1       0.343   1.009  -0.086  1.00  0.00    -0.207 NA
ATOM     17  C   UNL     1       0.121  -1.358  -0.041  1.00  0.00     0.311 A 
ATOM     18  C   UNL     1      -1.274  -1.232  -0.057  1.00  0.00     0.093 A 
ATOM     19  C   UNL     1      -1.840   0.042  -0.083  1.00  0.00     0.054 A 
BRANCH  15  20
ATOM     20  N   UNL     1       2.280  -0.186  -0.166  1.00  0.00    -0.378 N 
ATOM     21  H   UNL     1       2.756   0.676  -0.175  1.00  0.00     0.158 HD
ATOM     22  H   UNL     1       2.787  -1.028  -0.228  1.00  0.00     0.158 HD
ENDBRANCH  15  20
BRANCH  17  23
ATOM     23  N   UNL     1       0.717  -2.685   0.030  1.00  0.00     0.066 N 
ATOM     24  O   UNL     1       0.000  -3.648  -0.283  1.00  0.00    -0.258 OA
ATOM     25  O   UNL     1       1.884  -2.790   0.438  1.00  0.00    -0.258 OA
ENDBRANCH  17  23
ENDBRANCH  12  14
ENDBRANCH   7  12
ENDBRANCH   4   6
ENDBRANCH   3   4
ENDBRANCH   2   3
ENDBRANCH   1   2
BRANCH   1  26
ATOM     26  O   UNL     1       1.417   9.942   0.541  1.00  0.00    -0.374 OA
BRANCH  26  27
ATOM     27  C   UNL     1       0.261   9.253   0.060  1.00  0.00     0.202 C 
BRANCH  27  28
ATOM     28  C   UNL     1      -0.400   9.847  -1.189  1.00  0.00     0.261 C 
BRANCH  28  29
ATOM     29  O   UNL     1       0.430   9.687  -2.354  1.00  0.00    -0.460 OA
BRANCH  29  30
ATOM     30  C   UNL     1       0.963  10.832  -2.838  1.00  0.00     0.338 C 
ATOM     31  O   UNL     1       0.741  11.974  -2.459  1.00  0.00    -0.246 OA
BRANCH  30  32
ATOM     32  C   UNL     1       2.024  10.520  -3.813  1.00  0.00     0.060 A 
ATOM     33  C   UNL     1       3.267  11.140  -3.636  1.00  0.00     0.016 A 
ATOM     34  C   UNL     1       1.794   9.695  -4.917  1.00  0.00     0.016 A 
ATOM     35  C   UNL     1       4.271  10.979  -4.588  1.00  0.00     0.010 A 
ATOM     36  C   UNL     1       2.800   9.541  -5.878  1.00  0.00     0.010 A 
ATOM     37  C   UNL     1       4.029  10.210  -5.735  1.00  0.00    -0.014 A 
BRANCH  37  38
ATOM     38  C   UNL     1       5.007  10.232  -6.849  1.00  0.00     0.031 A 
ATOM     39  C   UNL     1       4.758  11.145  -8.019  1.00  0.00     0.074 A 
ATOM     40  C   UNL     1       6.122   9.481  -6.804  1.00  0.00     0.049 A 
ATOM     41  N   UNL     1       5.457  11.305  -9.114  1.00  0.00    -0.248 NA
ATOM     42  C   UNL     1       3.558  11.994  -7.942  1.00  0.00     0.031 C 
ATOM     43  C   UNL     1       6.499   8.597  -5.704  1.00  0.00     0.029 A 
ATOM     44  N   UNL     1       7.141   9.344  -7.713  1.00  0.00    -0.354 N 
ATOM     45  C   UNL     1       4.788  12.273  -9.851  1.00  0.00     0.074 A 
ATOM     46  C   UNL     1       3.607  12.639  -9.098  1.00  0.00     0.031 C 
ATOM     47  C   UNL     1       7.667   8.001  -6.005  1.00  0.00     0.029 A 
ATOM     48  C   UNL     1       8.100   8.439  -7.331  1.00  0.00     0.049 A 
ATOM     49  H   UNL     1       7.180   9.846  -8.559  1.00  0.00     0.167 HD
ATOM     50  C   UNL     1       5.133  12.817 -11.042  1.00  0.00     0.037 A 
ATOM     51  C   UNL     1       9.191   8.002  -7.989  1.00  0.00     0.037 A 
ATOM     52  C   UNL     1       6.303  12.448 -11.794  1.00  0.00     0.049 A 
ATOM     53  C   UNL     1       9.501   8.556  -9.357  1.00  0.00     0.074 A 
ATOM     54  C   UNL     1       6.733  12.934 -13.017  1.00  0.00     0.029 A 
ATOM     55  N   UNL     1       7.229  11.498 -11.393  1.00  0.00    -0.354 N 
ATOM     56  N   UNL     1       8.868   9.477 -10.042  1.00  0.00    -0.248 NA
ATOM     57  C   UNL     1      10.681   8.007 -10.042  1.00  0.00     0.031 C 
ATOM     58  C   UNL     1       7.899  12.248 -13.375  1.00  0.00     0.029 A 
ATOM     59  C   UNL     1       8.220  11.369 -12.353  1.00  0.00     0.049 A 
ATOM     60  H   UNL     1       7.189  10.989 -10.551  1.00  0.00     0.167 HD
ATOM     61  C   UNL     1       9.590   9.644 -11.217  1.00  0.00     0.074 A 
ATOM     62  C   UNL     1      10.715   8.735 -11.149  1.00  0.00     0.031 C 
ATOM     63  C   UNL     1       9.344  10.474 -12.260  1.00  0.00     0.037 A 
BRANCH  50  64
ATOM     64  C   UNL     1       4.224  13.865 -11.614  1.00  0.00     0.064 A 
ATOM     65  C   UNL     1       4.159  15.155 -11.067  1.00  0.00     0.173 A 
ATOM     66  C   UNL     1       3.442  13.590 -12.745  1.00  0.00     0.173 A 
ATOM     67  F   UNL     1       4.877  15.463  -9.976  1.00  0.00    -0.203 F 
ATOM     68  C   UNL     1       3.329  16.126 -11.620  1.00  0.00     0.198 A 
ATOM     69  C   UNL     1       2.633  14.571 -13.312  1.00  0.00     0.198 A 
ATOM     70  F   UNL     1       3.471  12.372 -13.307  1.00  0.00    -0.203 F 
ATOM     71  F   UNL     1       3.252  17.340 -11.058  1.00  0.00    -0.200 F 
ATOM     72  C   UNL     1       2.572  15.835 -12.746  1.00  0.00     0.200 A 
ATOM     73  F   UNL     1       1.911  14.292 -14.406  1.00  0.00    -0.200 F 
ATOM     74  F   UNL     1       1.780  16.774 -13.284  1.00  0.00    -0.200 F 
ENDBRANCH  50  64
BRANCH  51  75
ATOM     75  C   UNL     1      10.074   6.974  -7.377  1.00  0.00     0.064 A 
ATOM     76  C   UNL     1      11.386   7.285  -6.993  1.00  0.00     0.173 A 
ATOM     77  C   UNL     1       9.639   5.652  -7.205  1.00  0.00     0.173 A 
ATOM     78  F   UNL     1      11.856   8.529  -7.165  1.00  0.00    -0.203 F 
ATOM     79  C   UNL     1      12.237   6.307  -6.483  1.00  0.00     0.198 A 
ATOM     80  C   UNL     1      10.482   4.681  -6.668  1.00  0.00     0.198 A 
ATOM     81  F   UNL     1       8.395   5.301  -7.560  1.00  0.00    -0.203 F 
ATOM     82  F   UNL     1      13.504   6.619  -6.177  1.00  0.00    -0.200 F 
ATOM     83  C   UNL     1      11.784   5.007  -6.317  1.00  0.00     0.200 A 
ATOM     84  F   UNL     1      10.038   3.428  -6.500  1.00  0.00    -0.200 F 
ATOM     85  F   UNL     1      12.605   4.066  -5.831  1.00  0.00    -0.200 F 
ENDBRANCH  51  75
BRANCH  63  86
ATOM     86  C   UNL     1      10.334  10.477 -13.389  1.00  0.00     0.064 A 
ATOM     87  C   UNL     1      10.424   9.410 -14.294  1.00  0.00     0.173 A 
ATOM     88  C   UNL     1      11.176  11.582 -13.589  1.00  0.00     0.173 A 
ATOM     89  F   UNL     1       9.651   8.325 -14.136  1.00  0.00    -0.203 F 
ATOM     90  C   UNL     1      11.338   9.438 -15.343  1.00  0.00     0.198 A 
ATOM     91  C   UNL     1      12.068  11.619 -14.657  1.00  0.00     0.198 A 
ATOM     92  F   UNL     1      11.124  12.632 -12.756  1.00  0.00    -0.203 F 
ATOM     93  F   UNL     1      11.440   8.386 -16.169  1.00  0.00    -0.200 F 
ATOM     94  C   UNL     1      12.154  10.544 -15.528  1.00  0.00     0.200 A 
ATOM     95  F   UNL     1      12.846  12.694 -14.841  1.00  0.00    -0.200 F 
ATOM     96  F   UNL     1      13.029  10.571 -16.543  1.00  0.00    -0.200 F 
ENDBRANCH  63  86
ENDBRANCH  37  38
ENDBRANCH  30  32
ENDBRANCH  29  30
ENDBRANCH  28  29
ENDBRANCH  27  28
ENDBRANCH  26  27
ENDBRANCH   1  26
TORSDOF 18
