REMARK SMILES CC(C)[NH2+][C@](C)(C[N@H+]1CCC(C)(C)C1)C(=O)OCCOCCOC(=O)c1ccc(-c2c3nc(c(-c4c(F)c(F)c(F)c(F)c4F)c4ccc([nH]4)c(-c4c(F)c(F)c(F)c(F)c4F)c4nc(c(-c5c(F)c(F)c(F)c(F)c5F)c5ccc2[nH]5)C=C4)C=C3)cc1
REMARK SMILES IDX 20 1 19 2 18 3 17 4 15 5 16 6 5 7 6 8 4 9 2 12 1 13 3 14
REMARK SMILES IDX 7 15 8 16 9 17 14 18 10 20 11 21 12 22 13 23 21 24 22 25
REMARK SMILES IDX 23 26 24 27 25 28 26 29 27 30 88 31 28 32 87 33 29 34 30 35
REMARK SMILES IDX 31 36 81 37 32 38 86 39 80 40 82 41 33 42 85 43 79 44 78 45
REMARK SMILES IDX 34 47 66 48 46 49 65 50 47 51 50 52 64 53 83 54 48 55 49 56
REMARK SMILES IDX 63 58 84 59 51 60 35 61 36 62 44 63 37 64 38 65 42 66 45 67
REMARK SMILES IDX 39 68 40 69 43 70 41 71 67 72 68 73 76 74 69 75 70 76 74 77
REMARK SMILES IDX 77 78 71 79 72 80 75 81 73 82 52 83 53 84 61 85 54 86 55 87
REMARK SMILES IDX 59 88 62 89 56 90 57 91 60 92 58 93
REMARK H PARENT 4 10 4 11 8 19 82 46 50 57
REMARK Flexibility Score: inf
ROOT
ATOM      1  O   UNL     1       0.508  -5.714   0.182  1.00  0.00    -0.374 OA
ENDROOT
BRANCH   1   2
ATOM      2  C   UNL     1       0.142  -6.144   1.490  1.00  0.00     0.202 C 
BRANCH   2   3
ATOM      3  C   UNL     1      -0.022  -5.068   2.572  1.00  0.00     0.261 C 
BRANCH   3   4
ATOM      4  O   UNL     1      -1.057  -4.085   2.359  1.00  0.00    -0.458 OA
BRANCH   4   5
ATOM      5  C   UNL     1      -0.590  -2.842   2.026  1.00  0.00     0.373 C 
ATOM      6  O   UNL     1       0.567  -2.647   1.657  1.00  0.00    -0.244 OA
BRANCH   5   7
ATOM      7  C   UNL     1      -1.603  -1.686   2.297  1.00  0.00     0.240 C 
ATOM      8  C   UNL     1      -1.183  -0.529   1.356  1.00  0.00     0.099 C 
BRANCH   7   9
ATOM      9  N   UNL     1      -1.358  -1.168   3.687  1.00  0.00    -0.326 N 
ATOM     10  H   UNL     1      -0.358  -0.985   3.772  1.00  0.00     0.347 HD
ATOM     11  H   UNL     1      -1.966  -0.352   3.765  1.00  0.00     0.347 HD
BRANCH   9  12
ATOM     12  C   UNL     1      -1.742  -2.018   4.818  1.00  0.00     0.177 C 
ATOM     13  C   UNL     1      -0.756  -1.717   5.951  1.00  0.00     0.075 C 
ATOM     14  C   UNL     1      -3.164  -1.742   5.321  1.00  0.00     0.075 C 
ENDBRANCH   9  12
ENDBRANCH   7   9
BRANCH   7  15
ATOM     15  C   UNL     1      -3.121  -1.980   2.072  1.00  0.00     0.343 C 
BRANCH  15  16
ATOM     16  N   UNL     1      -3.633  -2.061   0.685  1.00  0.00    -0.329 N 
ATOM     17  C   UNL     1      -3.550  -3.426   0.155  1.00  0.00     0.263 C 
ATOM     18  C   UNL     1      -5.058  -1.655   0.604  1.00  0.00     0.269 C 
ATOM     19  H   UNL     1      -3.047  -1.429   0.139  1.00  0.00     0.348 HD
ATOM     20  C   UNL     1      -4.973  -3.910  -0.055  1.00  0.00     0.073 C 
ATOM     21  C   UNL     1      -5.738  -2.631  -0.366  1.00  0.00     0.019 C 
ATOM     22  C   UNL     1      -5.544  -2.221  -1.836  1.00  0.00     0.017 C 
ATOM     23  C   UNL     1      -7.232  -2.789  -0.076  1.00  0.00     0.017 C 
ENDBRANCH  15  16
ENDBRANCH   7  15
ENDBRANCH   5   7
ENDBRANCH   4   5
ENDBRANCH   3   4
ENDBRANCH   2   3
ENDBRANCH   1   2
BRANCH   1  24
ATOM     24  C   UNL     1      -0.508  -5.124  -0.629  1.00  0.00     0.202 C 
BRANCH  24  25
ATOM     25  C   UNL     1      -1.658  -6.064  -1.007  1.00  0.00     0.261 C 
BRANCH  25  26
ATOM     26  O   UNL     1      -2.420  -6.377   0.171  1.00  0.00    -0.460 OA
BRANCH  26  27
ATOM     27  C   UNL     1      -3.434  -7.240  -0.011  1.00  0.00     0.338 C 
ATOM     28  O   UNL     1      -3.940  -7.588  -1.059  1.00  0.00    -0.246 OA
BRANCH  27  29
ATOM     29  C   UNL     1      -3.735  -7.845   1.296  1.00  0.00     0.060 A 
ATOM     30  C   UNL     1      -3.029  -8.998   1.651  1.00  0.00     0.016 A 
ATOM     31  C   UNL     1      -4.771  -7.364   2.097  1.00  0.00     0.016 A 
ATOM     32  C   UNL     1      -3.435  -9.737   2.759  1.00  0.00     0.010 A 
ATOM     33  C   UNL     1      -5.158  -8.092   3.228  1.00  0.00     0.010 A 
ATOM     34  C   UNL     1      -4.542  -9.322   3.517  1.00  0.00    -0.014 A 
BRANCH  34  35
ATOM     35  C   UNL     1      -5.170 -10.305   4.438  1.00  0.00     0.031 A 
ATOM     36  C   UNL     1      -6.395 -11.052   3.972  1.00  0.00     0.074 A 
ATOM     37  C   UNL     1      -4.605 -10.616   5.617  1.00  0.00     0.049 A 
ATOM     38  N   UNL     1      -7.013 -12.065   4.527  1.00  0.00    -0.248 NA
ATOM     39  C   UNL     1      -7.004 -10.600   2.710  1.00  0.00     0.031 C 
ATOM     40  C   UNL     1      -3.421  -9.975   6.183  1.00  0.00     0.029 A 
ATOM     41  N   UNL     1      -4.944 -11.575   6.540  1.00  0.00    -0.354 N 
ATOM     42  C   UNL     1      -8.069 -12.374   3.679  1.00  0.00     0.074 A 
ATOM     43  C   UNL     1      -8.044 -11.411   2.601  1.00  0.00     0.031 C 
ATOM     44  C   UNL     1      -3.118 -10.572   7.349  1.00  0.00     0.029 A 
ATOM     45  C   UNL     1      -4.086 -11.637   7.609  1.00  0.00     0.049 A 
ATOM     46  H   UNL     1      -5.728 -12.162   6.443  1.00  0.00     0.167 HD
ATOM     47  C   UNL     1      -8.964 -13.385   3.770  1.00  0.00     0.037 A 
ATOM     48  C   UNL     1      -4.073 -12.472   8.667  1.00  0.00     0.037 A 
ATOM     49  C   UNL     1      -8.991 -14.355   4.830  1.00  0.00     0.049 A 
ATOM     50  C   UNL     1      -5.090 -13.582   8.754  1.00  0.00     0.074 A 
ATOM     51  C   UNL     1      -9.852 -15.425   5.002  1.00  0.00     0.029 A 
ATOM     52  N   UNL     1      -8.112 -14.371   5.902  1.00  0.00    -0.354 N 
ATOM     53  N   UNL     1      -6.046 -13.899   7.916  1.00  0.00    -0.248 NA
ATOM     54  C   UNL     1      -5.006 -14.465   9.927  1.00  0.00     0.031 C 
ATOM     55  C   UNL     1      -9.515 -16.070   6.197  1.00  0.00     0.029 A 
ATOM     56  C   UNL     1      -8.418 -15.426   6.746  1.00  0.00     0.049 A 
ATOM     57  H   UNL     1      -7.379 -13.729   6.042  1.00  0.00     0.167 HD
ATOM     58  C   UNL     1      -6.653 -15.034   8.440  1.00  0.00     0.074 A 
ATOM     59  C   UNL     1      -5.951 -15.356   9.664  1.00  0.00     0.031 C 
ATOM     60  C   UNL     1      -7.697 -15.746   7.950  1.00  0.00     0.037 A 
BRANCH  47  61
ATOM     61  C   UNL     1      -9.994 -13.491   2.685  1.00  0.00     0.064 A 
ATOM     62  C   UNL     1      -9.658 -13.939   1.399  1.00  0.00     0.173 A 
ATOM     63  C   UNL     1     -11.334 -13.166   2.941  1.00  0.00     0.173 A 
ATOM     64  F   UNL     1      -8.386 -14.245   1.101  1.00  0.00    -0.203 F 
ATOM     65  C   UNL     1     -10.624 -14.038   0.401  1.00  0.00     0.198 A 
ATOM     66  C   UNL     1     -12.301 -13.290   1.948  1.00  0.00     0.198 A 
ATOM     67  F   UNL     1     -11.705 -12.734   4.155  1.00  0.00    -0.203 F 
ATOM     68  F   UNL     1     -10.273 -14.428  -0.833  1.00  0.00    -0.200 F 
ATOM     69  C   UNL     1     -11.945 -13.720   0.678  1.00  0.00     0.200 A 
ATOM     70  F   UNL     1     -13.579 -12.990   2.218  1.00  0.00    -0.200 F 
ATOM     71  F   UNL     1     -12.875 -13.820  -0.282  1.00  0.00    -0.200 F 
ENDBRANCH  47  61
BRANCH  48  72
ATOM     72  C   UNL     1      -3.033 -12.321   9.716  1.00  0.00     0.064 A 
ATOM     73  C   UNL     1      -2.007 -13.265   9.860  1.00  0.00     0.173 A 
ATOM     74  C   UNL     1      -3.060 -11.243  10.611  1.00  0.00     0.173 A 
ATOM     75  F   UNL     1      -1.954 -14.327   9.042  1.00  0.00    -0.203 F 
ATOM     76  C   UNL     1      -1.057 -13.146  10.873  1.00  0.00     0.198 A 
ATOM     77  C   UNL     1      -2.096 -11.112  11.608  1.00  0.00     0.198 A 
ATOM     78  F   UNL     1      -4.023 -10.315  10.515  1.00  0.00    -0.203 F 
ATOM     79  F   UNL     1      -0.114 -14.086  11.017  1.00  0.00    -0.200 F 
ATOM     80  C   UNL     1      -1.101 -12.068  11.743  1.00  0.00     0.200 A 
ATOM     81  F   UNL     1      -2.136 -10.064  12.443  1.00  0.00    -0.200 F 
ATOM     82  F   UNL     1      -0.188 -11.954  12.718  1.00  0.00    -0.200 F 
ENDBRANCH  48  72
BRANCH  60  83
ATOM     83  C   UNL     1      -8.118 -16.969   8.710  1.00  0.00     0.064 A 
ATOM     84  C   UNL     1      -8.797 -16.878   9.934  1.00  0.00     0.173 A 
ATOM     85  C   UNL     1      -7.872 -18.248   8.187  1.00  0.00     0.173 A 
ATOM     86  F   UNL     1      -9.045 -15.678  10.480  1.00  0.00    -0.203 F 
ATOM     87  C   UNL     1      -9.189 -18.024  10.621  1.00  0.00     0.198 A 
ATOM     88  C   UNL     1      -8.289 -19.390   8.864  1.00  0.00     0.198 A 
ATOM     89  F   UNL     1      -7.235 -18.388   7.015  1.00  0.00    -0.203 F 
ATOM     90  F   UNL     1      -9.795 -17.915  11.811  1.00  0.00    -0.200 F 
ATOM     91  C   UNL     1      -8.939 -19.278  10.083  1.00  0.00     0.200 A 
ATOM     92  F   UNL     1      -8.058 -20.601   8.337  1.00  0.00    -0.200 F 
ATOM     93  F   UNL     1      -9.320 -20.380  10.745  1.00  0.00    -0.200 F 
ENDBRANCH  60  83
ENDBRANCH  34  35
ENDBRANCH  27  29
ENDBRANCH  26  27
ENDBRANCH  25  26
ENDBRANCH  24  25
ENDBRANCH   1  24
TORSDOF 18
