REMARK SMILES C[C@H](Nc1nc(CC(=O)OCCOCCOC(=O)c2ccc(-c3c4nc(c(-c5c(F)c(F)c(F)c(F)c5F)c5ccc([nH]5)c(-c5c(F)c(F)c(F)c(F)c5F)c5nc(c(-c6c(F)c(F)c(F)c(F)c6F)c6ccc3[nH]6)C=C5)C=C4)cc2)cs1)c1ccccc1
REMARK SMILES IDX 12 1 11 2 10 3 8 4 9 5 7 6 6 7 4 8 5 9 83 10 82 11 3 12 2 14
REMARK SMILES IDX 1 15 84 16 85 17 89 18 86 19 88 20 87 21 13 22 14 23 15 24
REMARK SMILES IDX 16 25 17 26 18 27 19 28 20 29 81 30 21 31 80 32 22 33 23 34
REMARK SMILES IDX 24 35 74 36 25 37 79 38 73 39 75 40 26 41 78 42 72 43 71 44
REMARK SMILES IDX 27 46 59 47 39 48 58 49 40 50 43 51 57 52 76 53 41 54 42 55
REMARK SMILES IDX 56 57 77 58 44 59 28 60 29 61 37 62 30 63 31 64 35 65 38 66
REMARK SMILES IDX 32 67 33 68 36 69 34 70 60 71 61 72 69 73 62 74 63 75 67 76
REMARK SMILES IDX 70 77 64 78 65 79 68 80 66 81 45 82 46 83 54 84 47 85 48 86
REMARK SMILES IDX 52 87 55 88 49 89 50 90 53 91 51 92
REMARK H PARENT 3 13 75 45 43 56
REMARK Flexibility Score: inf
ROOT
ATOM      1  C   UNL     1       2.931   1.466  -7.047  1.00  0.00     0.202 C 
ENDROOT
BRANCH   1   2
ATOM      2  C   UNL     1       1.747   0.501  -6.928  1.00  0.00     0.261 C 
BRANCH   2   3
ATOM      3  O   UNL     1       1.672  -0.132  -5.633  1.00  0.00    -0.463 OA
BRANCH   3   4
ATOM      4  C   UNL     1       1.668  -1.493  -5.636  1.00  0.00     0.311 C 
ATOM      5  O   UNL     1       1.707  -2.178  -6.655  1.00  0.00    -0.252 OA
BRANCH   4   6
ATOM      6  C   UNL     1       1.558  -2.133  -4.273  1.00  0.00     0.179 C 
BRANCH   6   7
ATOM      7  C   UNL     1       1.989  -1.321  -3.096  1.00  0.00     0.065 A 
ATOM      8  C   UNL     1       1.589  -0.395  -1.113  1.00  0.00     0.183 A 
ATOM      9  N   UNL     1       1.056  -1.069  -2.103  1.00  0.00    -0.225 NA
ATOM     10  S   UNL     1       3.233   0.053  -1.352  1.00  0.00    -0.105 S 
ATOM     11  C   UNL     1       3.267  -0.908  -2.769  1.00  0.00     0.093 A 
BRANCH   8  12
ATOM     12  N   UNL     1       0.984  -0.141   0.065  1.00  0.00    -0.355 N 
ATOM     13  H   UNL     1       0.959   0.767   0.445  1.00  0.00     0.163 HD
BRANCH  12  14
ATOM     14  C   UNL     1       0.367  -1.272   0.752  1.00  0.00     0.108 C 
ATOM     15  C   UNL     1       0.909  -1.326   2.185  1.00  0.00     0.036 C 
BRANCH  14  16
ATOM     16  C   UNL     1      -1.147  -1.216   0.764  1.00  0.00    -0.026 A 
ATOM     17  C   UNL     1      -1.863  -0.012   0.818  1.00  0.00     0.006 A 
ATOM     18  C   UNL     1      -1.867  -2.425   0.786  1.00  0.00     0.006 A 
ATOM     19  C   UNL     1      -3.259  -0.019   0.892  1.00  0.00     0.000 A 
ATOM     20  C   UNL     1      -3.259  -2.431   0.861  1.00  0.00     0.000 A 
ATOM     21  C   UNL     1      -3.955  -1.227   0.917  1.00  0.00     0.000 A 
ENDBRANCH  14  16
ENDBRANCH  12  14
ENDBRANCH   8  12
ENDBRANCH   6   7
ENDBRANCH   4   6
ENDBRANCH   3   4
ENDBRANCH   2   3
ENDBRANCH   1   2
BRANCH   1  22
ATOM     22  O   UNL     1       4.233   0.881  -7.010  1.00  0.00    -0.374 OA
BRANCH  22  23
ATOM     23  C   UNL     1       4.701   0.445  -5.736  1.00  0.00     0.202 C 
BRANCH  23  24
ATOM     24  C   UNL     1       5.198   1.546  -4.790  1.00  0.00     0.261 C 
BRANCH  24  25
ATOM     25  O   UNL     1       4.140   2.441  -4.402  1.00  0.00    -0.460 OA
BRANCH  25  26
ATOM     26  C   UNL     1       4.341   3.733  -4.748  1.00  0.00     0.338 C 
ATOM     27  O   UNL     1       5.358   4.223  -5.223  1.00  0.00    -0.246 OA
BRANCH  26  28
ATOM     28  C   UNL     1       3.090   4.504  -4.641  1.00  0.00     0.060 A 
ATOM     29  C   UNL     1       2.676   5.209  -5.779  1.00  0.00     0.016 A 
ATOM     30  C   UNL     1       2.390   4.623  -3.439  1.00  0.00     0.016 A 
ATOM     31  C   UNL     1       1.597   6.086  -5.703  1.00  0.00     0.010 A 
ATOM     32  C   UNL     1       1.309   5.512  -3.363  1.00  0.00     0.010 A 
ATOM     33  C   UNL     1       0.935   6.276  -4.483  1.00  0.00    -0.014 A 
BRANCH  33  34
ATOM     34  C   UNL     1      -0.050   7.379  -4.363  1.00  0.00     0.031 A 
ATOM     35  C   UNL     1       0.386   8.693  -3.776  1.00  0.00     0.074 A 
ATOM     36  C   UNL     1      -1.308   7.229  -4.812  1.00  0.00     0.049 A 
ATOM     37  N   UNL     1      -0.300   9.794  -3.599  1.00  0.00    -0.248 NA
ATOM     38  C   UNL     1       1.784   8.777  -3.328  1.00  0.00     0.031 C 
ATOM     39  C   UNL     1      -1.844   6.014  -5.420  1.00  0.00     0.029 A 
ATOM     40  N   UNL     1      -2.362   8.107  -4.822  1.00  0.00    -0.354 N 
ATOM     41  C   UNL     1       0.579  10.697  -3.015  1.00  0.00     0.074 A 
ATOM     42  C   UNL     1       1.840  10.008  -2.842  1.00  0.00     0.031 C 
ATOM     43  C   UNL     1      -3.135   6.218  -5.733  1.00  0.00     0.029 A 
ATOM     44  C   UNL     1      -3.519   7.570  -5.328  1.00  0.00     0.049 A 
ATOM     45  H   UNL     1      -2.296   9.034  -4.496  1.00  0.00     0.167 HD
ATOM     46  C   UNL     1       0.356  11.986  -2.664  1.00  0.00     0.037 A 
ATOM     47  C   UNL     1      -4.751   8.104  -5.438  1.00  0.00     0.037 A 
ATOM     48  C   UNL     1      -0.896  12.674  -2.843  1.00  0.00     0.049 A 
ATOM     49  C   UNL     1      -4.986   9.525  -5.002  1.00  0.00     0.074 A 
ATOM     50  C   UNL     1      -1.204  13.993  -2.563  1.00  0.00     0.029 A 
ATOM     51  N   UNL     1      -2.052  12.089  -3.337  1.00  0.00    -0.354 N 
ATOM     52  N   UNL     1      -4.137  10.388  -4.498  1.00  0.00    -0.248 NA
ATOM     53  C   UNL     1      -6.351  10.050  -5.157  1.00  0.00     0.031 C 
ATOM     54  C   UNL     1      -2.561  14.194  -2.840  1.00  0.00     0.029 A 
ATOM     55  C   UNL     1      -3.086  13.012  -3.338  1.00  0.00     0.049 A 
ATOM     56  H   UNL     1      -2.128  11.156  -3.642  1.00  0.00     0.167 HD
ATOM     57  C   UNL     1      -4.855  11.558  -4.292  1.00  0.00     0.074 A 
ATOM     58  C   UNL     1      -6.208  11.301  -4.740  1.00  0.00     0.031 C 
ATOM     59  C   UNL     1      -4.431  12.740  -3.780  1.00  0.00     0.037 A 
BRANCH  46  60
ATOM     60  C   UNL     1       1.489  12.730  -2.020  1.00  0.00     0.064 A 
ATOM     61  C   UNL     1       2.615  13.139  -2.750  1.00  0.00     0.173 A 
ATOM     62  C   UNL     1       1.436  13.057  -0.657  1.00  0.00     0.173 A 
ATOM     63  F   UNL     1       2.720  12.841  -4.054  1.00  0.00    -0.203 F 
ATOM     64  C   UNL     1       3.660  13.821  -2.131  1.00  0.00     0.198 A 
ATOM     65  C   UNL     1       2.470  13.762  -0.048  1.00  0.00     0.198 A 
ATOM     66  F   UNL     1       0.379  12.694   0.085  1.00  0.00    -0.203 F 
ATOM     67  F   UNL     1       4.748  14.159  -2.837  1.00  0.00    -0.200 F 
ATOM     68  C   UNL     1       3.585  14.136  -0.783  1.00  0.00     0.200 A 
ATOM     69  F   UNL     1       2.391  14.075   1.253  1.00  0.00    -0.200 F 
ATOM     70  F   UNL     1       4.591  14.794  -0.189  1.00  0.00    -0.200 F 
ENDBRANCH  46  60
BRANCH  47  71
ATOM     71  C   UNL     1      -5.859   7.277  -5.979  1.00  0.00     0.064 A 
ATOM     72  C   UNL     1      -6.405   7.531  -7.244  1.00  0.00     0.173 A 
ATOM     73  C   UNL     1      -6.387   6.207  -5.241  1.00  0.00     0.173 A 
ATOM     74  F   UNL     1      -5.951   8.560  -7.974  1.00  0.00    -0.203 F 
ATOM     75  C   UNL     1      -7.441   6.748  -7.749  1.00  0.00     0.198 A 
ATOM     76  C   UNL     1      -7.406   5.410  -5.757  1.00  0.00     0.198 A 
ATOM     77  F   UNL     1      -5.900   5.926  -4.023  1.00  0.00    -0.203 F 
ATOM     78  F   UNL     1      -7.968   7.032  -8.948  1.00  0.00    -0.200 F 
ATOM     79  C   UNL     1      -7.935   5.684  -7.009  1.00  0.00     0.200 A 
ATOM     80  F   UNL     1      -7.873   4.377  -5.043  1.00  0.00    -0.200 F 
ATOM     81  F   UNL     1      -8.925   4.926  -7.500  1.00  0.00    -0.200 F 
ENDBRANCH  47  71
BRANCH  59  82
ATOM     82  C   UNL     1      -5.435  13.852  -3.688  1.00  0.00     0.064 A 
ATOM     83  C   UNL     1      -6.458  13.839  -2.728  1.00  0.00     0.173 A 
ATOM     84  C   UNL     1      -5.346  14.965  -4.538  1.00  0.00     0.173 A 
ATOM     85  F   UNL     1      -6.594  12.791  -1.902  1.00  0.00    -0.203 F 
ATOM     86  C   UNL     1      -7.368  14.889  -2.638  1.00  0.00     0.198 A 
ATOM     87  C   UNL     1      -6.240  16.026  -4.427  1.00  0.00     0.198 A 
ATOM     88  F   UNL     1      -4.381  15.029  -5.468  1.00  0.00    -0.203 F 
ATOM     89  F   UNL     1      -8.362  14.836  -1.741  1.00  0.00    -0.200 F 
ATOM     90  C   UNL     1      -7.254  15.984  -3.481  1.00  0.00     0.200 A 
ATOM     91  F   UNL     1      -6.122  17.088  -5.234  1.00  0.00    -0.200 F 
ATOM     92  F   UNL     1      -8.126  16.998  -3.388  1.00  0.00    -0.200 F 
ENDBRANCH  59  82
ENDBRANCH  33  34
ENDBRANCH  26  28
ENDBRANCH  25  26
ENDBRANCH  24  25
ENDBRANCH  23  24
ENDBRANCH  22  23
ENDBRANCH   1  22
TORSDOF 18
