REMARK SMILES CCOC(=O)c1c(NC(=O)/C=C/C(=O)OCCOCCOC(=O)c2ccc(-c3c4nc(c(-c5c(F)c(F)c(F)c(F)c5F)c5ccc([nH]5)c(-c5c(F)c(F)c(F)c(F)c5F)c5nc(c(-c6c(F)c(F)c(F)c(F)c6F)c6ccc3[nH]6)C=C5)C=C4)cc2)sc(C)c1-c1ccc(C)c(C)c1
REMARK SMILES IDX 16 1 15 2 13 3 14 4 12 5 11 6 9 7 8 8 10 10 7 11 6 12 90 13
REMARK SMILES IDX 87 14 88 15 89 16 4 17 5 18 3 19 2 20 1 21 91 22 92 23 98 24
REMARK SMILES IDX 93 25 96 26 94 27 97 28 95 29 17 30 18 31 19 32 20 33 21 34
REMARK SMILES IDX 22 35 23 36 24 37 25 38 86 39 26 40 85 41 27 42 28 43 29 44
REMARK SMILES IDX 79 45 30 46 84 47 78 48 80 49 31 50 83 51 77 52 76 53 32 55
REMARK SMILES IDX 64 56 44 57 63 58 45 59 48 60 62 61 81 62 46 63 47 64 61 66
REMARK SMILES IDX 82 67 49 68 33 69 34 70 42 71 35 72 36 73 40 74 43 75 37 76
REMARK SMILES IDX 38 77 41 78 39 79 65 80 66 81 74 82 67 83 68 84 72 85 75 86
REMARK SMILES IDX 69 87 70 88 73 89 71 90 50 91 51 92 59 93 52 94 53 95 57 96
REMARK SMILES IDX 60 97 54 98 55 99 58 100 56 101
REMARK H PARENT 8 9 80 54 48 65
REMARK Flexibility Score: inf
ROOT
ATOM      1  C   UNL     1       7.234   2.537   9.107  1.00  0.00     0.261 C 
ENDROOT
BRANCH   1   2
ATOM      2  O   UNL     1       7.020   2.604   7.684  1.00  0.00    -0.460 OA
BRANCH   2   3
ATOM      3  C   UNL     1       7.279   1.454   7.014  1.00  0.00     0.331 C 
ATOM      4  O   UNL     1       7.782   0.446   7.487  1.00  0.00    -0.247 OA
BRANCH   3   5
ATOM      5  C   UNL     1       6.798   1.481   5.620  1.00  0.00     0.099 C 
ATOM      6  C   UNL     1       6.173   2.510   5.031  1.00  0.00     0.079 C 
BRANCH   6   7
ATOM      7  C   UNL     1       5.613   2.333   3.673  1.00  0.00     0.249 C 
ATOM      8  N   UNL     1       4.607   1.442   3.403  1.00  0.00    -0.313 N 
ATOM      9  H   UNL     1       4.467   1.283   2.441  1.00  0.00     0.171 HD
ATOM     10  O   UNL     1       6.090   3.011   2.762  1.00  0.00    -0.270 OA
BRANCH   8  11
ATOM     11  C   UNL     1       3.746   0.720   4.220  1.00  0.00     0.111 A 
ATOM     12  C   UNL     1       2.786  -0.209   3.838  1.00  0.00     0.102 A 
ATOM     13  C   UNL     1       2.140  -0.808   4.997  1.00  0.00     0.012 A 
ATOM     14  S   UNL     1       3.658   1.019   5.877  1.00  0.00    -0.122 S 
ATOM     15  C   UNL     1       2.643  -0.301   6.183  1.00  0.00     0.012 A 
ATOM     16  C   UNL     1       2.415  -0.694   7.607  1.00  0.00     0.057 C 
BRANCH  12  17
ATOM     17  C   UNL     1       2.513  -0.525   2.442  1.00  0.00     0.341 C 
ATOM     18  O   UNL     1       3.392  -0.567   1.589  1.00  0.00    -0.246 OA
BRANCH  17  19
ATOM     19  O   UNL     1       1.185  -0.691   2.200  1.00  0.00    -0.462 OA
BRANCH  19  20
ATOM     20  C   UNL     1       0.804  -1.046   0.864  1.00  0.00     0.230 C 
ATOM     21  C   UNL     1       0.949   0.118  -0.101  1.00  0.00     0.049 C 
ENDBRANCH  19  20
ENDBRANCH  17  19
ENDBRANCH  12  17
BRANCH  13  22
ATOM     22  C   UNL     1       1.127  -1.857   5.007  1.00  0.00    -0.016 A 
ATOM     23  C   UNL     1       1.379  -3.103   4.435  1.00  0.00     0.009 A 
ATOM     24  C   UNL     1      -0.117  -1.609   5.601  1.00  0.00     0.012 A 
ATOM     25  C   UNL     1       0.386  -4.084   4.449  1.00  0.00     0.004 A 
ATOM     26  C   UNL     1      -1.115  -2.594   5.643  1.00  0.00    -0.048 A 
ATOM     27  C   UNL     1      -0.865  -3.845   5.049  1.00  0.00    -0.048 A 
ATOM     28  C   UNL     1      -2.417  -2.269   6.321  1.00  0.00     0.044 C 
ATOM     29  C   UNL     1      -1.891  -4.944   4.992  1.00  0.00     0.044 C 
ENDBRANCH  13  22
ENDBRANCH   8  11
ENDBRANCH   6   7
ENDBRANCH   3   5
ENDBRANCH   2   3
ENDBRANCH   1   2
BRANCH   1  30
ATOM     30  C   UNL     1       6.186   3.353   9.871  1.00  0.00     0.202 C 
BRANCH  30  31
ATOM     31  O   UNL     1       4.844   2.871   9.801  1.00  0.00    -0.374 OA
BRANCH  31  32
ATOM     32  C   UNL     1       4.143   3.112   8.582  1.00  0.00     0.202 C 
BRANCH  32  33
ATOM     33  C   UNL     1       3.537   4.508   8.407  1.00  0.00     0.261 C 
BRANCH  33  34
ATOM     34  O   UNL     1       4.555   5.515   8.286  1.00  0.00    -0.460 OA
BRANCH  34  35
ATOM     35  C   UNL     1       4.633   6.370   9.333  1.00  0.00     0.338 C 
ATOM     36  O   UNL     1       3.887   6.443  10.294  1.00  0.00    -0.246 OA
BRANCH  35  37
ATOM     37  C   UNL     1       5.900   7.119   9.257  1.00  0.00     0.060 A 
ATOM     38  C   UNL     1       6.755   7.053  10.365  1.00  0.00     0.016 A 
ATOM     39  C   UNL     1       6.222   7.909   8.153  1.00  0.00     0.016 A 
ATOM     40  C   UNL     1       7.921   7.812  10.389  1.00  0.00     0.010 A 
ATOM     41  C   UNL     1       7.387   8.681   8.185  1.00  0.00     0.010 A 
ATOM     42  C   UNL     1       8.224   8.659   9.315  1.00  0.00    -0.014 A 
BRANCH  42  43
ATOM     43  C   UNL     1       9.337   9.628   9.444  1.00  0.00     0.031 A 
ATOM     44  C   UNL     1       9.023  11.044   9.835  1.00  0.00     0.074 A 
ATOM     45  C   UNL     1      10.609   9.243   9.247  1.00  0.00     0.049 A 
ATOM     46  N   UNL     1       9.828  12.066   9.980  1.00  0.00    -0.248 NA
ATOM     47  C   UNL     1       7.608  11.351  10.098  1.00  0.00     0.031 C 
ATOM     48  C   UNL     1      11.038   7.888   8.908  1.00  0.00     0.029 A 
ATOM     49  N   UNL     1      11.775   9.964   9.301  1.00  0.00    -0.354 N 
ATOM     50  C   UNL     1       9.020  13.133  10.348  1.00  0.00     0.074 A 
ATOM     51  C   UNL     1       7.658  12.645  10.374  1.00  0.00     0.031 C 
ATOM     52  C   UNL     1      12.375   7.876   8.775  1.00  0.00     0.029 A 
ATOM     53  C   UNL     1      12.890   9.227   8.989  1.00  0.00     0.049 A 
ATOM     54  H   UNL     1      11.809  10.918   9.541  1.00  0.00     0.167 HD
ATOM     55  C   UNL     1       9.384  14.402  10.648  1.00  0.00     0.037 A 
ATOM     56  C   UNL     1      14.176   9.610   8.870  1.00  0.00     0.037 A 
ATOM     57  C   UNL     1      10.739  14.884  10.616  1.00  0.00     0.049 A 
ATOM     58  C   UNL     1      14.544  11.049   9.129  1.00  0.00     0.074 A 
ATOM     59  C   UNL     1      11.214  16.150  10.912  1.00  0.00     0.029 A 
ATOM     60  N   UNL     1      11.839  14.118  10.256  1.00  0.00    -0.354 N 
ATOM     61  N   UNL     1      13.779  12.047   9.499  1.00  0.00    -0.248 NA
ATOM     62  C   UNL     1      15.958  11.412   8.954  1.00  0.00     0.031 C 
ATOM     63  C   UNL     1      12.594  16.163  10.685  1.00  0.00     0.029 A 
ATOM     64  C   UNL     1      12.988  14.892  10.298  1.00  0.00     0.049 A 
ATOM     65  H   UNL     1      11.808  13.166  10.008  1.00  0.00     0.167 HD
ATOM     66  C   UNL     1      14.619  13.145   9.631  1.00  0.00     0.074 A 
ATOM     67  C   UNL     1      15.956  12.688   9.311  1.00  0.00     0.031 C 
ATOM     68  C   UNL     1      14.312  14.418   9.986  1.00  0.00     0.037 A 
BRANCH  55  69
ATOM     69  C   UNL     1       8.292  15.365  11.012  1.00  0.00     0.064 A 
ATOM     70  C   UNL     1       7.605  15.273  12.232  1.00  0.00     0.173 A 
ATOM     71  C   UNL     1       7.944  16.407  10.140  1.00  0.00     0.173 A 
ATOM     72  F   UNL     1       7.890  14.286  13.095  1.00  0.00    -0.203 F 
ATOM     73  C   UNL     1       6.592  16.173  12.553  1.00  0.00     0.198 A 
ATOM     74  C   UNL     1       6.950  17.322  10.476  1.00  0.00     0.198 A 
ATOM     75  F   UNL     1       8.572  16.541   8.962  1.00  0.00    -0.203 F 
ATOM     76  F   UNL     1       5.916  16.038  13.703  1.00  0.00    -0.200 F 
ATOM     77  C   UNL     1       6.270  17.200  11.678  1.00  0.00     0.200 A 
ATOM     78  F   UNL     1       6.647  18.320   9.635  1.00  0.00    -0.200 F 
ATOM     79  F   UNL     1       5.297  18.068  11.990  1.00  0.00    -0.200 F 
ENDBRANCH  55  69
BRANCH  56  80
ATOM     80  C   UNL     1      15.213   8.620   8.481  1.00  0.00     0.064 A 
ATOM     81  C   UNL     1      16.204   8.217   9.387  1.00  0.00     0.173 A 
ATOM     82  C   UNL     1      15.246   8.071   7.190  1.00  0.00     0.173 A 
ATOM     83  F   UNL     1      16.229   8.734  10.624  1.00  0.00    -0.203 F 
ATOM     84  C   UNL     1      17.198   7.315   9.012  1.00  0.00     0.198 A 
ATOM     85  C   UNL     1      16.224   7.149   6.825  1.00  0.00     0.198 A 
ATOM     86  F   UNL     1      14.323   8.427   6.285  1.00  0.00    -0.203 F 
ATOM     87  F   UNL     1      18.160   6.982   9.883  1.00  0.00    -0.200 F 
ATOM     88  C   UNL     1      17.204   6.777   7.734  1.00  0.00     0.200 A 
ATOM     89  F   UNL     1      16.221   6.624   5.592  1.00  0.00    -0.200 F 
ATOM     90  F   UNL     1      18.159   5.909   7.374  1.00  0.00    -0.200 F 
ENDBRANCH  56  80
BRANCH  68  91
ATOM     91  C   UNL     1      15.445  15.398  10.086  1.00  0.00     0.064 A 
ATOM     92  C   UNL     1      16.096  15.892   8.946  1.00  0.00     0.173 A 
ATOM     93  C   UNL     1      15.856  15.881  11.338  1.00  0.00     0.173 A 
ATOM     94  F   UNL     1      15.751  15.451   7.727  1.00  0.00    -0.203 F 
ATOM     95  C   UNL     1      17.134  16.814   9.058  1.00  0.00     0.198 A 
ATOM     96  C   UNL     1      16.873  16.825  11.444  1.00  0.00     0.198 A 
ATOM     97  F   UNL     1      15.261  15.446  12.459  1.00  0.00    -0.203 F 
ATOM     98  F   UNL     1      17.774  17.237   7.959  1.00  0.00    -0.200 F 
ATOM     99  C   UNL     1      17.516  17.285  10.306  1.00  0.00     0.200 A 
ATOM    100  F   UNL     1      17.231  17.289  12.649  1.00  0.00    -0.200 F 
ATOM    101  F   UNL     1      18.510  18.178  10.411  1.00  0.00    -0.200 F 
ENDBRANCH  68  91
ENDBRANCH  42  43
ENDBRANCH  35  37
ENDBRANCH  34  35
ENDBRANCH  33  34
ENDBRANCH  32  33
ENDBRANCH  31  32
ENDBRANCH  30  31
ENDBRANCH   1  30
TORSDOF 20
