REMARK SMILES C#CC[NH2+]CC(=O)Nc1ccc(F)cc1C(=O)OCCOCCOC(=O)c1ccc(-c2c3nc(c(-c4c(F)c(F)c(F)c(F)c4F)c4ccc([nH]4)c(-c4c(F)c(F)c(F)c(F)c4F)c4nc(c(-c5c(F)c(F)c(F)c(F)c5F)c5ccc2[nH]5)C=C4)C=C3)cc1
REMARK SMILES IDX 19 1 18 2 16 3 17 4 15 5 9 6 10 7 11 8 14 9 12 10 13 11 8 12
REMARK SMILES IDX 6 13 7 14 5 16 4 17 3 20 2 21 1 22 20 23 21 24 22 25 23 26
REMARK SMILES IDX 24 27 25 28 26 29 27 30 28 31 89 32 29 33 88 34 30 35 31 36
REMARK SMILES IDX 32 37 82 38 33 39 87 40 81 41 83 42 34 43 86 44 80 45 79 46
REMARK SMILES IDX 35 48 67 49 47 50 66 51 48 52 51 53 65 54 84 55 49 56 50 57
REMARK SMILES IDX 64 59 85 60 52 61 36 62 37 63 45 64 38 65 39 66 43 67 46 68
REMARK SMILES IDX 40 69 41 70 44 71 42 72 68 73 69 74 77 75 70 76 71 77 75 78
REMARK SMILES IDX 78 79 72 80 73 81 76 82 74 83 53 84 54 85 62 86 55 87 56 88
REMARK SMILES IDX 60 89 63 90 57 91 58 92 61 93 59 94
REMARK H PARENT 8 15 4 18 4 19 83 47 51 58
REMARK Flexibility Score: inf
ROOT
ATOM      1  C   UNL     1      -6.832  -2.614   4.201  1.00  0.00     0.261 C 
ENDROOT
BRANCH   1   2
ATOM      2  O   UNL     1      -5.545  -2.287   3.668  1.00  0.00    -0.460 OA
BRANCH   2   3
ATOM      3  C   UNL     1      -4.777  -3.372   3.428  1.00  0.00     0.340 C 
ATOM      4  O   UNL     1      -4.994  -4.511   3.805  1.00  0.00    -0.246 OA
BRANCH   3   5
ATOM      5  C   UNL     1      -3.604  -3.034   2.599  1.00  0.00     0.086 A 
ATOM      6  C   UNL     1      -3.075  -1.750   2.450  1.00  0.00     0.056 A 
ATOM      7  C   UNL     1      -1.684  -1.720   2.305  1.00  0.00     0.030 A 
ATOM      8  C   UNL     1      -0.973  -2.814   1.797  1.00  0.00     0.041 A 
ATOM      9  C   UNL     1      -2.932  -4.140   2.043  1.00  0.00     0.057 A 
ATOM     10  C   UNL     1      -1.641  -3.998   1.575  1.00  0.00     0.124 A 
ATOM     11  F   UNL     1      -1.011  -5.032   1.008  1.00  0.00    -0.207 F 
BRANCH   6  12
ATOM     12  N   UNL     1      -3.812  -0.553   2.662  1.00  0.00    -0.320 N 
ATOM     13  C   UNL     1      -4.180   0.517   1.852  1.00  0.00     0.279 C 
ATOM     14  O   UNL     1      -4.721   1.473   2.429  1.00  0.00    -0.268 OA
ATOM     15  H   UNL     1      -4.134  -0.460   3.587  1.00  0.00     0.170 HD
BRANCH  13  16
ATOM     16  C   UNL     1      -4.099   0.564   0.279  1.00  0.00     0.363 C 
BRANCH  16  17
ATOM     17  N   UNL     1      -2.809   1.078  -0.318  1.00  0.00    -0.328 N 
ATOM     18  H   UNL     1      -2.878   1.157  -1.333  1.00  0.00     0.347 HD
ATOM     19  H   UNL     1      -2.554   2.010   0.006  1.00  0.00     0.347 HD
BRANCH  17  20
ATOM     20  C   UNL     1      -1.871   0.067   0.058  1.00  0.00     0.352 C 
BRANCH  20  21
ATOM     21  C   UNL     1      -0.351   0.067   0.058  1.00  0.00    -0.047 C 
ATOM     22  C   UNL     1       0.953   0.067   0.058  1.00  0.00     0.010 C 
ENDBRANCH  20  21
ENDBRANCH  17  20
ENDBRANCH  16  17
ENDBRANCH  13  16
ENDBRANCH   6  12
ENDBRANCH   3   5
ENDBRANCH   2   3
ENDBRANCH   1   2
BRANCH   1  23
ATOM     23  C   UNL     1      -7.842  -2.772   3.063  1.00  0.00     0.202 C 
BRANCH  23  24
ATOM     24  O   UNL     1      -7.553  -3.799   2.114  1.00  0.00    -0.374 OA
BRANCH  24  25
ATOM     25  C   UNL     1      -6.745  -3.432   0.992  1.00  0.00     0.202 C 
BRANCH  25  26
ATOM     26  C   UNL     1      -7.492  -2.791  -0.179  1.00  0.00     0.261 C 
BRANCH  26  27
ATOM     27  O   UNL     1      -7.874  -1.442   0.148  1.00  0.00    -0.460 OA
BRANCH  27  28
ATOM     28  C   UNL     1      -9.190  -1.288   0.431  1.00  0.00     0.338 C 
ATOM     29  O   UNL     1     -10.072  -2.120   0.322  1.00  0.00    -0.246 OA
BRANCH  28  30
ATOM     30  C   UNL     1      -9.403   0.004   1.109  1.00  0.00     0.060 A 
ATOM     31  C   UNL     1     -10.122  -0.022   2.311  1.00  0.00     0.016 A 
ATOM     32  C   UNL     1      -8.971   1.213   0.563  1.00  0.00     0.016 A 
ATOM     33  C   UNL     1     -10.467   1.167   2.941  1.00  0.00     0.010 A 
ATOM     34  C   UNL     1      -9.329   2.410   1.191  1.00  0.00     0.010 A 
ATOM     35  C   UNL     1     -10.112   2.391   2.359  1.00  0.00    -0.014 A 
BRANCH  35  36
ATOM     36  C   UNL     1     -10.689   3.637   2.913  1.00  0.00     0.031 A 
ATOM     37  C   UNL     1     -11.903   4.233   2.258  1.00  0.00     0.074 A 
ATOM     38  C   UNL     1     -10.178   4.184   4.028  1.00  0.00     0.049 A 
ATOM     39  N   UNL     1     -12.584   5.300   2.590  1.00  0.00    -0.248 NA
ATOM     40  C   UNL     1     -12.423   3.532   1.073  1.00  0.00     0.031 C 
ATOM     41  C   UNL     1      -9.031   3.665   4.770  1.00  0.00     0.029 A 
ATOM     42  N   UNL     1     -10.566   5.294   4.735  1.00  0.00    -0.354 N 
ATOM     43  C   UNL     1     -13.610   5.396   1.660  1.00  0.00     0.074 A 
ATOM     44  C   UNL     1     -13.447   4.300   0.730  1.00  0.00     0.031 C 
ATOM     45  C   UNL     1      -8.810   4.454   5.835  1.00  0.00     0.029 A 
ATOM     46  C   UNL     1      -9.778   5.549   5.830  1.00  0.00     0.049 A 
ATOM     47  H   UNL     1     -11.335   5.854   4.482  1.00  0.00     0.167 HD
ATOM     48  C   UNL     1     -14.606   6.311   1.599  1.00  0.00     0.037 A 
ATOM     49  C   UNL     1      -9.827   6.561   6.717  1.00  0.00     0.037 A 
ATOM     50  C   UNL     1     -14.765   7.397   2.530  1.00  0.00     0.049 A 
ATOM     51  C   UNL     1     -10.900   7.608   6.582  1.00  0.00     0.074 A 
ATOM     52  C   UNL     1     -15.753   8.365   2.563  1.00  0.00     0.029 A 
ATOM     53  N   UNL     1     -13.910   7.660   3.590  1.00  0.00    -0.354 N 
ATOM     54  N   UNL     1     -11.875   7.685   5.709  1.00  0.00    -0.248 NA
ATOM     55  C   UNL     1     -10.880   8.708   7.556  1.00  0.00     0.031 C 
ATOM     56  C   UNL     1     -15.466   9.246   3.610  1.00  0.00     0.029 A 
ATOM     57  C   UNL     1     -14.331   8.795   4.265  1.00  0.00     0.049 A 
ATOM     58  H   UNL     1     -13.122   7.121   3.828  1.00  0.00     0.167 HD
ATOM     59  C   UNL     1     -12.590   8.831   6.032  1.00  0.00     0.074 A 
ATOM     60  C   UNL     1     -11.950   9.405   7.198  1.00  0.00     0.031 C 
ATOM     61  C   UNL     1     -13.676   9.361   5.417  1.00  0.00     0.037 A 
BRANCH  48  62
ATOM     62  C   UNL     1     -15.599   6.192   0.480  1.00  0.00     0.064 A 
ATOM     63  C   UNL     1     -15.623   7.144  -0.550  1.00  0.00     0.173 A 
ATOM     64  C   UNL     1     -16.572   5.182   0.465  1.00  0.00     0.173 A 
ATOM     65  F   UNL     1     -14.716   8.132  -0.580  1.00  0.00    -0.203 F 
ATOM     66  C   UNL     1     -16.596   7.098  -1.546  1.00  0.00     0.198 A 
ATOM     67  C   UNL     1     -17.527   5.124  -0.547  1.00  0.00     0.198 A 
ATOM     68  F   UNL     1     -16.583   4.241   1.420  1.00  0.00    -0.203 F 
ATOM     69  F   UNL     1     -16.619   8.038  -2.501  1.00  0.00    -0.200 F 
ATOM     70  C   UNL     1     -17.545   6.088  -1.544  1.00  0.00     0.200 A 
ATOM     71  F   UNL     1     -18.431   4.134  -0.558  1.00  0.00    -0.200 F 
ATOM     72  F   UNL     1     -18.477   6.042  -2.506  1.00  0.00    -0.200 F 
ENDBRANCH  48  62
BRANCH  49  73
ATOM     73  C   UNL     1      -8.823   6.625   7.810  1.00  0.00     0.064 A 
ATOM     74  C   UNL     1      -7.472   6.888   7.540  1.00  0.00     0.173 A 
ATOM     75  C   UNL     1      -9.191   6.401   9.143  1.00  0.00     0.173 A 
ATOM     76  F   UNL     1      -7.070   7.114   6.280  1.00  0.00    -0.203 F 
ATOM     77  C   UNL     1      -6.523   6.899   8.559  1.00  0.00     0.198 A 
ATOM     78  C   UNL     1      -8.245   6.439  10.165  1.00  0.00     0.198 A 
ATOM     79  F   UNL     1     -10.475   6.171   9.454  1.00  0.00    -0.203 F 
ATOM     80  F   UNL     1      -5.233   7.118   8.269  1.00  0.00    -0.200 F 
ATOM     81  C   UNL     1      -6.910   6.678   9.871  1.00  0.00     0.200 A 
ATOM     82  F   UNL     1      -8.627   6.251  11.436  1.00  0.00    -0.200 F 
ATOM     83  F   UNL     1      -5.999   6.699  10.854  1.00  0.00    -0.200 F 
ENDBRANCH  49  73
BRANCH  61  84
ATOM     84  C   UNL     1     -14.246  10.627   5.988  1.00  0.00     0.064 A 
ATOM     85  C   UNL     1     -15.497  10.625   6.623  1.00  0.00     0.173 A 
ATOM     86  C   UNL     1     -13.582  11.855   5.849  1.00  0.00     0.173 A 
ATOM     87  F   UNL     1     -16.178   9.479   6.773  1.00  0.00    -0.203 F 
ATOM     88  C   UNL     1     -16.067  11.806   7.089  1.00  0.00     0.198 A 
ATOM     89  C   UNL     1     -14.141  13.030   6.344  1.00  0.00     0.198 A 
ATOM     90  F   UNL     1     -12.378  11.909   5.260  1.00  0.00    -0.203 F 
ATOM     91  F   UNL     1     -17.277  11.784   7.663  1.00  0.00    -0.200 F 
ATOM     92  C   UNL     1     -15.386  13.007   6.954  1.00  0.00     0.200 A 
ATOM     93  F   UNL     1     -13.470  14.186   6.236  1.00  0.00    -0.200 F 
ATOM     94  F   UNL     1     -15.928  14.142   7.417  1.00  0.00    -0.200 F 
ENDBRANCH  61  84
ENDBRANCH  35  36
ENDBRANCH  28  30
ENDBRANCH  27  28
ENDBRANCH  26  27
ENDBRANCH  25  26
ENDBRANCH  24  25
ENDBRANCH  23  24
ENDBRANCH   1  23
TORSDOF 19
