REMARK SMILES C[C@H](CO)CSc1cc(Cl)ccc1C(=O)OCCOCCOC(=O)c1ccc(-c2c3nc(c(-c4c(F)c(F)c(F)c(F)c4F)c4ccc([nH]4)c(-c4c(F)c(F)c(F)c(F)c4F)c4nc(c(-c5c(F)c(F)c(F)c(F)c5F)c5ccc2[nH]5)C=C4)C=C3)cc1
REMARK SMILES IDX 17 1 16 2 14 3 15 4 13 5 7 6 8 7 9 8 12 9 10 10 11 11 6 12
REMARK SMILES IDX 5 13 2 14 1 15 3 16 4 17 18 19 19 20 20 21 21 22 22 23 23 24
REMARK SMILES IDX 24 25 25 26 26 27 87 28 27 29 86 30 28 31 29 32 30 33 80 34
REMARK SMILES IDX 31 35 85 36 79 37 81 38 32 39 84 40 78 41 77 42 33 44 65 45
REMARK SMILES IDX 45 46 64 47 46 48 49 49 63 50 82 51 47 52 48 53 62 55 83 56
REMARK SMILES IDX 50 57 34 58 35 59 43 60 36 61 37 62 41 63 44 64 38 65 39 66
REMARK SMILES IDX 42 67 40 68 66 69 67 70 75 71 68 72 69 73 73 74 76 75 70 76
REMARK SMILES IDX 71 77 74 78 72 79 51 80 52 81 60 82 53 83 54 84 58 85 61 86
REMARK SMILES IDX 55 87 56 88 59 89 57 90
REMARK H PARENT 4 18 81 43 49 54
REMARK Flexibility Score: inf
ROOT
ATOM      1  C   UNL     1      -3.666   1.383   1.333  1.00  0.00     0.261 C 
ENDROOT
BRANCH   1   2
ATOM      2  O   UNL     1      -2.932   0.757   0.266  1.00  0.00    -0.460 OA
BRANCH   2   3
ATOM      3  C   UNL     1      -3.045   1.324  -0.952  1.00  0.00     0.339 C 
ATOM      4  O   UNL     1      -3.798   2.239  -1.246  1.00  0.00    -0.246 OA
BRANCH   3   5
ATOM      5  C   UNL     1      -2.002   0.828  -1.894  1.00  0.00     0.073 A 
ATOM      6  C   UNL     1      -1.446  -0.466  -1.933  1.00  0.00     0.023 A 
ATOM      7  C   UNL     1      -0.572  -0.792  -2.990  1.00  0.00     0.036 A 
ATOM      8  C   UNL     1      -0.177   0.167  -3.921  1.00  0.00     0.042 A 
ATOM      9  C   UNL     1      -1.577   1.787  -2.838  1.00  0.00     0.018 A 
ATOM     10  Cl  UNL     1       0.929  -0.255  -5.167  1.00  0.00    -0.084 Cl
ATOM     11  C   UNL     1      -0.657   1.465  -3.834  1.00  0.00     0.021 A 
BRANCH   6  12
ATOM     12  S   UNL     1      -1.745  -1.799  -0.780  1.00  0.00    -0.125 SA
BRANCH  12  13
ATOM     13  C   UNL     1      -0.600  -1.371   0.599  1.00  0.00     0.080 C 
BRANCH  13  14
ATOM     14  C   UNL     1       0.908  -1.554   0.315  1.00  0.00     0.022 C 
ATOM     15  C   UNL     1       1.651  -1.814   1.625  1.00  0.00     0.011 C 
BRANCH  14  16
ATOM     16  C   UNL     1       1.506  -0.350  -0.444  1.00  0.00     0.160 C 
BRANCH  16  17
ATOM     17  O   UNL     1       2.737   0.117   0.094  1.00  0.00    -0.396 OA
ATOM     18  H   UNL     1       2.596   0.428   1.001  1.00  0.00     0.210 HD
ENDBRANCH  16  17
ENDBRANCH  14  16
ENDBRANCH  13  14
ENDBRANCH  12  13
ENDBRANCH   6  12
ENDBRANCH   3   5
ENDBRANCH   2   3
ENDBRANCH   1   2
BRANCH   1  19
ATOM     19  C   UNL     1      -2.677   1.987   2.329  1.00  0.00     0.202 C 
BRANCH  19  20
ATOM     20  O   UNL     1      -1.993   3.143   1.842  1.00  0.00    -0.374 OA
BRANCH  20  21
ATOM     21  C   UNL     1      -0.778   2.901   1.132  1.00  0.00     0.202 C 
BRANCH  21  22
ATOM     22  C   UNL     1       0.462   2.779   2.027  1.00  0.00     0.261 C 
BRANCH  22  23
ATOM     23  O   UNL     1       0.435   1.562   2.802  1.00  0.00    -0.460 OA
BRANCH  23  24
ATOM     24  C   UNL     1       0.131   1.724   4.114  1.00  0.00     0.338 C 
ATOM     25  O   UNL     1      -0.011   2.777   4.718  1.00  0.00    -0.246 OA
BRANCH  24  26
ATOM     26  C   UNL     1      -0.194   0.416   4.715  1.00  0.00     0.060 A 
ATOM     27  C   UNL     1      -1.420   0.274   5.370  1.00  0.00     0.016 A 
ATOM     28  C   UNL     1       0.704  -0.648   4.684  1.00  0.00     0.016 A 
ATOM     29  C   UNL     1      -1.724  -0.917   6.033  1.00  0.00     0.010 A 
ATOM     30  C   UNL     1       0.363  -1.869   5.276  1.00  0.00     0.010 A 
ATOM     31  C   UNL     1      -0.823  -1.995   6.019  1.00  0.00    -0.014 A 
BRANCH  31  32
ATOM     32  C   UNL     1      -1.043  -3.163   6.924  1.00  0.00     0.031 A 
ATOM     33  C   UNL     1      -0.066  -3.428   8.049  1.00  0.00     0.074 A 
ATOM     34  C   UNL     1      -2.124  -3.956   6.793  1.00  0.00     0.049 A 
ATOM     35  N   UNL     1      -0.086  -4.361   8.970  1.00  0.00    -0.248 NA
ATOM     36  C   UNL     1       1.105  -2.542   8.133  1.00  0.00     0.031 C 
ATOM     37  C   UNL     1      -3.139  -3.843   5.747  1.00  0.00     0.029 A 
ATOM     38  N   UNL     1      -2.556  -5.012   7.561  1.00  0.00    -0.354 N 
ATOM     39  C   UNL     1       1.073  -4.184   9.716  1.00  0.00     0.074 A 
ATOM     40  C   UNL     1       1.810  -3.105   9.099  1.00  0.00     0.031 C 
ATOM     41  C   UNL     1      -4.093  -4.766   5.958  1.00  0.00     0.029 A 
ATOM     42  C   UNL     1      -3.745  -5.556   7.138  1.00  0.00     0.049 A 
ATOM     43  H   UNL     1      -2.059  -5.348   8.342  1.00  0.00     0.167 HD
ATOM     44  C   UNL     1       1.478  -4.827  10.838  1.00  0.00     0.037 A 
ATOM     45  C   UNL     1      -4.474  -6.570   7.645  1.00  0.00     0.037 A 
ATOM     46  C   UNL     1       0.731  -5.868  11.491  1.00  0.00     0.049 A 
ATOM     47  C   UNL     1      -4.006  -7.271   8.896  1.00  0.00     0.074 A 
ATOM     48  C   UNL     1       1.029  -6.539  12.664  1.00  0.00     0.029 A 
ATOM     49  N   UNL     1      -0.468  -6.388  11.027  1.00  0.00    -0.354 N 
ATOM     50  N   UNL     1      -2.940  -7.048   9.626  1.00  0.00    -0.248 NA
ATOM     51  C   UNL     1      -4.858  -8.358   9.401  1.00  0.00     0.031 C 
ATOM     52  C   UNL     1       0.038  -7.503  12.882  1.00  0.00     0.029 A 
ATOM     53  C   UNL     1      -0.910  -7.388  11.879  1.00  0.00     0.049 A 
ATOM     54  H   UNL     1      -0.935  -6.091  10.213  1.00  0.00     0.167 HD
ATOM     55  C   UNL     1      -3.009  -7.944  10.687  1.00  0.00     0.074 A 
ATOM     56  C   UNL     1      -4.234  -8.695  10.520  1.00  0.00     0.031 C 
ATOM     57  C   UNL     1      -2.134  -8.129  11.707  1.00  0.00     0.037 A 
BRANCH  44  58
ATOM     58  C   UNL     1       2.796  -4.415  11.435  1.00  0.00     0.064 A 
ATOM     59  C   UNL     1       2.983  -3.153  12.022  1.00  0.00     0.173 A 
ATOM     60  C   UNL     1       3.884  -5.302  11.435  1.00  0.00     0.173 A 
ATOM     61  F   UNL     1       1.981  -2.261  12.037  1.00  0.00    -0.203 F 
ATOM     62  C   UNL     1       4.218  -2.780  12.545  1.00  0.00     0.198 A 
ATOM     63  C   UNL     1       5.106  -4.940  11.995  1.00  0.00     0.198 A 
ATOM     64  F   UNL     1       3.760  -6.524  10.895  1.00  0.00    -0.203 F 
ATOM     65  F   UNL     1       4.390  -1.545  13.036  1.00  0.00    -0.200 F 
ATOM     66  C   UNL     1       5.276  -3.675  12.537  1.00  0.00     0.200 A 
ATOM     67  F   UNL     1       6.123  -5.812  12.001  1.00  0.00    -0.200 F 
ATOM     68  F   UNL     1       6.463  -3.316  13.045  1.00  0.00    -0.200 F 
ENDBRANCH  44  58
BRANCH  45  69
ATOM     69  C   UNL     1      -5.746  -6.978   6.987  1.00  0.00     0.064 A 
ATOM     70  C   UNL     1      -6.983  -6.785   7.619  1.00  0.00     0.173 A 
ATOM     71  C   UNL     1      -5.749  -7.597   5.729  1.00  0.00     0.173 A 
ATOM     72  F   UNL     1      -7.033  -6.221   8.835  1.00  0.00    -0.203 F 
ATOM     73  C   UNL     1      -8.170  -7.219   7.031  1.00  0.00     0.198 A 
ATOM     74  C   UNL     1      -6.939  -8.001   5.126  1.00  0.00     0.198 A 
ATOM     75  F   UNL     1      -4.593  -7.806   5.081  1.00  0.00    -0.203 F 
ATOM     76  F   UNL     1      -9.331  -7.074   7.684  1.00  0.00    -0.200 F 
ATOM     77  C   UNL     1      -8.147  -7.821   5.782  1.00  0.00     0.200 A 
ATOM     78  F   UNL     1      -6.913  -8.571   3.914  1.00  0.00    -0.200 F 
ATOM     79  F   UNL     1      -9.288  -8.238   5.216  1.00  0.00    -0.200 F 
ENDBRANCH  45  69
BRANCH  57  80
ATOM     80  C   UNL     1      -2.488  -9.159  12.745  1.00  0.00     0.064 A 
ATOM     81  C   UNL     1      -2.502 -10.531  12.453  1.00  0.00     0.173 A 
ATOM     82  C   UNL     1      -2.803  -8.767  14.056  1.00  0.00     0.173 A 
ATOM     83  F   UNL     1      -2.219 -10.961  11.214  1.00  0.00    -0.203 F 
ATOM     84  C   UNL     1      -2.860 -11.467  13.421  1.00  0.00     0.198 A 
ATOM     85  C   UNL     1      -3.124  -9.708  15.031  1.00  0.00     0.198 A 
ATOM     86  F   UNL     1      -2.793  -7.469  14.396  1.00  0.00    -0.203 F 
ATOM     87  F   UNL     1      -2.932 -12.766  13.099  1.00  0.00    -0.200 F 
ATOM     88  C   UNL     1      -3.165 -11.056  14.709  1.00  0.00     0.200 A 
ATOM     89  F   UNL     1      -3.400  -9.309  16.280  1.00  0.00    -0.200 F 
ATOM     90  F   UNL     1      -3.510 -11.957  15.638  1.00  0.00    -0.200 F 
ENDBRANCH  57  80
ENDBRANCH  31  32
ENDBRANCH  24  26
ENDBRANCH  23  24
ENDBRANCH  22  23
ENDBRANCH  21  22
ENDBRANCH  20  21
ENDBRANCH  19  20
ENDBRANCH   1  19
TORSDOF 19
