REMARK SMILES COc1ccc(OCc2nc(C)no2)c(/C=C/C(=O)OCCOCCOC(=O)c2ccc(-c3c4nc(c(-c5c(F)c(F)c(F)c(F)c5F)c5ccc([nH]5)c(-c5c(F)c(F)c(F)c(F)c5F)c5nc(c(-c6c(F)c(F)c(F)c(F)c6F)c6ccc3[nH]6)C=C5)C=C4)cc2)c1
REMARK SMILES IDX 22 1 21 2 20 3 18 4 19 5 17 6 16 7 15 8 3 9 4 10 92 11 5 12
REMARK SMILES IDX 6 13 2 14 1 15 7 16 8 17 9 18 10 19 14 20 11 21 13 22 12 23
REMARK SMILES IDX 23 24 24 25 25 26 26 27 27 28 28 29 29 30 30 31 91 32 31 33
REMARK SMILES IDX 90 34 32 35 33 36 34 37 84 38 35 39 89 40 83 41 85 42 36 43
REMARK SMILES IDX 88 44 82 45 81 46 37 48 69 49 49 50 68 51 50 52 53 53 67 54
REMARK SMILES IDX 86 55 51 56 52 57 66 59 87 60 54 61 38 62 39 63 47 64 40 65
REMARK SMILES IDX 41 66 45 67 48 68 42 69 43 70 46 71 44 72 70 73 71 74 79 75
REMARK SMILES IDX 72 76 73 77 77 78 80 79 74 80 75 81 78 82 76 83 55 84 56 85
REMARK SMILES IDX 64 86 57 87 58 88 62 89 65 90 59 91 60 92 63 93 61 94
REMARK H PARENT 85 47 53 58
REMARK Flexibility Score: inf
ROOT
ATOM      1  C   UNL     1       9.018   1.621  -6.114  1.00  0.00     0.202 C 
ENDROOT
BRANCH   1   2
ATOM      2  C   UNL     1       8.216   2.269  -4.980  1.00  0.00     0.261 C 
BRANCH   2   3
ATOM      3  O   UNL     1       7.163   1.417  -4.505  1.00  0.00    -0.460 OA
BRANCH   3   4
ATOM      4  C   UNL     1       5.923   1.880  -4.766  1.00  0.00     0.330 C 
ATOM      5  O   UNL     1       5.638   2.953  -5.278  1.00  0.00    -0.247 OA
BRANCH   4   6
ATOM      6  C   UNL     1       4.922   0.824  -4.575  1.00  0.00     0.094 C 
ATOM      7  C   UNL     1       4.165   0.902  -3.474  1.00  0.00     0.019 C 
BRANCH   7   8
ATOM      8  C   UNL     1       2.740   0.517  -3.473  1.00  0.00     0.020 A 
ATOM      9  C   UNL     1       0.827  -0.243  -2.197  1.00  0.00     0.119 A 
ATOM     10  C   UNL     1      -0.019   0.062  -3.265  1.00  0.00     0.050 A 
ATOM     11  C   UNL     1       2.204  -0.039  -2.308  1.00  0.00     0.058 A 
ATOM     12  C   UNL     1       0.495   0.636  -4.430  1.00  0.00     0.051 A 
ATOM     13  C   UNL     1       1.863   0.892  -4.520  1.00  0.00     0.127 A 
BRANCH   9  14
ATOM     14  O   UNL     1       0.236  -0.779  -1.083  1.00  0.00    -0.497 OA
ATOM     15  C   UNL     1       0.684  -0.180   0.133  1.00  0.00     0.278 C 
ENDBRANCH   9  14
BRANCH  13  16
ATOM     16  O   UNL     1       2.390   1.425  -5.670  1.00  0.00    -0.483 OA
BRANCH  16  17
ATOM     17  C   UNL     1       2.108   2.816  -5.931  1.00  0.00     0.329 C 
BRANCH  17  18
ATOM     18  C   UNL     1       2.663   3.749  -4.907  1.00  0.00     0.264 A 
ATOM     19  N   UNL     1       3.000   3.569  -3.648  1.00  0.00    -0.193 NA
ATOM     20  O   UNL     1       2.916   5.024  -5.340  1.00  0.00    -0.336 OA
ATOM     21  C   UNL     1       3.624   4.743  -3.337  1.00  0.00     0.169 A 
ATOM     22  N   UNL     1       3.550   5.687  -4.283  1.00  0.00    -0.063 NA
ATOM     23  C   UNL     1       4.408   4.903  -2.100  1.00  0.00     0.093 C 
ENDBRANCH  17  18
ENDBRANCH  16  17
ENDBRANCH  13  16
ENDBRANCH   7   8
ENDBRANCH   4   6
ENDBRANCH   3   4
ENDBRANCH   2   3
ENDBRANCH   1   2
BRANCH   1  24
ATOM     24  O   UNL     1       8.376   1.400  -7.366  1.00  0.00    -0.374 OA
BRANCH  24  25
ATOM     25  C   UNL     1       7.243   0.541  -7.432  1.00  0.00     0.202 C 
BRANCH  25  26
ATOM     26  C   UNL     1       7.402  -0.931  -7.018  1.00  0.00     0.261 C 
BRANCH  26  27
ATOM     27  O   UNL     1       7.867  -1.113  -5.669  1.00  0.00    -0.460 OA
BRANCH  27  28
ATOM     28  C   UNL     1       9.045  -1.774  -5.558  1.00  0.00     0.338 C 
ATOM     29  O   UNL     1       9.705  -2.270  -6.455  1.00  0.00    -0.246 OA
BRANCH  28  30
ATOM     30  C   UNL     1       9.558  -1.692  -4.179  1.00  0.00     0.060 A 
ATOM     31  C   UNL     1      10.761  -1.003  -3.974  1.00  0.00     0.016 A 
ATOM     32  C   UNL     1       8.960  -2.401  -3.136  1.00  0.00     0.016 A 
ATOM     33  C   UNL     1      11.389  -1.048  -2.732  1.00  0.00     0.010 A 
ATOM     34  C   UNL     1       9.602  -2.460  -1.893  1.00  0.00     0.010 A 
ATOM     35  C   UNL     1      10.835  -1.812  -1.696  1.00  0.00    -0.014 A 
BRANCH  35  36
ATOM     36  C   UNL     1      11.637  -2.046  -0.470  1.00  0.00     0.031 A 
ATOM     37  C   UNL     1      12.457  -3.302  -0.362  1.00  0.00     0.074 A 
ATOM     38  C   UNL     1      11.690  -1.119   0.502  1.00  0.00     0.049 A 
ATOM     39  N   UNL     1      13.244  -3.701   0.606  1.00  0.00    -0.248 NA
ATOM     40  C   UNL     1      12.389  -4.230  -1.502  1.00  0.00     0.031 C 
ATOM     41  C   UNL     1      10.982   0.160   0.488  1.00  0.00     0.029 A 
ATOM     42  N   UNL     1      12.377  -1.111   1.690  1.00  0.00    -0.354 N 
ATOM     43  C   UNL     1      13.773  -4.915   0.187  1.00  0.00     0.074 A 
ATOM     44  C   UNL     1      13.190  -5.208  -1.105  1.00  0.00     0.031 C 
ATOM     45  C   UNL     1      11.268   0.828   1.619  1.00  0.00     0.029 A 
ATOM     46  C   UNL     1      12.157   0.013   2.446  1.00  0.00     0.049 A 
ATOM     47  H   UNL     1      12.973  -1.843   1.973  1.00  0.00     0.167 HD
ATOM     48  C   UNL     1      14.675  -5.706   0.815  1.00  0.00     0.037 A 
ATOM     49  C   UNL     1      12.611   0.337   3.672  1.00  0.00     0.037 A 
ATOM     50  C   UNL     1      15.245  -5.424   2.106  1.00  0.00     0.049 A 
ATOM     51  C   UNL     1      13.543  -0.607   4.389  1.00  0.00     0.074 A 
ATOM     52  C   UNL     1      16.146  -6.178   2.838  1.00  0.00     0.029 A 
ATOM     53  N   UNL     1      14.963  -4.295   2.861  1.00  0.00    -0.354 N 
ATOM     54  N   UNL     1      14.043  -1.748   3.981  1.00  0.00    -0.248 NA
ATOM     55  C   UNL     1      13.977  -0.212   5.737  1.00  0.00     0.031 C 
ATOM     56  C   UNL     1      16.383  -5.522   4.051  1.00  0.00     0.029 A 
ATOM     57  C   UNL     1      15.663  -4.339   4.056  1.00  0.00     0.049 A 
ATOM     58  H   UNL     1      14.356  -3.570   2.588  1.00  0.00     0.167 HD
ATOM     59  C   UNL     1      14.873  -2.189   5.004  1.00  0.00     0.074 A 
ATOM     60  C   UNL     1      14.819  -1.187   6.047  1.00  0.00     0.031 C 
ATOM     61  C   UNL     1      15.611  -3.323   5.075  1.00  0.00     0.037 A 
BRANCH  48  62
ATOM     62  C   UNL     1      15.097  -6.963   0.115  1.00  0.00     0.064 A 
ATOM     63  C   UNL     1      15.951  -6.928  -0.998  1.00  0.00     0.173 A 
ATOM     64  C   UNL     1      14.681  -8.217   0.585  1.00  0.00     0.173 A 
ATOM     65  F   UNL     1      16.366  -5.752  -1.493  1.00  0.00    -0.203 F 
ATOM     66  C   UNL     1      16.358  -8.102  -1.626  1.00  0.00     0.198 A 
ATOM     67  C   UNL     1      15.109  -9.391  -0.030  1.00  0.00     0.198 A 
ATOM     68  F   UNL     1      13.867  -8.305   1.648  1.00  0.00    -0.203 F 
ATOM     69  F   UNL     1      17.145  -8.044  -2.709  1.00  0.00    -0.200 F 
ATOM     70  C   UNL     1      15.943  -9.332  -1.137  1.00  0.00     0.200 A 
ATOM     71  F   UNL     1      14.716 -10.579   0.449  1.00  0.00    -0.200 F 
ATOM     72  F   UNL     1      16.342 -10.462  -1.737  1.00  0.00    -0.200 F 
ENDBRANCH  48  62
BRANCH  49  73
ATOM     73  C   UNL     1      12.185   1.607   4.317  1.00  0.00     0.064 A 
ATOM     74  C   UNL     1      13.100   2.640   4.559  1.00  0.00     0.173 A 
ATOM     75  C   UNL     1      10.863   1.792   4.747  1.00  0.00     0.173 A 
ATOM     76  F   UNL     1      14.382   2.499   4.191  1.00  0.00    -0.203 F 
ATOM     77  C   UNL     1      12.716   3.800   5.229  1.00  0.00     0.198 A 
ATOM     78  C   UNL     1      10.473   2.964   5.391  1.00  0.00     0.198 A 
ATOM     79  F   UNL     1       9.948   0.832   4.543  1.00  0.00    -0.203 F 
ATOM     80  F   UNL     1      13.624   4.748   5.498  1.00  0.00    -0.200 F 
ATOM     81  C   UNL     1      11.402   3.962   5.642  1.00  0.00     0.200 A 
ATOM     82  F   UNL     1       9.200   3.120   5.780  1.00  0.00    -0.200 F 
ATOM     83  F   UNL     1      11.034   5.074   6.292  1.00  0.00    -0.200 F 
ENDBRANCH  49  73
BRANCH  61  84
ATOM     84  C   UNL     1      16.455  -3.519   6.301  1.00  0.00     0.064 A 
ATOM     85  C   UNL     1      15.887  -3.840   7.543  1.00  0.00     0.173 A 
ATOM     86  C   UNL     1      17.852  -3.416   6.224  1.00  0.00     0.173 A 
ATOM     87  F   UNL     1      14.555  -3.935   7.671  1.00  0.00    -0.203 F 
ATOM     88  C   UNL     1      16.686  -4.022   8.668  1.00  0.00     0.198 A 
ATOM     89  C   UNL     1      18.650  -3.627   7.346  1.00  0.00     0.198 A 
ATOM     90  F   UNL     1      18.445  -3.118   5.058  1.00  0.00    -0.203 F 
ATOM     91  F   UNL     1      16.118  -4.280   9.855  1.00  0.00    -0.200 F 
ATOM     92  C   UNL     1      18.066  -3.921   8.568  1.00  0.00     0.200 A 
ATOM     93  F   UNL     1      19.983  -3.540   7.244  1.00  0.00    -0.200 F 
ATOM     94  F   UNL     1      18.832  -4.101   9.652  1.00  0.00    -0.200 F 
ENDBRANCH  61  84
ENDBRANCH  35  36
ENDBRANCH  28  30
ENDBRANCH  27  28
ENDBRANCH  26  27
ENDBRANCH  25  26
ENDBRANCH  24  25
ENDBRANCH   1  24
TORSDOF 19
