REMARK SMILES O=C(OCCOCCOC(=O)c1sccc1NS(=O)(=O)N1CCCC1)c1ccc(-c2c3nc(c(-c4c(F)c(F)c(F)c(F)c4F)c4ccc([nH]4)c(-c4c(F)c(F)c(F)c(F)c4F)c4nc(c(-c5c(F)c(F)c(F)c(F)c5F)c5ccc2[nH]5)C=C4)C=C3)cc1
REMARK SMILES IDX 7 1 6 2 5 3 4 4 3 5 2 6 1 7 26 8 27 9 88 10 28 11 87 12
REMARK SMILES IDX 29 13 30 14 31 15 81 16 32 17 86 18 80 19 82 20 33 21 85 22
REMARK SMILES IDX 79 23 78 24 34 26 66 27 46 28 65 29 47 30 50 31 64 32 83 33
REMARK SMILES IDX 48 34 49 35 63 37 84 38 51 39 35 40 36 41 44 42 37 43 38 44
REMARK SMILES IDX 42 45 45 46 39 47 40 48 43 49 41 50 67 51 68 52 76 53 69 54
REMARK SMILES IDX 70 55 74 56 77 57 71 58 72 59 75 60 73 61 52 62 53 63 61 64
REMARK SMILES IDX 54 65 55 66 59 67 62 68 56 69 57 70 60 71 58 72 8 73 9 74
REMARK SMILES IDX 10 75 11 76 12 77 13 78 16 79 14 80 15 81 17 82 18 84 19 85
REMARK SMILES IDX 20 86 21 87 22 88 25 89 23 90 24 91
REMARK H PARENT 82 25 50 36 17 83
REMARK Flexibility Score: inf
ROOT
ATOM      1  C   UNL     1       2.713   2.034  -1.287  1.00  0.00     0.202 C 
ENDROOT
BRANCH   1   2
ATOM      2  O   UNL     1       4.041   1.493  -1.226  1.00  0.00    -0.374 OA
BRANCH   2   3
ATOM      3  C   UNL     1       4.199   0.188  -1.796  1.00  0.00     0.202 C 
BRANCH   3   4
ATOM      4  C   UNL     1       3.864  -0.983  -0.869  1.00  0.00     0.261 C 
BRANCH   4   5
ATOM      5  O   UNL     1       2.498  -0.896  -0.435  1.00  0.00    -0.460 OA
BRANCH   5   6
ATOM      6  C   UNL     1       2.027  -0.607   0.799  1.00  0.00     0.338 C 
ATOM      7  O   UNL     1       0.824  -0.738   1.015  1.00  0.00    -0.246 OA
BRANCH   6   8
ATOM      8  C   UNL     1       2.889  -0.118   1.919  1.00  0.00     0.060 A 
ATOM      9  C   UNL     1       4.107   0.546   1.764  1.00  0.00     0.016 A 
ATOM     10  C   UNL     1       2.382  -0.265   3.223  1.00  0.00     0.016 A 
ATOM     11  C   UNL     1       4.848   0.968   2.859  1.00  0.00     0.010 A 
ATOM     12  C   UNL     1       3.091   0.212   4.329  1.00  0.00     0.010 A 
ATOM     13  C   UNL     1       4.342   0.809   4.147  1.00  0.00    -0.014 A 
BRANCH  13  14
ATOM     14  C   UNL     1       5.189   1.219   5.282  1.00  0.00     0.031 A 
ATOM     15  C   UNL     1       5.883   0.161   6.081  1.00  0.00     0.074 A 
ATOM     16  C   UNL     1       5.423   2.527   5.490  1.00  0.00     0.049 A 
ATOM     17  N   UNL     1       6.685   0.288   7.104  1.00  0.00    -0.248 NA
ATOM     18  C   UNL     1       5.656  -1.231   5.660  1.00  0.00     0.031 C 
ATOM     19  C   UNL     1       4.868   3.618   4.687  1.00  0.00     0.029 A 
ATOM     20  N   UNL     1       6.216   3.159   6.409  1.00  0.00    -0.354 N 
ATOM     21  C   UNL     1       7.041  -1.005   7.461  1.00  0.00     0.074 A 
ATOM     22  C   UNL     1       6.365  -1.904   6.553  1.00  0.00     0.031 C 
ATOM     23  C   UNL     1       5.369   4.784   5.124  1.00  0.00     0.029 A 
ATOM     24  C   UNL     1       6.228   4.526   6.275  1.00  0.00     0.049 A 
ATOM     25  H   UNL     1       6.729   2.680   7.100  1.00  0.00     0.167 HD
ATOM     26  C   UNL     1       7.859  -1.397   8.465  1.00  0.00     0.037 A 
ATOM     27  C   UNL     1       6.851   5.458   7.019  1.00  0.00     0.037 A 
ATOM     28  C   UNL     1       8.515  -0.481   9.358  1.00  0.00     0.049 A 
ATOM     29  C   UNL     1       7.684   4.993   8.182  1.00  0.00     0.074 A 
ATOM     30  C   UNL     1       9.311  -0.755  10.454  1.00  0.00     0.029 A 
ATOM     31  N   UNL     1       8.443   0.902   9.247  1.00  0.00    -0.354 N 
ATOM     32  N   UNL     1       7.971   3.768   8.556  1.00  0.00    -0.248 NA
ATOM     33  C   UNL     1       8.264   6.035   9.038  1.00  0.00     0.031 C 
ATOM     34  C   UNL     1       9.688   0.464  11.030  1.00  0.00     0.029 A 
ATOM     35  C   UNL     1       9.166   1.498  10.266  1.00  0.00     0.049 A 
ATOM     36  H   UNL     1       7.949   1.388   8.547  1.00  0.00     0.167 HD
ATOM     37  C   UNL     1       8.776   3.889   9.679  1.00  0.00     0.074 A 
ATOM     38  C   UNL     1       8.948   5.310   9.912  1.00  0.00     0.031 C 
ATOM     39  C   UNL     1       9.318   2.918  10.456  1.00  0.00     0.037 A 
BRANCH  26  40
ATOM     40  C   UNL     1       8.015  -2.874   8.674  1.00  0.00     0.064 A 
ATOM     41  C   UNL     1       8.748  -3.676   7.786  1.00  0.00     0.173 A 
ATOM     42  C   UNL     1       7.378  -3.503   9.753  1.00  0.00     0.173 A 
ATOM     43  F   UNL     1       9.352  -3.127   6.721  1.00  0.00    -0.203 F 
ATOM     44  C   UNL     1       8.808  -5.058   7.952  1.00  0.00     0.198 A 
ATOM     45  C   UNL     1       7.460  -4.882   9.930  1.00  0.00     0.198 A 
ATOM     46  F   UNL     1       6.657  -2.783  10.626  1.00  0.00    -0.203 F 
ATOM     47  F   UNL     1       9.459  -5.812   7.056  1.00  0.00    -0.200 F 
ATOM     48  C   UNL     1       8.165  -5.659   9.025  1.00  0.00     0.200 A 
ATOM     49  F   UNL     1       6.838  -5.461  10.967  1.00  0.00    -0.200 F 
ATOM     50  F   UNL     1       8.210  -6.990   9.174  1.00  0.00    -0.200 F 
ENDBRANCH  26  40
BRANCH  27  51
ATOM     51  C   UNL     1       6.687   6.903   6.707  1.00  0.00     0.064 A 
ATOM     52  C   UNL     1       7.771   7.682   6.283  1.00  0.00     0.173 A 
ATOM     53  C   UNL     1       5.441   7.538   6.834  1.00  0.00     0.173 A 
ATOM     54  F   UNL     1       8.988   7.130   6.168  1.00  0.00    -0.203 F 
ATOM     55  C   UNL     1       7.621   9.042   6.011  1.00  0.00     0.198 A 
ATOM     56  C   UNL     1       5.285   8.890   6.533  1.00  0.00     0.198 A 
ATOM     57  F   UNL     1       4.370   6.842   7.240  1.00  0.00    -0.203 F 
ATOM     58  F   UNL     1       8.684   9.773   5.652  1.00  0.00    -0.200 F 
ATOM     59  C   UNL     1       6.376   9.643   6.130  1.00  0.00     0.200 A 
ATOM     60  F   UNL     1       4.078   9.462   6.638  1.00  0.00    -0.200 F 
ATOM     61  F   UNL     1       6.231  10.949   5.867  1.00  0.00    -0.200 F 
ENDBRANCH  27  51
BRANCH  39  62
ATOM     62  C   UNL     1      10.165   3.370  11.606  1.00  0.00     0.064 A 
ATOM     63  C   UNL     1       9.596   3.923  12.761  1.00  0.00     0.173 A 
ATOM     64  C   UNL     1      11.558   3.211  11.564  1.00  0.00     0.173 A 
ATOM     65  F   UNL     1       8.269   4.109  12.838  1.00  0.00    -0.203 F 
ATOM     66  C   UNL     1      10.395   4.321  13.828  1.00  0.00     0.198 A 
ATOM     67  C   UNL     1      12.351   3.585  12.643  1.00  0.00     0.198 A 
ATOM     68  F   UNL     1      12.146   2.682  10.480  1.00  0.00    -0.203 F 
ATOM     69  F   UNL     1       9.836   4.886  14.907  1.00  0.00    -0.200 F 
ATOM     70  C   UNL     1      11.770   4.145  13.771  1.00  0.00     0.200 A 
ATOM     71  F   UNL     1      13.678   3.404  12.592  1.00  0.00    -0.200 F 
ATOM     72  F   UNL     1      12.537   4.522  14.803  1.00  0.00    -0.200 F 
ENDBRANCH  39  62
ENDBRANCH  13  14
ENDBRANCH   6   8
ENDBRANCH   5   6
ENDBRANCH   4   5
ENDBRANCH   3   4
ENDBRANCH   2   3
ENDBRANCH   1   2
BRANCH   1  73
ATOM     73  C   UNL     1       2.792   3.560  -1.446  1.00  0.00     0.261 C 
BRANCH  73  74
ATOM     74  O   UNL     1       3.344   3.849  -2.744  1.00  0.00    -0.459 OA
BRANCH  74  75
ATOM     75  C   UNL     1       4.712   3.925  -2.738  1.00  0.00     0.350 C 
ATOM     76  O   UNL     1       5.347   4.585  -1.923  1.00  0.00    -0.245 OA
BRANCH  75  77
ATOM     77  C   UNL     1       5.236   2.964  -3.686  1.00  0.00     0.136 A 
ATOM     78  S   UNL     1       6.871   2.458  -3.521  1.00  0.00    -0.135 S 
ATOM     79  C   UNL     1       4.592   2.266  -4.697  1.00  0.00     0.075 A 
ATOM     80  C   UNL     1       6.620   1.117  -4.544  1.00  0.00     0.068 A 
ATOM     81  C   UNL     1       5.353   1.121  -5.076  1.00  0.00     0.039 A 
BRANCH  79  82
ATOM     82  N   UNL     1       3.285   2.489  -5.198  1.00  0.00    -0.269 N 
ATOM     83  H   UNL     1       2.499   2.120  -4.735  1.00  0.00     0.181 HD
BRANCH  82  84
ATOM     84  S   UNL     1       3.106   3.411  -6.622  1.00  0.00     0.301 S 
ATOM     85  O   UNL     1       1.682   3.599  -6.779  1.00  0.00    -0.189 OA
ATOM     86  O   UNL     1       4.002   4.539  -6.530  1.00  0.00    -0.189 OA
BRANCH  84  87
ATOM     87  N   UNL     1       3.634   2.394  -7.814  1.00  0.00    -0.185 NA
ATOM     88  C   UNL     1       2.850   1.245  -8.257  1.00  0.00     0.104 C 
ATOM     89  C   UNL     1       5.047   2.240  -8.154  1.00  0.00     0.104 C 
ATOM     90  C   UNL     1       3.858   0.113  -8.345  1.00  0.00     0.018 C 
ATOM     91  C   UNL     1       5.202   0.785  -8.591  1.00  0.00     0.018 C 
ENDBRANCH  84  87
ENDBRANCH  82  84
ENDBRANCH  79  82
ENDBRANCH  75  77
ENDBRANCH  74  75
ENDBRANCH  73  74
ENDBRANCH   1  73
TORSDOF 17
