REMARK SMILES O=C(OCCOCCOC(=O)c1ccc(-c2c3nc(c(-c4c(F)c(F)c(F)c(F)c4F)c4ccc([nH]4)c(-c4c(F)c(F)c(F)c(F)c4F)c4nc(c(-c5c(F)c(F)c(F)c(F)c5F)c5ccc2[nH]5)C=C4)C=C3)cc1)C1=Cc2cc(Cl)cc(-c3ccc(CO)cc3)c2O[C@@H]1C(F)(F)F
REMARK SMILES IDX 5 1 4 2 3 3 2 4 1 5 75 6 76 7 93 8 77 9 92 10 78 11 91 12
REMARK SMILES IDX 79 13 82 14 80 15 81 16 94 17 95 18 96 19 97 20 83 21 84 22
REMARK SMILES IDX 90 23 85 24 89 25 86 26 87 27 88 28 6 30 7 31 8 32 9 33
REMARK SMILES IDX 10 34 11 35 12 36 13 37 74 38 14 39 73 40 15 41 16 42 17 43
REMARK SMILES IDX 67 44 18 45 72 46 66 47 68 48 19 49 71 50 65 51 64 52 20 54
REMARK SMILES IDX 52 55 32 56 51 57 33 58 36 59 50 60 69 61 34 62 35 63 49 65
REMARK SMILES IDX 70 66 37 67 21 68 22 69 30 70 23 71 24 72 28 73 31 74 25 75
REMARK SMILES IDX 26 76 29 77 27 78 53 79 54 80 62 81 55 82 56 83 60 84 63 85
REMARK SMILES IDX 57 86 58 87 61 88 59 89 38 90 39 91 47 92 40 93 41 94 45 95
REMARK SMILES IDX 48 96 42 97 43 98 46 99 44 100
REMARK H PARENT 88 29 68 53 36 64
REMARK Flexibility Score: inf
ROOT
ATOM      1  C   UNL     1       4.443  -0.924   0.580  1.00  0.00     0.202 C 
ENDROOT
BRANCH   1   2
ATOM      2  C   UNL     1       3.528   0.443  -0.845  1.00  0.00     0.261 C 
BRANCH   2   3
ATOM      3  O   UNL     1       2.614   0.025  -2.062  1.00  0.00    -0.460 OA
BRANCH   3   4
ATOM      4  C   UNL     1       2.799  -1.237  -2.467  1.00  0.00     0.338 C 
ATOM      5  O   UNL     1       2.285  -1.881  -3.343  1.00  0.00    -0.246 OA
BRANCH   4   6
ATOM      6  C   UNL     1       3.651  -1.582  -1.365  1.00  0.00     0.087 C 
ATOM      7  C   UNL     1       5.003  -1.056  -1.635  1.00  0.00     0.027 C 
ATOM      8  C   UNL     1       2.507  -1.002   0.088  1.00  0.00     0.316 C 
ATOM      9  C   UNL     1       5.732   0.317  -0.711  1.00  0.00     0.019 A 
ATOM     10  O   UNL     1       3.290   0.480   1.080  1.00  0.00    -0.475 OA
ATOM     11  C   UNL     1       6.885   0.815  -1.260  1.00  0.00     0.032 A 
ATOM     12  C   UNL     1       4.901   1.181   0.574  1.00  0.00     0.135 A 
ATOM     13  C   UNL     1       7.275   2.048  -0.759  1.00  0.00     0.042 A 
ATOM     14  C   UNL     1       5.456   2.372   1.099  1.00  0.00     0.026 A 
ATOM     15  Cl  UNL     1       8.688   2.780  -1.446  1.00  0.00    -0.084 Cl
ATOM     16  C   UNL     1       6.597   2.764   0.298  1.00  0.00     0.033 A 
BRANCH   8  17
ATOM     17  C   UNL     1       1.944  -2.438   0.492  1.00  0.00     0.430 C 
ATOM     18  F   UNL     1       0.947  -2.409   1.397  1.00  0.00    -0.167 F 
ATOM     19  F   UNL     1       1.365  -2.975  -0.629  1.00  0.00    -0.167 F 
ATOM     20  F   UNL     1       2.861  -3.362   0.851  1.00  0.00    -0.167 F 
ENDBRANCH   8  17
BRANCH  14  21
ATOM     21  C   UNL     1       5.226   3.340   2.374  1.00  0.00    -0.015 A 
ATOM     22  C   UNL     1       4.432   4.863   1.772  1.00  0.00     0.009 A 
ATOM     23  C   UNL     1       5.676   3.321   4.354  1.00  0.00     0.009 A 
ATOM     24  C   UNL     1       4.097   6.184   2.922  1.00  0.00     0.007 A 
ATOM     25  C   UNL     1       5.246   4.706   5.398  1.00  0.00     0.007 A 
ATOM     26  C   UNL     1       4.473   6.091   4.665  1.00  0.00    -0.023 A 
BRANCH  26  27
ATOM     27  C   UNL     1       3.896   7.085   5.644  1.00  0.00     0.191 C 
BRANCH  27  28
ATOM     28  O   UNL     1       4.848   7.995   6.150  1.00  0.00    -0.392 OA
ATOM     29  H   UNL     1       5.532   7.510   6.638  1.00  0.00     0.211 HD
ENDBRANCH  27  28
ENDBRANCH  26  27
ENDBRANCH  14  21
ENDBRANCH   4   6
ENDBRANCH   3   4
ENDBRANCH   2   3
ENDBRANCH   1   2
BRANCH   1  30
ATOM     30  O   UNL     1       3.863  -1.589   1.928  1.00  0.00    -0.374 OA
BRANCH  30  31
ATOM     31  C   UNL     1       2.850  -1.228   2.893  1.00  0.00     0.202 C 
BRANCH  31  32
ATOM     32  C   UNL     1       3.248  -1.211   4.369  1.00  0.00     0.261 C 
BRANCH  32  33
ATOM     33  O   UNL     1       4.039  -0.085   4.670  1.00  0.00    -0.460 OA
BRANCH  33  34
ATOM     34  C   UNL     1       5.199  -0.047   3.993  1.00  0.00     0.338 C 
ATOM     35  O   UNL     1       5.998  -0.938   3.798  1.00  0.00    -0.246 OA
BRANCH  34  36
ATOM     36  C   UNL     1       5.305   1.339   3.553  1.00  0.00     0.060 A 
ATOM     37  C   UNL     1       6.934   1.951   3.187  1.00  0.00     0.016 A 
ATOM     38  C   UNL     1       3.887   2.367   3.776  1.00  0.00     0.016 A 
ATOM     39  C   UNL     1       7.298   3.673   3.055  1.00  0.00     0.010 A 
ATOM     40  C   UNL     1       4.128   4.138   3.697  1.00  0.00     0.010 A 
ATOM     41  C   UNL     1       5.975   4.882   3.308  1.00  0.00    -0.014 A 
BRANCH  41  42
ATOM     42  C   UNL     1       6.756   6.325   3.251  1.00  0.00     0.031 A 
ATOM     43  C   UNL     1       7.451   6.876   4.496  1.00  0.00     0.074 A 
ATOM     44  C   UNL     1       6.910   7.101   2.149  1.00  0.00     0.049 A 
ATOM     45  N   UNL     1       7.668   8.127   4.847  1.00  0.00    -0.248 NA
ATOM     46  C   UNL     1       7.899   5.906   5.496  1.00  0.00     0.031 C 
ATOM     47  C   UNL     1       6.602   6.737   0.774  1.00  0.00     0.029 A 
ATOM     48  N   UNL     1       7.309   8.427   2.039  1.00  0.00    -0.354 N 
ATOM     49  C   UNL     1       8.149   8.085   6.158  1.00  0.00     0.074 A 
ATOM     50  C   UNL     1       8.161   6.687   6.535  1.00  0.00     0.031 C 
ATOM     51  C   UNL     1       6.677   7.822  -0.012  1.00  0.00     0.029 A 
ATOM     52  C   UNL     1       7.064   8.972   0.797  1.00  0.00     0.049 A 
ATOM     53  H   UNL     1       7.726   8.928   2.777  1.00  0.00     0.167 HD
ATOM     54  C   UNL     1       8.535   9.104   6.973  1.00  0.00     0.037 A 
ATOM     55  C   UNL     1       7.108  10.243   0.343  1.00  0.00     0.037 A 
ATOM     56  C   UNL     1       8.752  10.466   6.542  1.00  0.00     0.049 A 
ATOM     57  C   UNL     1       7.572  11.366   1.232  1.00  0.00     0.074 A 
ATOM     58  C   UNL     1       9.275  11.526   7.269  1.00  0.00     0.029 A 
ATOM     59  N   UNL     1       8.517  10.949   5.265  1.00  0.00    -0.354 N 
ATOM     60  N   UNL     1       7.899  11.336   2.498  1.00  0.00    -0.248 NA
ATOM     61  C   UNL     1       7.711  12.694   0.612  1.00  0.00     0.031 C 
ATOM     62  C   UNL     1       9.322  12.655   6.446  1.00  0.00     0.029 A 
ATOM     63  C   UNL     1       8.886  12.285   5.186  1.00  0.00     0.049 A 
ATOM     64  H   UNL     1       8.142  10.422   4.523  1.00  0.00     0.167 HD
ATOM     65  C   UNL     1       8.342  12.617   2.808  1.00  0.00     0.074 A 
ATOM     66  C   UNL     1       8.234  13.405   1.601  1.00  0.00     0.031 C 
ATOM     67  C   UNL     1       8.815  13.083   3.989  1.00  0.00     0.037 A 
BRANCH  54  68
ATOM     68  C   UNL     1       8.739   8.809   8.442  1.00  0.00     0.064 A 
ATOM     69  C   UNL     1       9.744   7.960   8.925  1.00  0.00     0.173 A 
ATOM     70  C   UNL     1       7.921   9.446   9.397  1.00  0.00     0.173 A 
ATOM     71  F   UNL     1      10.578   7.345   8.072  1.00  0.00    -0.203 F 
ATOM     72  C   UNL     1       9.876   7.699  10.288  1.00  0.00     0.198 A 
ATOM     73  C   UNL     1       8.094   9.228  10.762  1.00  0.00     0.198 A 
ATOM     74  F   UNL     1       6.968  10.307   9.009  1.00  0.00    -0.203 F 
ATOM     75  F   UNL     1      10.790   6.815  10.712  1.00  0.00    -0.200 F 
ATOM     76  C   UNL     1       9.056   8.338  11.206  1.00  0.00     0.200 A 
ATOM     77  F   UNL     1       7.329   9.883  11.648  1.00  0.00    -0.200 F 
ATOM     78  F   UNL     1       9.196   8.095  12.517  1.00  0.00    -0.200 F 
ENDBRANCH  54  68
BRANCH  55  79
ATOM     79  C   UNL     1       6.724  10.537  -1.066  1.00  0.00     0.064 A 
ATOM     80  C   UNL     1       7.699  10.859  -2.020  1.00  0.00     0.173 A 
ATOM     81  C   UNL     1       5.383  10.530  -1.479  1.00  0.00     0.173 A 
ATOM     82  F   UNL     1       8.991  10.911  -1.662  1.00  0.00    -0.203 F 
ATOM     83  C   UNL     1       7.349  11.181  -3.329  1.00  0.00     0.198 A 
ATOM     84  C   UNL     1       5.036  10.828  -2.796  1.00  0.00     0.198 A 
ATOM     85  F   UNL     1       4.412  10.233  -0.604  1.00  0.00    -0.203 F 
ATOM     86  F   UNL     1       8.298  11.531  -4.207  1.00  0.00    -0.200 F 
ATOM     87  C   UNL     1       6.018  11.159  -3.718  1.00  0.00     0.200 A 
ATOM     88  F   UNL     1       3.749  10.800  -3.171  1.00  0.00    -0.200 F 
ATOM     89  F   UNL     1       5.682  11.467  -4.978  1.00  0.00    -0.200 F 
ENDBRANCH  55  79
BRANCH  67  90
ATOM     90  C   UNL     1       9.340  14.492   4.036  1.00  0.00     0.064 A 
ATOM     91  C   UNL     1       8.499  15.610   3.930  1.00  0.00     0.173 A 
ATOM     92  C   UNL     1      10.713  14.727   4.224  1.00  0.00     0.173 A 
ATOM     93  F   UNL     1       7.182  15.448   3.734  1.00  0.00    -0.203 F 
ATOM     94  C   UNL     1       9.014  16.905   3.982  1.00  0.00     0.198 A 
ATOM     95  C   UNL     1      11.219  16.022   4.308  1.00  0.00     0.198 A 
ATOM     96  F   UNL     1      11.566  13.698   4.334  1.00  0.00    -0.203 F 
ATOM     97  F   UNL     1       8.196  17.956   3.826  1.00  0.00    -0.200 F 
ATOM     98  C   UNL     1      10.371  17.110   4.179  1.00  0.00     0.200 A 
ATOM     99  F   UNL     1      12.530  16.216   4.511  1.00  0.00    -0.200 F 
ATOM    100  F   UNL     1      10.862  18.356   4.235  1.00  0.00    -0.200 F 
ENDBRANCH  67  90
ENDBRANCH  41  42
ENDBRANCH  34  36
ENDBRANCH  33  34
ENDBRANCH  32  33
ENDBRANCH  31  32
ENDBRANCH  30  31
ENDBRANCH   1  30
TORSDOF 18
