REMARK SMILES C[C@@H](Nc1ccc(C(=O)OCCOCCOC(=O)c2ccc(-c3c4nc(c(-c5c(F)c(F)c(F)c(F)c5F)c5ccc([nH]5)c(-c5c(F)c(F)c(F)c(F)c5F)c5nc(c(-c6c(F)c(F)c(F)c(F)c6F)c6ccc3[nH]6)C=C5)C=C4)cc2)c(F)c1F)C(N)=O
REMARK SMILES IDX 12 1 11 2 10 3 8 4 9 5 7 6 4 7 5 8 84 9 6 10 82 11 85 12
REMARK SMILES IDX 83 13 3 14 2 16 1 17 86 18 87 19 88 20 13 23 14 24 15 25
REMARK SMILES IDX 16 26 17 27 18 28 19 29 20 30 81 31 21 32 80 33 22 34 23 35
REMARK SMILES IDX 24 36 74 37 25 38 79 39 73 40 75 41 26 42 78 43 72 44 71 45
REMARK SMILES IDX 27 47 59 48 39 49 58 50 40 51 43 52 57 53 76 54 41 55 42 56
REMARK SMILES IDX 56 58 77 59 44 60 28 61 29 62 37 63 30 64 31 65 35 66 38 67
REMARK SMILES IDX 32 68 33 69 36 70 34 71 60 72 61 73 69 74 62 75 63 76 67 77
REMARK SMILES IDX 70 78 64 79 65 80 68 81 66 82 45 83 46 84 54 85 47 86 48 87
REMARK SMILES IDX 52 88 55 89 49 90 50 91 53 92 51 93
REMARK H PARENT 3 15 87 21 87 22 75 46 43 57
REMARK Flexibility Score: inf
ROOT
ATOM      1  C   UNL     1      -4.706  -4.412   6.714  1.00  0.00     0.202 C 
ENDROOT
BRANCH   1   2
ATOM      2  C   UNL     1      -3.470  -5.315   6.666  1.00  0.00     0.261 C 
BRANCH   2   3
ATOM      3  O   UNL     1      -2.423  -4.704   5.896  1.00  0.00    -0.460 OA
BRANCH   3   4
ATOM      4  C   UNL     1      -2.012  -5.395   4.809  1.00  0.00     0.341 C 
ATOM      5  O   UNL     1      -2.345  -6.528   4.489  1.00  0.00    -0.246 OA
BRANCH   4   6
ATOM      6  C   UNL     1      -1.232  -4.526   3.915  1.00  0.00     0.099 A 
ATOM      7  C   UNL     1       0.166  -2.872   2.097  1.00  0.00     0.074 A 
ATOM      8  C   UNL     1      -0.769  -3.802   1.639  1.00  0.00     0.030 A 
ATOM      9  C   UNL     1       0.395  -2.815   3.487  1.00  0.00     0.182 A 
ATOM     10  C   UNL     1      -1.463  -4.624   2.536  1.00  0.00     0.021 A 
ATOM     11  C   UNL     1      -0.295  -3.619   4.389  1.00  0.00     0.175 A 
ATOM     12  F   UNL     1       1.302  -1.939   3.956  1.00  0.00    -0.201 F 
ATOM     13  F   UNL     1      -0.032  -3.509   5.700  1.00  0.00    -0.203 F 
BRANCH   7  14
ATOM     14  N   UNL     1       0.835  -1.982   1.279  1.00  0.00    -0.371 N 
ATOM     15  H   UNL     1       1.704  -1.660   1.611  1.00  0.00     0.161 HD
BRANCH  14  16
ATOM     16  C   UNL     1       0.412  -1.456  -0.023  1.00  0.00     0.165 C 
ATOM     17  C   UNL     1       1.056  -0.081  -0.212  1.00  0.00     0.041 C 
BRANCH  16  18
ATOM     18  C   UNL     1      -1.115  -1.271  -0.163  1.00  0.00     0.239 C 
ATOM     19  N   UNL     1      -1.691  -1.919  -1.224  1.00  0.00    -0.368 N 
ATOM     20  O   UNL     1      -1.811  -0.600   0.594  1.00  0.00    -0.273 OA
ATOM     21  H   UNL     1      -1.135  -2.458  -1.833  1.00  0.00     0.159 HD
ATOM     22  H   UNL     1      -2.660  -1.845  -1.379  1.00  0.00     0.159 HD
ENDBRANCH  16  18
ENDBRANCH  14  16
ENDBRANCH   7  14
ENDBRANCH   4   6
ENDBRANCH   3   4
ENDBRANCH   2   3
ENDBRANCH   1   2
BRANCH   1  23
ATOM     23  O   UNL     1      -5.350  -4.182   5.459  1.00  0.00    -0.374 OA
BRANCH  23  24
ATOM     24  C   UNL     1      -4.778  -3.183   4.612  1.00  0.00     0.202 C 
BRANCH  24  25
ATOM     25  C   UNL     1      -5.135  -1.731   4.954  1.00  0.00     0.261 C 
BRANCH  25  26
ATOM     26  O   UNL     1      -4.568  -1.322   6.212  1.00  0.00    -0.460 OA
BRANCH  26  27
ATOM     27  C   UNL     1      -5.468  -1.128   7.202  1.00  0.00     0.338 C 
ATOM     28  O   UNL     1      -6.688  -1.173   7.117  1.00  0.00    -0.246 OA
BRANCH  27  29
ATOM     29  C   UNL     1      -4.783  -1.002   8.502  1.00  0.00     0.060 A 
ATOM     30  C   UNL     1      -5.270  -1.781   9.559  1.00  0.00     0.016 A 
ATOM     31  C   UNL     1      -3.750  -0.086   8.715  1.00  0.00     0.016 A 
ATOM     32  C   UNL     1      -4.775  -1.598  10.847  1.00  0.00     0.010 A 
ATOM     33  C   UNL     1      -3.256   0.101  10.012  1.00  0.00     0.010 A 
ATOM     34  C   UNL     1      -3.798  -0.623  11.089  1.00  0.00    -0.014 A 
BRANCH  34  35
ATOM     35  C   UNL     1      -3.480  -0.261  12.493  1.00  0.00     0.031 A 
ATOM     36  C   UNL     1      -4.141   0.945  13.101  1.00  0.00     0.074 A 
ATOM     37  C   UNL     1      -2.675  -1.038  13.238  1.00  0.00     0.049 A 
ATOM     38  N   UNL     1      -4.049   1.416  14.319  1.00  0.00    -0.248 NA
ATOM     39  C   UNL     1      -5.030   1.723  12.223  1.00  0.00     0.031 C 
ATOM     40  C   UNL     1      -2.010  -2.252  12.772  1.00  0.00     0.029 A 
ATOM     41  N   UNL     1      -2.290  -0.923  14.551  1.00  0.00    -0.354 N 
ATOM     42  C   UNL     1      -4.869   2.537  14.352  1.00  0.00     0.074 A 
ATOM     43  C   UNL     1      -5.421   2.701  13.026  1.00  0.00     0.031 C 
ATOM     44  C   UNL     1      -1.304  -2.778  13.787  1.00  0.00     0.029 A 
ATOM     45  C   UNL     1      -1.447  -1.924  14.967  1.00  0.00     0.049 A 
ATOM     46  H   UNL     1      -2.590  -0.193  15.139  1.00  0.00     0.167 HD
ATOM     47  C   UNL     1      -5.149   3.345  15.402  1.00  0.00     0.037 A 
ATOM     48  C   UNL     1      -0.855  -2.124  16.161  1.00  0.00     0.037 A 
ATOM     49  C   UNL     1      -4.610   3.174  16.724  1.00  0.00     0.049 A 
ATOM     50  C   UNL     1      -1.123  -1.166  17.292  1.00  0.00     0.074 A 
ATOM     51  C   UNL     1      -4.859   3.926  17.858  1.00  0.00     0.029 A 
ATOM     52  N   UNL     1      -3.710   2.184  17.087  1.00  0.00    -0.354 N 
ATOM     53  N   UNL     1      -1.922  -0.127  17.323  1.00  0.00    -0.248 NA
ATOM     54  C   UNL     1      -0.408  -1.407  18.555  1.00  0.00     0.031 C 
ATOM     55  C   UNL     1      -4.071   3.422  18.896  1.00  0.00     0.029 A 
ATOM     56  C   UNL     1      -3.369   2.326  18.422  1.00  0.00     0.049 A 
ATOM     57  H   UNL     1      -3.365   1.485  16.486  1.00  0.00     0.167 HD
ATOM     58  C   UNL     1      -1.822   0.396  18.605  1.00  0.00     0.074 A 
ATOM     59  C   UNL     1      -0.893  -0.445  19.330  1.00  0.00     0.031 C 
ATOM     60  C   UNL     1      -2.446   1.478  19.132  1.00  0.00     0.037 A 
BRANCH  47  61
ATOM     61  C   UNL     1      -6.082   4.495  15.169  1.00  0.00     0.064 A 
ATOM     62  C   UNL     1      -5.601   5.813  15.183  1.00  0.00     0.173 A 
ATOM     63  C   UNL     1      -7.461   4.299  15.005  1.00  0.00     0.173 A 
ATOM     64  F   UNL     1      -4.291   6.054  15.343  1.00  0.00    -0.203 F 
ATOM     65  C   UNL     1      -6.470   6.894  15.055  1.00  0.00     0.198 A 
ATOM     66  C   UNL     1      -8.324   5.381  14.852  1.00  0.00     0.198 A 
ATOM     67  F   UNL     1      -7.967   3.057  14.975  1.00  0.00    -0.203 F 
ATOM     68  F   UNL     1      -5.993   8.145  15.103  1.00  0.00    -0.200 F 
ATOM     69  C   UNL     1      -7.829   6.677  14.887  1.00  0.00     0.200 A 
ATOM     70  F   UNL     1      -9.634   5.170  14.669  1.00  0.00    -0.200 F 
ATOM     71  F   UNL     1      -8.664   7.717  14.757  1.00  0.00    -0.200 F 
ENDBRANCH  47  61
BRANCH  48  72
ATOM     72  C   UNL     1       0.046  -3.291  16.345  1.00  0.00     0.064 A 
ATOM     73  C   UNL     1       1.291  -3.357  15.701  1.00  0.00     0.173 A 
ATOM     74  C   UNL     1      -0.330  -4.373  17.152  1.00  0.00     0.173 A 
ATOM     75  F   UNL     1       1.698  -2.345  14.922  1.00  0.00    -0.203 F 
ATOM     76  C   UNL     1       2.115  -4.472  15.840  1.00  0.00     0.198 A 
ATOM     77  C   UNL     1       0.506  -5.477  17.310  1.00  0.00     0.198 A 
ATOM     78  F   UNL     1      -1.499  -4.344  17.808  1.00  0.00    -0.203 F 
ATOM     79  F   UNL     1       3.285  -4.522  15.190  1.00  0.00    -0.200 F 
ATOM     80  C   UNL     1       1.724  -5.529  16.646  1.00  0.00     0.200 A 
ATOM     81  F   UNL     1       0.136  -6.486  18.109  1.00  0.00    -0.200 F 
ATOM     82  F   UNL     1       2.521  -6.597  16.788  1.00  0.00    -0.200 F 
ENDBRANCH  48  72
BRANCH  60  83
ATOM     83  C   UNL     1      -2.165   1.825  20.564  1.00  0.00     0.064 A 
ATOM     84  C   UNL     1      -3.153   1.653  21.545  1.00  0.00     0.173 A 
ATOM     85  C   UNL     1      -0.960   2.435  20.942  1.00  0.00     0.173 A 
ATOM     86  F   UNL     1      -4.327   1.084  21.230  1.00  0.00    -0.203 F 
ATOM     87  C   UNL     1      -2.954   2.102  22.848  1.00  0.00     0.198 A 
ATOM     88  C   UNL     1      -0.755   2.860  22.252  1.00  0.00     0.198 A 
ATOM     89  F   UNL     1       0.018   2.612  20.041  1.00  0.00    -0.203 F 
ATOM     90  F   UNL     1      -3.929   1.967  23.758  1.00  0.00    -0.200 F 
ATOM     91  C   UNL     1      -1.756   2.705  23.200  1.00  0.00     0.200 A 
ATOM     92  F   UNL     1       0.410   3.426  22.596  1.00  0.00    -0.200 F 
ATOM     93  F   UNL     1      -1.567   3.139  24.453  1.00  0.00    -0.200 F 
ENDBRANCH  60  83
ENDBRANCH  34  35
ENDBRANCH  27  29
ENDBRANCH  26  27
ENDBRANCH  25  26
ENDBRANCH  24  25
ENDBRANCH  23  24
ENDBRANCH   1  23
TORSDOF 17
