REMARK SMILES Cc1c(Cl)cccc1NC(=O)NCc1cn([C@@H]2C[NH2+][C@H](C(=O)OCCOCCOC(=O)c3ccc(-c4c5nc(c(-c6c(F)c(F)c(F)c(F)c6F)c6ccc([nH]6)c(-c6c(F)c(F)c(F)c(F)c6F)c6nc(c(-c7c(F)c(F)c(F)c(F)c7F)c7ccc4[nH]7)C=C6)C=C5)cc3)C2)nn1
REMARK SMILES IDX 25 1 24 2 23 3 21 4 22 5 20 6 17 7 18 8 95 9 19 10 16 13
REMARK SMILES IDX 14 14 15 15 97 16 96 17 13 18 12 19 9 20 10 21 11 23 8 25
REMARK SMILES IDX 1 26 2 27 3 28 4 29 5 30 7 31 6 32 26 33 27 34 28 35 29 36
REMARK SMILES IDX 30 37 31 38 32 39 33 40 94 41 34 42 93 43 35 44 36 45 37 46
REMARK SMILES IDX 87 47 38 48 92 49 86 50 88 51 39 52 91 53 85 54 84 55 40 57
REMARK SMILES IDX 72 58 52 59 71 60 53 61 56 62 70 63 89 64 54 65 55 66 69 68
REMARK SMILES IDX 90 69 57 70 41 71 42 72 50 73 43 74 44 75 48 76 51 77 45 78
REMARK SMILES IDX 46 79 49 80 47 81 73 82 74 83 82 84 75 85 76 86 80 87 83 88
REMARK SMILES IDX 77 89 78 90 81 91 79 92 58 93 59 94 67 95 60 96 61 97 65 98
REMARK SMILES IDX 68 99 62 100 63 101 66 102 64 103
REMARK H PARENT 19 11 19 12 9 22 12 24 88 56 56 67
REMARK Flexibility Score: inf
ROOT
ATOM      1  C   UNL     1      -3.730  -8.862  -0.465  1.00  0.00     0.202 C 
ENDROOT
BRANCH   1   2
ATOM      2  C   UNL     1      -3.616  -7.336  -0.458  1.00  0.00     0.261 C 
BRANCH   2   3
ATOM      3  O   UNL     1      -3.604  -6.806   0.876  1.00  0.00    -0.459 OA
BRANCH   3   4
ATOM      4  C   UNL     1      -4.639  -5.973   1.184  1.00  0.00     0.365 C 
ATOM      5  O   UNL     1      -5.467  -5.571   0.374  1.00  0.00    -0.245 OA
BRANCH   4   6
ATOM      6  C   UNL     1      -4.756  -5.735   2.703  1.00  0.00     0.295 C 
ATOM      7  C   UNL     1      -4.657  -3.454   3.548  1.00  0.00     0.170 C 
ATOM      8  C   UNL     1      -3.265  -4.048   3.331  1.00  0.00     0.289 C 
ATOM      9  C   UNL     1      -5.620  -4.515   3.016  1.00  0.00     0.110 C 
ATOM     10  N   UNL     1      -3.446  -5.504   3.358  1.00  0.00    -0.333 N 
ATOM     11  H   UNL     1      -3.460  -5.847   4.318  1.00  0.00     0.347 HD
ATOM     12  H   UNL     1      -2.688  -5.995   2.885  1.00  0.00     0.347 HD
BRANCH   7  13
ATOM     13  N   UNL     1      -4.816  -2.181   2.887  1.00  0.00    -0.243 N 
ATOM     14  C   UNL     1      -4.888  -0.589   1.433  1.00  0.00     0.102 A 
ATOM     15  C   UNL     1      -4.659  -1.938   1.563  1.00  0.00     0.137 A 
ATOM     16  N   UNL     1      -5.232  -0.077   2.655  1.00  0.00    -0.134 NA
ATOM     17  N   UNL     1      -5.185  -1.069   3.545  1.00  0.00    -0.067 NA
BRANCH  14  18
ATOM     18  C   UNL     1      -4.816   0.143   0.156  1.00  0.00     0.178 C 
BRANCH  18  19
ATOM     19  N   UNL     1      -4.540   1.543   0.252  1.00  0.00    -0.332 N 
ATOM     20  N   UNL     1      -2.280   2.048  -0.420  1.00  0.00    -0.308 N 
ATOM     21  C   UNL     1      -3.558   2.350  -0.140  1.00  0.00     0.319 C 
ATOM     22  H   UNL     1      -1.790   2.855  -0.699  1.00  0.00     0.171 HD
ATOM     23  O   UNL     1      -3.836   3.558  -0.165  1.00  0.00    -0.248 OA
ATOM     24  H   UNL     1      -5.254   2.030   0.724  1.00  0.00     0.165 HD
BRANCH  20  25
ATOM     25  C   UNL     1      -1.427   0.926  -0.437  1.00  0.00     0.047 A 
ATOM     26  C   UNL     1       0.586   2.404   0.185  1.00  0.00     0.048 C 
ATOM     27  C   UNL     1      -0.078   1.063  -0.024  1.00  0.00    -0.009 A 
ATOM     28  C   UNL     1       0.707  -0.107   0.125  1.00  0.00     0.046 A 
ATOM     29  Cl  UNL     1       2.361  -0.046   0.635  1.00  0.00    -0.084 Cl
ATOM     30  C   UNL     1       0.187  -1.370  -0.156  1.00  0.00     0.021 A 
ATOM     31  C   UNL     1      -1.825  -0.315  -0.928  1.00  0.00     0.026 A 
ATOM     32  C   UNL     1      -1.069  -1.470  -0.729  1.00  0.00     0.004 A 
ENDBRANCH  20  25
ENDBRANCH  18  19
ENDBRANCH  14  18
ENDBRANCH   7  13
ENDBRANCH   4   6
ENDBRANCH   3   4
ENDBRANCH   2   3
ENDBRANCH   1   2
BRANCH   1  33
ATOM     33  O   UNL     1      -4.872  -9.480   0.129  1.00  0.00    -0.374 OA
BRANCH  33  34
ATOM     34  C   UNL     1      -5.176  -9.296   1.507  1.00  0.00     0.202 C 
BRANCH  34  35
ATOM     35  C   UNL     1      -4.267  -9.915   2.562  1.00  0.00     0.261 C 
BRANCH  35  36
ATOM     36  O   UNL     1      -2.918  -9.523   2.390  1.00  0.00    -0.460 OA
BRANCH  36  37
ATOM     37  C   UNL     1      -2.180 -10.421   1.710  1.00  0.00     0.338 C 
ATOM     38  O   UNL     1      -2.581 -11.437   1.144  1.00  0.00    -0.246 OA
BRANCH  37  39
ATOM     39  C   UNL     1      -0.762 -10.088   1.861  1.00  0.00     0.060 A 
ATOM     40  C   UNL     1       0.103 -11.094   1.428  1.00  0.00     0.016 A 
ATOM     41  C   UNL     1      -0.411  -9.161   2.851  1.00  0.00     0.016 A 
ATOM     42  C   UNL     1       1.142 -11.421   2.258  1.00  0.00     0.010 A 
ATOM     43  C   UNL     1       0.612  -9.502   3.693  1.00  0.00     0.010 A 
ATOM     44  C   UNL     1       1.292 -10.691   3.441  1.00  0.00    -0.014 A 
BRANCH  44  45
ATOM     45  C   UNL     1       2.272 -11.153   4.389  1.00  0.00     0.031 A 
ATOM     46  C   UNL     1       3.642 -10.836   3.946  1.00  0.00     0.074 A 
ATOM     47  C   UNL     1       1.922 -11.723   5.555  1.00  0.00     0.049 A 
ATOM     48  N   UNL     1       4.557 -11.670   3.586  1.00  0.00    -0.248 NA
ATOM     49  C   UNL     1       3.953  -9.428   3.650  1.00  0.00     0.031 C 
ATOM     50  C   UNL     1       0.590 -11.868   6.148  1.00  0.00     0.029 A 
ATOM     51  N   UNL     1       2.741 -12.215   6.520  1.00  0.00    -0.354 N 
ATOM     52  C   UNL     1       5.634 -10.886   3.197  1.00  0.00     0.074 A 
ATOM     53  C   UNL     1       5.137  -9.545   3.052  1.00  0.00     0.031 C 
ATOM     54  C   UNL     1       0.719 -12.192   7.456  1.00  0.00     0.029 A 
ATOM     55  C   UNL     1       2.126 -12.388   7.754  1.00  0.00     0.049 A 
ATOM     56  H   UNL     1       3.688 -12.431   6.359  1.00  0.00     0.167 HD
ATOM     57  C   UNL     1       6.904 -11.358   3.292  1.00  0.00     0.037 A 
ATOM     58  C   UNL     1       2.787 -12.560   8.928  1.00  0.00     0.037 A 
ATOM     59  C   UNL     1       6.911 -12.795   3.393  1.00  0.00     0.049 A 
ATOM     60  C   UNL     1       4.165 -13.021   8.586  1.00  0.00     0.074 A 
ATOM     61  C   UNL     1       6.497 -13.818   2.560  1.00  0.00     0.029 A 
ATOM     62  N   UNL     1       7.027 -13.349   4.645  1.00  0.00    -0.354 N 
ATOM     63  N   UNL     1       4.415 -14.192   8.063  1.00  0.00    -0.248 NA
ATOM     64  C   UNL     1       5.180 -12.002   8.344  1.00  0.00     0.031 C 
ATOM     65  C   UNL     1       5.936 -14.798   3.428  1.00  0.00     0.029 A 
ATOM     66  C   UNL     1       6.103 -14.358   4.742  1.00  0.00     0.049 A 
ATOM     67  H   UNL     1       7.660 -13.072   5.347  1.00  0.00     0.167 HD
ATOM     68  C   UNL     1       5.373 -13.947   7.087  1.00  0.00     0.074 A 
ATOM     69  C   UNL     1       5.852 -12.592   7.349  1.00  0.00     0.031 C 
ATOM     70  C   UNL     1       5.468 -14.741   5.980  1.00  0.00     0.037 A 
BRANCH  57  71
ATOM     71  C   UNL     1       8.081 -10.510   3.695  1.00  0.00     0.064 A 
ATOM     72  C   UNL     1       9.365 -11.087   3.669  1.00  0.00     0.173 A 
ATOM     73  C   UNL     1       7.978  -9.283   4.388  1.00  0.00     0.173 A 
ATOM     74  F   UNL     1       9.577 -12.254   3.042  1.00  0.00    -0.203 F 
ATOM     75  C   UNL     1      10.435 -10.529   4.370  1.00  0.00     0.198 A 
ATOM     76  C   UNL     1       9.062  -8.701   5.038  1.00  0.00     0.198 A 
ATOM     77  F   UNL     1       6.814  -8.649   4.568  1.00  0.00    -0.203 F 
ATOM     78  F   UNL     1      11.601 -11.185   4.431  1.00  0.00    -0.200 F 
ATOM     79  C   UNL     1      10.280  -9.342   5.062  1.00  0.00     0.200 A 
ATOM     80  F   UNL     1       8.884  -7.557   5.715  1.00  0.00    -0.200 F 
ATOM     81  F   UNL     1      11.284  -8.842   5.792  1.00  0.00    -0.200 F 
ENDBRANCH  57  71
BRANCH  58  82
ATOM     82  C   UNL     1       2.422 -12.022  10.261  1.00  0.00     0.064 A 
ATOM     83  C   UNL     1       3.041 -12.490  11.432  1.00  0.00     0.173 A 
ATOM     84  C   UNL     1       1.643 -10.855  10.395  1.00  0.00     0.173 A 
ATOM     85  F   UNL     1       3.841 -13.566  11.388  1.00  0.00    -0.203 F 
ATOM     86  C   UNL     1       2.900 -11.824  12.656  1.00  0.00     0.198 A 
ATOM     87  C   UNL     1       1.497 -10.195  11.616  1.00  0.00     0.198 A 
ATOM     88  F   UNL     1       1.081 -10.273   9.327  1.00  0.00    -0.203 F 
ATOM     89  F   UNL     1       3.549 -12.270  13.741  1.00  0.00    -0.200 F 
ATOM     90  C   UNL     1       2.134 -10.673  12.745  1.00  0.00     0.200 A 
ATOM     91  F   UNL     1       0.783  -9.062  11.677  1.00  0.00    -0.200 F 
ATOM     92  F   UNL     1       2.043 -10.003  13.902  1.00  0.00    -0.200 F 
ENDBRANCH  58  82
BRANCH  70  93
ATOM     93  C   UNL     1       4.658 -16.006   5.952  1.00  0.00     0.064 A 
ATOM     94  C   UNL     1       3.252 -16.035   5.953  1.00  0.00     0.173 A 
ATOM     95  C   UNL     1       5.326 -17.219   5.741  1.00  0.00     0.173 A 
ATOM     96  F   UNL     1       2.541 -14.904   6.040  1.00  0.00    -0.203 F 
ATOM     97  C   UNL     1       2.552 -17.229   5.793  1.00  0.00     0.198 A 
ATOM     98  C   UNL     1       4.625 -18.404   5.543  1.00  0.00     0.198 A 
ATOM     99  F   UNL     1       6.666 -17.242   5.668  1.00  0.00    -0.203 F 
ATOM    100  F   UNL     1       1.210 -17.230   5.803  1.00  0.00    -0.200 F 
ATOM    101  C   UNL     1       3.240 -18.412   5.579  1.00  0.00     0.200 A 
ATOM    102  F   UNL     1       5.294 -19.535   5.281  1.00  0.00    -0.200 F 
ATOM    103  F   UNL     1       2.568 -19.554   5.376  1.00  0.00    -0.200 F 
ENDBRANCH  70  93
ENDBRANCH  44  45
ENDBRANCH  37  39
ENDBRANCH  36  37
ENDBRANCH  35  36
ENDBRANCH  34  35
ENDBRANCH  33  34
ENDBRANCH   1  33
TORSDOF 18
