REMARK SMILES COc1cc(/C=C2/SC(=S)N(c3ccc(C)cc3C)C2=O)ccc1O[C@@H](C)C(=O)OCCOCCOC(=O)c1ccc(-c2c3nc(c(-c4c(F)c(F)c(F)c(F)c4F)c4ccc([nH]4)c(-c4c(F)c(F)c(F)c(F)c4F)c4nc(c(-c5c(F)c(F)c(F)c(F)c5F)c5ccc2[nH]5)C=C4)C=C3)cc1
REMARK SMILES IDX 32 1 31 2 30 3 28 4 29 5 26 6 27 7 25 8 24 9 3 10 4 11 5 12
REMARK SMILES IDX 23 13 22 14 2 15 1 16 6 17 7 18 8 19 20 20 9 21 11 22 21 23
REMARK SMILES IDX 10 24 12 25 13 26 18 27 14 28 17 29 19 30 15 31 16 32 33 33
REMARK SMILES IDX 34 34 35 35 36 36 37 37 38 38 39 39 40 40 101 41 41 42
REMARK SMILES IDX 100 43 42 44 43 45 44 46 94 47 45 48 99 49 93 50 95 51 46 52
REMARK SMILES IDX 98 53 92 54 91 55 47 57 79 58 59 59 78 60 60 61 63 62 77 63
REMARK SMILES IDX 96 64 61 65 62 66 76 68 97 69 64 70 48 71 49 72 57 73 50 74
REMARK SMILES IDX 51 75 55 76 58 77 52 78 53 79 56 80 54 81 80 82 81 83 89 84
REMARK SMILES IDX 82 85 83 86 87 87 90 88 84 89 85 90 88 91 86 92 65 93 66 94
REMARK SMILES IDX 74 95 67 96 68 97 72 98 75 99 69 100 70 101 73 102 71 103
REMARK H PARENT 95 56 63 67
REMARK Flexibility Score: inf
ROOT
ATOM      1  C   UNL     1       1.862  -3.154   3.523  1.00  0.00     0.202 C 
ENDROOT
BRANCH   1   2
ATOM      2  C   UNL     1       1.395  -1.766   3.089  1.00  0.00     0.261 C 
BRANCH   2   3
ATOM      3  O   UNL     1       1.754  -1.559   1.720  1.00  0.00    -0.461 OA
BRANCH   3   4
ATOM      4  C   UNL     1       1.846  -0.265   1.320  1.00  0.00     0.347 C 
ATOM      5  O   UNL     1       1.474   0.695   1.985  1.00  0.00    -0.248 OA
BRANCH   4   6
ATOM      6  C   UNL     1       2.624  -0.160  -0.006  1.00  0.00     0.279 C 
ATOM      7  C   UNL     1       2.355   1.137  -0.764  1.00  0.00     0.066 C 
BRANCH   6   8
ATOM      8  O   UNL     1       2.797  -1.233  -0.909  1.00  0.00    -0.475 OA
BRANCH   8   9
ATOM      9  C   UNL     1       1.809  -1.847  -1.613  1.00  0.00     0.162 A 
ATOM     10  C   UNL     1       0.450  -1.985  -1.328  1.00  0.00     0.161 A 
ATOM     11  C   UNL     1      -0.337  -2.898  -2.066  1.00  0.00     0.058 A 
ATOM     12  C   UNL     1       0.212  -3.639  -3.126  1.00  0.00    -0.020 A 
ATOM     13  C   UNL     1       2.315  -2.512  -2.737  1.00  0.00     0.051 A 
ATOM     14  C   UNL     1       1.524  -3.368  -3.506  1.00  0.00     0.012 A 
BRANCH  10  15
ATOM     15  O   UNL     1      -0.132  -1.392  -0.244  1.00  0.00    -0.493 OA
ATOM     16  C   UNL     1      -0.910  -0.248  -0.593  1.00  0.00     0.278 C 
ENDBRANCH  10  15
BRANCH  12  17
ATOM     17  C   UNL     1      -0.560  -4.702  -3.797  1.00  0.00     0.029 C 
ATOM     18  C   UNL     1      -0.219  -6.002  -3.901  1.00  0.00     0.081 C 
ATOM     19  S   UNL     1      -1.260  -7.184  -4.614  1.00  0.00    -0.054 SA
ATOM     20  C   UNL     1       0.993  -6.694  -3.354  1.00  0.00     0.270 C 
ATOM     21  C   UNL     1      -0.307  -8.551  -4.019  1.00  0.00     0.152 C 
ATOM     22  N   UNL     1       0.845  -8.078  -3.417  1.00  0.00    -0.261 N 
ATOM     23  O   UNL     1       1.969  -6.102  -2.915  1.00  0.00    -0.268 OA
ATOM     24  S   UNL     1      -0.877 -10.117  -4.139  1.00  0.00    -0.051 S 
BRANCH  22  25
ATOM     25  C   UNL     1       1.842  -8.891  -2.793  1.00  0.00     0.054 A 
ATOM     26  C   UNL     1       2.091  -8.676  -1.426  1.00  0.00     0.027 A 
ATOM     27  C   UNL     1       2.660  -9.795  -3.493  1.00  0.00    -0.027 A 
ATOM     28  C   UNL     1       3.126  -9.323  -0.753  1.00  0.00     0.005 A 
ATOM     29  C   UNL     1       3.695 -10.458  -2.795  1.00  0.00     0.009 A 
ATOM     30  C   UNL     1       2.549 -10.067  -4.967  1.00  0.00     0.046 C 
ATOM     31  C   UNL     1       3.946 -10.214  -1.437  1.00  0.00    -0.051 A 
ATOM     32  C   UNL     1       5.114 -10.837  -0.732  1.00  0.00     0.044 C 
ENDBRANCH  22  25
ENDBRANCH  12  17
ENDBRANCH   8   9
ENDBRANCH   6   8
ENDBRANCH   4   6
ENDBRANCH   3   4
ENDBRANCH   2   3
ENDBRANCH   1   2
BRANCH   1  33
ATOM     33  O   UNL     1       3.276  -3.372   3.514  1.00  0.00    -0.374 OA
BRANCH  33  34
ATOM     34  C   UNL     1       3.962  -3.319   2.263  1.00  0.00     0.202 C 
BRANCH  34  35
ATOM     35  C   UNL     1       3.784  -4.508   1.310  1.00  0.00     0.261 C 
BRANCH  35  36
ATOM     36  O   UNL     1       2.416  -4.812   1.001  1.00  0.00    -0.460 OA
BRANCH  36  37
ATOM     37  C   UNL     1       1.918  -5.895   1.645  1.00  0.00     0.338 C 
ATOM     38  O   UNL     1       2.494  -6.602   2.456  1.00  0.00    -0.246 OA
BRANCH  37  39
ATOM     39  C   UNL     1       0.503  -6.129   1.276  1.00  0.00     0.060 A 
ATOM     40  C   UNL     1      -0.349  -6.706   2.226  1.00  0.00     0.016 A 
ATOM     41  C   UNL     1       0.055  -5.925  -0.028  1.00  0.00     0.016 A 
ATOM     42  C   UNL     1      -1.611  -7.172   1.849  1.00  0.00     0.010 A 
ATOM     43  C   UNL     1      -1.192  -6.418  -0.411  1.00  0.00     0.010 A 
ATOM     44  C   UNL     1      -2.008  -7.088   0.511  1.00  0.00    -0.014 A 
BRANCH  44  45
ATOM     45  C   UNL     1      -3.230  -7.767   0.025  1.00  0.00     0.031 A 
ATOM     46  C   UNL     1      -3.169  -9.212  -0.387  1.00  0.00     0.074 A 
ATOM     47  C   UNL     1      -4.357  -7.058  -0.154  1.00  0.00     0.049 A 
ATOM     48  N   UNL     1      -4.110  -9.971  -0.889  1.00  0.00    -0.248 NA
ATOM     49  C   UNL     1      -1.868  -9.881  -0.241  1.00  0.00     0.031 C 
ATOM     50  C   UNL     1      -4.513  -5.640   0.159  1.00  0.00     0.029 A 
ATOM     51  N   UNL     1      -5.572  -7.431  -0.667  1.00  0.00    -0.354 N 
ATOM     52  C   UNL     1      -3.511 -11.200  -1.145  1.00  0.00     0.074 A 
ATOM     53  C   UNL     1      -2.126 -11.083  -0.738  1.00  0.00     0.031 C 
ATOM     54  C   UNL     1      -5.753  -5.255  -0.185  1.00  0.00     0.029 A 
ATOM     55  C   UNL     1      -6.472  -6.400  -0.739  1.00  0.00     0.049 A 
ATOM     56  H   UNL     1      -5.777  -8.350  -0.955  1.00  0.00     0.167 HD
ATOM     57  C   UNL     1      -4.067 -12.315  -1.678  1.00  0.00     0.037 A 
ATOM     58  C   UNL     1      -7.738  -6.385  -1.196  1.00  0.00     0.037 A 
ATOM     59  C   UNL     1      -5.453 -12.426  -2.061  1.00  0.00     0.049 A 
ATOM     60  C   UNL     1      -8.360  -7.660  -1.695  1.00  0.00     0.074 A 
ATOM     61  C   UNL     1      -6.138 -13.540  -2.515  1.00  0.00     0.029 A 
ATOM     62  N   UNL     1      -6.361 -11.378  -2.047  1.00  0.00    -0.354 N 
ATOM     63  N   UNL     1      -7.818  -8.845  -1.835  1.00  0.00    -0.248 NA
ATOM     64  C   UNL     1      -9.778  -7.600  -2.078  1.00  0.00     0.031 C 
ATOM     65  C   UNL     1      -7.450 -13.158  -2.815  1.00  0.00     0.029 A 
ATOM     66  C   UNL     1      -7.597 -11.817  -2.497  1.00  0.00     0.049 A 
ATOM     67  H   UNL     1      -6.159 -10.459  -1.760  1.00  0.00     0.167 HD
ATOM     68  C   UNL     1      -8.832  -9.678  -2.289  1.00  0.00     0.074 A 
ATOM     69  C   UNL     1     -10.025  -8.864  -2.393  1.00  0.00     0.031 C 
ATOM     70  C   UNL     1      -8.778 -10.999  -2.589  1.00  0.00     0.037 A 
BRANCH  57  71
ATOM     71  C   UNL     1      -3.184 -13.512  -1.895  1.00  0.00     0.064 A 
ATOM     72  C   UNL     1      -2.681 -14.263  -0.823  1.00  0.00     0.173 A 
ATOM     73  C   UNL     1      -2.902 -13.961  -3.196  1.00  0.00     0.173 A 
ATOM     74  F   UNL     1      -2.923 -13.883   0.441  1.00  0.00    -0.203 F 
ATOM     75  C   UNL     1      -1.911 -15.403  -1.043  1.00  0.00     0.198 A 
ATOM     76  C   UNL     1      -2.155 -15.116  -3.413  1.00  0.00     0.198 A 
ATOM     77  F   UNL     1      -3.379 -13.297  -4.260  1.00  0.00    -0.203 F 
ATOM     78  F   UNL     1      -1.416 -16.087  -0.002  1.00  0.00    -0.200 F 
ATOM     79  C   UNL     1      -1.656 -15.833  -2.337  1.00  0.00     0.200 A 
ATOM     80  F   UNL     1      -1.932 -15.546  -4.663  1.00  0.00    -0.200 F 
ATOM     81  F   UNL     1      -0.933 -16.942  -2.545  1.00  0.00    -0.200 F 
ENDBRANCH  57  71
BRANCH  58  82
ATOM     82  C   UNL     1      -8.519  -5.127  -1.133  1.00  0.00     0.064 A 
ATOM     83  C   UNL     1      -9.528  -4.962  -0.175  1.00  0.00     0.173 A 
ATOM     84  C   UNL     1      -8.257  -4.060  -2.003  1.00  0.00     0.173 A 
ATOM     85  F   UNL     1      -9.820  -5.963   0.668  1.00  0.00    -0.203 F 
ATOM     86  C   UNL     1     -10.258  -3.779  -0.098  1.00  0.00     0.198 A 
ATOM     87  C   UNL     1      -8.973  -2.868  -1.910  1.00  0.00     0.198 A 
ATOM     88  F   UNL     1      -7.292  -4.167  -2.928  1.00  0.00    -0.203 F 
ATOM     89  F   UNL     1     -11.238  -3.658   0.808  1.00  0.00    -0.200 F 
ATOM     90  C   UNL     1      -9.976  -2.731  -0.961  1.00  0.00     0.200 A 
ATOM     91  F   UNL     1      -8.688  -1.851  -2.735  1.00  0.00    -0.200 F 
ATOM     92  F   UNL     1     -10.672  -1.589  -0.880  1.00  0.00    -0.200 F 
ENDBRANCH  58  82
BRANCH  70  93
ATOM     93  C   UNL     1     -10.055 -11.660  -3.020  1.00  0.00     0.064 A 
ATOM     94  C   UNL     1     -10.620 -11.422  -4.282  1.00  0.00     0.173 A 
ATOM     95  C   UNL     1     -10.701 -12.571  -2.171  1.00  0.00     0.173 A 
ATOM     96  F   UNL     1     -10.047 -10.549  -5.124  1.00  0.00    -0.203 F 
ATOM     97  C   UNL     1     -11.800 -12.053  -4.667  1.00  0.00     0.198 A 
ATOM     98  C   UNL     1     -11.867 -13.220  -2.570  1.00  0.00     0.198 A 
ATOM     99  F   UNL     1     -10.199 -12.837  -0.956  1.00  0.00    -0.203 F 
ATOM    100  F   UNL     1     -12.348 -11.775  -5.858  1.00  0.00    -0.200 F 
ATOM    101  C   UNL     1     -12.419 -12.955  -3.814  1.00  0.00     0.200 A 
ATOM    102  F   UNL     1     -12.457 -14.099  -1.749  1.00  0.00    -0.200 F 
ATOM    103  F   UNL     1     -13.553 -13.562  -4.188  1.00  0.00    -0.200 F 
ENDBRANCH  70  93
ENDBRANCH  44  45
ENDBRANCH  37  39
ENDBRANCH  36  37
ENDBRANCH  35  36
ENDBRANCH  34  35
ENDBRANCH  33  34
ENDBRANCH   1  33
TORSDOF 19
