REMARK SMILES Cc1ccc(S(=O)(=O)n2cc(C(=O)C(=O)NCC(=O)N[C@@H](Cc3c[nH]c4ccccc34)C(=O)OCCOCCOC(=O)c3ccc(-c4c5nc(c(-c6c(F)c(F)c(F)c(F)c6F)c6ccc([nH]6)c(-c6c(F)c(F)c(F)c(F)c6F)c6nc(c(-c7c(F)c(F)c(F)c(F)c7F)c7ccc4[nH]7)C=C6)C=C5)cc3)c3ccccc32)cc1
REMARK SMILES IDX 35 1 34 2 32 3 33 4 21 5 20 6 18 7 19 8 17 10 16 11 14 12
REMARK SMILES IDX 15 13 12 15 13 16 11 17 9 18 10 19 111 20 106 21 110 22
REMARK SMILES IDX 107 23 109 24 108 25 6 26 7 27 8 28 5 29 1 30 2 31 3 32
REMARK SMILES IDX 113 33 4 34 112 35 22 36 23 37 24 38 31 39 25 40 26 41 30 42
REMARK SMILES IDX 27 44 29 45 28 46 36 47 37 48 38 49 39 50 40 51 41 52 42 53
REMARK SMILES IDX 43 54 44 55 105 56 45 57 104 58 46 59 47 60 48 61 98 62
REMARK SMILES IDX 49 63 103 64 97 65 99 66 50 67 102 68 96 69 95 70 51 72
REMARK SMILES IDX 83 73 63 74 82 75 64 76 67 77 81 78 100 79 65 80 66 81 80 83
REMARK SMILES IDX 101 84 68 85 52 86 53 87 61 88 54 89 55 90 59 91 62 92 56 93
REMARK SMILES IDX 57 94 60 95 58 96 84 97 85 98 93 99 86 100 87 101 91 102
REMARK SMILES IDX 94 103 88 104 89 105 92 106 90 107 69 108 70 109 78 110
REMARK SMILES IDX 71 111 72 112 76 113 79 114 73 115 74 116 77 117 75 118
REMARK H PARENT 20 9 16 14 25 43 99 71 67 82
REMARK Flexibility Score: inf
ROOT
ATOM      1  C   UNL     1     -10.534  -0.366   3.773  1.00  0.00     0.261 C 
ENDROOT
BRANCH   1   2
ATOM      2  O   UNL     1     -10.507   1.012   3.433  1.00  0.00    -0.462 OA
BRANCH   2   3
ATOM      3  C   UNL     1      -9.437   1.520   2.775  1.00  0.00     0.329 C 
ATOM      4  O   UNL     1      -8.320   1.018   2.697  1.00  0.00    -0.250 OA
BRANCH   3   5
ATOM      5  C   UNL     1      -9.820   2.861   2.173  1.00  0.00     0.196 C 
BRANCH   5   6
ATOM      6  N   UNL     1     -11.191   2.776   1.652  1.00  0.00    -0.341 N 
ATOM      7  C   UNL     1     -11.636   2.244   0.480  1.00  0.00     0.240 C 
ATOM      8  O   UNL     1     -12.790   1.804   0.471  1.00  0.00    -0.273 OA
ATOM      9  H   UNL     1     -11.888   3.158   2.233  1.00  0.00     0.164 HD
BRANCH   7  10
ATOM     10  C   UNL     1     -10.711   2.052  -0.736  1.00  0.00     0.216 C 
BRANCH  10  11
ATOM     11  N   UNL     1      -9.606   3.003  -0.846  1.00  0.00    -0.340 N 
ATOM     12  C   UNL     1      -8.250   2.749  -1.010  1.00  0.00     0.292 C 
ATOM     13  O   UNL     1      -7.431   3.653  -0.885  1.00  0.00    -0.265 OA
ATOM     14  H   UNL     1      -9.858   3.954  -0.798  1.00  0.00     0.164 HD
BRANCH  12  15
ATOM     15  C   UNL     1      -7.783   1.329  -1.346  1.00  0.00     0.252 C 
ATOM     16  O   UNL     1      -8.477   0.729  -2.170  1.00  0.00    -0.283 OA
BRANCH  15  17
ATOM     17  C   UNL     1      -6.655   0.665  -0.668  1.00  0.00     0.054 A 
ATOM     18  N   UNL     1      -4.683   0.083   0.302  1.00  0.00    -0.240 N 
ATOM     19  C   UNL     1      -5.406   1.148  -0.251  1.00  0.00     0.117 A 
ATOM     20  C   UNL     1      -5.603  -0.968   0.503  1.00  0.00     0.065 A 
ATOM     21  C   UNL     1      -6.624  -0.743  -0.416  1.00  0.00     0.012 A 
ATOM     22  C   UNL     1      -5.424  -2.227   1.109  1.00  0.00     0.028 A 
ATOM     23  C   UNL     1      -7.368  -1.850  -0.877  1.00  0.00     0.011 A 
ATOM     24  C   UNL     1      -6.090  -3.318   0.553  1.00  0.00     0.002 A 
ATOM     25  C   UNL     1      -7.026  -3.137  -0.453  1.00  0.00     0.001 A 
BRANCH  18  26
ATOM     26  S   UNL     1      -3.189  -0.574  -0.359  1.00  0.00     0.268 S 
ATOM     27  O   UNL     1      -3.570  -0.950  -1.711  1.00  0.00    -0.201 OA
ATOM     28  O   UNL     1      -2.837  -1.581   0.636  1.00  0.00    -0.201 OA
BRANCH  26  29
ATOM     29  C   UNL     1      -1.623   0.198  -0.532  1.00  0.00     0.088 A 
ATOM     30  C   UNL     1       2.650   0.852  -0.513  1.00  0.00     0.044 C 
ATOM     31  C   UNL     1       1.157   0.688  -0.597  1.00  0.00    -0.051 A 
ATOM     32  C   UNL     1       0.677  -0.549  -0.994  1.00  0.00     0.005 A 
ATOM     33  C   UNL     1       0.235   1.684  -0.198  1.00  0.00     0.005 A 
ATOM     34  C   UNL     1      -0.686  -0.773  -0.979  1.00  0.00     0.022 A 
ATOM     35  C   UNL     1      -1.167   1.446  -0.152  1.00  0.00     0.022 A 
ENDBRANCH  26  29
ENDBRANCH  18  26
ENDBRANCH  15  17
ENDBRANCH  12  15
ENDBRANCH  10  11
ENDBRANCH   7  10
ENDBRANCH   5   6
BRANCH   5  36
ATOM     36  C   UNL     1      -9.621   4.012   3.156  1.00  0.00     0.074 C 
BRANCH  36  37
ATOM     37  C   UNL     1     -10.572   4.177   4.315  1.00  0.00    -0.020 A 
ATOM     38  C   UNL     1     -11.516   3.316   4.840  1.00  0.00     0.087 A 
ATOM     39  C   UNL     1     -10.633   5.360   5.131  1.00  0.00     0.003 A 
ATOM     40  N   UNL     1     -12.086   3.895   5.939  1.00  0.00    -0.361 N 
ATOM     41  C   UNL     1     -11.528   5.121   6.170  1.00  0.00     0.046 A 
ATOM     42  C   UNL     1      -9.987   6.611   5.086  1.00  0.00     0.010 A 
ATOM     43  H   UNL     1     -12.796   3.488   6.487  1.00  0.00     0.166 HD
ATOM     44  C   UNL     1     -11.763   6.024   7.208  1.00  0.00     0.026 A 
ATOM     45  C   UNL     1     -10.249   7.553   6.088  1.00  0.00     0.001 A 
ATOM     46  C   UNL     1     -11.107   7.253   7.143  1.00  0.00     0.002 A 
ENDBRANCH  36  37
ENDBRANCH   5  36
ENDBRANCH   3   5
ENDBRANCH   2   3
ENDBRANCH   1   2
BRANCH   1  47
ATOM     47  C   UNL     1     -11.514  -1.057   2.893  1.00  0.00     0.202 C 
BRANCH  47  48
ATOM     48  O   UNL     1     -10.786  -1.501   1.762  1.00  0.00    -0.374 OA
BRANCH  48  49
ATOM     49  C   UNL     1     -11.578  -2.229   0.835  1.00  0.00     0.202 C 
BRANCH  49  50
ATOM     50  C   UNL     1     -12.383  -3.385   1.462  1.00  0.00     0.261 C 
BRANCH  50  51
ATOM     51  O   UNL     1     -11.469  -4.331   2.057  1.00  0.00    -0.460 OA
BRANCH  51  52
ATOM     52  C   UNL     1     -11.559  -4.504   3.404  1.00  0.00     0.338 C 
ATOM     53  O   UNL     1     -12.593  -4.631   4.038  1.00  0.00    -0.246 OA
BRANCH  52  54
ATOM     54  C   UNL     1     -10.242  -4.178   4.028  1.00  0.00     0.060 A 
ATOM     55  C   UNL     1     -10.158  -3.978   5.418  1.00  0.00     0.016 A 
ATOM     56  C   UNL     1      -9.209  -3.739   3.205  1.00  0.00     0.016 A 
ATOM     57  C   UNL     1      -9.145  -3.171   5.954  1.00  0.00     0.010 A 
ATOM     58  C   UNL     1      -8.275  -2.870   3.725  1.00  0.00     0.010 A 
ATOM     59  C   UNL     1      -8.280  -2.521   5.086  1.00  0.00    -0.014 A 
BRANCH  59  60
ATOM     60  C   UNL     1      -7.346  -1.444   5.435  1.00  0.00     0.031 A 
ATOM     61  C   UNL     1      -5.913  -1.751   5.243  1.00  0.00     0.074 A 
ATOM     62  C   UNL     1      -7.760  -0.170   5.665  1.00  0.00     0.049 A 
ATOM     63  N   UNL     1      -4.961  -0.930   5.485  1.00  0.00    -0.248 NA
ATOM     64  C   UNL     1      -5.427  -3.045   4.771  1.00  0.00     0.031 C 
ATOM     65  C   UNL     1      -6.985   1.075   5.603  1.00  0.00     0.029 A 
ATOM     66  N   UNL     1      -9.026   0.304   6.061  1.00  0.00    -0.354 N 
ATOM     67  C   UNL     1      -3.792  -1.453   4.990  1.00  0.00     0.074 A 
ATOM     68  C   UNL     1      -4.121  -2.805   4.633  1.00  0.00     0.031 C 
ATOM     69  C   UNL     1      -7.641   2.046   6.269  1.00  0.00     0.029 A 
ATOM     70  C   UNL     1      -8.804   1.420   6.881  1.00  0.00     0.049 A 
ATOM     71  H   UNL     1      -9.899  -0.075   5.810  1.00  0.00     0.167 HD
ATOM     72  C   UNL     1      -2.731  -0.604   4.884  1.00  0.00     0.037 A 
ATOM     73  C   UNL     1      -9.138   1.382   8.198  1.00  0.00     0.037 A 
ATOM     74  C   UNL     1      -3.027   0.632   5.637  1.00  0.00     0.049 A 
ATOM     75  C   UNL     1      -7.868   1.556   8.965  1.00  0.00     0.074 A 
ATOM     76  C   UNL     1      -3.384   1.922   5.280  1.00  0.00     0.029 A 
ATOM     77  N   UNL     1      -3.348   0.511   6.996  1.00  0.00    -0.354 N 
ATOM     78  N   UNL     1      -6.716   1.097   8.541  1.00  0.00    -0.248 NA
ATOM     79  C   UNL     1      -7.756   2.462  10.100  1.00  0.00     0.031 C 
ATOM     80  C   UNL     1      -4.014   2.531   6.412  1.00  0.00     0.029 A 
ATOM     81  C   UNL     1      -4.022   1.624   7.465  1.00  0.00     0.049 A 
ATOM     82  H   UNL     1      -3.122  -0.272   7.549  1.00  0.00     0.167 HD
ATOM     83  C   UNL     1      -5.728   1.762   9.204  1.00  0.00     0.074 A 
ATOM     84  C   UNL     1      -6.420   2.554  10.212  1.00  0.00     0.031 C 
ATOM     85  C   UNL     1      -4.407   1.724   8.871  1.00  0.00     0.037 A 
BRANCH  72  86
ATOM     86  C   UNL     1      -1.482  -0.829   4.046  1.00  0.00     0.064 A 
ATOM     87  C   UNL     1      -0.562   0.224   3.844  1.00  0.00     0.173 A 
ATOM     88  C   UNL     1      -1.126  -2.027   3.386  1.00  0.00     0.173 A 
ATOM     89  F   UNL     1      -0.794   1.453   4.326  1.00  0.00    -0.203 F 
ATOM     90  C   UNL     1       0.628   0.066   3.120  1.00  0.00     0.198 A 
ATOM     91  C   UNL     1       0.060  -2.186   2.662  1.00  0.00     0.198 A 
ATOM     92  F   UNL     1      -1.896  -3.111   3.393  1.00  0.00    -0.203 F 
ATOM     93  F   UNL     1       1.462   1.106   2.977  1.00  0.00    -0.200 F 
ATOM     94  C   UNL     1       0.951  -1.148   2.551  1.00  0.00     0.200 A 
ATOM     95  F   UNL     1       0.332  -3.367   2.085  1.00  0.00    -0.200 F 
ATOM     96  F   UNL     1       2.109  -1.320   1.901  1.00  0.00    -0.200 F 
ENDBRANCH  72  86
BRANCH  73  97
ATOM     97  C   UNL     1     -10.354   0.549   8.457  1.00  0.00     0.064 A 
ATOM     98  C   UNL     1     -11.568   1.091   7.989  1.00  0.00     0.173 A 
ATOM     99  C   UNL     1     -10.314  -0.842   8.593  1.00  0.00     0.173 A 
ATOM    100  F   UNL     1     -11.737   2.419   7.986  1.00  0.00    -0.203 F 
ATOM    101  C   UNL     1     -12.568   0.297   7.425  1.00  0.00     0.198 A 
ATOM    102  C   UNL     1     -11.362  -1.643   8.105  1.00  0.00     0.198 A 
ATOM    103  F   UNL     1      -9.217  -1.443   9.072  1.00  0.00    -0.203 F 
ATOM    104  F   UNL     1     -13.600   0.874   6.790  1.00  0.00    -0.200 F 
ATOM    105  C   UNL     1     -12.443  -1.076   7.446  1.00  0.00     0.200 A 
ATOM    106  F   UNL     1     -11.278  -2.979   8.188  1.00  0.00    -0.200 F 
ATOM    107  F   UNL     1     -13.338  -1.845   6.810  1.00  0.00    -0.200 F 
ENDBRANCH  73  97
BRANCH  85 108
ATOM    108  C   UNL     1      -3.345   1.789   9.933  1.00  0.00     0.064 A 
ATOM    109  C   UNL     1      -3.601   1.474  11.282  1.00  0.00     0.173 A 
ATOM    110  C   UNL     1      -1.986   1.941   9.583  1.00  0.00     0.173 A 
ATOM    111  F   UNL     1      -4.835   1.188  11.720  1.00  0.00    -0.203 F 
ATOM    112  C   UNL     1      -2.580   1.374  12.220  1.00  0.00     0.198 A 
ATOM    113  C   UNL     1      -0.965   1.761  10.509  1.00  0.00     0.198 A 
ATOM    114  F   UNL     1      -1.606   2.215   8.327  1.00  0.00    -0.203 F 
ATOM    115  F   UNL     1      -2.884   1.116  13.499  1.00  0.00    -0.200 F 
ATOM    116  C   UNL     1      -1.262   1.496  11.831  1.00  0.00     0.200 A 
ATOM    117  F   UNL     1       0.312   1.813  10.104  1.00  0.00    -0.200 F 
ATOM    118  F   UNL     1      -0.278   1.334  12.724  1.00  0.00    -0.200 F 
ENDBRANCH  85 108
ENDBRANCH  59  60
ENDBRANCH  52  54
ENDBRANCH  51  52
ENDBRANCH  50  51
ENDBRANCH  49  50
ENDBRANCH  48  49
ENDBRANCH  47  48
ENDBRANCH   1  47
TORSDOF 23
