REMARK SMILES C[C@@H](NS(=O)(=O)c1ccc2c(c1)CCC2)C(=O)OCCOCCOC(=O)c1ccc(-c2c3nc(c(-c4c(F)c(F)c(F)c(F)c4F)c4ccc([nH]4)c(-c4c(F)c(F)c(F)c(F)c4F)c4nc(c(-c5c(F)c(F)c(F)c(F)c5F)c5ccc2[nH]5)C=C4)C=C3)cc1
REMARK SMILES IDX 20 1 19 2 18 3 16 4 17 5 2 6 1 7 3 8 4 10 5 11 6 12 7 13
REMARK SMILES IDX 8 14 12 15 9 16 11 17 10 18 13 19 15 20 14 21 21 22 22 23
REMARK SMILES IDX 23 24 24 25 25 26 26 27 27 28 28 29 89 30 29 31 88 32 30 33
REMARK SMILES IDX 31 34 32 35 82 36 33 37 87 38 81 39 83 40 34 41 86 42 80 43
REMARK SMILES IDX 79 44 35 46 67 47 47 48 66 49 48 50 51 51 65 52 84 53 49 54
REMARK SMILES IDX 50 55 64 57 85 58 52 59 36 60 37 61 45 62 38 63 39 64 43 65
REMARK SMILES IDX 46 66 40 67 41 68 44 69 42 70 68 71 69 72 77 73 70 74 71 75
REMARK SMILES IDX 75 76 78 77 72 78 73 79 76 80 74 81 53 82 54 83 62 84 55 85
REMARK SMILES IDX 56 86 60 87 63 88 57 89 58 90 61 91 59 92
REMARK H PARENT 3 9 83 45 51 56
REMARK Flexibility Score: inf
ROOT
ATOM      1  C   UNL     1      -3.490   0.078  -0.613  1.00  0.00     0.202 C 
ENDROOT
BRANCH   1   2
ATOM      2  C   UNL     1      -2.635  -1.144  -0.252  1.00  0.00     0.261 C 
BRANCH   2   3
ATOM      3  O   UNL     1      -1.220  -1.012  -0.138  1.00  0.00    -0.462 OA
BRANCH   3   4
ATOM      4  C   UNL     1      -0.533  -0.969  -1.316  1.00  0.00     0.323 C 
ATOM      5  O   UNL     1      -0.989  -0.595  -2.387  1.00  0.00    -0.250 OA
BRANCH   4   6
ATOM      6  C   UNL     1       0.870  -1.508  -1.169  1.00  0.00     0.176 C 
ATOM      7  C   UNL     1       1.538  -0.891   0.058  1.00  0.00     0.038 C 
BRANCH   6   8
ATOM      8  N   UNL     1       0.836  -2.989  -1.079  1.00  0.00    -0.197 NA
ATOM      9  H   UNL     1       0.119  -3.232  -0.395  1.00  0.00     0.142 HD
BRANCH   8  10
ATOM     10  S   UNL     1       0.508  -3.880  -2.488  1.00  0.00     0.241 S 
ATOM     11  O   UNL     1       1.058  -3.154  -3.607  1.00  0.00    -0.207 OA
ATOM     12  O   UNL     1       0.953  -5.225  -2.178  1.00  0.00    -0.207 OA
BRANCH  10  13
ATOM     13  C   UNL     1      -1.268  -3.933  -2.638  1.00  0.00     0.082 A 
ATOM     14  C   UNL     1      -1.919  -2.961  -3.420  1.00  0.00     0.022 A 
ATOM     15  C   UNL     1      -2.005  -4.965  -2.045  1.00  0.00     0.025 A 
ATOM     16  C   UNL     1      -3.311  -2.855  -3.420  1.00  0.00     0.005 A 
ATOM     17  C   UNL     1      -3.390  -4.918  -2.157  1.00  0.00    -0.043 A 
ATOM     18  C   UNL     1      -4.032  -3.827  -2.757  1.00  0.00    -0.045 A 
ATOM     19  C   UNL     1      -4.404  -5.923  -1.697  1.00  0.00     0.036 C 
ATOM     20  C   UNL     1      -5.509  -3.895  -2.533  1.00  0.00     0.036 C 
ATOM     21  C   UNL     1      -5.683  -5.408  -2.388  1.00  0.00     0.010 C 
ENDBRANCH  10  13
ENDBRANCH   8  10
ENDBRANCH   6   8
ENDBRANCH   4   6
ENDBRANCH   3   4
ENDBRANCH   2   3
ENDBRANCH   1   2
BRANCH   1  22
ATOM     22  O   UNL     1      -3.011   1.100  -1.466  1.00  0.00    -0.374 OA
BRANCH  22  23
ATOM     23  C   UNL     1      -1.891   1.889  -1.079  1.00  0.00     0.202 C 
BRANCH  23  24
ATOM     24  C   UNL     1      -2.039   2.840   0.102  1.00  0.00     0.261 C 
BRANCH  24  25
ATOM     25  O   UNL     1      -2.264   2.128   1.328  1.00  0.00    -0.460 OA
BRANCH  25  26
ATOM     26  C   UNL     1      -3.507   2.293   1.831  1.00  0.00     0.338 C 
ATOM     27  O   UNL     1      -4.398   3.002   1.392  1.00  0.00    -0.246 OA
BRANCH  26  28
ATOM     28  C   UNL     1      -3.742   1.343   2.929  1.00  0.00     0.060 A 
ATOM     29  C   UNL     1      -4.954   0.641   2.909  1.00  0.00     0.016 A 
ATOM     30  C   UNL     1      -2.870   1.245   4.015  1.00  0.00     0.016 A 
ATOM     31  C   UNL     1      -5.354  -0.075   4.026  1.00  0.00     0.010 A 
ATOM     32  C   UNL     1      -3.275   0.525   5.140  1.00  0.00     0.010 A 
ATOM     33  C   UNL     1      -4.547  -0.074   5.170  1.00  0.00    -0.014 A 
BRANCH  33  34
ATOM     34  C   UNL     1      -5.147  -0.507   6.450  1.00  0.00     0.031 A 
ATOM     35  C   UNL     1      -5.639   0.545   7.405  1.00  0.00     0.074 A 
ATOM     36  C   UNL     1      -5.327  -1.812   6.711  1.00  0.00     0.049 A 
ATOM     37  N   UNL     1      -6.216   0.408   8.571  1.00  0.00    -0.248 NA
ATOM     38  C   UNL     1      -5.456   1.946   6.989  1.00  0.00     0.031 C 
ATOM     39  C   UNL     1      -4.943  -2.908   5.824  1.00  0.00     0.029 A 
ATOM     40  N   UNL     1      -5.889  -2.431   7.795  1.00  0.00    -0.354 N 
ATOM     41  C   UNL     1      -6.451   1.698   9.030  1.00  0.00     0.074 A 
ATOM     42  C   UNL     1      -5.924   2.606   8.036  1.00  0.00     0.031 C 
ATOM     43  C   UNL     1      -5.286  -4.072   6.400  1.00  0.00     0.029 A 
ATOM     44  C   UNL     1      -5.879  -3.800   7.708  1.00  0.00     0.049 A 
ATOM     45  H   UNL     1      -6.263  -1.941   8.563  1.00  0.00     0.167 HD
ATOM     46  C   UNL     1      -7.062   2.088  10.174  1.00  0.00     0.037 A 
ATOM     47  C   UNL     1      -6.290  -4.722   8.597  1.00  0.00     0.037 A 
ATOM     48  C   UNL     1      -7.590   1.172  11.151  1.00  0.00     0.049 A 
ATOM     49  C   UNL     1      -6.896  -4.262   9.897  1.00  0.00     0.074 A 
ATOM     50  C   UNL     1      -8.245   1.454  12.336  1.00  0.00     0.029 A 
ATOM     51  N   UNL     1      -7.513  -0.211  11.056  1.00  0.00    -0.354 N 
ATOM     52  N   UNL     1      -7.135  -3.043  10.318  1.00  0.00    -0.248 NA
ATOM     53  C   UNL     1      -7.295  -5.311  10.844  1.00  0.00     0.031 C 
ATOM     54  C   UNL     1      -8.505   0.245  12.989  1.00  0.00     0.029 A 
ATOM     55  C   UNL     1      -8.079  -0.795  12.178  1.00  0.00     0.049 A 
ATOM     56  H   UNL     1      -7.116  -0.704  10.302  1.00  0.00     0.167 HD
ATOM     57  C   UNL     1      -7.744  -3.178  11.559  1.00  0.00     0.074 A 
ATOM     58  C   UNL     1      -7.850  -4.600  11.815  1.00  0.00     0.031 C 
ATOM     59  C   UNL     1      -8.181  -2.215  12.409  1.00  0.00     0.037 A 
BRANCH  46  60
ATOM     60  C   UNL     1      -7.152   3.563  10.447  1.00  0.00     0.064 A 
ATOM     61  C   UNL     1      -7.965   4.416   9.685  1.00  0.00     0.173 A 
ATOM     62  C   UNL     1      -6.419   4.130  11.502  1.00  0.00     0.173 A 
ATOM     63  F   UNL     1      -8.675   3.930   8.655  1.00  0.00    -0.203 F 
ATOM     64  C   UNL     1      -8.014   5.784   9.945  1.00  0.00     0.198 A 
ATOM     65  C   UNL     1      -6.498   5.492  11.781  1.00  0.00     0.198 A 
ATOM     66  F   UNL     1      -5.627   3.362  12.265  1.00  0.00    -0.203 F 
ATOM     67  F   UNL     1      -8.751   6.587   9.166  1.00  0.00    -0.200 F 
ATOM     68  C   UNL     1      -7.286   6.319  10.997  1.00  0.00     0.200 A 
ATOM     69  F   UNL     1      -5.804   6.004  12.807  1.00  0.00    -0.200 F 
ATOM     70  F   UNL     1      -7.338   7.634  11.249  1.00  0.00    -0.200 F 
ENDBRANCH  46  60
BRANCH  47  71
ATOM     71  C   UNL     1      -6.145  -6.168   8.288  1.00  0.00     0.064 A 
ATOM     72  C   UNL     1      -7.270  -6.983   8.099  1.00  0.00     0.173 A 
ATOM     73  C   UNL     1      -4.881  -6.769   8.188  1.00  0.00     0.173 A 
ATOM     74  F   UNL     1      -8.501  -6.460   8.203  1.00  0.00    -0.203 F 
ATOM     75  C   UNL     1      -7.136  -8.346   7.844  1.00  0.00     0.198 A 
ATOM     76  C   UNL     1      -4.748  -8.125   7.902  1.00  0.00     0.198 A 
ATOM     77  F   UNL     1      -3.772  -6.033   8.358  1.00  0.00    -0.203 F 
ATOM     78  F   UNL     1      -8.229  -9.111   7.717  1.00  0.00    -0.200 F 
ATOM     79  C   UNL     1      -5.876  -8.915   7.740  1.00  0.00     0.200 A 
ATOM     80  F   UNL     1      -3.528  -8.666   7.786  1.00  0.00    -0.200 F 
ATOM     81  F   UNL     1      -5.748 -10.225   7.491  1.00  0.00    -0.200 F 
ENDBRANCH  47  71
BRANCH  59  82
ATOM     82  C   UNL     1      -8.858  -2.670  13.671  1.00  0.00     0.064 A 
ATOM     83  C   UNL     1      -8.154  -3.304  14.705  1.00  0.00     0.173 A 
ATOM     84  C   UNL     1     -10.231  -2.443  13.857  1.00  0.00     0.173 A 
ATOM     85  F   UNL     1      -6.843  -3.556  14.574  1.00  0.00    -0.203 F 
ATOM     86  C   UNL     1      -8.806  -3.730  15.860  1.00  0.00     0.198 A 
ATOM     87  C   UNL     1     -10.872  -2.835  15.029  1.00  0.00     0.198 A 
ATOM     88  F   UNL     1     -10.951  -1.831  12.905  1.00  0.00    -0.203 F 
ATOM     89  F   UNL     1      -8.125  -4.392  16.805  1.00  0.00    -0.200 F 
ATOM     90  C   UNL     1     -10.162  -3.489  16.023  1.00  0.00     0.200 A 
ATOM     91  F   UNL     1     -12.178  -2.584  15.192  1.00  0.00    -0.200 F 
ATOM     92  F   UNL     1     -10.787  -3.896  17.137  1.00  0.00    -0.200 F 
ENDBRANCH  59  82
ENDBRANCH  33  34
ENDBRANCH  26  28
ENDBRANCH  25  26
ENDBRANCH  24  25
ENDBRANCH  23  24
ENDBRANCH  22  23
ENDBRANCH   1  22
TORSDOF 17
