REMARK SMILES COc1cc([N+](=O)[O-])cc2c1=N[C@H](C(=O)OCCOCCOC(=O)c1ccc(-c3c4nc(c(-c5c(F)c(F)c(F)c(F)c5F)c5ccc([nH]5)c(-c5c(F)c(F)c(F)c(F)c5F)c5nc(c(-c6c(F)c(F)c(F)c(F)c6F)c6ccc3[nH]6)C=C5)C=C4)cc1)C=2CC[NH3+]
REMARK SMILES IDX 18 1 17 2 16 3 14 4 15 5 13 6 3 7 4 8 11 9 5 10 10 11 12 12
REMARK SMILES IDX 9 13 88 14 2 15 1 16 6 17 7 18 8 19 89 20 90 21 91 22 19 26
REMARK SMILES IDX 20 27 21 28 22 29 23 30 24 31 25 32 26 33 87 34 27 35 86 36
REMARK SMILES IDX 28 37 29 38 30 39 80 40 31 41 85 42 79 43 81 44 32 45 84 46
REMARK SMILES IDX 78 47 77 48 33 50 65 51 45 52 64 53 46 54 49 55 63 56 82 57
REMARK SMILES IDX 47 58 48 59 62 61 83 62 50 63 34 64 35 65 43 66 36 67 37 68
REMARK SMILES IDX 41 69 44 70 38 71 39 72 42 73 40 74 66 75 67 76 75 77 68 78
REMARK SMILES IDX 69 79 73 80 76 81 70 82 71 83 74 84 72 85 51 86 52 87 60 88
REMARK SMILES IDX 53 89 54 90 58 91 61 92 55 93 56 94 59 95 57 96
REMARK H PARENT 91 23 91 24 91 25 81 49 49 60
REMARK Flexibility Score: inf
ROOT
ATOM      1  C   UNL     1      -3.044   2.581   6.981  1.00  0.00     0.202 C 
ENDROOT
BRANCH   1   2
ATOM      2  C   UNL     1      -3.887   1.943   5.875  1.00  0.00     0.261 C 
BRANCH   2   3
ATOM      3  O   UNL     1      -3.420   0.616   5.548  1.00  0.00    -0.461 OA
BRANCH   3   4
ATOM      4  C   UNL     1      -2.702   0.539   4.391  1.00  0.00     0.335 C 
ATOM      5  O   UNL     1      -2.433   1.520   3.704  1.00  0.00    -0.249 OA
BRANCH   4   6
ATOM      6  C   UNL     1      -2.236  -0.918   4.072  1.00  0.00     0.243 C 
ATOM      7  C   UNL     1       0.838  -0.556   2.110  1.00  0.00     0.151 A 
ATOM      8  C   UNL     1       2.083  -0.881   2.517  1.00  0.00     0.134 A 
ATOM      9  C   UNL     1      -0.295  -0.840   3.041  1.00  0.00     0.109 A 
ATOM     10  C   UNL     1       2.354  -1.501   3.811  1.00  0.00     0.273 A 
ATOM     11  C   UNL     1       0.049  -1.315   4.394  1.00  0.00     0.012 A 
ATOM     12  N   UNL     1      -1.558  -0.795   2.743  1.00  0.00    -0.261 NA
ATOM     13  C   UNL     1       1.387  -1.707   4.726  1.00  0.00     0.096 A 
ATOM     14  C   UNL     1      -1.151  -1.485   4.965  1.00  0.00    -0.019 C 
BRANCH   7  15
ATOM     15  O   UNL     1       0.494   0.060   0.931  1.00  0.00    -0.494 OA
ATOM     16  C   UNL     1       1.295  -0.214  -0.207  1.00  0.00     0.278 C 
ENDBRANCH   7  15
BRANCH  10  17
ATOM     17  N   UNL     1       3.718  -1.926   4.159  1.00  0.00     0.062 N 
ATOM     18  O   UNL     1       3.921  -2.381   5.293  1.00  0.00    -0.258 OA
ATOM     19  O   UNL     1       4.588  -1.803   3.286  1.00  0.00    -0.258 OA
ENDBRANCH  10  17
BRANCH  14  20
ATOM     20  C   UNL     1      -1.436  -2.423   6.111  1.00  0.00     0.096 C 
BRANCH  20  21
ATOM     21  C   UNL     1      -1.786  -1.819   7.471  1.00  0.00     0.263 C 
BRANCH  21  22
ATOM     22  N   UNL     1      -3.175  -1.391   7.535  1.00  0.00    -0.357 N 
ATOM     23  H   UNL     1      -3.342  -0.670   6.833  1.00  0.00     0.344 HD
ATOM     24  H   UNL     1      -3.372  -1.014   8.463  1.00  0.00     0.344 HD
ATOM     25  H   UNL     1      -3.786  -2.188   7.356  1.00  0.00     0.344 HD
ENDBRANCH  21  22
ENDBRANCH  20  21
ENDBRANCH  14  20
ENDBRANCH   4   6
ENDBRANCH   3   4
ENDBRANCH   2   3
ENDBRANCH   1   2
BRANCH   1  26
ATOM     26  O   UNL     1      -1.729   2.966   6.586  1.00  0.00    -0.374 OA
BRANCH  26  27
ATOM     27  C   UNL     1      -0.711   1.976   6.732  1.00  0.00     0.202 C 
BRANCH  27  28
ATOM     28  C   UNL     1      -0.114   1.900   8.143  1.00  0.00     0.261 C 
BRANCH  28  29
ATOM     29  O   UNL     1      -1.029   1.229   9.032  1.00  0.00    -0.460 OA
BRANCH  29  30
ATOM     30  C   UNL     1      -1.583   1.994  10.003  1.00  0.00     0.338 C 
ATOM     31  O   UNL     1      -1.279   3.134  10.308  1.00  0.00    -0.246 OA
BRANCH  30  32
ATOM     32  C   UNL     1      -2.795   1.312  10.511  1.00  0.00     0.060 A 
ATOM     33  C   UNL     1      -2.818  -0.053  10.811  1.00  0.00     0.016 A 
ATOM     34  C   UNL     1      -3.953   2.084  10.662  1.00  0.00     0.016 A 
ATOM     35  C   UNL     1      -4.001  -0.639  11.283  1.00  0.00     0.010 A 
ATOM     36  C   UNL     1      -5.126   1.502  11.142  1.00  0.00     0.010 A 
ATOM     37  C   UNL     1      -5.155   0.141  11.479  1.00  0.00    -0.014 A 
BRANCH  37  38
ATOM     38  C   UNL     1      -6.337  -0.394  12.203  1.00  0.00     0.031 A 
ATOM     39  C   UNL     1      -7.639  -0.672  11.513  1.00  0.00     0.074 A 
ATOM     40  C   UNL     1      -6.246  -0.534  13.539  1.00  0.00     0.049 A 
ATOM     41  N   UNL     1      -8.786  -1.034  12.034  1.00  0.00    -0.248 NA
ATOM     42  C   UNL     1      -7.663  -0.520  10.052  1.00  0.00     0.031 C 
ATOM     43  C   UNL     1      -5.043  -0.270  14.329  1.00  0.00     0.029 A 
ATOM     44  N   UNL     1      -7.182  -0.908  14.469  1.00  0.00    -0.354 N 
ATOM     45  C   UNL     1      -9.668  -1.160  10.970  1.00  0.00     0.074 A 
ATOM     46  C   UNL     1      -8.930  -0.805   9.774  1.00  0.00     0.031 C 
ATOM     47  C   UNL     1      -5.311  -0.496  15.624  1.00  0.00     0.029 A 
ATOM     48  C   UNL     1      -6.713  -0.877  15.759  1.00  0.00     0.049 A 
ATOM     49  H   UNL     1      -8.101  -1.172  14.235  1.00  0.00     0.167 HD
ATOM     50  C   UNL     1     -10.967  -1.547  10.993  1.00  0.00     0.037 A 
ATOM     51  C   UNL     1      -7.342  -1.110  16.926  1.00  0.00     0.037 A 
ATOM     52  C   UNL     1     -11.704  -1.888  12.186  1.00  0.00     0.049 A 
ATOM     53  C   UNL     1      -8.794  -1.487  16.925  1.00  0.00     0.074 A 
ATOM     54  C   UNL     1     -13.020  -2.309  12.296  1.00  0.00     0.029 A 
ATOM     55  N   UNL     1     -11.196  -1.842  13.476  1.00  0.00    -0.354 N 
ATOM     56  N   UNL     1      -9.609  -1.632  15.910  1.00  0.00    -0.248 NA
ATOM     57  C   UNL     1      -9.412  -1.736  18.234  1.00  0.00     0.031 C 
ATOM     58  C   UNL     1     -13.320  -2.478  13.652  1.00  0.00     0.029 A 
ATOM     59  C   UNL     1     -12.176  -2.212  14.386  1.00  0.00     0.049 A 
ATOM     60  H   UNL     1     -10.275  -1.585  13.711  1.00  0.00     0.167 HD
ATOM     61  C   UNL     1     -10.826  -2.017  16.452  1.00  0.00     0.074 A 
ATOM     62  C   UNL     1     -10.642  -2.091  17.887  1.00  0.00     0.031 C 
ATOM     63  C   UNL     1     -11.990  -2.289  15.813  1.00  0.00     0.037 A 
BRANCH  50  64
ATOM     64  C   UNL     1     -11.696  -1.634   9.683  1.00  0.00     0.064 A 
ATOM     65  C   UNL     1     -11.443  -2.676   8.778  1.00  0.00     0.173 A 
ATOM     66  C   UNL     1     -12.723  -0.730   9.373  1.00  0.00     0.173 A 
ATOM     67  F   UNL     1     -10.469  -3.564   9.026  1.00  0.00    -0.203 F 
ATOM     68  C   UNL     1     -12.185  -2.802   7.606  1.00  0.00     0.198 A 
ATOM     69  C   UNL     1     -13.479  -0.874   8.213  1.00  0.00     0.198 A 
ATOM     70  F   UNL     1     -13.012   0.277  10.211  1.00  0.00    -0.203 F 
ATOM     71  F   UNL     1     -11.912  -3.792   6.745  1.00  0.00    -0.200 F 
ATOM     72  C   UNL     1     -13.209  -1.908   7.330  1.00  0.00     0.200 A 
ATOM     73  F   UNL     1     -14.478  -0.018   7.955  1.00  0.00    -0.200 F 
ATOM     74  F   UNL     1     -13.935  -2.043   6.212  1.00  0.00    -0.200 F 
ENDBRANCH  50  64
BRANCH  51  75
ATOM     75  C   UNL     1      -6.575  -1.020  18.192  1.00  0.00     0.064 A 
ATOM     76  C   UNL     1      -6.231  -2.179  18.899  1.00  0.00     0.173 A 
ATOM     77  C   UNL     1      -6.140   0.213  18.698  1.00  0.00     0.173 A 
ATOM     78  F   UNL     1      -6.643  -3.378  18.460  1.00  0.00    -0.203 F 
ATOM     79  C   UNL     1      -5.482  -2.108  20.071  1.00  0.00     0.198 A 
ATOM     80  C   UNL     1      -5.370   0.280  19.856  1.00  0.00     0.198 A 
ATOM     81  F   UNL     1      -6.440   1.348  18.050  1.00  0.00    -0.203 F 
ATOM     82  F   UNL     1      -5.189  -3.229  20.744  1.00  0.00    -0.200 F 
ATOM     83  C   UNL     1      -5.045  -0.880  20.544  1.00  0.00     0.200 A 
ATOM     84  F   UNL     1      -4.935   1.467  20.301  1.00  0.00    -0.200 F 
ATOM     85  F   UNL     1      -4.311  -0.814  21.663  1.00  0.00    -0.200 F 
ENDBRANCH  51  75
BRANCH  63  86
ATOM     86  C   UNL     1     -13.151  -2.734  16.654  1.00  0.00     0.064 A 
ATOM     87  C   UNL     1     -13.842  -1.843  17.489  1.00  0.00     0.173 A 
ATOM     88  C   UNL     1     -13.595  -4.064  16.603  1.00  0.00     0.173 A 
ATOM     89  F   UNL     1     -13.446  -0.565  17.587  1.00  0.00    -0.203 F 
ATOM     90  C   UNL     1     -14.919  -2.274  18.259  1.00  0.00     0.198 A 
ATOM     91  C   UNL     1     -14.690  -4.485  17.353  1.00  0.00     0.198 A 
ATOM     92  F   UNL     1     -12.972  -4.955  15.818  1.00  0.00    -0.203 F 
ATOM     93  F   UNL     1     -15.536  -1.417  19.085  1.00  0.00    -0.200 F 
ATOM     94  C   UNL     1     -15.346  -3.592  18.186  1.00  0.00     0.200 A 
ATOM     95  F   UNL     1     -15.107  -5.756  17.273  1.00  0.00    -0.200 F 
ATOM     96  F   UNL     1     -16.386  -4.003  18.925  1.00  0.00    -0.200 F 
ENDBRANCH  63  86
ENDBRANCH  37  38
ENDBRANCH  30  32
ENDBRANCH  29  30
ENDBRANCH  28  29
ENDBRANCH  27  28
ENDBRANCH  26  27
ENDBRANCH   1  26
TORSDOF 19
