REMARK SMILES O=C(OCCOCCOC(=O)c1cccc(OS(=O)(=O)c2cccc([N+](=O)[O-])c2)c1)c1ccc(-c2c3nc(c(-c4c(F)c(F)c(F)c(F)c4F)c4ccc([nH]4)c(-c4c(F)c(F)c(F)c(F)c4F)c4nc(c(-c5c(F)c(F)c(F)c(F)c5F)c5ccc2[nH]5)C=C4)C=C3)cc1
REMARK SMILES IDX 7 1 6 2 5 3 4 4 3 5 2 6 1 7 31 8 32 9 93 10 33 11 92 12
REMARK SMILES IDX 34 13 35 14 36 15 86 16 37 17 91 18 85 19 87 20 38 21 90 22
REMARK SMILES IDX 84 23 83 24 39 26 71 27 51 28 70 29 52 30 55 31 69 32 88 33
REMARK SMILES IDX 53 34 54 35 68 37 89 38 56 39 40 40 41 41 49 42 42 43 43 44
REMARK SMILES IDX 47 45 50 46 44 47 45 48 48 49 46 50 72 51 73 52 81 53 74 54
REMARK SMILES IDX 75 55 79 56 82 57 76 58 77 59 80 60 78 61 57 62 58 63 66 64
REMARK SMILES IDX 59 65 60 66 64 67 67 68 61 69 62 70 65 71 63 72 8 73 9 74
REMARK SMILES IDX 10 75 11 76 12 77 13 78 30 79 14 80 16 81 15 82 17 83 18 84
REMARK SMILES IDX 19 85 20 86 21 87 22 88 29 89 23 90 25 91 24 92 26 93 27 94
REMARK SMILES IDX 28 95
REMARK H PARENT 87 25 55 36
REMARK Flexibility Score: inf
ROOT
ATOM      1  C   UNL     1       2.744  -2.115   0.373  1.00  0.00     0.202 C 
ENDROOT
BRANCH   1   2
ATOM      2  O   UNL     1       4.030  -1.504   0.482  1.00  0.00    -0.374 OA
BRANCH   2   3
ATOM      3  C   UNL     1       4.259  -0.661   1.606  1.00  0.00     0.202 C 
BRANCH   3   4
ATOM      4  C   UNL     1       3.991   0.813   1.307  1.00  0.00     0.261 C 
BRANCH   4   5
ATOM      5  O   UNL     1       2.618   0.994   0.925  1.00  0.00    -0.460 OA
BRANCH   5   6
ATOM      6  C   UNL     1       2.099   1.105  -0.318  1.00  0.00     0.338 C 
ATOM      7  O   UNL     1       0.881   1.236  -0.435  1.00  0.00    -0.246 OA
BRANCH   6   8
ATOM      8  C   UNL     1       2.914   1.095  -1.572  1.00  0.00     0.060 A 
ATOM      9  C   UNL     1       4.127   0.425  -1.739  1.00  0.00     0.016 A 
ATOM     10  C   UNL     1       2.355   1.726  -2.696  1.00  0.00     0.016 A 
ATOM     11  C   UNL     1       4.782   0.392  -2.957  1.00  0.00     0.010 A 
ATOM     12  C   UNL     1       2.997   1.685  -3.937  1.00  0.00     0.010 A 
ATOM     13  C   UNL     1       4.218   1.016  -4.061  1.00  0.00    -0.014 A 
BRANCH  13  14
ATOM     14  C   UNL     1       5.011   1.033  -5.297  1.00  0.00     0.031 A 
ATOM     15  C   UNL     1       5.773   2.274  -5.624  1.00  0.00     0.074 A 
ATOM     16  C   UNL     1       5.153  -0.102  -6.002  1.00  0.00     0.049 A 
ATOM     17  N   UNL     1       6.518   2.541  -6.661  1.00  0.00    -0.248 NA
ATOM     18  C   UNL     1       5.701   3.362  -4.633  1.00  0.00     0.031 C 
ATOM     19  C   UNL     1       4.551  -1.391  -5.649  1.00  0.00     0.029 A 
ATOM     20  N   UNL     1       5.873  -0.367  -7.134  1.00  0.00    -0.354 N 
ATOM     21  C   UNL     1       6.977   3.835  -6.464  1.00  0.00     0.074 A 
ATOM     22  C   UNL     1       6.433   4.302  -5.210  1.00  0.00     0.031 C 
ATOM     23  C   UNL     1       4.937  -2.313  -6.545  1.00  0.00     0.029 A 
ATOM     24  C   UNL     1       5.750  -1.664  -7.566  1.00  0.00     0.049 A 
ATOM     25  H   UNL     1       6.424   0.306  -7.593  1.00  0.00     0.167 HD
ATOM     26  C   UNL     1       7.772   4.562  -7.280  1.00  0.00     0.037 A 
ATOM     27  C   UNL     1       6.213  -2.237  -8.692  1.00  0.00     0.037 A 
ATOM     28  C   UNL     1       8.288   4.055  -8.523  1.00  0.00     0.049 A 
ATOM     29  C   UNL     1       7.014  -1.377  -9.632  1.00  0.00     0.074 A 
ATOM     30  C   UNL     1       9.048   4.702  -9.477  1.00  0.00     0.029 A 
ATOM     31  N   UNL     1       8.083   2.757  -8.980  1.00  0.00    -0.354 N 
ATOM     32  N   UNL     1       7.388  -0.126  -9.490  1.00  0.00    -0.248 NA
ATOM     33  C   UNL     1       7.444  -1.993 -10.891  1.00  0.00     0.031 C 
ATOM     34  C   UNL     1       9.260   3.811 -10.535  1.00  0.00     0.029 A 
ATOM     35  C   UNL     1       8.683   2.590 -10.215  1.00  0.00     0.049 A 
ATOM     36  H   UNL     1       7.585   2.060  -8.495  1.00  0.00     0.167 HD
ATOM     37  C   UNL     1       8.106   0.194 -10.632  1.00  0.00     0.074 A 
ATOM     38  C   UNL     1       8.134  -1.007 -11.447  1.00  0.00     0.031 C 
ATOM     39  C   UNL     1       8.685   1.369 -10.984  1.00  0.00     0.037 A 
BRANCH  26  40
ATOM     40  C   UNL     1       8.031   5.985  -6.885  1.00  0.00     0.064 A 
ATOM     41  C   UNL     1       8.834   6.324  -5.786  1.00  0.00     0.173 A 
ATOM     42  C   UNL     1       7.408   7.029  -7.586  1.00  0.00     0.173 A 
ATOM     43  F   UNL     1       9.426   5.363  -5.060  1.00  0.00    -0.203 F 
ATOM     44  C   UNL     1       8.972   7.651  -5.381  1.00  0.00     0.198 A 
ATOM     45  C   UNL     1       7.571   8.355  -7.197  1.00  0.00     0.198 A 
ATOM     46  F   UNL     1       6.620   6.761  -8.638  1.00  0.00    -0.203 F 
ATOM     47  F   UNL     1       9.685   7.944  -4.284  1.00  0.00    -0.200 F 
ATOM     48  C   UNL     1       8.343   8.664  -6.087  1.00  0.00     0.200 A 
ATOM     49  F   UNL     1       6.963   9.333  -7.882  1.00  0.00    -0.200 F 
ATOM     50  F   UNL     1       8.464   9.938  -5.687  1.00  0.00    -0.200 F 
ENDBRANCH  26  40
BRANCH  27  51
ATOM     51  C   UNL     1       5.873  -3.650  -9.009  1.00  0.00     0.064 A 
ATOM     52  C   UNL     1       6.860  -4.641  -9.097  1.00  0.00     0.173 A 
ATOM     53  C   UNL     1       4.543  -4.041  -9.236  1.00  0.00     0.173 A 
ATOM     54  F   UNL     1       8.149  -4.321  -8.912  1.00  0.00    -0.203 F 
ATOM     55  C   UNL     1       6.532  -5.960  -9.411  1.00  0.00     0.198 A 
ATOM     56  C   UNL     1       4.213  -5.365  -9.518  1.00  0.00     0.198 A 
ATOM     57  F   UNL     1       3.555  -3.135  -9.170  1.00  0.00    -0.203 F 
ATOM     58  F   UNL     1       7.501  -6.878  -9.534  1.00  0.00    -0.200 F 
ATOM     59  C   UNL     1       5.209  -6.322  -9.614  1.00  0.00     0.200 A 
ATOM     60  F   UNL     1       2.930  -5.710  -9.698  1.00  0.00    -0.200 F 
ATOM     61  F   UNL     1       4.895  -7.591  -9.912  1.00  0.00    -0.200 F 
ENDBRANCH  27  51
BRANCH  39  62
ATOM     62  C   UNL     1       9.417   1.393 -12.292  1.00  0.00     0.064 A 
ATOM     63  C   UNL     1       8.733   1.389 -13.515  1.00  0.00     0.173 A 
ATOM     64  C   UNL     1      10.817   1.478 -12.314  1.00  0.00     0.173 A 
ATOM     65  F   UNL     1       7.395   1.293 -13.542  1.00  0.00    -0.203 F 
ATOM     66  C   UNL     1       9.429   1.450 -14.719  1.00  0.00     0.198 A 
ATOM     67  C   UNL     1      11.506   1.571 -13.518  1.00  0.00     0.198 A 
ATOM     68  F   UNL     1      11.512   1.492 -11.167  1.00  0.00    -0.203 F 
ATOM     69  F   UNL     1       8.760   1.401 -15.879  1.00  0.00    -0.200 F 
ATOM     70  C   UNL     1      10.812   1.550 -14.719  1.00  0.00     0.200 A 
ATOM     71  F   UNL     1      12.841   1.685 -13.516  1.00  0.00    -0.200 F 
ATOM     72  F   UNL     1      11.479   1.623 -15.878  1.00  0.00    -0.200 F 
ENDBRANCH  39  62
ENDBRANCH  13  14
ENDBRANCH   6   8
ENDBRANCH   5   6
ENDBRANCH   4   5
ENDBRANCH   3   4
ENDBRANCH   2   3
ENDBRANCH   1   2
BRANCH   1  73
ATOM     73  C   UNL     1       2.953  -3.589   0.011  1.00  0.00     0.261 C 
BRANCH  73  74
ATOM     74  O   UNL     1       3.614  -4.224   1.111  1.00  0.00    -0.460 OA
BRANCH  74  75
ATOM     75  C   UNL     1       4.943  -3.970   1.243  1.00  0.00     0.338 C 
ATOM     76  O   UNL     1       5.744  -3.754   0.350  1.00  0.00    -0.246 OA
BRANCH  75  77
ATOM     77  C   UNL     1       5.244  -3.852   2.694  1.00  0.00     0.063 A 
ATOM     78  C   UNL     1       6.427  -3.265   3.142  1.00  0.00     0.016 A 
ATOM     79  C   UNL     1       4.321  -4.323   3.627  1.00  0.00     0.064 A 
ATOM     80  C   UNL     1       6.684  -3.194   4.515  1.00  0.00     0.005 A 
ATOM     81  C   UNL     1       4.637  -4.403   4.978  1.00  0.00     0.143 A 
ATOM     82  C   UNL     1       5.803  -3.788   5.431  1.00  0.00     0.048 A 
BRANCH  81  83
ATOM     83  O   UNL     1       3.881  -5.125   5.875  1.00  0.00    -0.379 OA
BRANCH  83  84
ATOM     84  S   UNL     1       2.709  -6.147   5.338  1.00  0.00     0.339 S 
ATOM     85  O   UNL     1       1.437  -5.454   5.381  1.00  0.00    -0.181 OA
ATOM     86  O   UNL     1       3.154  -6.809   4.124  1.00  0.00    -0.181 OA
BRANCH  84  87
ATOM     87  C   UNL     1       2.614  -7.446   6.537  1.00  0.00     0.112 A 
ATOM     88  C   UNL     1       2.481  -7.146   7.891  1.00  0.00     0.024 A 
ATOM     89  C   UNL     1       2.640  -8.771   6.080  1.00  0.00     0.109 A 
ATOM     90  C   UNL     1       2.366  -8.193   8.807  1.00  0.00     0.009 A 
ATOM     91  C   UNL     1       2.526  -9.809   7.004  1.00  0.00     0.270 A 
ATOM     92  C   UNL     1       2.388  -9.524   8.369  1.00  0.00     0.086 A 
BRANCH  91  93
ATOM     93  N   UNL     1       2.544 -11.200   6.534  1.00  0.00     0.062 N 
ATOM     94  O   UNL     1       2.487 -12.095   7.388  1.00  0.00    -0.258 OA
ATOM     95  O   UNL     1       2.619 -11.394   5.313  1.00  0.00    -0.258 OA
ENDBRANCH  91  93
ENDBRANCH  84  87
ENDBRANCH  83  84
ENDBRANCH  81  83
ENDBRANCH  75  77
ENDBRANCH  74  75
ENDBRANCH  73  74
ENDBRANCH   1  73
TORSDOF 18
