REMARK SMILES O=C(COc1ccc(N2C[C@@H](C(=O)OCCOCCOC(=O)c3ccc(-c4c5nc(c(-c6c(F)c(F)c(F)c(F)c6F)c6ccc([nH]6)c(-c6c(F)c(F)c(F)c(F)c6F)c6nc(c(-c7c(F)c(F)c(F)c(F)c7F)c7ccc4[nH]7)C=C6)C=C5)cc3)CC2=O)cc1)Nc1ccc(Cl)cc1Cl
REMARK SMILES IDX 15 1 14 2 12 3 13 4 11 5 9 6 10 7 87 8 86 9 88 10 8 11 5 12
REMARK SMILES IDX 6 13 90 14 7 15 89 16 4 17 3 18 2 19 1 20 91 21 92 23 93 24
REMARK SMILES IDX 98 25 94 26 97 27 99 28 95 29 96 30 16 31 17 32 18 33 19 34
REMARK SMILES IDX 20 35 21 36 22 37 23 38 24 39 85 40 25 41 84 42 26 43 27 44
REMARK SMILES IDX 28 45 78 46 29 47 83 48 77 49 79 50 30 51 82 52 76 53 75 54
REMARK SMILES IDX 31 56 63 57 43 58 62 59 44 60 47 61 61 62 80 63 45 64 46 65
REMARK SMILES IDX 60 67 81 68 48 69 32 70 33 71 41 72 34 73 35 74 39 75 42 76
REMARK SMILES IDX 36 77 37 78 40 79 38 80 64 81 65 82 73 83 66 84 67 85 71 86
REMARK SMILES IDX 74 87 68 88 69 89 72 90 70 91 49 92 50 93 58 94 51 95 52 96
REMARK SMILES IDX 56 97 59 98 53 99 54 100 57 101 55 102
REMARK H PARENT 91 22 79 55 47 66
REMARK Flexibility Score: inf
ROOT
ATOM      1  C   UNL     1      -2.135  -6.382   7.437  1.00  0.00     0.261 C 
ENDROOT
BRANCH   1   2
ATOM      2  O   UNL     1      -1.133  -6.249   6.418  1.00  0.00    -0.463 OA
BRANCH   2   3
ATOM      3  C   UNL     1       0.100  -5.875   6.836  1.00  0.00     0.311 C 
ATOM      4  O   UNL     1       0.369  -5.449   7.952  1.00  0.00    -0.252 OA
BRANCH   3   5
ATOM      5  C   UNL     1       1.151  -6.044   5.770  1.00  0.00     0.128 C 
ATOM      6  N   UNL     1       1.988  -4.775   3.989  1.00  0.00    -0.312 N 
ATOM      7  C   UNL     1       1.641  -4.667   5.381  1.00  0.00     0.141 C 
ATOM      8  C   UNL     1       1.485  -5.940   3.410  1.00  0.00     0.227 C 
ATOM      9  C   UNL     1       0.725  -6.696   4.460  1.00  0.00     0.117 C 
ATOM     10  O   UNL     1       1.593  -6.331   2.257  1.00  0.00    -0.274 OA
BRANCH   6  11
ATOM     11  C   UNL     1       2.551  -3.692   3.284  1.00  0.00     0.044 A 
ATOM     12  C   UNL     1       3.549  -1.470   1.887  1.00  0.00     0.120 A 
ATOM     13  C   UNL     1       3.951  -1.700   3.199  1.00  0.00     0.048 A 
ATOM     14  C   UNL     1       2.681  -2.363   1.267  1.00  0.00     0.048 A 
ATOM     15  C   UNL     1       3.431  -2.793   3.904  1.00  0.00     0.030 A 
ATOM     16  C   UNL     1       2.195  -3.469   1.956  1.00  0.00     0.030 A 
BRANCH  12  17
ATOM     17  O   UNL     1       4.107  -0.422   1.204  1.00  0.00    -0.484 OA
BRANCH  17  18
ATOM     18  C   UNL     1       3.165   0.625   0.945  1.00  0.00     0.329 C 
BRANCH  18  19
ATOM     19  C   UNL     1       2.246   0.359  -0.253  1.00  0.00     0.262 C 
ATOM     20  O   UNL     1       1.052   0.634  -0.207  1.00  0.00    -0.271 OA
ATOM     21  N   UNL     1       2.905  -0.305  -1.283  1.00  0.00    -0.322 N 
ATOM     22  H   UNL     1       3.888  -0.348  -1.247  1.00  0.00     0.170 HD
BRANCH  21  23
ATOM     23  C   UNL     1       2.257  -0.922  -2.377  1.00  0.00     0.060 A 
ATOM     24  C   UNL     1       2.698  -2.221  -2.684  1.00  0.00     0.029 A 
ATOM     25  C   UNL     1       1.203  -0.370  -3.126  1.00  0.00     0.066 A 
ATOM     26  C   UNL     1       2.039  -2.990  -3.645  1.00  0.00     0.023 A 
ATOM     27  C   UNL     1       0.547  -1.144  -4.091  1.00  0.00     0.043 A 
ATOM     28  Cl  UNL     1       0.776   1.305  -3.060  1.00  0.00    -0.082 Cl
ATOM     29  C   UNL     1       0.955  -2.453  -4.332  1.00  0.00     0.042 A 
ATOM     30  Cl  UNL     1       0.133  -3.405  -5.505  1.00  0.00    -0.084 Cl
ENDBRANCH  21  23
ENDBRANCH  18  19
ENDBRANCH  17  18
ENDBRANCH  12  17
ENDBRANCH   6  11
ENDBRANCH   3   5
ENDBRANCH   2   3
ENDBRANCH   1   2
BRANCH   1  31
ATOM     31  C   UNL     1      -2.653  -7.821   7.494  1.00  0.00     0.202 C 
BRANCH  31  32
ATOM     32  O   UNL     1      -1.687  -8.824   7.807  1.00  0.00    -0.374 OA
BRANCH  32  33
ATOM     33  C   UNL     1      -0.798  -9.243   6.771  1.00  0.00     0.202 C 
BRANCH  33  34
ATOM     34  C   UNL     1      -1.382 -10.138   5.671  1.00  0.00     0.261 C 
BRANCH  34  35
ATOM     35  O   UNL     1      -2.358  -9.451   4.866  1.00  0.00    -0.460 OA
BRANCH  35  36
ATOM     36  C   UNL     1      -3.612  -9.955   4.948  1.00  0.00     0.338 C 
ATOM     37  O   UNL     1      -3.974 -10.947   5.566  1.00  0.00    -0.246 OA
BRANCH  36  38
ATOM     38  C   UNL     1      -4.577  -9.038   4.319  1.00  0.00     0.060 A 
ATOM     39  C   UNL     1      -5.644  -8.585   5.107  1.00  0.00     0.016 A 
ATOM     40  C   UNL     1      -4.504  -8.707   2.965  1.00  0.00     0.016 A 
ATOM     41  C   UNL     1      -6.669  -7.838   4.532  1.00  0.00     0.010 A 
ATOM     42  C   UNL     1      -5.540  -7.964   2.386  1.00  0.00     0.010 A 
ATOM     43  C   UNL     1      -6.643  -7.557   3.160  1.00  0.00    -0.014 A 
BRANCH  43  44
ATOM     44  C   UNL     1      -7.837  -6.956   2.517  1.00  0.00     0.031 A 
ATOM     45  C   UNL     1      -8.818  -7.851   1.812  1.00  0.00     0.074 A 
ATOM     46  C   UNL     1      -8.057  -5.631   2.582  1.00  0.00     0.049 A 
ATOM     47  N   UNL     1      -9.911  -7.538   1.162  1.00  0.00    -0.248 NA
ATOM     48  C   UNL     1      -8.530  -9.293   1.843  1.00  0.00     0.031 C 
ATOM     49  C   UNL     1      -7.196  -4.666   3.262  1.00  0.00     0.029 A 
ATOM     50  N   UNL     1      -9.070  -4.869   2.057  1.00  0.00    -0.354 N 
ATOM     51  C   UNL     1     -10.433  -8.739   0.700  1.00  0.00     0.074 A 
ATOM     52  C   UNL     1      -9.529  -9.786   1.125  1.00  0.00     0.031 C 
ATOM     53  C   UNL     1      -7.708  -3.434   3.097  1.00  0.00     0.029 A 
ATOM     54  C   UNL     1      -8.915  -3.523   2.277  1.00  0.00     0.049 A 
ATOM     55  H   UNL     1      -9.835  -5.251   1.569  1.00  0.00     0.167 HD
ATOM     56  C   UNL     1     -11.566  -8.947  -0.010  1.00  0.00     0.037 A 
ATOM     57  C   UNL     1      -9.651  -2.481   1.842  1.00  0.00     0.037 A 
ATOM     58  C   UNL     1     -12.471  -7.907  -0.421  1.00  0.00     0.049 A 
ATOM     59  C   UNL     1     -10.877  -2.738   1.005  1.00  0.00     0.074 A 
ATOM     60  C   UNL     1     -13.672  -8.025  -1.099  1.00  0.00     0.029 A 
ATOM     61  N   UNL     1     -12.268  -6.553  -0.201  1.00  0.00    -0.354 N 
ATOM     62  N   UNL     1     -11.390  -3.880   0.616  1.00  0.00    -0.248 NA
ATOM     63  C   UNL     1     -11.627  -1.559   0.548  1.00  0.00     0.031 C 
ATOM     64  C   UNL     1     -14.170  -6.740  -1.334  1.00  0.00     0.029 A 
ATOM     65  C   UNL     1     -13.304  -5.823  -0.761  1.00  0.00     0.049 A 
ATOM     66  H   UNL     1     -11.500  -6.168   0.280  1.00  0.00     0.167 HD
ATOM     67  C   UNL     1     -12.531  -3.560  -0.109  1.00  0.00     0.074 A 
ATOM     68  C   UNL     1     -12.645  -2.117  -0.093  1.00  0.00     0.031 C 
ATOM     69  C   UNL     1     -13.406  -4.387  -0.732  1.00  0.00     0.037 A 
BRANCH  56  70
ATOM     70  C   UNL     1     -11.886 -10.356  -0.413  1.00  0.00     0.064 A 
ATOM     71  C   UNL     1     -12.349 -11.302   0.513  1.00  0.00     0.173 A 
ATOM     72  C   UNL     1     -11.779 -10.748  -1.756  1.00  0.00     0.173 A 
ATOM     73  F   UNL     1     -12.457 -10.979   1.810  1.00  0.00    -0.203 F 
ATOM     74  C   UNL     1     -12.675 -12.595   0.112  1.00  0.00     0.198 A 
ATOM     75  C   UNL     1     -12.129 -12.034  -2.158  1.00  0.00     0.198 A 
ATOM     76  F   UNL     1     -11.345  -9.878  -2.682  1.00  0.00    -0.203 F 
ATOM     77  F   UNL     1     -13.083 -13.493   1.018  1.00  0.00    -0.200 F 
ATOM     78  C   UNL     1     -12.573 -12.957  -1.224  1.00  0.00     0.200 A 
ATOM     79  F   UNL     1     -12.040 -12.378  -3.450  1.00  0.00    -0.200 F 
ATOM     80  F   UNL     1     -12.897 -14.199  -1.609  1.00  0.00    -0.200 F 
ENDBRANCH  56  70
BRANCH  57  81
ATOM     81  C   UNL     1      -9.236  -1.092   2.168  1.00  0.00     0.064 A 
ATOM     82  C   UNL     1      -9.995  -0.292   3.032  1.00  0.00     0.173 A 
ATOM     83  C   UNL     1      -8.084  -0.529   1.599  1.00  0.00     0.173 A 
ATOM     84  F   UNL     1     -11.119  -0.777   3.580  1.00  0.00    -0.203 F 
ATOM     85  C   UNL     1      -9.629   1.026   3.299  1.00  0.00     0.198 A 
ATOM     86  C   UNL     1      -7.704   0.780   1.888  1.00  0.00     0.198 A 
ATOM     87  F   UNL     1      -7.325  -1.253   0.763  1.00  0.00    -0.203 F 
ATOM     88  F   UNL     1     -10.399   1.786   4.091  1.00  0.00    -0.200 F 
ATOM     89  C   UNL     1      -8.481   1.559   2.731  1.00  0.00     0.200 A 
ATOM     90  F   UNL     1      -6.589   1.287   1.345  1.00  0.00    -0.200 F 
ATOM     91  F   UNL     1      -8.130   2.826   2.989  1.00  0.00    -0.200 F 
ENDBRANCH  57  81
BRANCH  69  92
ATOM     92  C   UNL     1     -14.578  -3.756  -1.425  1.00  0.00     0.064 A 
ATOM     93  C   UNL     1     -14.428  -3.059  -2.633  1.00  0.00     0.173 A 
ATOM     94  C   UNL     1     -15.872  -3.891  -0.899  1.00  0.00     0.173 A 
ATOM     95  F   UNL     1     -13.210  -2.891  -3.168  1.00  0.00    -0.203 F 
ATOM     96  C   UNL     1     -15.529  -2.502  -3.278  1.00  0.00     0.198 A 
ATOM     97  C   UNL     1     -16.973  -3.356  -1.561  1.00  0.00     0.198 A 
ATOM     98  F   UNL     1     -16.069  -4.554   0.250  1.00  0.00    -0.203 F 
ATOM     99  F   UNL     1     -15.358  -1.804  -4.409  1.00  0.00    -0.200 F 
ATOM    100  C   UNL     1     -16.801  -2.657  -2.746  1.00  0.00     0.200 A 
ATOM    101  F   UNL     1     -18.203  -3.518  -1.052  1.00  0.00    -0.200 F 
ATOM    102  F   UNL     1     -17.860  -2.127  -3.372  1.00  0.00    -0.200 F 
ENDBRANCH  69  92
ENDBRANCH  43  44
ENDBRANCH  36  38
ENDBRANCH  35  36
ENDBRANCH  34  35
ENDBRANCH  33  34
ENDBRANCH  32  33
ENDBRANCH  31  32
ENDBRANCH   1  31
TORSDOF 19
