REMARK SMILES CCOc1cc(NC(=O)c2c(C(=O)OCCOCCOC(=O)c3ccc(-c4c5nc(c(-c6c(F)c(F)c(F)c(F)c6F)c6ccc([nH]6)c(-c6c(F)c(F)c(F)c(F)c6F)c6nc(c(-c7c(F)c(F)c(F)c(F)c7F)c7ccc4[nH]7)C=C6)C=C5)cc3)cnn2C)ccc1OC(F)F
REMARK SMILES IDX 16 1 15 2 14 3 12 4 13 5 11 6 10 7 88 8 86 9 87 10 89 11
REMARK SMILES IDX 8 12 7 13 9 15 6 16 4 17 5 18 92 19 91 20 90 21 3 22 2 23
REMARK SMILES IDX 1 24 93 25 94 26 95 27 96 28 17 29 18 30 19 31 20 32 21 33
REMARK SMILES IDX 22 34 23 35 24 36 85 37 25 38 84 39 26 40 27 41 28 42 78 43
REMARK SMILES IDX 29 44 83 45 77 46 79 47 30 48 82 49 76 50 75 51 31 53 63 54
REMARK SMILES IDX 43 55 62 56 44 57 47 58 61 59 80 60 45 61 46 62 60 64 81 65
REMARK SMILES IDX 48 66 32 67 33 68 41 69 34 70 35 71 39 72 42 73 36 74 37 75
REMARK SMILES IDX 40 76 38 77 64 78 65 79 73 80 66 81 67 82 71 83 74 84 68 85
REMARK SMILES IDX 69 86 72 87 70 88 49 89 50 90 58 91 51 92 52 93 56 94 59 95
REMARK SMILES IDX 53 96 54 97 57 98 55 99
REMARK H PARENT 7 14 79 52 47 63
REMARK Flexibility Score: inf
ROOT
ATOM      1  C   UNL     1       1.291   2.708   9.499  1.00  0.00     0.202 C 
ENDROOT
BRANCH   1   2
ATOM      2  C   UNL     1       1.754   1.316   9.934  1.00  0.00     0.261 C 
BRANCH   2   3
ATOM      3  O   UNL     1       2.026   0.489   8.791  1.00  0.00    -0.460 OA
BRANCH   3   4
ATOM      4  C   UNL     1       1.151  -0.540   8.593  1.00  0.00     0.342 C 
ATOM      5  O   UNL     1       0.250  -0.835   9.357  1.00  0.00    -0.246 OA
BRANCH   4   6
ATOM      6  C   UNL     1       1.321  -1.224   7.318  1.00  0.00     0.111 A 
ATOM      7  C   UNL     1       2.391  -1.266   6.422  1.00  0.00     0.140 A 
ATOM      8  N   UNL     1       2.033  -2.240   5.516  1.00  0.00    -0.262 N 
ATOM      9  C   UNL     1       0.327  -2.030   6.722  1.00  0.00     0.151 A 
ATOM     10  N   UNL     1       0.736  -2.591   5.586  1.00  0.00    -0.180 NA
ATOM     11  C   UNL     1       2.877  -2.977   4.603  1.00  0.00     0.174 C 
BRANCH   7  12
ATOM     12  C   UNL     1       3.684  -0.649   6.525  1.00  0.00     0.274 C 
ATOM     13  N   UNL     1       4.332  -0.094   5.445  1.00  0.00    -0.321 N 
ATOM     14  H   UNL     1       5.272   0.115   5.653  1.00  0.00     0.170 HD
ATOM     15  O   UNL     1       4.311  -0.643   7.587  1.00  0.00    -0.267 OA
BRANCH  13  16
ATOM     16  C   UNL     1       4.003   0.252   4.120  1.00  0.00     0.045 A 
ATOM     17  C   UNL     1       2.537   0.606   2.198  1.00  0.00     0.163 A 
ATOM     18  C   UNL     1       2.729   0.242   3.551  1.00  0.00     0.076 A 
ATOM     19  C   UNL     1       3.609   1.075   1.431  1.00  0.00     0.168 A 
ATOM     20  C   UNL     1       4.878   1.105   2.012  1.00  0.00     0.053 A 
ATOM     21  C   UNL     1       5.075   0.684   3.329  1.00  0.00     0.030 A 
BRANCH  17  22
ATOM     22  O   UNL     1       1.275   0.603   1.666  1.00  0.00    -0.490 OA
BRANCH  22  23
ATOM     23  C   UNL     1       0.629  -0.676   1.736  1.00  0.00     0.226 C 
ATOM     24  C   UNL     1      -0.308  -0.813   0.547  1.00  0.00     0.049 C 
ENDBRANCH  22  23
ENDBRANCH  17  22
BRANCH  19  25
ATOM     25  O   UNL     1       3.590   1.594   0.169  1.00  0.00    -0.431 OA
BRANCH  25  26
ATOM     26  C   UNL     1       2.644   1.112  -0.774  1.00  0.00     0.542 C 
ATOM     27  F   UNL     1       2.520  -0.232  -0.684  1.00  0.00    -0.167 F 
ATOM     28  F   UNL     1       1.441   1.697  -0.583  1.00  0.00    -0.167 F 
ENDBRANCH  25  26
ENDBRANCH  19  25
ENDBRANCH  13  16
ENDBRANCH   7  12
ENDBRANCH   4   6
ENDBRANCH   3   4
ENDBRANCH   2   3
ENDBRANCH   1   2
BRANCH   1  29
ATOM     29  O   UNL     1       0.069   2.730   8.761  1.00  0.00    -0.374 OA
BRANCH  29  30
ATOM     30  C   UNL     1       0.168   2.497   7.353  1.00  0.00     0.202 C 
BRANCH  30  31
ATOM     31  C   UNL     1       0.575   3.717   6.520  1.00  0.00     0.261 C 
BRANCH  31  32
ATOM     32  O   UNL     1       1.963   4.045   6.728  1.00  0.00    -0.460 OA
BRANCH  32  33
ATOM     33  C   UNL     1       2.185   5.225   7.353  1.00  0.00     0.338 C 
ATOM     34  O   UNL     1       1.359   6.069   7.659  1.00  0.00    -0.246 OA
BRANCH  33  35
ATOM     35  C   UNL     1       3.594   5.309   7.788  1.00  0.00     0.060 A 
ATOM     36  C   UNL     1       3.836   5.720   9.105  1.00  0.00     0.016 A 
ATOM     37  C   UNL     1       4.658   5.062   6.917  1.00  0.00     0.016 A 
ATOM     38  C   UNL     1       5.141   5.939   9.541  1.00  0.00     0.010 A 
ATOM     39  C   UNL     1       5.969   5.292   7.354  1.00  0.00     0.010 A 
ATOM     40  C   UNL     1       6.213   5.765   8.656  1.00  0.00    -0.014 A 
BRANCH  40  41
ATOM     41  C   UNL     1       7.567   6.224   9.051  1.00  0.00     0.031 A 
ATOM     42  C   UNL     1       8.032   7.585   8.613  1.00  0.00     0.074 A 
ATOM     43  C   UNL     1       8.357   5.458   9.824  1.00  0.00     0.049 A 
ATOM     44  N   UNL     1       9.182   8.176   8.816  1.00  0.00    -0.248 NA
ATOM     45  C   UNL     1       7.069   8.389   7.844  1.00  0.00     0.031 C 
ATOM     46  C   UNL     1       8.005   4.140  10.347  1.00  0.00     0.029 A 
ATOM     47  N   UNL     1       9.626   5.682  10.297  1.00  0.00    -0.354 N 
ATOM     48  C   UNL     1       9.078   9.421   8.210  1.00  0.00     0.074 A 
ATOM     49  C   UNL     1       7.767   9.489   7.601  1.00  0.00     0.031 C 
ATOM     50  C   UNL     1       9.042   3.663  11.058  1.00  0.00     0.029 A 
ATOM     51  C   UNL     1      10.137   4.632  11.019  1.00  0.00     0.049 A 
ATOM     52  H   UNL     1      10.122   6.517  10.135  1.00  0.00     0.167 HD
ATOM     53  C   UNL     1       9.988  10.423   8.175  1.00  0.00     0.037 A 
ATOM     54  C   UNL     1      11.357   4.465  11.565  1.00  0.00     0.037 A 
ATOM     55  C   UNL     1      11.297  10.356   8.768  1.00  0.00     0.049 A 
ATOM     56  C   UNL     1      12.378   5.568  11.450  1.00  0.00     0.074 A 
ATOM     57  C   UNL     1      12.299  11.310   8.763  1.00  0.00     0.029 A 
ATOM     58  N   UNL     1      11.784   9.268   9.476  1.00  0.00    -0.354 N 
ATOM     59  N   UNL     1      12.270   6.741  10.877  1.00  0.00    -0.248 NA
ATOM     60  C   UNL     1      13.692   5.322  12.064  1.00  0.00     0.031 C 
ATOM     61  C   UNL     1      13.405  10.787   9.442  1.00  0.00     0.029 A 
ATOM     62  C   UNL     1      13.076   9.523   9.904  1.00  0.00     0.049 A 
ATOM     63  H   UNL     1      11.285   8.437   9.650  1.00  0.00     0.167 HD
ATOM     64  C   UNL     1      13.485   7.382  11.083  1.00  0.00     0.074 A 
ATOM     65  C   UNL     1      14.313   6.473  11.845  1.00  0.00     0.031 C 
ATOM     66  C   UNL     1      13.880   8.612  10.675  1.00  0.00     0.037 A 
BRANCH  53  67
ATOM     67  C   UNL     1       9.601  11.682   7.459  1.00  0.00     0.064 A 
ATOM     68  C   UNL     1       8.693  12.591   8.023  1.00  0.00     0.173 A 
ATOM     69  C   UNL     1      10.175  12.006   6.221  1.00  0.00     0.173 A 
ATOM     70  F   UNL     1       8.107  12.318   9.198  1.00  0.00    -0.203 F 
ATOM     71  C   UNL     1       8.361  13.772   7.364  1.00  0.00     0.198 A 
ATOM     72  C   UNL     1       9.858  13.198   5.576  1.00  0.00     0.198 A 
ATOM     73  F   UNL     1      11.050  11.170   5.643  1.00  0.00    -0.203 F 
ATOM     74  F   UNL     1       7.466  14.610   7.904  1.00  0.00    -0.200 F 
ATOM     75  C   UNL     1       8.949  14.077   6.145  1.00  0.00     0.200 A 
ATOM     76  F   UNL     1      10.433  13.497   4.403  1.00  0.00    -0.200 F 
ATOM     77  F   UNL     1       8.635  15.218   5.516  1.00  0.00    -0.200 F 
ENDBRANCH  53  67
BRANCH  54  78
ATOM     78  C   UNL     1      11.696   3.194  12.256  1.00  0.00     0.064 A 
ATOM     79  C   UNL     1      11.900   3.153  13.641  1.00  0.00     0.173 A 
ATOM     80  C   UNL     1      11.862   2.003  11.534  1.00  0.00     0.173 A 
ATOM     81  F   UNL     1      11.782   4.273  14.369  1.00  0.00    -0.203 F 
ATOM     82  C   UNL     1      12.280   1.972  14.277  1.00  0.00     0.198 A 
ATOM     83  C   UNL     1      12.215   0.817  12.174  1.00  0.00     0.198 A 
ATOM     84  F   UNL     1      11.683   1.992  10.205  1.00  0.00    -0.203 F 
ATOM     85  F   UNL     1      12.522   1.971  15.595  1.00  0.00    -0.200 F 
ATOM     86  C   UNL     1      12.434   0.805  13.543  1.00  0.00     0.200 A 
ATOM     87  F   UNL     1      12.356  -0.309  11.462  1.00  0.00    -0.200 F 
ATOM     88  F   UNL     1      12.805  -0.329  14.154  1.00  0.00    -0.200 F 
ENDBRANCH  54  78
BRANCH  66  89
ATOM     89  C   UNL     1      15.253   9.063  11.077  1.00  0.00     0.064 A 
ATOM     90  C   UNL     1      16.404   8.546  10.466  1.00  0.00     0.173 A 
ATOM     91  C   UNL     1      15.416  10.056  12.055  1.00  0.00     0.173 A 
ATOM     92  F   UNL     1      16.300   7.585   9.536  1.00  0.00    -0.203 F 
ATOM     93  C   UNL     1      17.671   8.990  10.836  1.00  0.00     0.198 A 
ATOM     94  C   UNL     1      16.683  10.516  12.405  1.00  0.00     0.198 A 
ATOM     95  F   UNL     1      14.345  10.588  12.664  1.00  0.00    -0.203 F 
ATOM     96  F   UNL     1      18.759   8.453  10.268  1.00  0.00    -0.200 F 
ATOM     97  C   UNL     1      17.809   9.979  11.799  1.00  0.00     0.200 A 
ATOM     98  F   UNL     1      16.814  11.479  13.328  1.00  0.00    -0.200 F 
ATOM     99  F   UNL     1      19.029  10.409  12.150  1.00  0.00    -0.200 F 
ENDBRANCH  66  89
ENDBRANCH  40  41
ENDBRANCH  33  35
ENDBRANCH  32  33
ENDBRANCH  31  32
ENDBRANCH  30  31
ENDBRANCH  29  30
ENDBRANCH   1  29
TORSDOF 20
