REMARK SMILES COc1cc2c(cc1OC)[C@H](C(=O)OCCOCCOC(=O)c1ccc(-c3c4nc(c(-c5c(F)c(F)c(F)c(F)c5F)c5ccc([nH]5)c(-c5c(F)c(F)c(F)c(F)c5F)c5nc(c(-c6c(F)c(F)c(F)c(F)c6F)c6ccc3[nH]6)C=C5)C=C4)cc1)[C@@H](c1ccc(SC)cc1)N(C)C2=O
REMARK SMILES IDX 17 1 16 2 15 3 14 4 12 5 13 6 11 7 3 8 4 9 8 10 5 11 7 12
REMARK SMILES IDX 6 13 97 14 95 15 98 16 86 17 96 18 2 19 1 20 9 21 10 22
REMARK SMILES IDX 87 23 88 24 94 25 89 26 93 27 90 28 91 29 92 30 18 31 19 32
REMARK SMILES IDX 20 33 21 34 22 35 23 36 24 37 85 38 25 39 84 40 26 41 27 42
REMARK SMILES IDX 28 43 78 44 29 45 83 46 77 47 79 48 30 49 82 50 76 51 75 52
REMARK SMILES IDX 31 54 63 55 43 56 62 57 44 58 47 59 61 60 80 61 45 62 46 63
REMARK SMILES IDX 60 65 81 66 48 67 32 68 33 69 41 70 34 71 35 72 39 73 42 74
REMARK SMILES IDX 36 75 37 76 40 77 38 78 64 79 65 80 73 81 66 82 67 83 71 84
REMARK SMILES IDX 74 85 68 86 69 87 72 88 70 89 49 90 50 91 58 92 51 93 52 94
REMARK SMILES IDX 56 95 59 96 53 97 54 98 57 99 55 100
REMARK H PARENT 79 53 47 64
REMARK Flexibility Score: inf
ROOT
ATOM      1  O   UNL     1      -2.261   6.054   5.239  1.00  0.00    -0.374 OA
ENDROOT
BRANCH   1   2
ATOM      2  C   UNL     1      -2.408   6.595   3.922  1.00  0.00     0.202 C 
BRANCH   2   3
ATOM      3  C   UNL     1      -1.190   7.336   3.375  1.00  0.00     0.261 C 
BRANCH   3   4
ATOM      4  O   UNL     1      -0.213   6.329   3.068  1.00  0.00    -0.463 OA
BRANCH   4   5
ATOM      5  C   UNL     1       1.080   6.581   3.377  1.00  0.00     0.316 C 
ATOM      6  O   UNL     1       1.502   7.716   3.544  1.00  0.00    -0.251 OA
BRANCH   5   7
ATOM      7  C   UNL     1       1.851   5.271   3.651  1.00  0.00     0.157 C 
ATOM      8  C   UNL     1       1.614   2.028   0.698  1.00  0.00     0.161 A 
ATOM      9  C   UNL     1       2.772   2.277   1.424  1.00  0.00     0.064 A 
ATOM     10  C   UNL     1       0.476   2.792   0.942  1.00  0.00     0.161 A 
ATOM     11  C   UNL     1       2.819   3.300   2.387  1.00  0.00     0.048 A 
ATOM     12  C   UNL     1       0.548   3.848   1.879  1.00  0.00     0.056 A 
ATOM     13  C   UNL     1       1.732   4.162   2.589  1.00  0.00    -0.015 A 
ATOM     14  C   UNL     1       4.036   3.353   3.230  1.00  0.00     0.254 C 
ATOM     15  N   UNL     1       4.180   4.420   4.107  1.00  0.00    -0.333 N 
ATOM     16  O   UNL     1       4.853   2.439   3.141  1.00  0.00    -0.269 OA
ATOM     17  C   UNL     1       3.341   5.633   3.963  1.00  0.00     0.134 C 
ATOM     18  C   UNL     1       5.442   4.470   4.838  1.00  0.00     0.147 C 
BRANCH   8  19
ATOM     19  O   UNL     1       1.650   1.093  -0.299  1.00  0.00    -0.493 OA
ATOM     20  C   UNL     1       1.802  -0.235   0.204  1.00  0.00     0.278 C 
ENDBRANCH   8  19
BRANCH  10  21
ATOM     21  O   UNL     1      -0.757   2.627   0.361  1.00  0.00    -0.493 OA
ATOM     22  C   UNL     1      -0.998   1.377  -0.278  1.00  0.00     0.278 C 
ENDBRANCH  10  21
BRANCH  17  23
ATOM     23  C   UNL     1       3.536   6.603   5.142  1.00  0.00    -0.024 A 
ATOM     24  C   UNL     1       2.736   6.601   6.294  1.00  0.00     0.007 A 
ATOM     25  C   UNL     1       4.562   7.562   5.061  1.00  0.00     0.007 A 
ATOM     26  C   UNL     1       2.922   7.567   7.294  1.00  0.00     0.015 A 
ATOM     27  C   UNL     1       4.763   8.505   6.075  1.00  0.00     0.015 A 
ATOM     28  C   UNL     1       3.936   8.528   7.198  1.00  0.00     0.007 A 
BRANCH  28  29
ATOM     29  S   UNL     1       4.047   9.743   8.505  1.00  0.00    -0.130 SA
ATOM     30  C   UNL     1       5.751  10.346   8.357  1.00  0.00     0.091 C 
ENDBRANCH  28  29
ENDBRANCH  17  23
ENDBRANCH   5   7
ENDBRANCH   4   5
ENDBRANCH   3   4
ENDBRANCH   2   3
ENDBRANCH   1   2
BRANCH   1  31
ATOM     31  C   UNL     1      -1.496   4.857   5.375  1.00  0.00     0.202 C 
BRANCH  31  32
ATOM     32  C   UNL     1      -2.202   3.532   5.060  1.00  0.00     0.261 C 
BRANCH  32  33
ATOM     33  O   UNL     1      -2.634   3.451   3.692  1.00  0.00    -0.460 OA
BRANCH  33  34
ATOM     34  C   UNL     1      -3.936   3.765   3.477  1.00  0.00     0.338 C 
ATOM     35  O   UNL     1      -4.785   4.023   4.314  1.00  0.00    -0.246 OA
BRANCH  34  36
ATOM     36  C   UNL     1      -4.142   3.950   2.027  1.00  0.00     0.060 A 
ATOM     37  C   UNL     1      -4.720   5.138   1.558  1.00  0.00     0.016 A 
ATOM     38  C   UNL     1      -3.754   2.966   1.129  1.00  0.00     0.016 A 
ATOM     39  C   UNL     1      -4.931   5.331   0.187  1.00  0.00     0.010 A 
ATOM     40  C   UNL     1      -3.947   3.176  -0.238  1.00  0.00     0.010 A 
ATOM     41  C   UNL     1      -4.571   4.334  -0.725  1.00  0.00    -0.014 A 
BRANCH  41  42
ATOM     42  C   UNL     1      -4.955   4.387  -2.165  1.00  0.00     0.031 A 
ATOM     43  C   UNL     1      -5.877   3.324  -2.714  1.00  0.00     0.074 A 
ATOM     44  C   UNL     1      -4.442   5.310  -3.001  1.00  0.00     0.049 A 
ATOM     45  N   UNL     1      -6.273   3.113  -3.945  1.00  0.00    -0.248 NA
ATOM     46  C   UNL     1      -6.375   2.325  -1.754  1.00  0.00     0.031 C 
ATOM     47  C   UNL     1      -3.476   6.344  -2.637  1.00  0.00     0.029 A 
ATOM     48  N   UNL     1      -4.656   5.510  -4.345  1.00  0.00    -0.354 N 
ATOM     49  C   UNL     1      -7.020   1.941  -3.905  1.00  0.00     0.074 A 
ATOM     50  C   UNL     1      -6.949   1.441  -2.551  1.00  0.00     0.031 C 
ATOM     51  C   UNL     1      -3.197   7.084  -3.725  1.00  0.00     0.029 A 
ATOM     52  C   UNL     1      -3.944   6.561  -4.868  1.00  0.00     0.049 A 
ATOM     53  H   UNL     1      -5.264   4.952  -4.881  1.00  0.00     0.167 HD
ATOM     54  C   UNL     1      -7.740   1.353  -4.889  1.00  0.00     0.037 A 
ATOM     55  C   UNL     1      -3.901   7.047  -6.126  1.00  0.00     0.037 A 
ATOM     56  C   UNL     1      -7.870   1.886  -6.218  1.00  0.00     0.049 A 
ATOM     57  C   UNL     1      -4.750   6.413  -7.200  1.00  0.00     0.074 A 
ATOM     58  C   UNL     1      -8.668   1.434  -7.253  1.00  0.00     0.029 A 
ATOM     59  N   UNL     1      -7.182   2.992  -6.693  1.00  0.00    -0.354 N 
ATOM     60  N   UNL     1      -5.542   5.371  -7.125  1.00  0.00    -0.248 NA
ATOM     61  C   UNL     1      -4.712   7.037  -8.532  1.00  0.00     0.031 C 
ATOM     62  C   UNL     1      -8.418   2.231  -8.375  1.00  0.00     0.029 A 
ATOM     63  C   UNL     1      -7.516   3.221  -8.018  1.00  0.00     0.049 A 
ATOM     64  H   UNL     1      -6.550   3.533  -6.168  1.00  0.00     0.167 HD
ATOM     65  C   UNL     1      -6.115   5.231  -8.384  1.00  0.00     0.074 A 
ATOM     66  C   UNL     1      -5.592   6.305  -9.201  1.00  0.00     0.031 C 
ATOM     67  C   UNL     1      -6.997   4.298  -8.822  1.00  0.00     0.037 A 
BRANCH  54  68
ATOM     68  C   UNL     1      -8.455   0.071  -4.557  1.00  0.00     0.064 A 
ATOM     69  C   UNL     1      -9.507   0.025  -3.627  1.00  0.00     0.173 A 
ATOM     70  C   UNL     1      -8.087  -1.129  -5.184  1.00  0.00     0.173 A 
ATOM     71  F   UNL     1      -9.897   1.141  -2.992  1.00  0.00    -0.203 F 
ATOM     72  C   UNL     1     -10.121  -1.179  -3.296  1.00  0.00     0.198 A 
ATOM     73  C   UNL     1      -8.735  -2.325  -4.884  1.00  0.00     0.198 A 
ATOM     74  F   UNL     1      -7.097  -1.145  -6.090  1.00  0.00    -0.203 F 
ATOM     75  F   UNL     1     -11.065  -1.208  -2.345  1.00  0.00    -0.200 F 
ATOM     76  C   UNL     1      -9.740  -2.352  -3.929  1.00  0.00     0.200 A 
ATOM     77  F   UNL     1      -8.378  -3.454  -5.511  1.00  0.00    -0.200 F 
ATOM     78  F   UNL     1     -10.333  -3.510  -3.611  1.00  0.00    -0.200 F 
ENDBRANCH  54  68
BRANCH  55  79
ATOM     79  C   UNL     1      -3.050   8.228  -6.432  1.00  0.00     0.064 A 
ATOM     80  C   UNL     1      -3.624   9.474  -6.724  1.00  0.00     0.173 A 
ATOM     81  C   UNL     1      -1.650   8.139  -6.439  1.00  0.00     0.173 A 
ATOM     82  F   UNL     1      -4.959   9.605  -6.756  1.00  0.00    -0.203 F 
ATOM     83  C   UNL     1      -2.833  10.580  -7.027  1.00  0.00     0.198 A 
ATOM     84  C   UNL     1      -0.859   9.254  -6.713  1.00  0.00     0.198 A 
ATOM     85  F   UNL     1      -1.051   6.971  -6.166  1.00  0.00    -0.203 F 
ATOM     86  F   UNL     1      -3.410  11.747  -7.346  1.00  0.00    -0.200 F 
ATOM     87  C   UNL     1      -1.451  10.471  -7.013  1.00  0.00     0.200 A 
ATOM     88  F   UNL     1       0.476   9.148  -6.686  1.00  0.00    -0.200 F 
ATOM     89  F   UNL     1      -0.690  11.537  -7.296  1.00  0.00    -0.200 F 
ENDBRANCH  55  79
BRANCH  67  90
ATOM     90  C   UNL     1      -7.493   4.411 -10.236  1.00  0.00     0.064 A 
ATOM     91  C   UNL     1      -6.664   4.144 -11.336  1.00  0.00     0.173 A 
ATOM     92  C   UNL     1      -8.836   4.730 -10.492  1.00  0.00     0.173 A 
ATOM     93  F   UNL     1      -5.370   3.842 -11.150  1.00  0.00    -0.203 F 
ATOM     94  C   UNL     1      -7.155   4.217 -12.638  1.00  0.00     0.198 A 
ATOM     95  C   UNL     1      -9.332   4.769 -11.792  1.00  0.00     0.198 A 
ATOM     96  F   UNL     1      -9.676   4.984  -9.476  1.00  0.00    -0.203 F 
ATOM     97  F   UNL     1      -6.334   4.003 -13.675  1.00  0.00    -0.200 F 
ATOM     98  C   UNL     1      -8.490   4.520 -12.864  1.00  0.00     0.200 A 
ATOM     99  F   UNL     1     -10.627   5.042 -12.006  1.00  0.00    -0.200 F 
ATOM    100  F   UNL     1      -8.963   4.576 -14.116  1.00  0.00    -0.200 F 
ENDBRANCH  67  90
ENDBRANCH  41  42
ENDBRANCH  34  36
ENDBRANCH  33  34
ENDBRANCH  32  33
ENDBRANCH  31  32
ENDBRANCH   1  31
TORSDOF 18
