REMARK SMILES O=C(C[C@@H]([NH2+]Cc1cccnc1)C(=O)OCCOCCOC(=O)c1ccc(-c2c3nc(c(-c4c(F)c(F)c(F)c(F)c4F)c4ccc([nH]4)c(-c4c(F)c(F)c(F)c(F)c4F)c4nc(c(-c5c(F)c(F)c(F)c(F)c5F)c5ccc2[nH]5)C=C4)C=C3)cc1)Nc1ccc2ccccc2c1
REMARK SMILES IDX 17 1 16 2 15 3 13 4 14 5 4 6 3 7 2 8 1 9 87 10 88 12 89 13
REMARK SMILES IDX 97 14 90 15 96 16 91 17 95 18 92 19 94 20 93 21 5 22 6 25
REMARK SMILES IDX 7 26 8 27 12 28 9 29 11 30 10 31 18 32 19 33 20 34 21 35
REMARK SMILES IDX 22 36 23 37 24 38 25 39 86 40 26 41 85 42 27 43 28 44 29 45
REMARK SMILES IDX 79 46 30 47 84 48 78 49 80 50 31 51 83 52 77 53 76 54 32 56
REMARK SMILES IDX 64 57 44 58 63 59 45 60 48 61 62 62 81 63 46 64 47 65 61 67
REMARK SMILES IDX 82 68 49 69 33 70 34 71 42 72 35 73 36 74 40 75 43 76 37 77
REMARK SMILES IDX 38 78 41 79 39 80 65 81 66 82 74 83 67 84 68 85 72 86 75 87
REMARK SMILES IDX 69 88 70 89 73 90 71 91 50 92 51 93 59 94 52 95 53 96 57 97
REMARK SMILES IDX 60 98 54 99 55 100 58 101 56 102
REMARK H PARENT 87 11 5 23 5 24 80 55 48 66
REMARK Flexibility Score: inf
ROOT
ATOM      1  C   UNL     1       5.543   3.802  -3.691  1.00  0.00     0.202 C 
ENDROOT
BRANCH   1   2
ATOM      2  C   UNL     1       6.313   3.019  -2.620  1.00  0.00     0.261 C 
BRANCH   2   3
ATOM      3  O   UNL     1       5.517   2.073  -1.891  1.00  0.00    -0.459 OA
BRANCH   3   4
ATOM      4  C   UNL     1       5.046   2.561  -0.710  1.00  0.00     0.365 C 
ATOM      5  O   UNL     1       5.261   3.702  -0.316  1.00  0.00    -0.245 OA
BRANCH   4   6
ATOM      6  C   UNL     1       4.238   1.540   0.108  1.00  0.00     0.303 C 
BRANCH   6   7
ATOM      7  C   UNL     1       3.660   0.397  -0.761  1.00  0.00     0.177 C 
BRANCH   7   8
ATOM      8  C   UNL     1       2.652  -0.460  -0.005  1.00  0.00     0.231 C 
ATOM      9  O   UNL     1       1.455  -0.436  -0.264  1.00  0.00    -0.274 OA
ATOM     10  N   UNL     1       3.251  -1.161   1.026  1.00  0.00    -0.326 N 
ATOM     11  H   UNL     1       4.234  -1.214   1.021  1.00  0.00     0.169 HD
BRANCH  10  12
ATOM     12  C   UNL     1       2.581  -1.804   2.077  1.00  0.00     0.041 A 
ATOM     13  C   UNL     1       3.046  -1.547   3.368  1.00  0.00     0.027 A 
ATOM     14  C   UNL     1       1.546  -2.717   1.878  1.00  0.00     0.034 A 
ATOM     15  C   UNL     1       2.446  -2.151   4.469  1.00  0.00     0.011 A 
ATOM     16  C   UNL     1       1.022  -3.435   2.975  1.00  0.00    -0.016 A 
ATOM     17  C   UNL     1       1.456  -3.119   4.286  1.00  0.00    -0.018 A 
ATOM     18  C   UNL     1       0.107  -4.489   2.811  1.00  0.00     0.009 A 
ATOM     19  C   UNL     1       0.925  -3.805   5.387  1.00  0.00     0.009 A 
ATOM     20  C   UNL     1      -0.369  -5.206   3.914  1.00  0.00     0.001 A 
ATOM     21  C   UNL     1       0.026  -4.853   5.201  1.00  0.00     0.001 A 
ENDBRANCH  10  12
ENDBRANCH   7   8
ENDBRANCH   6   7
BRANCH   6  22
ATOM     22  N   UNL     1       5.027   0.987   1.257  1.00  0.00    -0.330 N 
ATOM     23  H   UNL     1       5.675   0.292   0.887  1.00  0.00     0.347 HD
ATOM     24  H   UNL     1       4.341   0.605   1.908  1.00  0.00     0.347 HD
BRANCH  22  25
ATOM     25  C   UNL     1       5.809   1.973   2.028  1.00  0.00     0.299 C 
BRANCH  25  26
ATOM     26  C   UNL     1       4.976   3.010   2.733  1.00  0.00     0.024 A 
ATOM     27  C   UNL     1       3.913   2.673   3.577  1.00  0.00     0.013 A 
ATOM     28  C   UNL     1       5.251   4.366   2.573  1.00  0.00     0.120 A 
ATOM     29  C   UNL     1       3.154   3.677   4.170  1.00  0.00     0.021 A 
ATOM     30  N   UNL     1       4.542   5.361   3.153  1.00  0.00    -0.264 NA
ATOM     31  C   UNL     1       3.501   4.994   3.925  1.00  0.00     0.111 A 
ENDBRANCH  25  26
ENDBRANCH  22  25
ENDBRANCH   6  22
ENDBRANCH   4   6
ENDBRANCH   3   4
ENDBRANCH   2   3
ENDBRANCH   1   2
BRANCH   1  32
ATOM     32  O   UNL     1       4.346   4.469  -3.314  1.00  0.00    -0.374 OA
BRANCH  32  33
ATOM     33  C   UNL     1       3.162   3.699  -3.110  1.00  0.00     0.202 C 
BRANCH  33  34
ATOM     34  C   UNL     1       2.559   2.978  -4.321  1.00  0.00     0.261 C 
BRANCH  34  35
ATOM     35  O   UNL     1       3.412   1.923  -4.805  1.00  0.00    -0.460 OA
BRANCH  35  36
ATOM     36  C   UNL     1       3.791   2.053  -6.101  1.00  0.00     0.338 C 
ATOM     37  O   UNL     1       3.433   2.900  -6.900  1.00  0.00    -0.246 OA
BRANCH  36  38
ATOM     38  C   UNL     1       4.892   1.117  -6.395  1.00  0.00     0.060 A 
ATOM     39  C   UNL     1       6.114   1.662  -6.813  1.00  0.00     0.016 A 
ATOM     40  C   UNL     1       4.706  -0.265  -6.350  1.00  0.00     0.016 A 
ATOM     41  C   UNL     1       7.149   0.823  -7.219  1.00  0.00     0.010 A 
ATOM     42  C   UNL     1       5.742  -1.105  -6.773  1.00  0.00     0.010 A 
ATOM     43  C   UNL     1       6.957  -0.564  -7.233  1.00  0.00    -0.014 A 
BRANCH  43  44
ATOM     44  C   UNL     1       7.988  -1.440  -7.838  1.00  0.00     0.031 A 
ATOM     45  C   UNL     1       7.813  -1.914  -9.253  1.00  0.00     0.074 A 
ATOM     46  C   UNL     1       9.080  -1.790  -7.137  1.00  0.00     0.049 A 
ATOM     47  N   UNL     1       8.566  -2.719  -9.958  1.00  0.00    -0.248 NA
ATOM     48  C   UNL     1       6.630  -1.412  -9.970  1.00  0.00     0.031 C 
ATOM     49  C   UNL     1       9.381  -1.357  -5.775  1.00  0.00     0.029 A 
ATOM     50  N   UNL     1      10.135  -2.600  -7.475  1.00  0.00    -0.354 N 
ATOM     51  C   UNL     1       7.950  -2.823 -11.198  1.00  0.00     0.074 A 
ATOM     52  C   UNL     1       6.747  -2.020 -11.142  1.00  0.00     0.031 C 
ATOM     53  C   UNL     1      10.538  -1.918  -5.385  1.00  0.00     0.029 A 
ATOM     54  C   UNL     1      11.039  -2.776  -6.457  1.00  0.00     0.049 A 
ATOM     55  H   UNL     1      10.234  -3.015  -8.363  1.00  0.00     0.167 HD
ATOM     56  C   UNL     1       8.356  -3.520 -12.286  1.00  0.00     0.037 A 
ATOM     57  C   UNL     1      12.130  -3.564  -6.391  1.00  0.00     0.037 A 
ATOM     58  C   UNL     1       9.553  -4.319 -12.337  1.00  0.00     0.049 A 
ATOM     59  C   UNL     1      12.512  -4.398  -7.586  1.00  0.00     0.074 A 
ATOM     60  C   UNL     1      10.066  -5.038 -13.402  1.00  0.00     0.029 A 
ATOM     61  N   UNL     1      10.419  -4.512 -11.271  1.00  0.00    -0.354 N 
ATOM     62  N   UNL     1      11.940  -4.469  -8.764  1.00  0.00    -0.248 NA
ATOM     63  C   UNL     1      13.691  -5.264  -7.440  1.00  0.00     0.031 C 
ATOM     64  C   UNL     1      11.212  -5.710 -12.965  1.00  0.00     0.029 A 
ATOM     65  C   UNL     1      11.443  -5.369 -11.642  1.00  0.00     0.049 A 
ATOM     66  H   UNL     1      10.320  -4.101 -10.382  1.00  0.00     0.167 HD
ATOM     67  C   UNL     1      12.697  -5.369  -9.503  1.00  0.00     0.074 A 
ATOM     68  C   UNL     1      13.781  -5.804  -8.647  1.00  0.00     0.031 C 
ATOM     69  C   UNL     1      12.511  -5.797 -10.776  1.00  0.00     0.037 A 
BRANCH  56  70
ATOM     70  C   UNL     1       7.484  -3.473 -13.506  1.00  0.00     0.064 A 
ATOM     71  C   UNL     1       7.394  -2.322 -14.304  1.00  0.00     0.173 A 
ATOM     72  C   UNL     1       6.762  -4.608 -13.905  1.00  0.00     0.173 A 
ATOM     73  F   UNL     1       8.055  -1.208 -13.958  1.00  0.00    -0.203 F 
ATOM     74  C   UNL     1       6.595  -2.304 -15.445  1.00  0.00     0.198 A 
ATOM     75  C   UNL     1       5.986  -4.594 -15.061  1.00  0.00     0.198 A 
ATOM     76  F   UNL     1       6.818  -5.734 -13.179  1.00  0.00    -0.203 F 
ATOM     77  F   UNL     1       6.492  -1.182 -16.170  1.00  0.00    -0.200 F 
ATOM     78  C   UNL     1       5.898  -3.441 -15.826  1.00  0.00     0.200 A 
ATOM     79  F   UNL     1       5.322  -5.697 -15.434  1.00  0.00    -0.200 F 
ATOM     80  F   UNL     1       5.136  -3.424 -16.929  1.00  0.00    -0.200 F 
ENDBRANCH  56  70
BRANCH  57  81
ATOM     81  C   UNL     1      12.926  -3.621  -5.139  1.00  0.00     0.064 A 
ATOM     82  C   UNL     1      14.228  -3.105  -5.083  1.00  0.00     0.173 A 
ATOM     83  C   UNL     1      12.406  -4.207  -3.975  1.00  0.00     0.173 A 
ATOM     84  F   UNL     1      14.778  -2.560  -6.178  1.00  0.00    -0.203 F 
ATOM     85  C   UNL     1      14.984  -3.186  -3.916  1.00  0.00     0.198 A 
ATOM     86  C   UNL     1      13.153  -4.262  -2.800  1.00  0.00     0.198 A 
ATOM     87  F   UNL     1      11.166  -4.718  -3.976  1.00  0.00    -0.203 F 
ATOM     88  F   UNL     1      16.242  -2.724  -3.902  1.00  0.00    -0.200 F 
ATOM     89  C   UNL     1      14.444  -3.758  -2.774  1.00  0.00     0.200 A 
ATOM     90  F   UNL     1      12.622  -4.805  -1.696  1.00  0.00    -0.200 F 
ATOM     91  F   UNL     1      15.170  -3.831  -1.650  1.00  0.00    -0.200 F 
ENDBRANCH  57  81
BRANCH  69  92
ATOM     92  C   UNL     1      13.509  -6.774 -11.327  1.00  0.00     0.064 A 
ATOM     93  C   UNL     1      13.538  -8.111 -10.901  1.00  0.00     0.173 A 
ATOM     94  C   UNL     1      14.419  -6.381 -12.320  1.00  0.00     0.173 A 
ATOM     95  F   UNL     1      12.700  -8.531  -9.942  1.00  0.00    -0.203 F 
ATOM     96  C   UNL     1      14.456  -9.012 -11.434  1.00  0.00     0.198 A 
ATOM     97  C   UNL     1      15.315  -7.292 -12.872  1.00  0.00     0.198 A 
ATOM     98  F   UNL     1      14.428  -5.116 -12.767  1.00  0.00    -0.203 F 
ATOM     99  F   UNL     1      14.496 -10.272 -10.981  1.00  0.00    -0.200 F 
ATOM    100  C   UNL     1      15.338  -8.604 -12.424  1.00  0.00     0.200 A 
ATOM    101  F   UNL     1      16.158  -6.900 -13.838  1.00  0.00    -0.200 F 
ATOM    102  F   UNL     1      16.215  -9.475 -12.942  1.00  0.00    -0.200 F 
ENDBRANCH  69  92
ENDBRANCH  43  44
ENDBRANCH  36  38
ENDBRANCH  35  36
ENDBRANCH  34  35
ENDBRANCH  33  34
ENDBRANCH  32  33
ENDBRANCH   1  32
TORSDOF 20
