REMARK SMILES O=C(OCCOCCOC(=O)[C@H]1[C@@H](C(=O)Nc2ccccc2-c2ccccc2)[C@@H]2C=C[C@H]1O2)c1ccc(-c2c3nc(c(-c4c(F)c(F)c(F)c(F)c4F)c4ccc([nH]4)c(-c4c(F)c(F)c(F)c(F)c4F)c4nc(c(-c5c(F)c(F)c(F)c(F)c5F)c5ccc2[nH]5)C=C4)C=C3)cc1
REMARK SMILES IDX 7 1 6 2 5 3 4 4 3 5 2 6 1 7 34 8 35 9 96 10 36 11 95 12
REMARK SMILES IDX 37 13 38 14 39 15 89 16 40 17 94 18 88 19 90 20 41 21 93 22
REMARK SMILES IDX 87 23 86 24 42 26 74 27 54 28 73 29 55 30 58 31 72 32 91 33
REMARK SMILES IDX 56 34 57 35 71 37 92 38 59 39 43 40 44 41 52 42 45 43 46 44
REMARK SMILES IDX 50 45 53 46 47 47 48 48 51 49 49 50 75 51 76 52 84 53 77 54
REMARK SMILES IDX 78 55 82 56 85 57 79 58 80 59 83 60 81 61 60 62 61 63 69 64
REMARK SMILES IDX 62 65 63 66 67 67 70 68 64 69 65 70 68 71 66 72 8 73 9 74
REMARK SMILES IDX 10 75 11 76 12 77 13 78 32 79 29 80 31 81 33 82 30 83 14 84
REMARK SMILES IDX 15 85 16 86 17 88 18 89 22 90 19 91 21 92 20 93 23 94 24 95
REMARK SMILES IDX 28 96 25 97 27 98 26 99
REMARK H PARENT 90 25 58 36 16 87
REMARK Flexibility Score: inf
ROOT
ATOM      1  C   UNL     1       8.287   2.744  -0.572  1.00  0.00     0.202 C 
ENDROOT
BRANCH   1   2
ATOM      2  O   UNL     1       7.952   4.125  -0.603  1.00  0.00    -0.374 OA
BRANCH   2   3
ATOM      3  C   UNL     1       7.370   4.619  -1.807  1.00  0.00     0.202 C 
BRANCH   3   4
ATOM      4  C   UNL     1       8.235   4.761  -3.060  1.00  0.00     0.261 C 
BRANCH   4   5
ATOM      5  O   UNL     1       9.236   3.739  -3.164  1.00  0.00    -0.460 OA
BRANCH   5   6
ATOM      6  C   UNL     1      10.540   3.880  -2.806  1.00  0.00     0.338 C 
ATOM      7  O   UNL     1      11.347   2.996  -3.051  1.00  0.00    -0.246 OA
BRANCH   6   8
ATOM      8  C   UNL     1      11.013   5.127  -2.147  1.00  0.00     0.060 A 
ATOM      9  C   UNL     1      10.249   5.798  -1.206  1.00  0.00     0.016 A 
ATOM     10  C   UNL     1      12.287   5.622  -2.419  1.00  0.00     0.016 A 
ATOM     11  C   UNL     1      10.600   7.006  -0.679  1.00  0.00     0.010 A 
ATOM     12  C   UNL     1      12.741   6.769  -1.751  1.00  0.00     0.010 A 
ATOM     13  C   UNL     1      11.885   7.462  -0.882  1.00  0.00    -0.014 A 
BRANCH  13  14
ATOM     14  C   UNL     1      12.212   8.710  -0.184  1.00  0.00     0.031 A 
ATOM     15  C   UNL     1      12.405   9.936  -1.006  1.00  0.00     0.074 A 
ATOM     16  C   UNL     1      12.105   8.749   1.160  1.00  0.00     0.049 A 
ATOM     17  N   UNL     1      12.754  11.131  -0.627  1.00  0.00    -0.248 NA
ATOM     18  C   UNL     1      12.162   9.803  -2.454  1.00  0.00     0.031 C 
ATOM     19  C   UNL     1      11.733   7.613   2.019  1.00  0.00     0.029 A 
ATOM     20  N   UNL     1      12.235   9.788   2.040  1.00  0.00    -0.354 N 
ATOM     21  C   UNL     1      12.820  11.879  -1.791  1.00  0.00     0.074 A 
ATOM     22  C   UNL     1      12.481  11.009  -2.892  1.00  0.00     0.031 C 
ATOM     23  C   UNL     1      11.624   8.030   3.288  1.00  0.00     0.029 A 
ATOM     24  C   UNL     1      12.034   9.423   3.350  1.00  0.00     0.049 A 
ATOM     25  H   UNL     1      12.450  10.707   1.762  1.00  0.00     0.167 HD
ATOM     26  C   UNL     1      13.148  13.184  -1.906  1.00  0.00     0.037 A 
ATOM     27  C   UNL     1      12.229  10.132   4.476  1.00  0.00     0.037 A 
ATOM     28  C   UNL     1      13.468  14.006  -0.772  1.00  0.00     0.049 A 
ATOM     29  C   UNL     1      12.710  11.546   4.311  1.00  0.00     0.074 A 
ATOM     30  C   UNL     1      13.917  15.311  -0.745  1.00  0.00     0.029 A 
ATOM     31  N   UNL     1      13.358  13.587   0.550  1.00  0.00    -0.354 N 
ATOM     32  N   UNL     1      12.902  12.230   3.206  1.00  0.00    -0.248 NA
ATOM     33  C   UNL     1      13.022  12.283   5.538  1.00  0.00     0.031 C 
ATOM     34  C   UNL     1      14.120  15.667   0.593  1.00  0.00     0.029 A 
ATOM     35  C   UNL     1      13.740  14.605   1.403  1.00  0.00     0.049 A 
ATOM     36  H   UNL     1      13.053  12.695   0.836  1.00  0.00     0.167 HD
ATOM     37  C   UNL     1      13.346  13.480   3.601  1.00  0.00     0.074 A 
ATOM     38  C   UNL     1      13.357  13.469   5.052  1.00  0.00     0.031 C 
ATOM     39  C   UNL     1      13.725  14.540   2.844  1.00  0.00     0.037 A 
BRANCH  26  40
ATOM     40  C   UNL     1      13.248  13.739  -3.293  1.00  0.00     0.064 A 
ATOM     41  C   UNL     1      12.116  13.947  -4.095  1.00  0.00     0.173 A 
ATOM     42  C   UNL     1      14.505  14.020  -3.846  1.00  0.00     0.173 A 
ATOM     43  F   UNL     1      10.893  13.652  -3.628  1.00  0.00    -0.203 F 
ATOM     44  C   UNL     1      12.242  14.394  -5.408  1.00  0.00     0.198 A 
ATOM     45  C   UNL     1      14.626  14.495  -5.149  1.00  0.00     0.198 A 
ATOM     46  F   UNL     1      15.621  13.818  -3.129  1.00  0.00    -0.203 F 
ATOM     47  F   UNL     1      11.152  14.524  -6.178  1.00  0.00    -0.200 F 
ATOM     48  C   UNL     1      13.496  14.673  -5.932  1.00  0.00     0.200 A 
ATOM     49  F   UNL     1      15.839  14.762  -5.653  1.00  0.00    -0.200 F 
ATOM     50  F   UNL     1      13.616  15.099  -7.197  1.00  0.00    -0.200 F 
ENDBRANCH  26  40
BRANCH  27  51
ATOM     51  C   UNL     1      12.077   9.499   5.816  1.00  0.00     0.064 A 
ATOM     52  C   UNL     1      11.158   9.984   6.757  1.00  0.00     0.173 A 
ATOM     53  C   UNL     1      12.886   8.417   6.204  1.00  0.00     0.173 A 
ATOM     54  F   UNL     1      10.373  11.027   6.451  1.00  0.00    -0.203 F 
ATOM     55  C   UNL     1      11.080   9.437   8.039  1.00  0.00     0.198 A 
ATOM     56  C   UNL     1      12.779   7.846   7.470  1.00  0.00     0.198 A 
ATOM     57  F   UNL     1      13.788   7.910   5.351  1.00  0.00    -0.203 F 
ATOM     58  F   UNL     1      10.243   9.969   8.940  1.00  0.00    -0.200 F 
ATOM     59  C   UNL     1      11.887   8.367   8.393  1.00  0.00     0.200 A 
ATOM     60  F   UNL     1      13.552   6.801   7.799  1.00  0.00    -0.200 F 
ATOM     61  F   UNL     1      11.818   7.849   9.627  1.00  0.00    -0.200 F 
ENDBRANCH  27  51
BRANCH  39  62
ATOM     62  C   UNL     1      14.141  15.771   3.589  1.00  0.00     0.064 A 
ATOM     63  C   UNL     1      15.341  15.823   4.313  1.00  0.00     0.173 A 
ATOM     64  C   UNL     1      13.335  16.918   3.558  1.00  0.00     0.173 A 
ATOM     65  F   UNL     1      16.135  14.744   4.385  1.00  0.00    -0.203 F 
ATOM     66  C   UNL     1      15.699  16.970   5.013  1.00  0.00     0.198 A 
ATOM     67  C   UNL     1      13.716  18.075   4.226  1.00  0.00     0.198 A 
ATOM     68  F   UNL     1      12.182  16.917   2.870  1.00  0.00    -0.203 F 
ATOM     69  F   UNL     1      16.816  16.977   5.754  1.00  0.00    -0.200 F 
ATOM     70  C   UNL     1      14.891  18.096   4.962  1.00  0.00     0.200 A 
ATOM     71  F   UNL     1      12.945  19.169   4.160  1.00  0.00    -0.200 F 
ATOM     72  F   UNL     1      15.241  19.202   5.633  1.00  0.00    -0.200 F 
ENDBRANCH  39  62
ENDBRANCH  13  14
ENDBRANCH   6   8
ENDBRANCH   5   6
ENDBRANCH   4   5
ENDBRANCH   3   4
ENDBRANCH   2   3
ENDBRANCH   1   2
BRANCH   1  73
ATOM     73  C   UNL     1       7.470   2.079   0.525  1.00  0.00     0.261 C 
BRANCH  73  74
ATOM     74  O   UNL     1       6.102   2.128   0.084  1.00  0.00    -0.463 OA
BRANCH  74  75
ATOM     75  C   UNL     1       5.343   3.129   0.605  1.00  0.00     0.312 C 
ATOM     76  O   UNL     1       5.522   3.617   1.717  1.00  0.00    -0.252 OA
BRANCH  75  77
ATOM     77  C   UNL     1       4.135   3.406  -0.262  1.00  0.00     0.147 C 
ATOM     78  C   UNL     1       3.708   4.877  -0.551  1.00  0.00     0.129 C 
ATOM     79  C   UNL     1       4.189   2.833  -1.696  1.00  0.00     0.157 C 
ATOM     80  C   UNL     1       3.442   4.844  -2.063  1.00  0.00     0.155 C 
ATOM     81  C   UNL     1       2.780   2.663  -2.182  1.00  0.00     0.004 C 
ATOM     82  O   UNL     1       4.524   4.001  -2.498  1.00  0.00    -0.365 OA
ATOM     83  C   UNL     1       2.311   3.904  -2.385  1.00  0.00     0.004 C 
BRANCH  78  84
ATOM     84  C   UNL     1       4.627   6.036  -0.172  1.00  0.00     0.231 C 
ATOM     85  O   UNL     1       5.758   5.883   0.285  1.00  0.00    -0.274 OA
ATOM     86  N   UNL     1       4.272   7.333  -0.425  1.00  0.00    -0.325 N 
ATOM     87  H   UNL     1       5.041   7.926  -0.586  1.00  0.00     0.169 HD
BRANCH  86  88
ATOM     88  C   UNL     1       3.030   7.992  -0.502  1.00  0.00     0.049 A 
ATOM     89  C   UNL     1       3.019   9.116  -1.348  1.00  0.00     0.027 A 
ATOM     90  C   UNL     1       1.880   7.677   0.267  1.00  0.00     0.005 A 
ATOM     91  C   UNL     1       1.861   9.867  -1.529  1.00  0.00     0.002 A 
ATOM     92  C   UNL     1       0.718   8.442   0.047  1.00  0.00     0.011 A 
ATOM     93  C   UNL     1       0.703   9.516  -0.846  1.00  0.00     0.001 A 
BRANCH  90  94
ATOM     94  C   UNL     1       1.868   6.666   1.347  1.00  0.00    -0.016 A 
ATOM     95  C   UNL     1       0.955   5.592   1.318  1.00  0.00     0.009 A 
ATOM     96  C   UNL     1       2.870   6.654   2.334  1.00  0.00     0.009 A 
ATOM     97  C   UNL     1       1.141   4.478   2.142  1.00  0.00     0.001 A 
ATOM     98  C   UNL     1       3.050   5.543   3.159  1.00  0.00     0.001 A 
ATOM     99  C   UNL     1       2.204   4.444   3.042  1.00  0.00     0.000 A 
ENDBRANCH  90  94
ENDBRANCH  86  88
ENDBRANCH  78  84
ENDBRANCH  75  77
ENDBRANCH  74  75
ENDBRANCH  73  74
ENDBRANCH   1  73
TORSDOF 17
