REMARK SMILES O=C(CCN1C(=O)/C(=C2\C(=O)N(Cc3ccc(Cl)cc3)c3ccccc32)SC1=S)OCCOCCOC(=O)c1ccc(-c2c3nc(c(-c4c(F)c(F)c(F)c(F)c4F)c4ccc([nH]4)c(-c4c(F)c(F)c(F)c(F)c4F)c4nc(c(-c5c(F)c(F)c(F)c(F)c5F)c5ccc2[nH]5)C=C4)C=C3)cc1
REMARK SMILES IDX 32 1 31 2 30 3 2 4 1 5 3 6 4 7 5 8 6 9 28 10 7 11 8 12 27 13
REMARK SMILES IDX 29 14 9 15 10 16 26 17 11 18 12 19 21 20 25 21 22 22 24 23
REMARK SMILES IDX 23 24 13 25 14 26 15 27 20 28 16 29 19 30 17 31 18 32 33 33
REMARK SMILES IDX 34 34 35 35 36 36 37 37 38 38 39 39 40 40 101 41 41 42
REMARK SMILES IDX 100 43 42 44 43 45 44 46 94 47 45 48 99 49 93 50 95 51 46 52
REMARK SMILES IDX 98 53 92 54 91 55 47 57 79 58 59 59 78 60 60 61 63 62 77 63
REMARK SMILES IDX 96 64 61 65 62 66 76 68 97 69 64 70 48 71 49 72 57 73 50 74
REMARK SMILES IDX 51 75 55 76 58 77 52 78 53 79 56 80 54 81 80 82 81 83 89 84
REMARK SMILES IDX 82 85 83 86 87 87 90 88 84 89 85 90 88 91 86 92 65 93 66 94
REMARK SMILES IDX 74 95 67 96 68 97 72 98 75 99 69 100 70 101 73 102 71 103
REMARK H PARENT 95 56 63 67
REMARK Flexibility Score: inf
ROOT
ATOM      1  C   UNL     1       2.898   1.379   0.250  1.00  0.00     0.202 C 
ENDROOT
BRANCH   1   2
ATOM      2  C   UNL     1       2.265   0.255  -0.562  1.00  0.00     0.261 C 
BRANCH   2   3
ATOM      3  O   UNL     1       1.345  -0.510   0.193  1.00  0.00    -0.463 OA
BRANCH   3   4
ATOM      4  C   UNL     1       1.752  -1.750   0.543  1.00  0.00     0.307 C 
ATOM      5  O   UNL     1       0.982  -2.700   0.437  1.00  0.00    -0.252 OA
BRANCH   4   6
ATOM      6  C   UNL     1       3.124  -1.901   1.176  1.00  0.00     0.144 C 
BRANCH   6   7
ATOM      7  C   UNL     1       4.221  -2.568   0.354  1.00  0.00     0.139 C 
BRANCH   7   8
ATOM      8  N   UNL     1       4.948  -1.832  -0.695  1.00  0.00    -0.292 N 
ATOM      9  C   UNL     1       5.265  -0.479  -0.668  1.00  0.00     0.267 C 
ATOM     10  C   UNL     1       5.675  -2.503  -1.663  1.00  0.00     0.148 C 
ATOM     11  O   UNL     1       5.587   0.188   0.295  1.00  0.00    -0.268 OA
ATOM     12  C   UNL     1       5.431  -0.058  -2.095  1.00  0.00     0.093 C 
ATOM     13  S   UNL     1       6.534  -1.323  -2.638  1.00  0.00    -0.053 SA
ATOM     14  S   UNL     1       5.768  -4.135  -1.981  1.00  0.00    -0.052 S 
ATOM     15  C   UNL     1       4.832   0.865  -2.893  1.00  0.00     0.069 C 
ATOM     16  C   UNL     1       4.007   2.153  -2.732  1.00  0.00     0.260 C 
ATOM     17  C   UNL     1       5.102   0.841  -4.321  1.00  0.00     0.012 A 
ATOM     18  O   UNL     1       3.132   2.419  -1.941  1.00  0.00    -0.269 OA
ATOM     19  N   UNL     1       4.291   3.031  -3.795  1.00  0.00    -0.303 N 
ATOM     20  C   UNL     1       5.177   2.158  -4.706  1.00  0.00     0.052 A 
ATOM     21  C   UNL     1       5.332  -0.235  -5.198  1.00  0.00     0.011 A 
ATOM     22  C   UNL     1       6.168   2.283  -5.688  1.00  0.00     0.027 A 
ATOM     23  C   UNL     1       6.000  -0.016  -6.386  1.00  0.00     0.001 A 
ATOM     24  C   UNL     1       6.507   1.246  -6.585  1.00  0.00     0.002 A 
BRANCH  19  25
ATOM     25  C   UNL     1       3.193   4.391  -3.881  1.00  0.00     0.161 C 
BRANCH  25  26
ATOM     26  C   UNL     1       3.290   5.926  -4.471  1.00  0.00    -0.028 A 
ATOM     27  C   UNL     1       3.219   6.386  -5.780  1.00  0.00     0.007 A 
ATOM     28  C   UNL     1       3.391   7.061  -3.672  1.00  0.00     0.007 A 
ATOM     29  C   UNL     1       4.125   7.429  -6.202  1.00  0.00     0.021 A 
ATOM     30  C   UNL     1       4.330   8.112  -4.039  1.00  0.00     0.021 A 
ATOM     31  C   UNL     1       5.154   8.036  -5.273  1.00  0.00     0.041 A 
ATOM     32  Cl  UNL     1       7.708   8.091  -5.596  1.00  0.00    -0.084 Cl
ENDBRANCH  25  26
ENDBRANCH  19  25
ENDBRANCH   7   8
ENDBRANCH   6   7
ENDBRANCH   4   6
ENDBRANCH   3   4
ENDBRANCH   2   3
ENDBRANCH   1   2
BRANCH   1  33
ATOM     33  O   UNL     1       3.174   1.099   1.603  1.00  0.00    -0.374 OA
BRANCH  33  34
ATOM     34  C   UNL     1       2.621   2.098   2.433  1.00  0.00     0.202 C 
BRANCH  34  35
ATOM     35  C   UNL     1       3.149   3.545   2.243  1.00  0.00     0.261 C 
BRANCH  35  36
ATOM     36  O   UNL     1       3.847   3.869   1.008  1.00  0.00    -0.460 OA
BRANCH  36  37
ATOM     37  C   UNL     1       5.208   3.716   0.922  1.00  0.00     0.338 C 
ATOM     38  O   UNL     1       5.941   3.333   1.814  1.00  0.00    -0.246 OA
BRANCH  37  39
ATOM     39  C   UNL     1       5.671   4.119  -0.461  1.00  0.00     0.060 A 
ATOM     40  C   UNL     1       5.170   5.272  -0.996  1.00  0.00     0.016 A 
ATOM     41  C   UNL     1       6.615   3.455  -1.268  1.00  0.00     0.016 A 
ATOM     42  C   UNL     1       5.489   5.612  -2.331  1.00  0.00     0.010 A 
ATOM     43  C   UNL     1       6.852   3.815  -2.675  1.00  0.00     0.010 A 
ATOM     44  C   UNL     1       6.157   4.851  -3.326  1.00  0.00    -0.014 A 
BRANCH  44  45
ATOM     45  C   UNL     1       6.118   5.240  -4.915  1.00  0.00     0.031 A 
ATOM     46  C   UNL     1       5.319   4.670  -6.363  1.00  0.00     0.074 A 
ATOM     47  C   UNL     1       6.419   6.524  -5.154  1.00  0.00     0.049 A 
ATOM     48  N   UNL     1       5.686   4.821  -7.645  1.00  0.00    -0.248 NA
ATOM     49  C   UNL     1       4.076   3.833  -6.392  1.00  0.00     0.031 C 
ATOM     50  C   UNL     1       6.634   7.925  -3.801  1.00  0.00     0.029 A 
ATOM     51  N   UNL     1       6.224   7.437  -6.786  1.00  0.00    -0.354 N 
ATOM     52  C   UNL     1       4.864   3.986  -8.446  1.00  0.00     0.074 A 
ATOM     53  C   UNL     1       3.944   3.343  -7.597  1.00  0.00     0.031 C 
ATOM     54  C   UNL     1       6.447   9.439  -4.511  1.00  0.00     0.029 A 
ATOM     55  C   UNL     1       6.203   9.279  -6.432  1.00  0.00     0.049 A 
ATOM     56  H   UNL     1       6.146   7.020  -7.674  1.00  0.00     0.167 HD
ATOM     57  C   UNL     1       4.748   3.769  -9.777  1.00  0.00     0.037 A 
ATOM     58  C   UNL     1       6.600  10.233  -7.298  1.00  0.00     0.037 A 
ATOM     59  C   UNL     1       5.231   4.696 -10.741  1.00  0.00     0.049 A 
ATOM     60  C   UNL     1       6.640   9.869  -8.741  1.00  0.00     0.074 A 
ATOM     61  C   UNL     1       5.252   4.565 -12.112  1.00  0.00     0.029 A 
ATOM     62  N   UNL     1       5.620   5.992 -10.427  1.00  0.00    -0.354 N 
ATOM     63  N   UNL     1       6.334   8.729  -9.310  1.00  0.00    -0.248 NA
ATOM     64  C   UNL     1       7.040  10.925  -9.671  1.00  0.00     0.031 C 
ATOM     65  C   UNL     1       5.673   5.784 -12.640  1.00  0.00     0.029 A 
ATOM     66  C   UNL     1       5.864   6.683 -11.598  1.00  0.00     0.049 A 
ATOM     67  H   UNL     1       5.707   6.359  -9.518  1.00  0.00     0.167 HD
ATOM     68  C   UNL     1       6.446   8.936 -10.670  1.00  0.00     0.074 A 
ATOM     69  C   UNL     1       6.851  10.321 -10.837  1.00  0.00     0.031 C 
ATOM     70  C   UNL     1       6.230   8.071 -11.691  1.00  0.00     0.037 A 
BRANCH  57  71
ATOM     71  C   UNL     1       4.151   2.438 -10.247  1.00  0.00     0.064 A 
ATOM     72  C   UNL     1       2.799   2.055 -10.147  1.00  0.00     0.173 A 
ATOM     73  C   UNL     1       5.037   1.471 -10.759  1.00  0.00     0.173 A 
ATOM     74  F   UNL     1       1.879   2.917  -9.687  1.00  0.00    -0.203 F 
ATOM     75  C   UNL     1       2.387   0.747 -10.435  1.00  0.00     0.198 A 
ATOM     76  C   UNL     1       4.610   0.190 -11.112  1.00  0.00     0.198 A 
ATOM     77  F   UNL     1       6.336   1.766 -10.912  1.00  0.00    -0.203 F 
ATOM     78  F   UNL     1       1.119   0.376 -10.201  1.00  0.00    -0.200 F 
ATOM     79  C   UNL     1       3.292  -0.183 -10.920  1.00  0.00     0.200 A 
ATOM     80  F   UNL     1       5.486  -0.691 -11.615  1.00  0.00    -0.200 F 
ATOM     81  F   UNL     1       2.898  -1.436 -11.190  1.00  0.00    -0.200 F 
ENDBRANCH  57  71
BRANCH  58  82
ATOM     82  C   UNL     1       7.025  11.534  -6.741  1.00  0.00     0.064 A 
ATOM     83  C   UNL     1       6.158  12.624  -6.810  1.00  0.00     0.173 A 
ATOM     84  C   UNL     1       8.228  11.700  -6.026  1.00  0.00     0.173 A 
ATOM     85  F   UNL     1       5.020  12.522  -7.511  1.00  0.00    -0.203 F 
ATOM     86  C   UNL     1       6.447  13.815  -6.149  1.00  0.00     0.198 A 
ATOM     87  C   UNL     1       8.500  12.881  -5.337  1.00  0.00     0.198 A 
ATOM     88  F   UNL     1       9.122  10.704  -5.951  1.00  0.00    -0.203 F 
ATOM     89  F   UNL     1       5.588  14.840  -6.225  1.00  0.00    -0.200 F 
ATOM     90  C   UNL     1       7.604  13.935  -5.394  1.00  0.00     0.200 A 
ATOM     91  F   UNL     1       9.611  12.985  -4.593  1.00  0.00    -0.200 F 
ATOM     92  F   UNL     1       7.850  15.064  -4.715  1.00  0.00    -0.200 F 
ENDBRANCH  58  82
BRANCH  70  93
ATOM     93  C   UNL     1       6.379   8.621 -13.068  1.00  0.00     0.064 A 
ATOM     94  C   UNL     1       7.645   8.894 -13.598  1.00  0.00     0.173 A 
ATOM     95  C   UNL     1       5.252   8.806 -13.882  1.00  0.00     0.173 A 
ATOM     96  F   UNL     1       8.743   8.723 -12.846  1.00  0.00    -0.203 F 
ATOM     97  C   UNL     1       7.777   9.378 -14.891  1.00  0.00     0.198 A 
ATOM     98  C   UNL     1       5.392   9.254 -15.188  1.00  0.00     0.198 A 
ATOM     99  F   UNL     1       4.025   8.525 -13.417  1.00  0.00    -0.203 F 
ATOM    100  F   UNL     1       8.991   9.689 -15.364  1.00  0.00    -0.200 F 
ATOM    101  C   UNL     1       6.652   9.552 -15.687  1.00  0.00     0.200 A 
ATOM    102  F   UNL     1       4.310   9.395 -15.965  1.00  0.00    -0.200 F 
ATOM    103  F   UNL     1       6.784  10.012 -16.938  1.00  0.00    -0.200 F 
ENDBRANCH  70  93
ENDBRANCH  44  45
ENDBRANCH  37  39
ENDBRANCH  36  37
ENDBRANCH  35  36
ENDBRANCH  34  35
ENDBRANCH  33  34
ENDBRANCH   1  33
TORSDOF 18
