REMARK SMILES C[C@@H](Nc1cccc(C(=O)OCCOCCOC(=O)c2ccc(-c3c4nc(c(-c5c(F)c(F)c(F)c(F)c5F)c5ccc([nH]5)c(-c5c(F)c(F)c(F)c(F)c5F)c5nc(c(-c6c(F)c(F)c(F)c(F)c6F)c6ccc3[nH]6)C=C5)C=C4)cc2)c1)C1CC[NH+](C)CC1
REMARK SMILES IDX 13 1 12 2 11 3 9 4 10 5 8 6 4 7 5 8 83 9 6 10 7 11 3 12 2 14
REMARK SMILES IDX 1 15 84 16 85 17 90 18 86 19 89 20 87 21 88 22 14 24 15 25
REMARK SMILES IDX 16 26 17 27 18 28 19 29 20 30 21 31 82 32 22 33 81 34 23 35
REMARK SMILES IDX 24 36 25 37 75 38 26 39 80 40 74 41 76 42 27 43 79 44 73 45
REMARK SMILES IDX 72 46 28 48 60 49 40 50 59 51 41 52 44 53 58 54 77 55 42 56
REMARK SMILES IDX 43 57 57 59 78 60 45 61 29 62 30 63 38 64 31 65 32 66 36 67
REMARK SMILES IDX 39 68 33 69 34 70 37 71 35 72 61 73 62 74 70 75 63 76 64 77
REMARK SMILES IDX 68 78 71 79 65 80 66 81 69 82 67 83 46 84 47 85 55 86 48 87
REMARK SMILES IDX 49 88 53 89 56 90 50 91 51 92 54 93 52 94
REMARK H PARENT 3 13 87 23 76 47 44 58
REMARK Flexibility Score: inf
ROOT
ATOM      1  C   UNL     1      -4.656  -2.363   7.349  1.00  0.00     0.202 C 
ENDROOT
BRANCH   1   2
ATOM      2  C   UNL     1      -4.745  -1.696   5.978  1.00  0.00     0.261 C 
BRANCH   2   3
ATOM      3  O   UNL     1      -3.478  -1.188   5.548  1.00  0.00    -0.460 OA
BRANCH   3   4
ATOM      4  C   UNL     1      -3.405   0.162   5.557  1.00  0.00     0.338 C 
ATOM      5  O   UNL     1      -4.283   0.945   5.881  1.00  0.00    -0.246 OA
BRANCH   4   6
ATOM      6  C   UNL     1      -2.099   0.619   5.075  1.00  0.00     0.062 A 
ATOM      7  C   UNL     1       0.587   0.192   3.473  1.00  0.00     0.035 A 
ATOM      8  C   UNL     1       0.618   1.968   3.069  1.00  0.00     0.026 A 
ATOM      9  C   UNL     1      -0.687  -0.478   4.597  1.00  0.00     0.041 A 
ATOM     10  C   UNL     1      -0.711   3.060   3.656  1.00  0.00     0.003 A 
ATOM     11  C   UNL     1      -2.100   2.367   4.592  1.00  0.00     0.016 A 
BRANCH   7  12
ATOM     12  N   UNL     1       1.244  -0.682   2.597  1.00  0.00    -0.382 N 
ATOM     13  H   UNL     1       1.964  -1.271   2.918  1.00  0.00     0.160 HD
BRANCH  12  14
ATOM     14  C   UNL     1       0.826  -0.700   1.168  1.00  0.00     0.079 C 
ATOM     15  C   UNL     1       1.817   0.104   0.317  1.00  0.00     0.031 C 
BRANCH  14  16
ATOM     16  C   UNL     1      -0.640  -0.401   0.712  1.00  0.00     0.022 C 
ATOM     17  C   UNL     1      -1.116   1.039   0.545  1.00  0.00     0.067 C 
ATOM     18  C   UNL     1      -1.743  -1.099   1.460  1.00  0.00     0.067 C 
ATOM     19  C   UNL     1      -1.554   1.756   1.832  1.00  0.00     0.262 C 
ATOM     20  C   UNL     1      -2.117  -0.392   2.765  1.00  0.00     0.262 C 
ATOM     21  N   UNL     1      -1.304   0.992   3.178  1.00  0.00    -0.337 N 
ATOM     22  C   UNL     1      -0.229   1.480   4.897  1.00  0.00     0.332 C 
ATOM     23  H   UNL     1      -0.896   1.341   4.045  1.00  0.00     0.347 HD
ENDBRANCH  14  16
ENDBRANCH  12  14
ENDBRANCH   7  12
ENDBRANCH   4   6
ENDBRANCH   3   4
ENDBRANCH   2   3
ENDBRANCH   1   2
BRANCH   1  24
ATOM     24  O   UNL     1      -4.178  -1.602   8.452  1.00  0.00    -0.374 OA
BRANCH  24  25
ATOM     25  C   UNL     1      -2.830  -1.141   8.457  1.00  0.00     0.202 C 
BRANCH  25  26
ATOM     26  C   UNL     1      -1.686  -2.161   8.521  1.00  0.00     0.261 C 
BRANCH  26  27
ATOM     27  O   UNL     1      -1.700  -3.135   7.465  1.00  0.00    -0.460 OA
BRANCH  27  28
ATOM     28  C   UNL     1      -2.039  -4.383   7.873  1.00  0.00     0.338 C 
ATOM     29  O   UNL     1      -2.317  -4.747   9.003  1.00  0.00    -0.246 OA
BRANCH  28  30
ATOM     30  C   UNL     1      -2.197  -5.277   6.715  1.00  0.00     0.060 A 
ATOM     31  C   UNL     1      -3.447  -5.881   6.527  1.00  0.00     0.016 A 
ATOM     32  C   UNL     1      -1.103  -5.637   5.929  1.00  0.00     0.016 A 
ATOM     33  C   UNL     1      -3.596  -6.893   5.586  1.00  0.00     0.010 A 
ATOM     34  C   UNL     1      -1.250  -6.664   4.992  1.00  0.00     0.010 A 
ATOM     35  C   UNL     1      -2.484  -7.324   4.852  1.00  0.00    -0.014 A 
BRANCH  35  36
ATOM     36  C   UNL     1      -2.578  -8.585   4.081  1.00  0.00     0.031 A 
ATOM     37  C   UNL     1      -2.055  -9.851   4.698  1.00  0.00     0.074 A 
ATOM     38  C   UNL     1      -3.166  -8.608   2.874  1.00  0.00     0.049 A 
ATOM     39  N   UNL     1      -2.014 -11.063   4.207  1.00  0.00    -0.248 NA
ATOM     40  C   UNL     1      -1.502  -9.733   6.057  1.00  0.00     0.031 C 
ATOM     41  C   UNL     1      -3.763  -7.454   2.207  1.00  0.00     0.029 A 
ATOM     42  N   UNL     1      -3.358  -9.646   1.999  1.00  0.00    -0.354 N 
ATOM     43  C   UNL     1      -1.427 -11.848   5.191  1.00  0.00     0.074 A 
ATOM     44  C   UNL     1      -1.095 -10.971   6.292  1.00  0.00     0.031 C 
ATOM     45  C   UNL     1      -4.257  -7.847   1.021  1.00  0.00     0.029 A 
ATOM     46  C   UNL     1      -3.977  -9.270   0.834  1.00  0.00     0.049 A 
ATOM     47  H   UNL     1      -3.079 -10.570   2.189  1.00  0.00     0.167 HD
ATOM     48  C   UNL     1      -1.194 -13.183   5.179  1.00  0.00     0.037 A 
ATOM     49  C   UNL     1      -4.266  -9.994  -0.263  1.00  0.00     0.037 A 
ATOM     50  C   UNL     1      -1.521 -14.047   4.075  1.00  0.00     0.049 A 
ATOM     51  C   UNL     1      -3.913 -11.458  -0.293  1.00  0.00     0.074 A 
ATOM     52  C   UNL     1      -1.337 -15.414   3.961  1.00  0.00     0.029 A 
ATOM     53  N   UNL     1      -2.094 -13.620   2.884  1.00  0.00    -0.354 N 
ATOM     54  N   UNL     1      -3.368 -12.199   0.642  1.00  0.00    -0.248 NA
ATOM     55  C   UNL     1      -4.214 -12.185  -1.533  1.00  0.00     0.031 C 
ATOM     56  C   UNL     1      -1.745 -15.804   2.680  1.00  0.00     0.029 A 
ATOM     57  C   UNL     1      -2.241 -14.692   2.018  1.00  0.00     0.049 A 
ATOM     58  H   UNL     1      -2.357 -12.693   2.685  1.00  0.00     0.167 HD
ATOM     59  C   UNL     1      -3.291 -13.483   0.119  1.00  0.00     0.074 A 
ATOM     60  C   UNL     1      -3.852 -13.420  -1.216  1.00  0.00     0.031 C 
ATOM     61  C   UNL     1      -2.805 -14.612   0.692  1.00  0.00     0.037 A 
BRANCH  48  62
ATOM     62  C   UNL     1      -0.514 -13.773   6.382  1.00  0.00     0.064 A 
ATOM     63  C   UNL     1      -1.155 -13.858   7.628  1.00  0.00     0.173 A 
ATOM     64  C   UNL     1       0.801 -14.253   6.289  1.00  0.00     0.173 A 
ATOM     65  F   UNL     1      -2.408 -13.401   7.776  1.00  0.00    -0.203 F 
ATOM     66  C   UNL     1      -0.490 -14.363   8.744  1.00  0.00     0.198 A 
ATOM     67  C   UNL     1       1.451 -14.787   7.399  1.00  0.00     0.198 A 
ATOM     68  F   UNL     1       1.460 -14.200   5.122  1.00  0.00    -0.203 F 
ATOM     69  F   UNL     1      -1.100 -14.373   9.937  1.00  0.00    -0.200 F 
ATOM     70  C   UNL     1       0.810 -14.830   8.627  1.00  0.00     0.200 A 
ATOM     71  F   UNL     1       2.703 -15.250   7.281  1.00  0.00    -0.200 F 
ATOM     72  F   UNL     1       1.450 -15.311   9.702  1.00  0.00    -0.200 F 
ENDBRANCH  48  62
BRANCH  49  73
ATOM     73  C   UNL     1      -4.932  -9.342  -1.419  1.00  0.00     0.064 A 
ATOM     74  C   UNL     1      -6.256  -9.652  -1.756  1.00  0.00     0.173 A 
ATOM     75  C   UNL     1      -4.265  -8.388  -2.202  1.00  0.00     0.173 A 
ATOM     76  F   UNL     1      -6.927 -10.575  -1.052  1.00  0.00    -0.203 F 
ATOM     77  C   UNL     1      -6.887  -9.036  -2.835  1.00  0.00     0.198 A 
ATOM     78  C   UNL     1      -4.905  -7.753  -3.264  1.00  0.00     0.198 A 
ATOM     79  F   UNL     1      -2.995  -8.058  -1.922  1.00  0.00    -0.203 F 
ATOM     80  F   UNL     1      -8.143  -9.374  -3.156  1.00  0.00    -0.200 F 
ATOM     81  C   UNL     1      -6.214  -8.082  -3.583  1.00  0.00     0.200 A 
ATOM     82  F   UNL     1      -4.255  -6.822  -3.975  1.00  0.00    -0.200 F 
ATOM     83  F   UNL     1      -6.825  -7.481  -4.613  1.00  0.00    -0.200 F 
ENDBRANCH  49  73
BRANCH  61  84
ATOM     84  C   UNL     1      -2.893 -15.882  -0.105  1.00  0.00     0.064 A 
ATOM     85  C   UNL     1      -2.080 -16.110  -1.225  1.00  0.00     0.173 A 
ATOM     86  C   UNL     1      -3.775 -16.902   0.284  1.00  0.00     0.173 A 
ATOM     87  F   UNL     1      -1.231 -15.161  -1.647  1.00  0.00    -0.203 F 
ATOM     88  C   UNL     1      -2.167 -17.300  -1.942  1.00  0.00     0.198 A 
ATOM     89  C   UNL     1      -3.836 -18.104  -0.416  1.00  0.00     0.198 A 
ATOM     90  F   UNL     1      -4.570 -16.739   1.352  1.00  0.00    -0.203 F 
ATOM     91  F   UNL     1      -1.417 -17.476  -3.039  1.00  0.00    -0.200 F 
ATOM     92  C   UNL     1      -3.038 -18.299  -1.533  1.00  0.00     0.200 A 
ATOM     93  F   UNL     1      -4.668 -19.073  -0.010  1.00  0.00    -0.200 F 
ATOM     94  F   UNL     1      -3.115 -19.447  -2.220  1.00  0.00    -0.200 F 
ENDBRANCH  61  84
ENDBRANCH  35  36
ENDBRANCH  28  30
ENDBRANCH  27  28
ENDBRANCH  26  27
ENDBRANCH  25  26
ENDBRANCH  24  25
ENDBRANCH   1  24
TORSDOF 17
