REMARK SMILES C=CCOc1ccc(C(=O)N2CCC[C@H]2C(=O)OCCOCCOC(=O)c2ccc(-c3c4nc(c(-c5c(F)c(F)c(F)c(F)c5F)c5ccc([nH]5)c(-c5c(F)c(F)c(F)c(F)c5F)c5nc(c(-c6c(F)c(F)c(F)c(F)c6F)c6ccc3[nH]6)C=C5)C=C4)cc2)cc1
REMARK SMILES IDX 19 1 18 2 16 3 17 4 15 5 11 6 12 7 13 8 14 9 9 10 10 11 8 12
REMARK SMILES IDX 5 13 6 14 91 15 7 16 90 17 4 18 3 19 2 20 1 21 20 22 21 23
REMARK SMILES IDX 22 24 23 25 24 26 25 27 26 28 27 29 28 30 89 31 29 32 88 33
REMARK SMILES IDX 30 34 31 35 32 36 82 37 33 38 87 39 81 40 83 41 34 42 86 43
REMARK SMILES IDX 80 44 79 45 35 47 67 48 47 49 66 50 48 51 51 52 65 53 84 54
REMARK SMILES IDX 49 55 50 56 64 58 85 59 52 60 36 61 37 62 45 63 38 64 39 65
REMARK SMILES IDX 43 66 46 67 40 68 41 69 44 70 42 71 68 72 69 73 77 74 70 75
REMARK SMILES IDX 71 76 75 77 78 78 72 79 73 80 76 81 74 82 53 83 54 84 62 85
REMARK SMILES IDX 55 86 56 87 60 88 63 89 57 90 58 91 61 92 59 93
REMARK H PARENT 83 46 51 57
REMARK Flexibility Score: inf
ROOT
ATOM      1  C   UNL     1       1.560  -8.383   7.151  1.00  0.00     0.261 C 
ENDROOT
BRANCH   1   2
ATOM      2  O   UNL     1       1.622  -7.158   6.399  1.00  0.00    -0.462 OA
BRANCH   2   3
ATOM      3  C   UNL     1       2.091  -7.295   5.132  1.00  0.00     0.328 C 
ATOM      4  O   UNL     1       2.503  -8.350   4.652  1.00  0.00    -0.250 OA
BRANCH   3   5
ATOM      5  C   UNL     1       2.091  -5.998   4.317  1.00  0.00     0.195 C 
ATOM      6  N   UNL     1       1.631  -4.730   4.886  1.00  0.00    -0.325 N 
ATOM      7  C   UNL     1       2.760  -3.887   5.230  1.00  0.00     0.121 C 
ATOM      8  C   UNL     1       3.798  -4.241   4.180  1.00  0.00     0.024 C 
ATOM      9  C   UNL     1       3.539  -5.715   3.877  1.00  0.00     0.039 C 
BRANCH   6  10
ATOM     10  C   UNL     1       0.295  -4.380   4.765  1.00  0.00     0.254 C 
ATOM     11  O   UNL     1      -0.611  -5.197   4.904  1.00  0.00    -0.269 OA
BRANCH  10  12
ATOM     12  C   UNL     1      -0.086  -3.037   4.245  1.00  0.00     0.040 A 
ATOM     13  C   UNL     1      -0.965  -0.700   2.946  1.00  0.00     0.119 A 
ATOM     14  C   UNL     1      -1.806  -1.361   3.844  1.00  0.00     0.047 A 
ATOM     15  C   UNL     1       0.314  -1.194   2.721  1.00  0.00     0.047 A 
ATOM     16  C   UNL     1      -1.372  -2.531   4.486  1.00  0.00     0.017 A 
ATOM     17  C   UNL     1       0.734  -2.371   3.334  1.00  0.00     0.017 A 
BRANCH  13  18
ATOM     18  O   UNL     1      -1.419   0.458   2.377  1.00  0.00    -0.490 OA
BRANCH  18  19
ATOM     19  C   UNL     1      -1.289   0.523   0.947  1.00  0.00     0.257 C 
BRANCH  19  20
ATOM     20  C   UNL     1       0.045   1.082   0.532  1.00  0.00     0.006 C 
ATOM     21  C   UNL     1       0.850   0.515  -0.378  1.00  0.00     0.007 C 
ENDBRANCH  19  20
ENDBRANCH  18  19
ENDBRANCH  13  18
ENDBRANCH  10  12
ENDBRANCH   6  10
ENDBRANCH   3   5
ENDBRANCH   2   3
ENDBRANCH   1   2
BRANCH   1  22
ATOM     22  C   UNL     1       0.133  -8.918   7.303  1.00  0.00     0.202 C 
BRANCH  22  23
ATOM     23  O   UNL     1      -0.548  -9.292   6.109  1.00  0.00    -0.374 OA
BRANCH  23  24
ATOM     24  C   UNL     1      -1.139  -8.237   5.344  1.00  0.00     0.202 C 
BRANCH  24  25
ATOM     25  C   UNL     1      -2.416  -7.611   5.922  1.00  0.00     0.261 C 
BRANCH  25  26
ATOM     26  O   UNL     1      -2.138  -6.778   7.065  1.00  0.00    -0.460 OA
BRANCH  26  27
ATOM     27  C   UNL     1      -2.648  -7.196   8.241  1.00  0.00     0.338 C 
ATOM     28  O   UNL     1      -3.392  -8.148   8.438  1.00  0.00    -0.246 OA
BRANCH  27  29
ATOM     29  C   UNL     1      -2.018  -6.442   9.343  1.00  0.00     0.060 A 
ATOM     30  C   UNL     1      -1.493  -7.174  10.417  1.00  0.00     0.016 A 
ATOM     31  C   UNL     1      -1.994  -5.046   9.358  1.00  0.00     0.016 A 
ATOM     32  C   UNL     1      -0.996  -6.513  11.539  1.00  0.00     0.010 A 
ATOM     33  C   UNL     1      -1.508  -4.383  10.490  1.00  0.00     0.010 A 
ATOM     34  C   UNL     1      -1.046  -5.114  11.601  1.00  0.00    -0.014 A 
BRANCH  34  35
ATOM     35  C   UNL     1      -0.811  -4.421  12.890  1.00  0.00     0.031 A 
ATOM     36  C   UNL     1      -2.006  -4.034  13.719  1.00  0.00     0.074 A 
ATOM     37  C   UNL     1       0.431  -4.155  13.330  1.00  0.00     0.049 A 
ATOM     38  N   UNL     1      -2.065  -3.324  14.816  1.00  0.00    -0.248 NA
ATOM     39  C   UNL     1      -3.314  -4.517  13.243  1.00  0.00     0.031 C 
ATOM     40  C   UNL     1       1.668  -4.546  12.660  1.00  0.00     0.029 A 
ATOM     41  N   UNL     1       0.851  -3.478  14.449  1.00  0.00    -0.354 N 
ATOM     42  C   UNL     1      -3.411  -3.272  15.157  1.00  0.00     0.074 A 
ATOM     43  C   UNL     1      -4.138  -3.998  14.140  1.00  0.00     0.031 C 
ATOM     44  C   UNL     1       2.712  -4.085  13.372  1.00  0.00     0.029 A 
ATOM     45  C   UNL     1       2.215  -3.331  14.522  1.00  0.00     0.049 A 
ATOM     46  H   UNL     1       0.234  -3.131  15.133  1.00  0.00     0.167 HD
ATOM     47  C   UNL     1      -3.986  -2.676  16.227  1.00  0.00     0.037 A 
ATOM     48  C   UNL     1       2.966  -2.637  15.400  1.00  0.00     0.037 A 
ATOM     49  C   UNL     1      -3.263  -1.949  17.234  1.00  0.00     0.049 A 
ATOM     50  C   UNL     1       2.289  -1.888  16.523  1.00  0.00     0.074 A 
ATOM     51  C   UNL     1      -3.758  -1.279  18.339  1.00  0.00     0.029 A 
ATOM     52  N   UNL     1      -1.885  -1.798  17.256  1.00  0.00    -0.354 N 
ATOM     53  N   UNL     1       1.017  -1.827  16.831  1.00  0.00    -0.248 NA
ATOM     54  C   UNL     1       3.156  -1.104  17.417  1.00  0.00     0.031 C 
ATOM     55  C   UNL     1      -2.682  -0.692  19.011  1.00  0.00     0.029 A 
ATOM     56  C   UNL     1      -1.514  -1.038  18.352  1.00  0.00     0.049 A 
ATOM     57  H   UNL     1      -1.264  -2.175  16.592  1.00  0.00     0.167 HD
ATOM     58  C   UNL     1       0.936  -1.045  17.977  1.00  0.00     0.074 A 
ATOM     59  C   UNL     1       2.287  -0.647  18.308  1.00  0.00     0.031 C 
ATOM     60  C   UNL     1      -0.159  -0.692  18.693  1.00  0.00     0.037 A 
BRANCH  47  61
ATOM     61  C   UNL     1      -5.477  -2.770  16.357  1.00  0.00     0.064 A 
ATOM     62  C   UNL     1      -6.105  -3.967  16.729  1.00  0.00     0.173 A 
ATOM     63  C   UNL     1      -6.281  -1.638  16.158  1.00  0.00     0.173 A 
ATOM     64  F   UNL     1      -5.380  -5.081  16.916  1.00  0.00    -0.203 F 
ATOM     65  C   UNL     1      -7.488  -4.031  16.883  1.00  0.00     0.198 A 
ATOM     66  C   UNL     1      -7.660  -1.699  16.338  1.00  0.00     0.198 A 
ATOM     67  F   UNL     1      -5.727  -0.469  15.805  1.00  0.00    -0.203 F 
ATOM     68  F   UNL     1      -8.071  -5.194  17.205  1.00  0.00    -0.200 F 
ATOM     69  C   UNL     1      -8.262  -2.896  16.696  1.00  0.00     0.200 A 
ATOM     70  F   UNL     1      -8.405  -0.598  16.170  1.00  0.00    -0.200 F 
ATOM     71  F   UNL     1      -9.591  -2.956  16.858  1.00  0.00    -0.200 F 
ENDBRANCH  47  61
BRANCH  48  72
ATOM     72  C   UNL     1       4.445  -2.586  15.250  1.00  0.00     0.064 A 
ATOM     73  C   UNL     1       5.288  -3.165  16.208  1.00  0.00     0.173 A 
ATOM     74  C   UNL     1       5.045  -1.912  14.177  1.00  0.00     0.173 A 
ATOM     75  F   UNL     1       4.763  -3.796  17.269  1.00  0.00    -0.203 F 
ATOM     76  C   UNL     1       6.674  -3.049  16.113  1.00  0.00     0.198 A 
ATOM     77  C   UNL     1       6.431  -1.822  14.066  1.00  0.00     0.198 A 
ATOM     78  F   UNL     1       4.285  -1.335  13.235  1.00  0.00    -0.203 F 
ATOM     79  F   UNL     1       7.455  -3.561  17.074  1.00  0.00    -0.200 F 
ATOM     80  C   UNL     1       7.244  -2.381  15.040  1.00  0.00     0.200 A 
ATOM     81  F   UNL     1       6.978  -1.184  13.023  1.00  0.00    -0.200 F 
ATOM     82  F   UNL     1       8.576  -2.263  14.952  1.00  0.00    -0.200 F 
ENDBRANCH  48  72
BRANCH  60  83
ATOM     83  C   UNL     1       0.050   0.095  19.953  1.00  0.00     0.064 A 
ATOM     84  C   UNL     1       0.377   1.457  19.930  1.00  0.00     0.173 A 
ATOM     85  C   UNL     1      -0.166  -0.511  21.201  1.00  0.00     0.173 A 
ATOM     86  F   UNL     1       0.606   2.077  18.762  1.00  0.00    -0.203 F 
ATOM     87  C   UNL     1       0.490   2.183  21.113  1.00  0.00     0.198 A 
ATOM     88  C   UNL     1      -0.078   0.224  22.379  1.00  0.00     0.198 A 
ATOM     89  F   UNL     1      -0.489  -1.811  21.274  1.00  0.00    -0.203 F 
ATOM     90  F   UNL     1       0.832   3.478  21.071  1.00  0.00    -0.200 F 
ATOM     91  C   UNL     1       0.253   1.569  22.334  1.00  0.00     0.200 A 
ATOM     92  F   UNL     1      -0.323  -0.368  23.556  1.00  0.00    -0.200 F 
ATOM     93  F   UNL     1       0.344   2.276  23.470  1.00  0.00    -0.200 F 
ENDBRANCH  60  83
ENDBRANCH  34  35
ENDBRANCH  27  29
ENDBRANCH  26  27
ENDBRANCH  25  26
ENDBRANCH  24  25
ENDBRANCH  23  24
ENDBRANCH  22  23
ENDBRANCH   1  22
TORSDOF 19
