REMARK SMILES C[C@H]1CC[C@@]2(CO)C(C(=O)OCCOCCOC(=O)c3ccc(-c4c5nc(c(-c6c(F)c(F)c(F)c(F)c6F)c6ccc([nH]6)c(-c6c(F)c(F)c(F)c(F)c6F)c6nc(c(-c7c(F)c(F)c(F)c(F)c7F)c7ccc4[nH]7)C=C6)C=C5)cc3)=C[C@@H](O)C[C@@H]2[C@@]1(C)CCc1ccoc1
REMARK SMILES IDX 13 1 12 2 11 3 9 4 10 5 8 6 1 7 2 8 3 9 88 10 4 11 87 12
REMARK SMILES IDX 89 13 5 14 86 15 84 16 83 17 90 18 91 19 92 20 93 21 96 22
REMARK SMILES IDX 94 23 95 24 6 25 7 26 85 28 14 30 15 31 16 32 17 33 18 34
REMARK SMILES IDX 19 35 20 36 21 37 82 38 22 39 81 40 23 41 24 42 25 43 75 44
REMARK SMILES IDX 26 45 80 46 74 47 76 48 27 49 79 50 73 51 72 52 28 54 60 55
REMARK SMILES IDX 40 56 59 57 41 58 44 59 58 60 77 61 42 62 43 63 57 65 78 66
REMARK SMILES IDX 45 67 29 68 30 69 38 70 31 71 32 72 36 73 39 74 33 75 34 76
REMARK SMILES IDX 37 77 35 78 61 79 62 80 70 81 63 82 64 83 68 84 71 85 65 86
REMARK SMILES IDX 66 87 69 88 67 89 46 90 47 91 55 92 48 93 49 94 53 95 56 96
REMARK SMILES IDX 50 97 51 98 54 99 52 100
REMARK H PARENT 7 27 85 29 76 53 44 64
REMARK Flexibility Score: inf
ROOT
ATOM      1  C   UNL     1       5.653   0.421  -0.222  1.00  0.00     0.202 C 
ENDROOT
BRANCH   1   2
ATOM      2  C   UNL     1       4.383   0.108  -1.026  1.00  0.00     0.261 C 
BRANCH   2   3
ATOM      3  O   UNL     1       3.263   0.953  -0.724  1.00  0.00    -0.460 OA
BRANCH   3   4
ATOM      4  C   UNL     1       2.375   0.360   0.119  1.00  0.00     0.334 C 
ATOM      5  O   UNL     1       2.542  -0.758   0.583  1.00  0.00    -0.247 OA
BRANCH   4   6
ATOM      6  C   UNL     1       1.191   1.242   0.463  1.00  0.00     0.044 C 
ATOM      7  C   UNL     1       0.694  -3.003  -0.121  1.00  0.00     0.008 C 
ATOM      8  C   UNL     1      -0.658  -2.485   0.437  1.00  0.00    -0.008 C 
ATOM      9  C   UNL     1      -0.485  -1.959   1.866  1.00  0.00     0.005 C 
ATOM     10  C   UNL     1      -1.427  -1.460  -0.499  1.00  0.00    -0.026 C 
ATOM     11  C   UNL     1       0.170  -0.593   2.011  1.00  0.00     0.015 C 
ATOM     12  C   UNL     1      -0.547  -0.158  -0.535  1.00  0.00     0.011 C 
ATOM     13  C   UNL     1      -2.852  -1.201   0.038  1.00  0.00     0.012 C 
ATOM     14  C   UNL     1      -0.092   0.445   0.875  1.00  0.00     0.029 C 
ATOM     15  C   UNL     1      -0.942   1.009  -1.484  1.00  0.00     0.041 C 
ATOM     16  C   UNL     1       0.195   2.060  -1.626  1.00  0.00     0.138 C 
ATOM     17  C   UNL     1       1.010   2.304  -0.362  1.00  0.00     0.016 C 
BRANCH  10  18
ATOM     18  C   UNL     1      -1.560  -2.175  -1.897  1.00  0.00     0.012 C 
BRANCH  18  19
ATOM     19  C   UNL     1      -2.446  -1.538  -2.984  1.00  0.00     0.039 C 
BRANCH  19  20
ATOM     20  C   UNL     1      -1.784  -1.486  -4.328  1.00  0.00    -0.010 A 
ATOM     21  C   UNL     1      -2.356  -1.842  -5.582  1.00  0.00     0.045 A 
ATOM     22  C   UNL     1      -0.496  -1.078  -4.626  1.00  0.00     0.198 A 
ATOM     23  C   UNL     1      -1.380  -1.648  -6.531  1.00  0.00     0.195 A 
ATOM     24  O   UNL     1      -0.244  -1.183  -5.955  1.00  0.00    -0.472 OA
ENDBRANCH  19  20
ENDBRANCH  18  19
ENDBRANCH  10  18
BRANCH  14  25
ATOM     25  C   UNL     1      -1.105   1.485   1.500  1.00  0.00     0.168 C 
BRANCH  25  26
ATOM     26  O   UNL     1      -2.204   0.874   2.163  1.00  0.00    -0.395 OA
ATOM     27  H   UNL     1      -2.717   0.353   1.525  1.00  0.00     0.210 HD
ENDBRANCH  25  26
ENDBRANCH  14  25
BRANCH  16  28
ATOM     28  O   UNL     1       1.090   1.614  -2.643  1.00  0.00    -0.389 OA
ATOM     29  H   UNL     1       1.493   0.774  -2.374  1.00  0.00     0.211 HD
ENDBRANCH  16  28
ENDBRANCH   4   6
ENDBRANCH   3   4
ENDBRANCH   2   3
ENDBRANCH   1   2
BRANCH   1  30
ATOM     30  O   UNL     1       5.582   0.566   1.188  1.00  0.00    -0.374 OA
BRANCH  30  31
ATOM     31  C   UNL     1       4.815   1.616   1.767  1.00  0.00     0.202 C 
BRANCH  31  32
ATOM     32  C   UNL     1       5.011   3.067   1.305  1.00  0.00     0.261 C 
BRANCH  32  33
ATOM     33  O   UNL     1       4.798   3.277  -0.101  1.00  0.00    -0.460 OA
BRANCH  33  34
ATOM     34  C   UNL     1       5.895   3.675  -0.783  1.00  0.00     0.338 C 
ATOM     35  O   UNL     1       7.014   3.894  -0.337  1.00  0.00    -0.246 OA
BRANCH  34  36
ATOM     36  C   UNL     1       5.631   3.674  -2.228  1.00  0.00     0.060 A 
ATOM     37  C   UNL     1       6.387   2.813  -3.036  1.00  0.00     0.016 A 
ATOM     38  C   UNL     1       4.784   4.628  -2.792  1.00  0.00     0.016 A 
ATOM     39  C   UNL     1       6.343   2.942  -4.420  1.00  0.00     0.010 A 
ATOM     40  C   UNL     1       4.757   4.770  -4.181  1.00  0.00     0.010 A 
ATOM     41  C   UNL     1       5.573   3.961  -4.992  1.00  0.00    -0.014 A 
BRANCH  41  42
ATOM     42  C   UNL     1       5.781   4.314  -6.413  1.00  0.00     0.031 A 
ATOM     43  C   UNL     1       6.738   5.426  -6.742  1.00  0.00     0.074 A 
ATOM     44  C   UNL     1       5.141   3.648  -7.386  1.00  0.00     0.049 A 
ATOM     45  N   UNL     1       7.013   5.972  -7.898  1.00  0.00    -0.248 NA
ATOM     46  C   UNL     1       7.484   6.002  -5.611  1.00  0.00     0.031 C 
ATOM     47  C   UNL     1       4.236   2.520  -7.180  1.00  0.00     0.029 A 
ATOM     48  N   UNL     1       5.145   3.839  -8.744  1.00  0.00    -0.354 N 
ATOM     49  C   UNL     1       7.949   6.963  -7.632  1.00  0.00     0.074 A 
ATOM     50  C   UNL     1       8.187   6.954  -6.205  1.00  0.00     0.031 C 
ATOM     51  C   UNL     1       3.748   2.133  -8.371  1.00  0.00     0.029 A 
ATOM     52  C   UNL     1       4.279   3.011  -9.412  1.00  0.00     0.049 A 
ATOM     53  H   UNL     1       5.713   4.505  -9.195  1.00  0.00     0.167 HD
ATOM     54  C   UNL     1       8.554   7.803  -8.504  1.00  0.00     0.037 A 
ATOM     55  C   UNL     1       3.932   2.994 -10.713  1.00  0.00     0.037 A 
ATOM     56  C   UNL     1       8.312   7.798  -9.921  1.00  0.00     0.049 A 
ATOM     57  C   UNL     1       4.568   3.982 -11.655  1.00  0.00     0.074 A 
ATOM     58  C   UNL     1       8.885   8.592 -10.899  1.00  0.00     0.029 A 
ATOM     59  N   UNL     1       7.414   6.956 -10.562  1.00  0.00    -0.354 N 
ATOM     60  N   UNL     1       5.460   4.910 -11.402  1.00  0.00    -0.248 NA
ATOM     61  C   UNL     1       4.149   3.923 -13.062  1.00  0.00     0.031 C 
ATOM     62  C   UNL     1       8.298   8.263 -12.125  1.00  0.00     0.029 A 
ATOM     63  C   UNL     1       7.397   7.230 -11.919  1.00  0.00     0.049 A 
ATOM     64  H   UNL     1       6.870   6.267 -10.117  1.00  0.00     0.167 HD
ATOM     65  C   UNL     1       5.727   5.527 -12.617  1.00  0.00     0.074 A 
ATOM     66  C   UNL     1       4.907   4.864 -13.610  1.00  0.00     0.031 C 
ATOM     67  C   UNL     1       6.577   6.548 -12.888  1.00  0.00     0.037 A 
BRANCH  54  68
ATOM     68  C   UNL     1       9.502   8.820  -7.943  1.00  0.00     0.064 A 
ATOM     69  C   UNL     1      10.767   8.463  -7.454  1.00  0.00     0.173 A 
ATOM     70  C   UNL     1       9.148  10.178  -7.918  1.00  0.00     0.173 A 
ATOM     71  F   UNL     1      11.147   7.177  -7.440  1.00  0.00    -0.203 F 
ATOM     72  C   UNL     1      11.633   9.425  -6.939  1.00  0.00     0.198 A 
ATOM     73  C   UNL     1      10.026  11.140  -7.427  1.00  0.00     0.198 A 
ATOM     74  F   UNL     1       7.949  10.572  -8.374  1.00  0.00    -0.203 F 
ATOM     75  F   UNL     1      12.820   9.057  -6.437  1.00  0.00    -0.200 F 
ATOM     76  C   UNL     1      11.265  10.763  -6.932  1.00  0.00     0.200 A 
ATOM     77  F   UNL     1       9.671  12.432  -7.429  1.00  0.00    -0.200 F 
ATOM     78  F   UNL     1      12.101  11.688  -6.441  1.00  0.00    -0.200 F 
ENDBRANCH  54  68
BRANCH  55  79
ATOM     79  C   UNL     1       2.911   2.025 -11.187  1.00  0.00     0.064 A 
ATOM     80  C   UNL     1       3.259   0.954 -12.019  1.00  0.00     0.173 A 
ATOM     81  C   UNL     1       1.565   2.148 -10.808  1.00  0.00     0.173 A 
ATOM     82  F   UNL     1       4.528   0.810 -12.430  1.00  0.00    -0.203 F 
ATOM     83  C   UNL     1       2.299   0.046 -12.461  1.00  0.00     0.198 A 
ATOM     84  C   UNL     1       0.611   1.225 -11.229  1.00  0.00     0.198 A 
ATOM     85  F   UNL     1       1.180   3.161 -10.018  1.00  0.00    -0.203 F 
ATOM     86  F   UNL     1       2.651  -0.949 -13.288  1.00  0.00    -0.200 F 
ATOM     87  C   UNL     1       0.978   0.177 -12.059  1.00  0.00     0.200 A 
ATOM     88  F   UNL     1      -0.663   1.352 -10.833  1.00  0.00    -0.200 F 
ATOM     89  F   UNL     1       0.057  -0.700 -12.481  1.00  0.00    -0.200 F 
ENDBRANCH  55  79
BRANCH  67  90
ATOM     90  C   UNL     1       6.691   6.991 -14.316  1.00  0.00     0.064 A 
ATOM     91  C   UNL     1       5.684   7.747 -14.933  1.00  0.00     0.173 A 
ATOM     92  C   UNL     1       7.852   6.713 -15.053  1.00  0.00     0.173 A 
ATOM     93  F   UNL     1       4.550   8.027 -14.274  1.00  0.00    -0.203 F 
ATOM     94  C   UNL     1       5.831   8.196 -16.243  1.00  0.00     0.198 A 
ATOM     95  C   UNL     1       8.006   7.186 -16.352  1.00  0.00     0.198 A 
ATOM     96  F   UNL     1       8.847   6.000 -14.502  1.00  0.00    -0.203 F 
ATOM     97  F   UNL     1       4.843   8.889 -16.826  1.00  0.00    -0.200 F 
ATOM     98  C   UNL     1       6.994   7.923 -16.947  1.00  0.00     0.200 A 
ATOM     99  F   UNL     1       9.137   6.933 -17.026  1.00  0.00    -0.200 F 
ATOM    100  F   UNL     1       7.139   8.369 -18.203  1.00  0.00    -0.200 F 
ENDBRANCH  67  90
ENDBRANCH  41  42
ENDBRANCH  34  36
ENDBRANCH  33  34
ENDBRANCH  32  33
ENDBRANCH  31  32
ENDBRANCH  30  31
ENDBRANCH   1  30
TORSDOF 20
