REMARK SMILES O=C(N[C@@H](Cc1ccccc1)C(=O)N[C@@H](CS)C(=O)N[C@@H](CO)C(=O)OCCOCCOC(=O)c1ccc(-c2c3nc(c(-c4c(F)c(F)c(F)c(F)c4F)c4ccc([nH]4)c(-c4c(F)c(F)c(F)c(F)c4F)c4nc(c(-c5c(F)c(F)c(F)c(F)c5F)c5ccc2[nH]5)C=C4)C=C3)cc1)c1ccc(F)cc1
REMARK SMILES IDX 27 1 26 2 24 3 25 4 21 5 20 6 18 7 19 8 15 10 14 11 12 12
REMARK SMILES IDX 13 13 4 15 3 16 1 17 2 18 98 20 99 21 104 22 100 23 103 24
REMARK SMILES IDX 101 25 102 26 5 27 6 28 7 29 11 30 8 31 10 32 9 33 16 34
REMARK SMILES IDX 17 35 22 37 23 38 28 40 29 41 30 42 31 43 32 44 33 45 34 46
REMARK SMILES IDX 35 47 36 48 97 49 37 50 96 51 38 52 39 53 40 54 90 55 41 56
REMARK SMILES IDX 95 57 89 58 91 59 42 60 94 61 88 62 87 63 43 65 75 66 55 67
REMARK SMILES IDX 74 68 56 69 59 70 73 71 92 72 57 73 58 74 72 76 93 77 60 78
REMARK SMILES IDX 44 79 45 80 53 81 46 82 47 83 51 84 54 85 48 86 49 87 52 88
REMARK SMILES IDX 50 89 76 90 77 91 85 92 78 93 79 94 83 95 86 96 80 97 81 98
REMARK SMILES IDX 84 99 82 100 61 101 62 102 70 103 63 104 64 105 68 106
REMARK SMILES IDX 71 107 65 108 66 109 69 110 67 111
REMARK H PARENT 20 9 14 14 3 19 17 36 23 39 91 64 59 75
REMARK Flexibility Score: inf
ROOT
ATOM      1  C   UNL     1       3.390 -10.168   2.179  1.00  0.00     0.261 C 
ENDROOT
BRANCH   1   2
ATOM      2  O   UNL     1       4.158  -8.963   2.043  1.00  0.00    -0.462 OA
BRANCH   2   3
ATOM      3  C   UNL     1       4.684  -8.752   0.805  1.00  0.00     0.331 C 
ATOM      4  O   UNL     1       4.723  -9.592  -0.087  1.00  0.00    -0.250 OA
BRANCH   3   5
ATOM      5  C   UNL     1       5.285  -7.349   0.665  1.00  0.00     0.218 C 
BRANCH   5   6
ATOM      6  N   UNL     1       4.871  -6.393   1.722  1.00  0.00    -0.339 N 
ATOM      7  C   UNL     1       5.203  -5.073   1.592  1.00  0.00     0.244 C 
ATOM      8  O   UNL     1       6.373  -4.748   1.813  1.00  0.00    -0.273 OA
ATOM      9  H   UNL     1       4.363  -6.705   2.505  1.00  0.00     0.164 HD
BRANCH   7  10
ATOM     10  C   UNL     1       4.116  -4.030   1.180  1.00  0.00     0.181 C 
BRANCH  10  11
ATOM     11  N   UNL     1       4.732  -3.180   0.156  1.00  0.00    -0.342 N 
ATOM     12  C   UNL     1       5.259  -1.928   0.302  1.00  0.00     0.243 C 
ATOM     13  O   UNL     1       6.295  -1.690  -0.328  1.00  0.00    -0.273 OA
ATOM     14  H   UNL     1       4.770  -3.559  -0.752  1.00  0.00     0.164 HD
BRANCH  12  15
ATOM     15  C   UNL     1       4.616  -0.823   1.175  1.00  0.00     0.176 C 
BRANCH  15  16
ATOM     16  N   UNL     1       3.157  -0.806   1.060  1.00  0.00    -0.340 N 
ATOM     17  O   UNL     1       1.153  -0.139   0.269  1.00  0.00    -0.269 OA
ATOM     18  C   UNL     1       2.373  -0.006   0.259  1.00  0.00     0.251 C 
ATOM     19  H   UNL     1       2.675  -1.449   1.629  1.00  0.00     0.164 HD
BRANCH  18  20
ATOM     20  C   UNL     1       2.982   1.078  -0.552  1.00  0.00     0.040 A 
ATOM     21  C   UNL     1       3.950   0.823  -1.532  1.00  0.00     0.017 A 
ATOM     22  C   UNL     1       2.567   2.394  -0.303  1.00  0.00     0.017 A 
ATOM     23  C   UNL     1       4.558   1.889  -2.201  1.00  0.00     0.040 A 
ATOM     24  C   UNL     1       3.168   3.455  -0.984  1.00  0.00     0.040 A 
ATOM     25  C   UNL     1       4.168   3.194  -1.915  1.00  0.00     0.123 A 
ATOM     26  F   UNL     1       4.765   4.214  -2.545  1.00  0.00    -0.207 F 
ENDBRANCH  18  20
ENDBRANCH  15  16
BRANCH  15  27
ATOM     27  C   UNL     1       5.174  -0.614   2.594  1.00  0.00     0.070 C 
BRANCH  27  28
ATOM     28  C   UNL     1       4.705  -1.510   3.711  1.00  0.00    -0.045 A 
ATOM     29  C   UNL     1       3.582  -1.181   4.481  1.00  0.00     0.004 A 
ATOM     30  C   UNL     1       5.425  -2.667   4.034  1.00  0.00     0.004 A 
ATOM     31  C   UNL     1       3.171  -2.012   5.527  1.00  0.00     0.000 A 
ATOM     32  C   UNL     1       4.991  -3.519   5.051  1.00  0.00     0.000 A 
ATOM     33  C   UNL     1       3.864  -3.191   5.799  1.00  0.00     0.000 A 
ENDBRANCH  27  28
ENDBRANCH  15  27
ENDBRANCH  12  15
ENDBRANCH  10  11
BRANCH  10  34
ATOM     34  C   UNL     1       2.718  -4.537   0.817  1.00  0.00     0.101 C 
BRANCH  34  35
ATOM     35  S   UNL     1       2.571  -5.521  -0.704  1.00  0.00    -0.177 SA
ATOM     36  H   UNL     1       2.898  -4.751  -1.776  1.00  0.00     0.102 HD
ENDBRANCH  34  35
ENDBRANCH  10  34
ENDBRANCH   7  10
ENDBRANCH   5   6
BRANCH   5  37
ATOM     37  C   UNL     1       6.812  -7.512   0.598  1.00  0.00     0.193 C 
BRANCH  37  38
ATOM     38  O   UNL     1       7.359  -7.663   1.911  1.00  0.00    -0.394 OA
ATOM     39  H   UNL     1       7.157  -6.874   2.438  1.00  0.00     0.210 HD
ENDBRANCH  37  38
ENDBRANCH   5  37
ENDBRANCH   3   5
ENDBRANCH   2   3
ENDBRANCH   1   2
BRANCH   1  40
ATOM     40  C   UNL     1       2.256  -9.974   3.188  1.00  0.00     0.202 C 
BRANCH  40  41
ATOM     41  O   UNL     1       1.296  -8.967   2.866  1.00  0.00    -0.374 OA
BRANCH  41  42
ATOM     42  C   UNL     1       1.701  -7.606   3.010  1.00  0.00     0.202 C 
BRANCH  42  43
ATOM     43  C   UNL     1       1.763  -7.060   4.442  1.00  0.00     0.261 C 
BRANCH  43  44
ATOM     44  O   UNL     1       2.711  -7.769   5.260  1.00  0.00    -0.460 OA
BRANCH  44  45
ATOM     45  C   UNL     1       2.169  -8.368   6.350  1.00  0.00     0.338 C 
ATOM     46  O   UNL     1       1.032  -8.254   6.771  1.00  0.00    -0.246 OA
BRANCH  45  47
ATOM     47  C   UNL     1       3.110  -9.352   6.912  1.00  0.00     0.060 A 
ATOM     48  C   UNL     1       2.719 -10.696   6.889  1.00  0.00     0.016 A 
ATOM     49  C   UNL     1       4.291  -8.963   7.548  1.00  0.00     0.016 A 
ATOM     50  C   UNL     1       3.490 -11.654   7.542  1.00  0.00     0.010 A 
ATOM     51  C   UNL     1       5.061  -9.928   8.210  1.00  0.00     0.010 A 
ATOM     52  C   UNL     1       4.644 -11.271   8.240  1.00  0.00    -0.014 A 
BRANCH  52  53
ATOM     53  C   UNL     1       5.321 -12.280   9.092  1.00  0.00     0.031 A 
ATOM     54  C   UNL     1       5.004 -12.339  10.560  1.00  0.00     0.074 A 
ATOM     55  C   UNL     1       6.137 -13.195   8.541  1.00  0.00     0.049 A 
ATOM     56  N   UNL     1       5.372 -13.221  11.455  1.00  0.00    -0.248 NA
ATOM     57  C   UNL     1       4.153 -11.263  11.089  1.00  0.00     0.031 C 
ATOM     58  C   UNL     1       6.503 -13.253   7.128  1.00  0.00     0.029 A 
ATOM     59  N   UNL     1       6.785 -14.265   9.104  1.00  0.00    -0.354 N 
ATOM     60  C   UNL     1       4.787 -12.816  12.648  1.00  0.00     0.074 A 
ATOM     61  C   UNL     1       4.077 -11.585  12.372  1.00  0.00     0.031 C 
ATOM     62  C   UNL     1       7.298 -14.318   6.929  1.00  0.00     0.029 A 
ATOM     63  C   UNL     1       7.504 -15.007   8.201  1.00  0.00     0.049 A 
ATOM     64  H   UNL     1       6.739 -14.480  10.064  1.00  0.00     0.167 HD
ATOM     65  C   UNL     1       4.823 -13.425  13.858  1.00  0.00     0.037 A 
ATOM     66  C   UNL     1       8.236 -16.123   8.381  1.00  0.00     0.037 A 
ATOM     67  C   UNL     1       5.541 -14.641  14.136  1.00  0.00     0.049 A 
ATOM     68  C   UNL     1       8.304 -16.751   9.747  1.00  0.00     0.074 A 
ATOM     69  C   UNL     1       5.632 -15.342  15.326  1.00  0.00     0.029 A 
ATOM     70  N   UNL     1       6.305 -15.334  13.207  1.00  0.00    -0.354 N 
ATOM     71  N   UNL     1       7.713 -16.386  10.859  1.00  0.00    -0.248 NA
ATOM     72  C   UNL     1       9.133 -17.957   9.877  1.00  0.00     0.031 C 
ATOM     73  C   UNL     1       6.489 -16.432  15.130  1.00  0.00     0.029 A 
ATOM     74  C   UNL     1       6.892 -16.440  13.804  1.00  0.00     0.049 A 
ATOM     75  H   UNL     1       6.415 -15.078  12.263  1.00  0.00     0.167 HD
ATOM     76  C   UNL     1       8.079 -17.325  11.814  1.00  0.00     0.074 A 
ATOM     77  C   UNL     1       8.928 -18.290  11.143  1.00  0.00     0.031 C 
ATOM     78  C   UNL     1       7.744 -17.384  13.127  1.00  0.00     0.037 A 
BRANCH  65  79
ATOM     79  C   UNL     1       4.076 -12.762  14.980  1.00  0.00     0.064 A 
ATOM     80  C   UNL     1       2.673 -12.744  15.021  1.00  0.00     0.173 A 
ATOM     81  C   UNL     1       4.770 -12.144  16.031  1.00  0.00     0.173 A 
ATOM     82  F   UNL     1       1.962 -13.308  14.033  1.00  0.00    -0.203 F 
ATOM     83  C   UNL     1       1.994 -12.103  16.054  1.00  0.00     0.198 A 
ATOM     84  C   UNL     1       4.088 -11.528  17.077  1.00  0.00     0.198 A 
ATOM     85  F   UNL     1       6.111 -12.135  16.043  1.00  0.00    -0.203 F 
ATOM     86  F   UNL     1       0.655 -12.052  16.043  1.00  0.00    -0.200 F 
ATOM     87  C   UNL     1       2.701 -11.500  17.083  1.00  0.00     0.200 A 
ATOM     88  F   UNL     1       4.772 -10.954  18.075  1.00  0.00    -0.200 F 
ATOM     89  F   UNL     1       2.046 -10.882  18.076  1.00  0.00    -0.200 F 
ENDBRANCH  65  79
BRANCH  66  90
ATOM     90  C   UNL     1       8.939 -16.736   7.225  1.00  0.00     0.064 A 
ATOM     91  C   UNL     1       8.514 -17.959   6.687  1.00  0.00     0.173 A 
ATOM     92  C   UNL     1      10.047 -16.112   6.636  1.00  0.00     0.173 A 
ATOM     93  F   UNL     1       7.474 -18.605   7.233  1.00  0.00    -0.203 F 
ATOM     94  C   UNL     1       9.178 -18.538   5.608  1.00  0.00     0.198 A 
ATOM     95  C   UNL     1      10.695 -16.680   5.541  1.00  0.00     0.198 A 
ATOM     96  F   UNL     1      10.493 -14.942   7.117  1.00  0.00    -0.203 F 
ATOM     97  F   UNL     1       8.775 -19.726   5.136  1.00  0.00    -0.200 F 
ATOM     98  C   UNL     1      10.264 -17.896   5.032  1.00  0.00     0.200 A 
ATOM     99  F   UNL     1      11.737 -16.051   4.981  1.00  0.00    -0.200 F 
ATOM    100  F   UNL     1      10.898 -18.450   3.990  1.00  0.00    -0.200 F 
ENDBRANCH  66  90
BRANCH  78 101
ATOM    101  C   UNL     1       8.287 -18.542  13.916  1.00  0.00     0.064 A 
ATOM    102  C   UNL     1       9.649 -18.634  14.244  1.00  0.00     0.173 A 
ATOM    103  C   UNL     1       7.436 -19.568  14.354  1.00  0.00     0.173 A 
ATOM    104  F   UNL     1      10.506 -17.686  13.837  1.00  0.00    -0.203 F 
ATOM    105  C   UNL     1      10.144 -19.730  14.946  1.00  0.00     0.198 A 
ATOM    106  C   UNL     1       7.930 -20.647  15.082  1.00  0.00     0.198 A 
ATOM    107  F   UNL     1       6.125 -19.525  14.075  1.00  0.00    -0.203 F 
ATOM    108  F   UNL     1      11.457 -19.826  15.194  1.00  0.00    -0.200 F 
ATOM    109  C   UNL     1       9.284 -20.733  15.368  1.00  0.00     0.200 A 
ATOM    110  F   UNL     1       7.096 -21.610  15.499  1.00  0.00    -0.200 F 
ATOM    111  F   UNL     1       9.763 -21.789  16.040  1.00  0.00    -0.200 F 
ENDBRANCH  78 101
ENDBRANCH  52  53
ENDBRANCH  45  47
ENDBRANCH  44  45
ENDBRANCH  43  44
ENDBRANCH  42  43
ENDBRANCH  41  42
ENDBRANCH  40  41
ENDBRANCH   1  40
TORSDOF 26
