REMARK SMILES O=C(Cc1ccccc1)Nc1cccc(C(=O)Nc2ccccc2C(=O)OCCOCCOC(=O)c2ccc(-c3c4nc(c(-c5c(F)c(F)c(F)c(F)c5F)c5ccc([nH]5)c(-c5c(F)c(F)c(F)c(F)c5F)c5nc(c(-c6c(F)c(F)c(F)c(F)c6F)c6ccc3[nH]6)C=C5)C=C4)cc2)c1
REMARK SMILES IDX 28 1 27 2 25 3 26 4 24 5 19 6 20 7 21 8 23 9 22 10 18 11
REMARK SMILES IDX 16 12 17 13 15 15 11 16 12 17 99 18 13 19 14 20 10 21 1 22
REMARK SMILES IDX 2 23 3 25 4 26 5 27 9 28 6 29 8 30 7 31 29 32 30 33 31 34
REMARK SMILES IDX 32 35 33 36 34 37 35 38 36 39 37 40 98 41 38 42 97 43 39 44
REMARK SMILES IDX 40 45 41 46 91 47 42 48 96 49 90 50 92 51 43 52 95 53 89 54
REMARK SMILES IDX 88 55 44 57 76 58 56 59 75 60 57 61 60 62 74 63 93 64 58 65
REMARK SMILES IDX 59 66 73 68 94 69 61 70 45 71 46 72 54 73 47 74 48 75 52 76
REMARK SMILES IDX 55 77 49 78 50 79 53 80 51 81 77 82 78 83 86 84 79 85 80 86
REMARK SMILES IDX 84 87 87 88 81 89 82 90 85 91 83 92 62 93 63 94 71 95 64 96
REMARK SMILES IDX 65 97 69 98 72 99 66 100 67 101 70 102 68 103
REMARK H PARENT 18 14 10 24 92 56 60 67
REMARK Flexibility Score: inf
ROOT
ATOM      1  C   UNL     1       2.858   3.483  -3.990  1.00  0.00     0.261 C 
ENDROOT
BRANCH   1   2
ATOM      2  O   UNL     1       1.845   3.586  -2.975  1.00  0.00    -0.460 OA
BRANCH   2   3
ATOM      3  C   UNL     1       2.084   2.826  -1.876  1.00  0.00     0.340 C 
ATOM      4  O   UNL     1       3.102   2.178  -1.665  1.00  0.00    -0.246 OA
BRANCH   3   5
ATOM      5  C   UNL     1       1.039   2.980  -0.834  1.00  0.00     0.083 A 
ATOM      6  C   UNL     1      -0.352   3.104  -1.015  1.00  0.00     0.056 A 
ATOM      7  C   UNL     1      -1.144   3.327   0.133  1.00  0.00     0.027 A 
ATOM      8  C   UNL     1      -0.599   3.338   1.421  1.00  0.00     0.002 A 
ATOM      9  C   UNL     1       1.576   3.010   0.476  1.00  0.00     0.018 A 
ATOM     10  C   UNL     1       0.764   3.171   1.595  1.00  0.00     0.001 A 
BRANCH   6  11
ATOM     11  N   UNL     1      -1.112   3.003  -2.205  1.00  0.00    -0.321 N 
ATOM     12  C   UNL     1      -0.980   2.300  -3.383  1.00  0.00     0.255 C 
ATOM     13  O   UNL     1      -1.721   2.579  -4.328  1.00  0.00    -0.269 OA
ATOM     14  H   UNL     1      -1.921   3.563  -2.187  1.00  0.00     0.170 HD
BRANCH  12  15
ATOM     15  C   UNL     1      -0.032   1.175  -3.540  1.00  0.00     0.042 A 
ATOM     16  C   UNL     1       1.476  -0.414  -2.538  1.00  0.00     0.041 A 
ATOM     17  C   UNL     1       2.100  -0.586  -3.781  1.00  0.00     0.026 A 
ATOM     18  C   UNL     1       0.334   0.378  -2.455  1.00  0.00     0.040 A 
ATOM     19  C   UNL     1       1.614   0.070  -4.915  1.00  0.00     0.003 A 
ATOM     20  C   UNL     1       0.560   0.972  -4.790  1.00  0.00     0.014 A 
BRANCH  16  21
ATOM     21  N   UNL     1       2.156  -0.874  -1.392  1.00  0.00    -0.326 N 
ATOM     22  O   UNL     1       0.620  -0.472   0.313  1.00  0.00    -0.274 OA
ATOM     23  C   UNL     1       1.765  -0.697  -0.073  1.00  0.00     0.228 C 
ATOM     24  H   UNL     1       2.993  -1.371  -1.543  1.00  0.00     0.169 HD
BRANCH  23  25
ATOM     25  C   UNL     1       2.923  -0.675   0.914  1.00  0.00     0.135 C 
BRANCH  25  26
ATOM     26  C   UNL     1       3.881  -1.829   0.778  1.00  0.00    -0.039 A 
ATOM     27  C   UNL     1       3.422  -3.146   0.913  1.00  0.00     0.004 A 
ATOM     28  C   UNL     1       5.238  -1.598   0.515  1.00  0.00     0.004 A 
ATOM     29  C   UNL     1       4.303  -4.215   0.762  1.00  0.00     0.000 A 
ATOM     30  C   UNL     1       6.117  -2.671   0.370  1.00  0.00     0.000 A 
ATOM     31  C   UNL     1       5.648  -3.978   0.489  1.00  0.00     0.000 A 
ENDBRANCH  25  26
ENDBRANCH  23  25
ENDBRANCH  16  21
ENDBRANCH  12  15
ENDBRANCH   6  11
ENDBRANCH   3   5
ENDBRANCH   2   3
ENDBRANCH   1   2
BRANCH   1  32
ATOM     32  C   UNL     1       3.717   4.739  -4.166  1.00  0.00     0.202 C 
BRANCH  32  33
ATOM     33  O   UNL     1       4.412   5.244  -3.034  1.00  0.00    -0.374 OA
BRANCH  33  34
ATOM     34  C   UNL     1       3.653   5.785  -1.958  1.00  0.00     0.202 C 
BRANCH  34  35
ATOM     35  C   UNL     1       2.792   7.026  -2.226  1.00  0.00     0.261 C 
BRANCH  35  36
ATOM     36  O   UNL     1       1.744   6.813  -3.192  1.00  0.00    -0.460 OA
BRANCH  36  37
ATOM     37  C   UNL     1       1.842   7.572  -4.306  1.00  0.00     0.338 C 
ATOM     38  O   UNL     1       2.711   8.398  -4.571  1.00  0.00    -0.246 OA
BRANCH  37  39
ATOM     39  C   UNL     1       0.812   7.212  -5.290  1.00  0.00     0.060 A 
ATOM     40  C   UNL     1       1.228   6.726  -6.537  1.00  0.00     0.016 A 
ATOM     41  C   UNL     1      -0.528   7.530  -5.062  1.00  0.00     0.016 A 
ATOM     42  C   UNL     1       0.312   6.609  -7.581  1.00  0.00     0.010 A 
ATOM     43  C   UNL     1      -1.443   7.422  -6.113  1.00  0.00     0.010 A 
ATOM     44  C   UNL     1      -1.019   7.003  -7.387  1.00  0.00    -0.014 A 
BRANCH  44  45
ATOM     45  C   UNL     1      -1.925   7.130  -8.555  1.00  0.00     0.031 A 
ATOM     46  C   UNL     1      -2.117   8.480  -9.190  1.00  0.00     0.074 A 
ATOM     47  C   UNL     1      -2.550   6.053  -9.058  1.00  0.00     0.049 A 
ATOM     48  N   UNL     1      -2.897   8.830 -10.182  1.00  0.00    -0.248 NA
ATOM     49  C   UNL     1      -1.321   9.585  -8.632  1.00  0.00     0.031 C 
ATOM     50  C   UNL     1      -2.414   4.688  -8.556  1.00  0.00     0.029 A 
ATOM     51  N   UNL     1      -3.435   5.945 -10.102  1.00  0.00    -0.354 N 
ATOM     52  C   UNL     1      -2.691  10.192 -10.361  1.00  0.00     0.074 A 
ATOM     53  C   UNL     1      -1.730  10.611  -9.363  1.00  0.00     0.031 C 
ATOM     54  C   UNL     1      -3.195   3.876  -9.290  1.00  0.00     0.029 A 
ATOM     55  C   UNL     1      -3.910   4.671 -10.287  1.00  0.00     0.049 A 
ATOM     56  H   UNL     1      -3.702   6.708 -10.664  1.00  0.00     0.167 HD
ATOM     57  C   UNL     1      -3.249  11.017 -11.280  1.00  0.00     0.037 A 
ATOM     58  C   UNL     1      -4.836   4.208 -11.149  1.00  0.00     0.037 A 
ATOM     59  C   UNL     1      -4.205  10.601 -12.271  1.00  0.00     0.049 A 
ATOM     60  C   UNL     1      -5.496   5.160 -12.112  1.00  0.00     0.074 A 
ATOM     61  C   UNL     1      -4.821  11.361 -13.251  1.00  0.00     0.029 A 
ATOM     62  N   UNL     1      -4.688   9.308 -12.406  1.00  0.00    -0.354 N 
ATOM     63  N   UNL     1      -5.291   6.443 -12.282  1.00  0.00    -0.248 NA
ATOM     64  C   UNL     1      -6.523   4.596 -13.001  1.00  0.00     0.031 C 
ATOM     65  C   UNL     1      -5.707  10.536 -13.952  1.00  0.00     0.029 A 
ATOM     66  C   UNL     1      -5.610   9.253 -13.438  1.00  0.00     0.049 A 
ATOM     67  H   UNL     1      -4.416   8.543 -11.850  1.00  0.00     0.167 HD
ATOM     68  C   UNL     1      -6.141   6.834 -13.308  1.00  0.00     0.074 A 
ATOM     69  C   UNL     1      -6.858   5.650 -13.731  1.00  0.00     0.031 C 
ATOM     70  C   UNL     1      -6.311   8.065 -13.851  1.00  0.00     0.037 A 
BRANCH  57  71
ATOM     71  C   UNL     1      -2.853  12.463 -11.240  1.00  0.00     0.064 A 
ATOM     72  C   UNL     1      -1.593  12.892 -11.680  1.00  0.00     0.173 A 
ATOM     73  C   UNL     1      -3.760  13.435 -10.791  1.00  0.00     0.173 A 
ATOM     74  F   UNL     1      -0.687  11.999 -12.107  1.00  0.00    -0.203 F 
ATOM     75  C   UNL     1      -1.246  14.241 -11.652  1.00  0.00     0.198 A 
ATOM     76  C   UNL     1      -3.418  14.785 -10.787  1.00  0.00     0.198 A 
ATOM     77  F   UNL     1      -4.980  13.077 -10.364  1.00  0.00    -0.203 F 
ATOM     78  F   UNL     1      -0.023  14.625 -12.042  1.00  0.00    -0.200 F 
ATOM     79  C   UNL     1      -2.161  15.186 -11.212  1.00  0.00     0.200 A 
ATOM     80  F   UNL     1      -4.306  15.698 -10.371  1.00  0.00    -0.200 F 
ATOM     81  F   UNL     1      -1.827  16.484 -11.192  1.00  0.00    -0.200 F 
ENDBRANCH  57  71
BRANCH  58  82
ATOM     82  C   UNL     1      -5.204   2.770 -11.133  1.00  0.00     0.064 A 
ATOM     83  C   UNL     1      -4.843   1.923 -12.188  1.00  0.00     0.173 A 
ATOM     84  C   UNL     1      -5.934   2.219 -10.070  1.00  0.00     0.173 A 
ATOM     85  F   UNL     1      -4.171   2.412 -13.241  1.00  0.00    -0.203 F 
ATOM     86  C   UNL     1      -5.208   0.578 -12.186  1.00  0.00     0.198 A 
ATOM     87  C   UNL     1      -6.277   0.869 -10.057  1.00  0.00     0.198 A 
ATOM     88  F   UNL     1      -6.312   2.993  -9.042  1.00  0.00    -0.203 F 
ATOM     89  F   UNL     1      -4.887  -0.202 -13.227  1.00  0.00    -0.200 F 
ATOM     90  C   UNL     1      -5.919   0.051 -11.118  1.00  0.00     0.200 A 
ATOM     91  F   UNL     1      -6.960   0.363  -9.022  1.00  0.00    -0.200 F 
ATOM     92  F   UNL     1      -6.269  -1.242 -11.117  1.00  0.00    -0.200 F 
ENDBRANCH  58  82
BRANCH  70  93
ATOM     93  C   UNL     1      -7.287   8.189 -14.984  1.00  0.00     0.064 A 
ATOM     94  C   UNL     1      -8.672   8.149 -14.768  1.00  0.00     0.173 A 
ATOM     95  C   UNL     1      -6.830   8.397 -16.295  1.00  0.00     0.173 A 
ATOM     96  F   UNL     1      -9.156   7.938 -13.535  1.00  0.00    -0.203 F 
ATOM     97  C   UNL     1      -9.565   8.292 -15.826  1.00  0.00     0.198 A 
ATOM     98  C   UNL     1      -7.726   8.565 -17.347  1.00  0.00     0.198 A 
ATOM     99  F   UNL     1      -5.515   8.450 -16.552  1.00  0.00    -0.203 F 
ATOM    100  F   UNL     1     -10.884   8.211 -15.603  1.00  0.00    -0.200 F 
ATOM    101  C   UNL     1      -9.092   8.507 -17.113  1.00  0.00     0.200 A 
ATOM    102  F   UNL     1      -7.268   8.783 -18.587  1.00  0.00    -0.200 F 
ATOM    103  F   UNL     1      -9.954   8.651 -18.129  1.00  0.00    -0.200 F 
ENDBRANCH  70  93
ENDBRANCH  44  45
ENDBRANCH  37  39
ENDBRANCH  36  37
ENDBRANCH  35  36
ENDBRANCH  34  35
ENDBRANCH  33  34
ENDBRANCH  32  33
ENDBRANCH   1  32
TORSDOF 19
