REMARK SMILES COc1ccc(/C=C2/C(=O)N(c3ccccc3)C(=O)N=C2OCCOCCOC(=O)c2ccc(-c3c4nc(c(-c5c(F)c(F)c(F)c(F)c5F)c5ccc([nH]5)c(-c5c(F)c(F)c(F)c(F)c5F)c5nc(c(-c6c(F)c(F)c(F)c(F)c6F)c6ccc3[nH]6)C=C5)C=C4)cc2)cc1C(=O)[O-]
REMARK SMILES IDX 26 1 25 2 24 3 23 4 22 5 21 6 7 7 8 8 9 9 10 10 11 11 20 12
REMARK SMILES IDX 18 13 19 14 6 15 3 16 4 17 95 18 5 19 94 20 2 21 1 22 96 23
REMARK SMILES IDX 97 24 98 25 12 26 13 27 17 28 14 29 16 30 15 31 27 32 28 33
REMARK SMILES IDX 29 34 30 35 31 36 32 37 93 38 33 39 92 40 34 41 35 42 36 43
REMARK SMILES IDX 86 44 37 45 91 46 85 47 87 48 38 49 90 50 84 51 83 52 39 54
REMARK SMILES IDX 71 55 51 56 70 57 52 58 55 59 69 60 88 61 53 62 54 63 68 65
REMARK SMILES IDX 89 66 56 67 40 68 41 69 49 70 42 71 43 72 47 73 50 74 44 75
REMARK SMILES IDX 45 76 48 77 46 78 72 79 73 80 81 81 74 82 75 83 79 84 82 85
REMARK SMILES IDX 76 86 77 87 80 88 78 89 57 90 58 91 66 92 59 93 60 94 64 95
REMARK SMILES IDX 67 96 61 97 62 98 65 99 63 100
REMARK H PARENT 87 53 55 64
REMARK Flexibility Score: inf
ROOT
ATOM      1  C   UNL     1      -1.457   7.043  -2.588  1.00  0.00     0.202 C 
ENDROOT
BRANCH   1   2
ATOM      2  O   UNL     1      -2.619   6.553  -3.256  1.00  0.00    -0.374 OA
BRANCH   2   3
ATOM      3  C   UNL     1      -2.664   5.148  -3.515  1.00  0.00     0.202 C 
BRANCH   3   4
ATOM      4  C   UNL     1      -2.096   4.740  -4.872  1.00  0.00     0.260 C 
BRANCH   4   5
ATOM      5  O   UNL     1      -0.652   4.696  -4.790  1.00  0.00    -0.475 OA
BRANCH   5   6
ATOM      6  C   UNL     1       0.044   5.772  -5.184  1.00  0.00     0.231 C 
ATOM      7  C   UNL     1       2.164   4.900  -4.006  1.00  0.00     0.027 C 
ATOM      8  C   UNL     1       1.446   5.798  -4.735  1.00  0.00     0.103 C 
ATOM      9  C   UNL     1       2.147   7.103  -5.059  1.00  0.00     0.272 C 
ATOM     10  O   UNL     1       3.336   7.258  -4.777  1.00  0.00    -0.268 OA
ATOM     11  N   UNL     1       1.337   8.093  -5.617  1.00  0.00    -0.226 N 
ATOM     12  N   UNL     1      -0.562   6.691  -5.829  1.00  0.00    -0.156 NA
ATOM     13  C   UNL     1       0.052   7.862  -6.119  1.00  0.00     0.358 C 
ATOM     14  O   UNL     1      -0.542   8.673  -6.825  1.00  0.00    -0.245 OA
BRANCH   7  15
ATOM     15  C   UNL     1       1.927   3.574  -3.356  1.00  0.00    -0.024 A 
ATOM     16  C   UNL     1       1.604   1.094  -1.958  1.00  0.00     0.127 A 
ATOM     17  C   UNL     1       0.747   1.460  -2.992  1.00  0.00     0.048 A 
ATOM     18  C   UNL     1       2.708   1.906  -1.705  1.00  0.00     0.040 A 
ATOM     19  C   UNL     1       0.942   2.652  -3.710  1.00  0.00     0.012 A 
ATOM     20  C   UNL     1       2.831   3.156  -2.354  1.00  0.00     0.022 A 
BRANCH  16  21
ATOM     21  O   UNL     1       1.291  -0.087  -1.343  1.00  0.00    -0.496 OA
ATOM     22  C   UNL     1       1.345  -0.056   0.083  1.00  0.00     0.278 C 
ENDBRANCH  16  21
BRANCH  18  23
ATOM     23  C   UNL     1       3.838   1.483  -0.849  1.00  0.00     0.075 C 
ATOM     24  O   UNL     1       4.454   2.188  -0.083  1.00  0.00    -0.545 OA
ATOM     25  O   UNL     1       4.196   0.211  -1.107  1.00  0.00    -0.545 OA
ENDBRANCH  18  23
ENDBRANCH   7  15
BRANCH  11  26
ATOM     26  C   UNL     1       1.855   9.410  -5.830  1.00  0.00     0.054 A 
ATOM     27  C   UNL     1       1.124  10.521  -5.373  1.00  0.00     0.027 A 
ATOM     28  C   UNL     1       2.996   9.616  -6.610  1.00  0.00     0.027 A 
ATOM     29  C   UNL     1       1.508  11.816  -5.721  1.00  0.00     0.002 A 
ATOM     30  C   UNL     1       3.358  10.914  -6.983  1.00  0.00     0.002 A 
ATOM     31  C   UNL     1       2.613  12.010  -6.543  1.00  0.00     0.000 A 
ENDBRANCH  11  26
ENDBRANCH   5   6
ENDBRANCH   4   5
ENDBRANCH   3   4
ENDBRANCH   2   3
ENDBRANCH   1   2
BRANCH   1  32
ATOM     32  C   UNL     1      -1.512   6.989  -1.060  1.00  0.00     0.261 C 
BRANCH  32  33
ATOM     33  O   UNL     1      -1.460   5.630  -0.593  1.00  0.00    -0.460 OA
BRANCH  33  34
ATOM     34  C   UNL     1      -2.665   5.104  -0.273  1.00  0.00     0.338 C 
ATOM     35  O   UNL     1      -3.742   5.675  -0.246  1.00  0.00    -0.246 OA
BRANCH  34  36
ATOM     36  C   UNL     1      -2.541   3.644  -0.106  1.00  0.00     0.060 A 
ATOM     37  C   UNL     1      -3.495   2.838  -0.739  1.00  0.00     0.016 A 
ATOM     38  C   UNL     1      -1.567   3.080   0.718  1.00  0.00     0.016 A 
ATOM     39  C   UNL     1      -3.519   1.467  -0.499  1.00  0.00     0.010 A 
ATOM     40  C   UNL     1      -1.603   1.706   0.968  1.00  0.00     0.010 A 
ATOM     41  C   UNL     1      -2.601   0.899   0.392  1.00  0.00    -0.014 A 
BRANCH  41  42
ATOM     42  C   UNL     1      -2.801  -0.496   0.854  1.00  0.00     0.031 A 
ATOM     43  C   UNL     1      -3.368  -0.733   2.227  1.00  0.00     0.074 A 
ATOM     44  C   UNL     1      -2.517  -1.539   0.055  1.00  0.00     0.049 A 
ATOM     45  N   UNL     1      -3.638  -1.861   2.834  1.00  0.00    -0.248 NA
ATOM     46  C   UNL     1      -3.659   0.466   3.028  1.00  0.00     0.031 C 
ATOM     47  C   UNL     1      -1.973  -1.443  -1.297  1.00  0.00     0.029 A 
ATOM     48  N   UNL     1      -2.647  -2.888   0.271  1.00  0.00    -0.354 N 
ATOM     49  C   UNL     1      -4.122  -1.507   4.086  1.00  0.00     0.074 A 
ATOM     50  C   UNL     1      -4.058  -0.064   4.173  1.00  0.00     0.031 C 
ATOM     51  C   UNL     1      -1.817  -2.681  -1.794  1.00  0.00     0.029 A 
ATOM     52  C   UNL     1      -2.239  -3.656  -0.790  1.00  0.00     0.049 A 
ATOM     53  H   UNL     1      -2.999  -3.268   1.108  1.00  0.00     0.167 HD
ATOM     54  C   UNL     1      -4.602  -2.308   5.067  1.00  0.00     0.037 A 
ATOM     55  C   UNL     1      -2.213  -4.995  -0.933  1.00  0.00     0.037 A 
ATOM     56  C   UNL     1      -4.683  -3.741   4.976  1.00  0.00     0.049 A 
ATOM     57  C   UNL     1      -2.718  -5.869   0.184  1.00  0.00     0.074 A 
ATOM     58  C   UNL     1      -5.181  -4.640   5.901  1.00  0.00     0.029 A 
ATOM     59  N   UNL     1      -4.248  -4.485   3.888  1.00  0.00    -0.354 N 
ATOM     60  N   UNL     1      -3.213  -5.524   1.348  1.00  0.00    -0.248 NA
ATOM     61  C   UNL     1      -2.671  -7.320  -0.041  1.00  0.00     0.031 C 
ATOM     62  C   UNL     1      -5.010  -5.933   5.391  1.00  0.00     0.029 A 
ATOM     63  C   UNL     1      -4.450  -5.835   4.127  1.00  0.00     0.049 A 
ATOM     64  H   UNL     1      -3.854  -4.109   3.068  1.00  0.00     0.167 HD
ATOM     65  C   UNL     1      -3.568  -6.709   1.979  1.00  0.00     0.074 A 
ATOM     66  C   UNL     1      -3.238  -7.783   1.064  1.00  0.00     0.031 C 
ATOM     67  C   UNL     1      -4.123  -6.892   3.203  1.00  0.00     0.037 A 
BRANCH  54  68
ATOM     68  C   UNL     1      -5.062  -1.637   6.329  1.00  0.00     0.064 A 
ATOM     69  C   UNL     1      -6.220  -0.843   6.362  1.00  0.00     0.173 A 
ATOM     70  C   UNL     1      -4.328  -1.776   7.516  1.00  0.00     0.173 A 
ATOM     71  F   UNL     1      -6.947  -0.664   5.249  1.00  0.00    -0.203 F 
ATOM     72  C   UNL     1      -6.600  -0.178   7.525  1.00  0.00     0.198 A 
ATOM     73  C   UNL     1      -4.729  -1.135   8.685  1.00  0.00     0.198 A 
ATOM     74  F   UNL     1      -3.216  -2.525   7.540  1.00  0.00    -0.203 F 
ATOM     75  F   UNL     1      -7.670   0.628   7.514  1.00  0.00    -0.200 F 
ATOM     76  C   UNL     1      -5.857  -0.328   8.686  1.00  0.00     0.200 A 
ATOM     77  F   UNL     1      -4.016  -1.287   9.809  1.00  0.00    -0.200 F 
ATOM     78  F   UNL     1      -6.220   0.318   9.803  1.00  0.00    -0.200 F 
ENDBRANCH  54  68
BRANCH  55  79
ATOM     79  C   UNL     1      -1.726  -5.592  -2.202  1.00  0.00     0.064 A 
ATOM     80  C   UNL     1      -2.617  -6.198  -3.098  1.00  0.00     0.173 A 
ATOM     81  C   UNL     1      -0.367  -5.570  -2.545  1.00  0.00     0.173 A 
ATOM     82  F   UNL     1      -3.923  -6.264  -2.801  1.00  0.00    -0.203 F 
ATOM     83  C   UNL     1      -2.165  -6.772  -4.284  1.00  0.00     0.198 A 
ATOM     84  C   UNL     1       0.081  -6.124  -3.742  1.00  0.00     0.198 A 
ATOM     85  F   UNL     1       0.525  -5.005  -1.717  1.00  0.00    -0.203 F 
ATOM     86  F   UNL     1      -3.033  -7.379  -5.106  1.00  0.00    -0.200 F 
ATOM     87  C   UNL     1      -0.817  -6.729  -4.608  1.00  0.00     0.200 A 
ATOM     88  F   UNL     1       1.383  -6.075  -4.056  1.00  0.00    -0.200 F 
ATOM     89  F   UNL     1      -0.384  -7.278  -5.751  1.00  0.00    -0.200 F 
ENDBRANCH  55  79
BRANCH  67  90
ATOM     90  C   UNL     1      -4.447  -8.301   3.607  1.00  0.00     0.064 A 
ATOM     91  C   UNL     1      -3.443  -9.223   3.939  1.00  0.00     0.173 A 
ATOM     92  C   UNL     1      -5.782  -8.724   3.690  1.00  0.00     0.173 A 
ATOM     93  F   UNL     1      -2.151  -8.872   3.862  1.00  0.00    -0.203 F 
ATOM     94  C   UNL     1      -3.765 -10.527   4.310  1.00  0.00     0.198 A 
ATOM     95  C   UNL     1      -6.100 -10.019   4.089  1.00  0.00     0.198 A 
ATOM     96  F   UNL     1      -6.779  -7.879   3.390  1.00  0.00    -0.203 F 
ATOM     97  F   UNL     1      -2.788 -11.406   4.572  1.00  0.00    -0.200 F 
ATOM     98  C   UNL     1      -5.092 -10.922   4.390  1.00  0.00     0.200 A 
ATOM     99  F   UNL     1      -7.384 -10.395   4.179  1.00  0.00    -0.200 F 
ATOM    100  F   UNL     1      -5.399 -12.176   4.749  1.00  0.00    -0.200 F 
ENDBRANCH  67  90
ENDBRANCH  41  42
ENDBRANCH  34  36
ENDBRANCH  33  34
ENDBRANCH  32  33
ENDBRANCH   1  32
TORSDOF 17
