REMARK SMILES O=C(OCCOCCOC(=O)c1ccc2ncccc2n1)c1ccc(-c2c3nc(c(-c4c(F)c(F)c(F)c(F)c4F)c4ccc([nH]4)c(-c4c(F)c(F)c(F)c(F)c4F)c4nc(c(-c5c(F)c(F)c(F)c(F)c5F)c5ccc2[nH]5)C=C4)C=C3)cc1
REMARK SMILES IDX 5 1 4 2 3 3 2 4 1 5 22 6 23 7 84 8 24 9 83 10 25 11 26 12
REMARK SMILES IDX 27 13 77 14 28 15 82 16 76 17 78 18 29 19 81 20 75 21 74 22
REMARK SMILES IDX 30 24 62 25 42 26 61 27 43 28 46 29 60 30 79 31 44 32 45 33
REMARK SMILES IDX 59 35 80 36 47 37 31 38 32 39 40 40 33 41 34 42 38 43 41 44
REMARK SMILES IDX 35 45 36 46 39 47 37 48 63 49 64 50 72 51 65 52 66 53 70 54
REMARK SMILES IDX 73 55 67 56 68 57 71 58 69 59 48 60 49 61 57 62 50 63 51 64
REMARK SMILES IDX 55 65 58 66 52 67 53 68 56 69 54 70 6 71 7 72 8 73 9 74
REMARK SMILES IDX 10 75 11 76 12 77 13 78 21 79 14 80 20 81 15 82 19 83 16 84
REMARK SMILES IDX 18 85 17 86
REMARK H PARENT 78 23 46 34
REMARK Flexibility Score: inf
ROOT
ATOM      1  C   UNL     1       4.437  -1.614   0.511  1.00  0.00     0.202 C 
ENDROOT
BRANCH   1   2
ATOM      2  C   UNL     1       4.252  -0.276   1.232  1.00  0.00     0.261 C 
BRANCH   2   3
ATOM      3  O   UNL     1       2.873   0.125   1.198  1.00  0.00    -0.460 OA
BRANCH   3   4
ATOM      4  C   UNL     1       2.248   0.948   0.327  1.00  0.00     0.338 C 
ATOM      5  O   UNL     1       1.031   1.093   0.437  1.00  0.00    -0.246 OA
BRANCH   4   6
ATOM      6  C   UNL     1       2.937   1.722  -0.753  1.00  0.00     0.060 A 
ATOM      7  C   UNL     1       4.129   1.362  -1.390  1.00  0.00     0.016 A 
ATOM      8  C   UNL     1       2.265   2.866  -1.222  1.00  0.00     0.016 A 
ATOM      9  C   UNL     1       4.659   2.117  -2.429  1.00  0.00     0.010 A 
ATOM     10  C   UNL     1       2.780   3.624  -2.275  1.00  0.00     0.010 A 
ATOM     11  C   UNL     1       3.990   3.253  -2.868  1.00  0.00    -0.014 A 
BRANCH  11  12
ATOM     12  C   UNL     1       4.639   4.116  -3.865  1.00  0.00     0.031 A 
ATOM     13  C   UNL     1       5.348   5.336  -3.379  1.00  0.00     0.074 A 
ATOM     14  C   UNL     1       4.633   3.765  -5.161  1.00  0.00     0.049 A 
ATOM     15  N   UNL     1       5.887   6.310  -4.058  1.00  0.00    -0.248 NA
ATOM     16  C   UNL     1       5.470   5.472  -1.918  1.00  0.00     0.031 C 
ATOM     17  C   UNL     1       4.061   2.529  -5.695  1.00  0.00     0.029 A 
ATOM     18  N   UNL     1       5.121   4.416  -6.261  1.00  0.00    -0.354 N 
ATOM     19  C   UNL     1       6.381   7.193  -3.108  1.00  0.00     0.074 A 
ATOM     20  C   UNL     1       6.083   6.639  -1.807  1.00  0.00     0.031 C 
ATOM     21  C   UNL     1       4.215   2.519  -7.028  1.00  0.00     0.029 A 
ATOM     22  C   UNL     1       4.840   3.773  -7.440  1.00  0.00     0.049 A 
ATOM     23  H   UNL     1       5.624   5.261  -6.211  1.00  0.00     0.167 HD
ATOM     24  C   UNL     1       7.010   8.371  -3.320  1.00  0.00     0.037 A 
ATOM     25  C   UNL     1       5.026   4.187  -8.707  1.00  0.00     0.037 A 
ATOM     26  C   UNL     1       7.273   8.893  -4.633  1.00  0.00     0.049 A 
ATOM     27  C   UNL     1       5.658   5.535  -8.925  1.00  0.00     0.074 A 
ATOM     28  C   UNL     1       7.854  10.093  -4.991  1.00  0.00     0.029 A 
ATOM     29  N   UNL     1       6.953   8.229  -5.813  1.00  0.00    -0.354 N 
ATOM     30  N   UNL     1       6.080   6.401  -8.032  1.00  0.00    -0.248 NA
ATOM     31  C   UNL     1       5.832   5.974 -10.314  1.00  0.00     0.031 C 
ATOM     32  C   UNL     1       7.844  10.175  -6.389  1.00  0.00     0.029 A 
ATOM     33  C   UNL     1       7.307   9.003  -6.903  1.00  0.00     0.049 A 
ATOM     34  H   UNL     1       6.537   7.338  -5.865  1.00  0.00     0.167 HD
ATOM     35  C   UNL     1       6.586   7.476  -8.745  1.00  0.00     0.074 A 
ATOM     36  C   UNL     1       6.423   7.151 -10.150  1.00  0.00     0.031 C 
ATOM     37  C   UNL     1       7.137   8.628  -8.286  1.00  0.00     0.037 A 
BRANCH  24  38
ATOM     38  C   UNL     1       7.352   9.182  -2.107  1.00  0.00     0.064 A 
ATOM     39  C   UNL     1       8.347   8.786  -1.199  1.00  0.00     0.173 A 
ATOM     40  C   UNL     1       6.617  10.339  -1.807  1.00  0.00     0.173 A 
ATOM     41  F   UNL     1       9.059   7.670  -1.422  1.00  0.00    -0.203 F 
ATOM     42  C   UNL     1       8.559   9.490  -0.016  1.00  0.00     0.198 A 
ATOM     43  C   UNL     1       6.852  11.058  -0.638  1.00  0.00     0.198 A 
ATOM     44  F   UNL     1       5.650  10.760  -2.637  1.00  0.00    -0.203 F 
ATOM     45  F   UNL     1       9.458   9.046   0.874  1.00  0.00    -0.200 F 
ATOM     46  C   UNL     1       7.812  10.624   0.264  1.00  0.00     0.200 A 
ATOM     47  F   UNL     1       6.131  12.155  -0.372  1.00  0.00    -0.200 F 
ATOM     48  F   UNL     1       8.002  11.288   1.412  1.00  0.00    -0.200 F 
ENDBRANCH  24  38
BRANCH  25  49
ATOM     49  C   UNL     1       4.565   3.334  -9.832  1.00  0.00     0.064 A 
ATOM     50  C   UNL     1       5.475   2.700 -10.688  1.00  0.00     0.173 A 
ATOM     51  C   UNL     1       3.198   3.092 -10.044  1.00  0.00     0.173 A 
ATOM     52  F   UNL     1       6.791   2.913 -10.542  1.00  0.00    -0.203 F 
ATOM     53  C   UNL     1       5.037   1.857 -11.709  1.00  0.00     0.198 A 
ATOM     54  C   UNL     1       2.762   2.229 -11.047  1.00  0.00     0.198 A 
ATOM     55  F   UNL     1       2.283   3.673  -9.253  1.00  0.00    -0.203 F 
ATOM     56  F   UNL     1       5.927   1.281 -12.528  1.00  0.00    -0.200 F 
ATOM     57  C   UNL     1       3.682   1.614 -11.881  1.00  0.00     0.200 A 
ATOM     58  F   UNL     1       1.452   1.986 -11.197  1.00  0.00    -0.200 F 
ATOM     59  F   UNL     1       3.263   0.789 -12.850  1.00  0.00    -0.200 F 
ENDBRANCH  25  49
BRANCH  37  60
ATOM     60  C   UNL     1       7.640   9.601  -9.308  1.00  0.00     0.064 A 
ATOM     61  C   UNL     1       6.766  10.421 -10.032  1.00  0.00     0.173 A 
ATOM     62  C   UNL     1       9.021   9.781  -9.483  1.00  0.00     0.173 A 
ATOM     63  F   UNL     1       5.439  10.274  -9.904  1.00  0.00    -0.203 F 
ATOM     64  C   UNL     1       7.258  11.390 -10.901  1.00  0.00     0.198 A 
ATOM     65  C   UNL     1       9.508  10.767 -10.334  1.00  0.00     0.198 A 
ATOM     66  F   UNL     1       9.893   9.022  -8.803  1.00  0.00    -0.203 F 
ATOM     67  F   UNL     1       6.407  12.153 -11.601  1.00  0.00    -0.200 F 
ATOM     68  C   UNL     1       8.627  11.570 -11.042  1.00  0.00     0.200 A 
ATOM     69  F   UNL     1      10.830  10.950 -10.457  1.00  0.00    -0.200 F 
ATOM     70  F   UNL     1       9.097  12.520 -11.861  1.00  0.00    -0.200 F 
ENDBRANCH  37  60
ENDBRANCH  11  12
ENDBRANCH   4   6
ENDBRANCH   3   4
ENDBRANCH   2   3
ENDBRANCH   1   2
BRANCH   1  71
ATOM     71  O   UNL     1       4.054  -1.570  -0.866  1.00  0.00    -0.374 OA
BRANCH  71  72
ATOM     72  C   UNL     1       2.703  -1.947  -1.149  1.00  0.00     0.202 C 
BRANCH  72  73
ATOM     73  C   UNL     1       2.692  -3.179  -2.055  1.00  0.00     0.261 C 
BRANCH  73  74
ATOM     74  O   UNL     1       3.272  -4.280  -1.337  1.00  0.00    -0.459 OA
BRANCH  74  75
ATOM     75  C   UNL     1       4.623  -4.395  -1.475  1.00  0.00     0.357 C 
ATOM     76  O   UNL     1       5.311  -3.924  -2.360  1.00  0.00    -0.244 OA
BRANCH  75  77
ATOM     77  C   UNL     1       5.143  -5.049  -0.241  1.00  0.00     0.149 A 
ATOM     78  C   UNL     1       4.480  -6.120   0.336  1.00  0.00     0.038 A 
ATOM     79  N   UNL     1       6.247  -4.476   0.303  1.00  0.00    -0.239 NA
ATOM     80  C   UNL     1       4.991  -6.636   1.526  1.00  0.00     0.033 A 
ATOM     81  C   UNL     1       6.706  -4.984   1.460  1.00  0.00     0.090 A 
ATOM     82  C   UNL     1       6.117  -6.084   2.120  1.00  0.00     0.089 A 
ATOM     83  C   UNL     1       7.809  -4.408   2.069  1.00  0.00     0.032 A 
ATOM     84  N   UNL     1       6.587  -6.596   3.274  1.00  0.00    -0.255 NA
ATOM     85  C   UNL     1       8.312  -4.919   3.262  1.00  0.00     0.022 A 
ATOM     86  C   UNL     1       7.676  -6.012   3.817  1.00  0.00     0.112 A 
ENDBRANCH  75  77
ENDBRANCH  74  75
ENDBRANCH  73  74
ENDBRANCH  72  73
ENDBRANCH  71  72
ENDBRANCH   1  71
TORSDOF 14
