REMARK SMILES C[C@H](C(=O)OCCOCCOC(=O)c1ccc(-c2c3nc(c(-c4c(F)c(F)c(F)c(F)c4F)c4ccc([nH]4)c(-c4c(F)c(F)c(F)c(F)c4F)c4nc(c(-c5c(F)c(F)c(F)c(F)c5F)c5ccc2[nH]5)C=C4)C=C3)cc1)[C@@H](C)Sc1ccc2c(c1)OCCCO2
REMARK SMILES IDX 6 1 5 2 3 3 4 4 2 5 1 6 77 7 78 8 79 9 80 10 81 11 85 12
REMARK SMILES IDX 82 13 84 14 83 15 86 16 87 17 88 18 90 20 89 21 7 23 8 24
REMARK SMILES IDX 9 25 10 26 11 27 12 28 13 29 14 30 15 31 76 32 16 33 75 34
REMARK SMILES IDX 17 35 18 36 19 37 69 38 20 39 74 40 68 41 70 42 21 43 73 44
REMARK SMILES IDX 67 45 66 46 22 48 54 49 34 50 53 51 35 52 38 53 52 54 71 55
REMARK SMILES IDX 36 56 37 57 51 59 72 60 39 61 23 62 24 63 32 64 25 65 26 66
REMARK SMILES IDX 30 67 33 68 27 69 28 70 31 71 29 72 55 73 56 74 64 75 57 76
REMARK SMILES IDX 58 77 62 78 65 79 59 80 60 81 63 82 61 83 40 84 41 85 49 86
REMARK SMILES IDX 42 87 43 88 47 89 50 90 44 91 45 92 48 93 46 94
REMARK H PARENT 70 47 38 58
REMARK Flexibility Score: 90.00
ROOT
ATOM      1  C   UNL     1       1.987  -0.608  -1.622  1.00  0.00     0.261 C 
ENDROOT
BRANCH   1   2
ATOM      2  O   UNL     1       1.151  -0.815  -0.465  1.00  0.00    -0.463 OA
BRANCH   2   3
ATOM      3  C   UNL     1       1.561  -0.239   0.693  1.00  0.00     0.309 C 
ATOM      4  O   UNL     1       2.657   0.296   0.821  1.00  0.00    -0.252 OA
BRANCH   3   5
ATOM      5  C   UNL     1       0.539  -0.365   1.845  1.00  0.00     0.109 C 
ATOM      6  C   UNL     1       0.847   0.801   2.806  1.00  0.00     0.021 C 
BRANCH   5   7
ATOM      7  C   UNL     1      -0.977  -0.373   1.450  1.00  0.00     0.062 C 
ATOM      8  C   UNL     1      -1.384  -1.441   0.431  1.00  0.00     0.020 C 
BRANCH   7   9
ATOM      9  S   UNL     1      -2.245  -0.397   2.853  1.00  0.00    -0.122 SA
BRANCH   9  10
ATOM     10  C   UNL     1      -1.739  -1.788   3.847  1.00  0.00     0.011 A 
ATOM     11  C   UNL     1      -1.363  -3.004   3.266  1.00  0.00     0.019 A 
ATOM     12  C   UNL     1      -1.568  -1.599   5.223  1.00  0.00     0.065 A 
ATOM     13  C   UNL     1      -0.481  -3.844   3.931  1.00  0.00     0.051 A 
ATOM     14  C   UNL     1      -0.748  -2.477   5.911  1.00  0.00     0.162 A 
ATOM     15  C   UNL     1      -0.077  -3.470   5.201  1.00  0.00     0.161 A 
BRANCH  14  16
ATOM     16  O   UNL     1      -0.468  -2.331   7.237  1.00  0.00    -0.490 OA
BRANCH  16  17
ATOM     17  C   UNL     1       0.614  -1.433   7.457  1.00  0.00     0.233 C 
BRANCH  17  18
ATOM     18  C   UNL     1       1.974  -1.833   6.867  1.00  0.00     0.083 CG0
ATOM     19  G   UNL     1       1.967  -2.574   5.532  1.00  0.00     0.000 G0
ENDBRANCH  17  18
ENDBRANCH  16  17
ENDBRANCH  14  16
BRANCH  15  20
ATOM     20  O   UNL     1       1.201  -3.802   5.594  1.00  0.00    -0.490 OA
BRANCH  20  21
ATOM     21  C   UNL     1       1.967  -2.574   5.532  1.00  0.00     0.233 CG0
ATOM     22  G   UNL     1       1.974  -1.833   6.867  1.00  0.00     0.000 G0
ENDBRANCH  20  21
ENDBRANCH  15  20
ENDBRANCH   9  10
ENDBRANCH   7   9
ENDBRANCH   5   7
ENDBRANCH   3   5
ENDBRANCH   2   3
ENDBRANCH   1   2
BRANCH   1  23
ATOM     23  C   UNL     1       1.262   0.209  -2.697  1.00  0.00     0.202 C 
BRANCH  23  24
ATOM     24  O   UNL     1       0.951   1.567  -2.388  1.00  0.00    -0.374 OA
BRANCH  24  25
ATOM     25  C   UNL     1      -0.132   1.810  -1.494  1.00  0.00     0.202 C 
BRANCH  25  26
ATOM     26  C   UNL     1      -1.556   1.663  -2.052  1.00  0.00     0.261 C 
BRANCH  26  27
ATOM     27  O   UNL     1      -1.847   0.327  -2.501  1.00  0.00    -0.460 OA
BRANCH  27  28
ATOM     28  C   UNL     1      -1.912   0.177  -3.843  1.00  0.00     0.338 C 
ATOM     29  O   UNL     1      -1.840   1.061  -4.689  1.00  0.00    -0.246 OA
BRANCH  28  30
ATOM     30  C   UNL     1      -1.885  -1.254  -4.204  1.00  0.00     0.060 A 
ATOM     31  C   UNL     1      -0.937  -1.655  -5.156  1.00  0.00     0.016 A 
ATOM     32  C   UNL     1      -2.800  -2.175  -3.689  1.00  0.00     0.016 A 
ATOM     33  C   UNL     1      -0.942  -2.958  -5.645  1.00  0.00     0.010 A 
ATOM     34  C   UNL     1      -2.806  -3.486  -4.186  1.00  0.00     0.010 A 
ATOM     35  C   UNL     1      -1.905  -3.871  -5.198  1.00  0.00    -0.014 A 
BRANCH  35  36
ATOM     36  C   UNL     1      -2.062  -5.167  -5.908  1.00  0.00     0.031 A 
ATOM     37  C   UNL     1      -3.188  -5.327  -6.895  1.00  0.00     0.074 A 
ATOM     38  C   UNL     1      -1.186  -6.170  -5.722  1.00  0.00     0.049 A 
ATOM     39  N   UNL     1      -3.521  -6.367  -7.618  1.00  0.00    -0.248 NA
ATOM     40  C   UNL     1      -4.058  -4.157  -7.092  1.00  0.00     0.031 C 
ATOM     41  C   UNL     1      -0.027  -6.123  -4.834  1.00  0.00     0.029 A 
ATOM     42  N   UNL     1      -1.137  -7.426  -6.275  1.00  0.00    -0.354 N 
ATOM     43  C   UNL     1      -4.640  -5.980  -8.345  1.00  0.00     0.074 A 
ATOM     44  C   UNL     1      -4.950  -4.622  -7.953  1.00  0.00     0.031 C 
ATOM     45  C   UNL     1       0.619  -7.300  -4.899  1.00  0.00     0.029 A 
ATOM     46  C   UNL     1      -0.100  -8.194  -5.804  1.00  0.00     0.049 A 
ATOM     47  H   UNL     1      -1.784  -7.746  -6.944  1.00  0.00     0.167 HD
ATOM     48  C   UNL     1      -5.339  -6.689  -9.264  1.00  0.00     0.037 A 
ATOM     49  C   UNL     1       0.218  -9.479  -6.061  1.00  0.00     0.037 A 
ATOM     50  C   UNL     1      -5.024  -8.037  -9.660  1.00  0.00     0.049 A 
ATOM     51  C   UNL     1      -0.625 -10.271  -7.029  1.00  0.00     0.074 A 
ATOM     52  C   UNL     1      -5.655  -8.828 -10.604  1.00  0.00     0.029 A 
ATOM     53  N   UNL     1      -3.993  -8.797  -9.128  1.00  0.00    -0.354 N 
ATOM     54  N   UNL     1      -1.661  -9.888  -7.734  1.00  0.00    -0.248 NA
ATOM     55  C   UNL     1      -0.247 -11.677  -7.239  1.00  0.00     0.031 C 
ATOM     56  C   UNL     1      -5.049 -10.088 -10.595  1.00  0.00     0.029 A 
ATOM     57  C   UNL     1      -3.994 -10.060  -9.698  1.00  0.00     0.049 A 
ATOM     58  H   UNL     1      -3.355  -8.485  -8.446  1.00  0.00     0.167 HD
ATOM     59  C   UNL     1      -2.037 -10.989  -8.494  1.00  0.00     0.074 A 
ATOM     60  C   UNL     1      -1.108 -12.052  -8.174  1.00  0.00     0.031 C 
ATOM     61  C   UNL     1      -3.057 -11.108  -9.379  1.00  0.00     0.037 A 
BRANCH  48  62
ATOM     62  C   UNL     1      -6.540  -6.034  -9.884  1.00  0.00     0.064 A 
ATOM     63  C   UNL     1      -6.421  -4.967 -10.788  1.00  0.00     0.173 A 
ATOM     64  C   UNL     1      -7.830  -6.511  -9.602  1.00  0.00     0.173 A 
ATOM     65  F   UNL     1      -5.213  -4.464 -11.083  1.00  0.00    -0.203 F 
ATOM     66  C   UNL     1      -7.549  -4.386 -11.364  1.00  0.00     0.198 A 
ATOM     67  C   UNL     1      -8.952  -5.950 -10.206  1.00  0.00     0.198 A 
ATOM     68  F   UNL     1      -8.001  -7.533  -8.750  1.00  0.00    -0.203 F 
ATOM     69  F   UNL     1      -7.413  -3.337 -12.188  1.00  0.00    -0.200 F 
ATOM     70  C   UNL     1      -8.812  -4.884 -11.080  1.00  0.00     0.200 A 
ATOM     71  F   UNL     1     -10.170  -6.443  -9.941  1.00  0.00    -0.200 F 
ATOM     72  F   UNL     1      -9.894  -4.331 -11.644  1.00  0.00    -0.200 F 
ENDBRANCH  48  62
BRANCH  49  73
ATOM     73  C   UNL     1       1.382 -10.109  -5.383  1.00  0.00     0.064 A 
ATOM     74  C   UNL     1       2.513 -10.512  -6.108  1.00  0.00     0.173 A 
ATOM     75  C   UNL     1       1.377 -10.349  -4.000  1.00  0.00     0.173 A 
ATOM     76  F   UNL     1       2.556 -10.329  -7.436  1.00  0.00    -0.203 F 
ATOM     77  C   UNL     1       3.581 -11.152  -5.481  1.00  0.00     0.198 A 
ATOM     78  C   UNL     1       2.459 -10.959  -3.369  1.00  0.00     0.198 A 
ATOM     79  F   UNL     1       0.319  -9.986  -3.259  1.00  0.00    -0.203 F 
ATOM     80  F   UNL     1       4.624 -11.576  -6.207  1.00  0.00    -0.200 F 
ATOM     81  C   UNL     1       3.556 -11.369  -4.112  1.00  0.00     0.200 A 
ATOM     82  F   UNL     1       2.436 -11.154  -2.044  1.00  0.00    -0.200 F 
ATOM     83  F   UNL     1       4.584 -11.982  -3.509  1.00  0.00    -0.200 F 
ENDBRANCH  49  73
BRANCH  61  84
ATOM     84  C   UNL     1      -3.200 -12.418 -10.104  1.00  0.00     0.064 A 
ATOM     85  C   UNL     1      -3.618 -13.586  -9.448  1.00  0.00     0.173 A 
ATOM     86  C   UNL     1      -2.955 -12.495 -11.484  1.00  0.00     0.173 A 
ATOM     87  F   UNL     1      -3.853 -13.572  -8.128  1.00  0.00    -0.203 F 
ATOM     88  C   UNL     1      -3.754 -14.787 -10.142  1.00  0.00     0.198 A 
ATOM     89  C   UNL     1      -3.127 -13.688 -12.180  1.00  0.00     0.198 A 
ATOM     90  F   UNL     1      -2.562 -11.406 -12.163  1.00  0.00    -0.203 F 
ATOM     91  F   UNL     1      -4.102 -15.902  -9.484  1.00  0.00    -0.200 F 
ATOM     92  C   UNL     1      -3.517 -14.835 -11.507  1.00  0.00     0.200 A 
ATOM     93  F   UNL     1      -2.915 -13.727 -13.503  1.00  0.00    -0.200 F 
ATOM     94  F   UNL     1      -3.658 -15.989 -12.174  1.00  0.00    -0.200 F 
ENDBRANCH  61  84
ENDBRANCH  35  36
ENDBRANCH  28  30
ENDBRANCH  27  28
ENDBRANCH  26  27
ENDBRANCH  25  26
ENDBRANCH  24  25
ENDBRANCH  23  24
ENDBRANCH   1  23
TORSDOF 17
