REMARK SMILES O=C(OCCOCCOC(=O)[C@@H]1O[C@H](OC(=O)c2cccnc2)[C@@H](O)[C@H](O)[C@H]1O)c1ccc(-c2c3nc(c(-c4c(F)c(F)c(F)c(F)c4F)c4ccc([nH]4)c(-c4c(F)c(F)c(F)c(F)c4F)c4nc(c(-c5c(F)c(F)c(F)c(F)c5F)c5ccc2[nH]5)C=C4)C=C3)cc1
REMARK SMILES IDX 7 1 6 2 5 3 4 4 3 5 2 6 1 7 30 8 31 9 92 10 32 11 91 12
REMARK SMILES IDX 33 13 34 14 35 15 85 16 36 17 90 18 84 19 86 20 37 21 89 22
REMARK SMILES IDX 83 23 82 24 38 26 70 27 50 28 69 29 51 30 54 31 68 32 87 33
REMARK SMILES IDX 52 34 53 35 67 37 88 38 55 39 39 40 40 41 48 42 41 43 42 44
REMARK SMILES IDX 46 45 49 46 43 47 44 48 47 49 45 50 71 51 72 52 80 53 73 54
REMARK SMILES IDX 74 55 78 56 81 57 75 58 76 59 79 60 77 61 56 62 57 63 65 64
REMARK SMILES IDX 58 65 59 66 63 67 66 68 60 69 61 70 64 71 62 72 8 73 9 74
REMARK SMILES IDX 10 75 11 76 12 77 13 78 28 79 14 80 26 81 24 82 29 83 15 85
REMARK SMILES IDX 16 86 17 87 18 88 19 89 23 90 20 91 22 92 21 93 27 94 25 96
REMARK H PARENT 86 25 54 36 29 84 27 95 25 97
REMARK Flexibility Score: inf
ROOT
ATOM      1  C   UNL     1       4.455   5.804   1.960  1.00  0.00     0.202 C 
ENDROOT
BRANCH   1   2
ATOM      2  O   UNL     1       3.494   4.927   2.571  1.00  0.00    -0.374 OA
BRANCH   2   3
ATOM      3  C   UNL     1       2.778   4.044   1.699  1.00  0.00     0.202 C 
BRANCH   3   4
ATOM      4  C   UNL     1       1.765   4.641   0.714  1.00  0.00     0.261 C 
BRANCH   4   5
ATOM      5  O   UNL     1       2.347   5.691  -0.074  1.00  0.00    -0.460 OA
BRANCH   5   6
ATOM      6  C   UNL     1       2.118   7.022   0.037  1.00  0.00     0.338 C 
ATOM      7  O   UNL     1       2.597   7.792  -0.790  1.00  0.00    -0.246 OA
BRANCH   6   8
ATOM      8  C   UNL     1       1.294   7.589   1.140  1.00  0.00     0.060 A 
ATOM      9  C   UNL     1       1.201   7.019   2.409  1.00  0.00     0.016 A 
ATOM     10  C   UNL     1       0.633   8.803   0.909  1.00  0.00     0.016 A 
ATOM     11  C   UNL     1       0.386   7.547   3.386  1.00  0.00     0.010 A 
ATOM     12  C   UNL     1      -0.139   9.391   1.915  1.00  0.00     0.010 A 
ATOM     13  C   UNL     1      -0.279   8.742   3.147  1.00  0.00    -0.014 A 
BRANCH  13  14
ATOM     14  C   UNL     1      -1.177   9.219   4.206  1.00  0.00     0.031 A 
ATOM     15  C   UNL     1      -2.648   9.036   4.023  1.00  0.00     0.074 A 
ATOM     16  C   UNL     1      -0.643   9.630   5.370  1.00  0.00     0.049 A 
ATOM     17  N   UNL     1      -3.627   9.386   4.810  1.00  0.00    -0.248 NA
ATOM     18  C   UNL     1      -3.076   8.344   2.795  1.00  0.00     0.031 C 
ATOM     19  C   UNL     1       0.793   9.684   5.664  1.00  0.00     0.029 A 
ATOM     20  N   UNL     1      -1.236  10.031   6.534  1.00  0.00    -0.354 N 
ATOM     21  C   UNL     1      -4.785   8.993   4.158  1.00  0.00     0.074 A 
ATOM     22  C   UNL     1      -4.394   8.366   2.916  1.00  0.00     0.031 C 
ATOM     23  C   UNL     1       0.966  10.066   6.939  1.00  0.00     0.029 A 
ATOM     24  C   UNL     1      -0.338  10.362   7.518  1.00  0.00     0.049 A 
ATOM     25  H   UNL     1      -2.212  10.080   6.654  1.00  0.00     0.167 HD
ATOM     26  C   UNL     1      -6.061   9.163   4.570  1.00  0.00     0.037 A 
ATOM     27  C   UNL     1      -0.559  10.887   8.736  1.00  0.00     0.037 A 
ATOM     28  C   UNL     1      -6.404   9.791   5.816  1.00  0.00     0.049 A 
ATOM     29  C   UNL     1      -1.987  11.152   9.127  1.00  0.00     0.074 A 
ATOM     30  C   UNL     1      -7.652  10.104   6.318  1.00  0.00     0.029 A 
ATOM     31  N   UNL     1      -5.471  10.198   6.764  1.00  0.00    -0.354 N 
ATOM     32  N   UNL     1      -3.088  10.871   8.470  1.00  0.00    -0.248 NA
ATOM     33  C   UNL     1      -2.207  11.826  10.411  1.00  0.00     0.031 C 
ATOM     34  C   UNL     1      -7.472  10.737   7.553  1.00  0.00     0.029 A 
ATOM     35  C   UNL     1      -6.115  10.774   7.844  1.00  0.00     0.049 A 
ATOM     36  H   UNL     1      -4.497  10.092   6.680  1.00  0.00     0.167 HD
ATOM     37  C   UNL     1      -4.132  11.323   9.260  1.00  0.00     0.074 A 
ATOM     38  C   UNL     1      -3.531  11.875  10.460  1.00  0.00     0.031 C 
ATOM     39  C   UNL     1      -5.466  11.299   9.020  1.00  0.00     0.037 A 
BRANCH  26  40
ATOM     40  C   UNL     1      -7.147   8.744   3.626  1.00  0.00     0.064 A 
ATOM     41  C   UNL     1      -7.449   7.396   3.389  1.00  0.00     0.173 A 
ATOM     42  C   UNL     1      -7.874   9.714   2.921  1.00  0.00     0.173 A 
ATOM     43  F   UNL     1      -6.758   6.428   4.011  1.00  0.00    -0.203 F 
ATOM     44  C   UNL     1      -8.425   7.034   2.462  1.00  0.00     0.198 A 
ATOM     45  C   UNL     1      -8.865   9.351   2.013  1.00  0.00     0.198 A 
ATOM     46  F   UNL     1      -7.614  11.018   3.102  1.00  0.00    -0.203 F 
ATOM     47  F   UNL     1      -8.661   5.739   2.209  1.00  0.00    -0.200 F 
ATOM     48  C   UNL     1      -9.135   8.011   1.779  1.00  0.00     0.200 A 
ATOM     49  F   UNL     1      -9.548  10.296   1.354  1.00  0.00    -0.200 F 
ATOM     50  F   UNL     1     -10.068   7.661   0.882  1.00  0.00    -0.200 F 
ENDBRANCH  26  40
BRANCH  27  51
ATOM     51  C   UNL     1       0.581  11.251   9.619  1.00  0.00     0.064 A 
ATOM     52  C   UNL     1       0.775  10.627  10.859  1.00  0.00     0.173 A 
ATOM     53  C   UNL     1       1.500  12.246   9.245  1.00  0.00     0.173 A 
ATOM     54  F   UNL     1      -0.084   9.686  11.276  1.00  0.00    -0.203 F 
ATOM     55  C   UNL     1       1.829  10.995  11.695  1.00  0.00     0.198 A 
ATOM     56  C   UNL     1       2.572  12.589  10.065  1.00  0.00     0.198 A 
ATOM     57  F   UNL     1       1.363  12.881   8.071  1.00  0.00    -0.203 F 
ATOM     58  F   UNL     1       1.961  10.417  12.896  1.00  0.00    -0.200 F 
ATOM     59  C   UNL     1       2.730  11.971  11.295  1.00  0.00     0.200 A 
ATOM     60  F   UNL     1       3.447  13.522   9.665  1.00  0.00    -0.200 F 
ATOM     61  F   UNL     1       3.743  12.323  12.098  1.00  0.00    -0.200 F 
ENDBRANCH  27  51
BRANCH  39  62
ATOM     62  C   UNL     1      -6.350  11.858  10.090  1.00  0.00     0.064 A 
ATOM     63  C   UNL     1      -6.456  13.240  10.301  1.00  0.00     0.173 A 
ATOM     64  C   UNL     1      -7.135  11.002  10.876  1.00  0.00     0.173 A 
ATOM     65  F   UNL     1      -5.711  14.093   9.582  1.00  0.00    -0.203 F 
ATOM     66  C   UNL     1      -7.305  13.745  11.280  1.00  0.00     0.198 A 
ATOM     67  C   UNL     1      -8.003  11.513  11.834  1.00  0.00     0.198 A 
ATOM     68  F   UNL     1      -7.069   9.674  10.701  1.00  0.00    -0.203 F 
ATOM     69  F   UNL     1      -7.362  15.066  11.497  1.00  0.00    -0.200 F 
ATOM     70  C   UNL     1      -8.083  12.882  12.039  1.00  0.00     0.200 A 
ATOM     71  F   UNL     1      -8.764  10.680  12.557  1.00  0.00    -0.200 F 
ATOM     72  F   UNL     1      -8.908  13.372  12.974  1.00  0.00    -0.200 F 
ENDBRANCH  39  62
ENDBRANCH  13  14
ENDBRANCH   6   8
ENDBRANCH   5   6
ENDBRANCH   4   5
ENDBRANCH   3   4
ENDBRANCH   2   3
ENDBRANCH   1   2
BRANCH   1  73
ATOM     73  C   UNL     1       5.729   5.888   2.809  1.00  0.00     0.261 C 
BRANCH  73  74
ATOM     74  O   UNL     1       6.406   4.630   2.727  1.00  0.00    -0.461 OA
BRANCH  74  75
ATOM     75  C   UNL     1       5.914   3.703   3.587  1.00  0.00     0.338 C 
ATOM     76  O   UNL     1       5.634   3.938   4.759  1.00  0.00    -0.249 OA
BRANCH  75  77
ATOM     77  C   UNL     1       5.617   2.375   2.894  1.00  0.00     0.263 C 
ATOM     78  O   UNL     1       6.124   1.353   3.743  1.00  0.00    -0.322 OA
ATOM     79  C   UNL     1       6.157   2.228   1.462  1.00  0.00     0.186 C 
ATOM     80  C   UNL     1       5.908   0.019   3.309  1.00  0.00     0.343 C 
ATOM     81  C   UNL     1       5.713   0.858   0.947  1.00  0.00     0.181 C 
ATOM     82  C   UNL     1       6.260  -0.257   1.829  1.00  0.00     0.214 C 
BRANCH  79  83
ATOM     83  O   UNL     1       5.633   3.188   0.539  1.00  0.00    -0.387 OA
ATOM     84  H   UNL     1       4.671   3.083   0.475  1.00  0.00     0.211 HD
ENDBRANCH  79  83
BRANCH  80  85
ATOM     85  O   UNL     1       6.633  -0.870   4.172  1.00  0.00    -0.429 OA
BRANCH  85  86
ATOM     86  C   UNL     1       7.949  -0.571   4.307  1.00  0.00     0.342 C 
ATOM     87  O   UNL     1       8.590   0.257   3.683  1.00  0.00    -0.246 OA
BRANCH  86  88
ATOM     88  C   UNL     1       8.513  -1.366   5.400  1.00  0.00     0.078 A 
ATOM     89  C   UNL     1       8.114  -2.676   5.662  1.00  0.00     0.019 A 
ATOM     90  C   UNL     1       9.501  -0.797   6.190  1.00  0.00     0.126 A 
ATOM     91  C   UNL     1       8.723  -3.368   6.704  1.00  0.00     0.021 A 
ATOM     92  N   UNL     1      10.102  -1.447   7.214  1.00  0.00    -0.264 NA
ATOM     93  C   UNL     1       9.701  -2.718   7.444  1.00  0.00     0.111 A 
ENDBRANCH  86  88
ENDBRANCH  85  86
ENDBRANCH  80  85
BRANCH  81  94
ATOM     94  O   UNL     1       6.120   0.699  -0.422  1.00  0.00    -0.387 OA
ATOM     95  H   UNL     1       7.087   0.751  -0.480  1.00  0.00     0.211 HD
ENDBRANCH  81  94
BRANCH  82  96
ATOM     96  O   UNL     1       5.732  -1.532   1.427  1.00  0.00    -0.384 OA
ATOM     97  H   UNL     1       4.767  -1.527   1.519  1.00  0.00     0.211 HD
ENDBRANCH  82  96
ENDBRANCH  75  77
ENDBRANCH  74  75
ENDBRANCH  73  74
ENDBRANCH   1  73
TORSDOF 20
