REMARK SMILES Cc1c(C(=O)Nc2ccc(C(=O)Nc3ccccc3C(=O)OCCOCCOC(=O)c3ccc(-c4c5nc(c(-c6c(F)c(F)c(F)c(F)c6F)c6ccc([nH]6)c(-c6c(F)c(F)c(F)c(F)c6F)c6nc(c(-c7c(F)c(F)c(F)c(F)c7F)c7ccc4[nH]7)C=C6)C=C5)cc3)cc2)cccc1[N+](=O)[O-]
REMARK SMILES IDX 23 1 22 2 20 3 21 4 19 5 14 6 15 7 16 8 18 9 17 10 13 11
REMARK SMILES IDX 11 12 12 13 10 15 7 16 8 17 95 18 9 19 94 20 6 21 4 22 5 23
REMARK SMILES IDX 3 25 1 26 2 27 99 28 96 29 98 30 97 31 100 32 101 33 102 34
REMARK SMILES IDX 24 35 25 36 26 37 27 38 28 39 29 40 30 41 31 42 32 43 93 44
REMARK SMILES IDX 33 45 92 46 34 47 35 48 36 49 86 50 37 51 91 52 85 53 87 54
REMARK SMILES IDX 38 55 90 56 84 57 83 58 39 60 71 61 51 62 70 63 52 64 55 65
REMARK SMILES IDX 69 66 88 67 53 68 54 69 68 71 89 72 56 73 40 74 41 75 49 76
REMARK SMILES IDX 42 77 43 78 47 79 50 80 44 81 45 82 48 83 46 84 72 85 73 86
REMARK SMILES IDX 81 87 74 88 75 89 79 90 82 91 76 92 77 93 80 94 78 95 57 96
REMARK SMILES IDX 58 97 66 98 59 99 60 100 64 101 67 102 61 103 62 104 65 105
REMARK SMILES IDX 63 106
REMARK H PARENT 13 14 6 24 87 59 55 70
REMARK Flexibility Score: inf
ROOT
ATOM      1  C   UNL     1       3.659  -0.624   2.672  1.00  0.00     0.261 C 
ENDROOT
BRANCH   1   2
ATOM      2  O   UNL     1       3.707   0.709   3.224  1.00  0.00    -0.460 OA
BRANCH   2   3
ATOM      3  C   UNL     1       4.340   1.768   2.632  1.00  0.00     0.340 C 
ATOM      4  O   UNL     1       5.375   1.752   2.044  1.00  0.00    -0.246 OA
BRANCH   3   5
ATOM      5  C   UNL     1       3.429   2.965   2.718  1.00  0.00     0.083 A 
ATOM      6  C   UNL     1       3.425   3.960   1.713  1.00  0.00     0.056 A 
ATOM      7  C   UNL     1       2.491   5.008   1.775  1.00  0.00     0.027 A 
ATOM      8  C   UNL     1       1.507   5.024   2.761  1.00  0.00     0.002 A 
ATOM      9  C   UNL     1       2.480   3.048   3.755  1.00  0.00     0.018 A 
ATOM     10  C   UNL     1       1.506   4.051   3.755  1.00  0.00     0.001 A 
BRANCH   6  11
ATOM     11  N   UNL     1       4.212   3.967   0.549  1.00  0.00    -0.321 N 
ATOM     12  C   UNL     1       4.342   3.054  -0.477  1.00  0.00     0.255 C 
ATOM     13  O   UNL     1       5.163   3.303  -1.364  1.00  0.00    -0.269 OA
ATOM     14  H   UNL     1       4.772   4.770   0.447  1.00  0.00     0.170 HD
BRANCH  12  15
ATOM     15  C   UNL     1       3.501   1.823  -0.621  1.00  0.00     0.040 A 
ATOM     16  C   UNL     1       2.194  -0.675  -0.834  1.00  0.00     0.041 A 
ATOM     17  C   UNL     1       1.782   0.275   0.096  1.00  0.00     0.027 A 
ATOM     18  C   UNL     1       3.246  -0.364  -1.688  1.00  0.00     0.027 A 
ATOM     19  C   UNL     1       2.384   1.530   0.154  1.00  0.00     0.016 A 
ATOM     20  C   UNL     1       3.881   0.883  -1.594  1.00  0.00     0.016 A 
BRANCH  16  21
ATOM     21  N   UNL     1       1.514  -1.891  -1.007  1.00  0.00    -0.322 N 
ATOM     22  C   UNL     1       0.154  -2.140  -0.895  1.00  0.00     0.256 C 
ATOM     23  O   UNL     1      -0.262  -3.296  -0.890  1.00  0.00    -0.269 OA
ATOM     24  H   UNL     1       2.075  -2.667  -1.238  1.00  0.00     0.170 HD
BRANCH  22  25
ATOM     25  C   UNL     1      -0.822  -1.006  -0.787  1.00  0.00     0.049 A 
ATOM     26  C   UNL     1       0.110   0.300  -2.764  1.00  0.00     0.053 C 
ATOM     27  C   UNL     1      -0.670   0.223  -1.475  1.00  0.00     0.039 A 
ATOM     28  C   UNL     1      -1.283   1.352  -0.892  1.00  0.00     0.273 A 
ATOM     29  C   UNL     1      -1.828  -1.159   0.180  1.00  0.00     0.014 A 
ATOM     30  C   UNL     1      -2.266   1.202   0.102  1.00  0.00     0.086 A 
ATOM     31  C   UNL     1      -2.592  -0.065   0.577  1.00  0.00     0.008 A 
BRANCH  28  32
ATOM     32  N   UNL     1      -0.760   2.719  -1.108  1.00  0.00     0.063 N 
ATOM     33  O   UNL     1      -0.895   3.525  -0.174  1.00  0.00    -0.258 OA
ATOM     34  O   UNL     1      -0.171   2.978  -2.163  1.00  0.00    -0.258 OA
ENDBRANCH  28  32
ENDBRANCH  22  25
ENDBRANCH  16  21
ENDBRANCH  12  15
ENDBRANCH   6  11
ENDBRANCH   3   5
ENDBRANCH   2   3
ENDBRANCH   1   2
BRANCH   1  35
ATOM     35  C   UNL     1       4.886  -1.472   2.368  1.00  0.00     0.202 C 
BRANCH  35  36
ATOM     36  O   UNL     1       6.015  -0.843   1.815  1.00  0.00    -0.374 OA
BRANCH  36  37
ATOM     37  C   UNL     1       6.117  -0.675   0.410  1.00  0.00     0.202 C 
BRANCH  37  38
ATOM     38  C   UNL     1       5.775  -1.891  -0.469  1.00  0.00     0.261 C 
BRANCH  38  39
ATOM     39  O   UNL     1       6.757  -2.948  -0.425  1.00  0.00    -0.460 OA
BRANCH  39  40
ATOM     40  C   UNL     1       6.674  -3.811   0.626  1.00  0.00     0.338 C 
ATOM     41  O   UNL     1       5.776  -4.616   0.800  1.00  0.00    -0.246 OA
BRANCH  40  42
ATOM     42  C   UNL     1       7.704  -3.430   1.632  1.00  0.00     0.060 A 
ATOM     43  C   UNL     1       7.392  -3.563   2.989  1.00  0.00     0.016 A 
ATOM     44  C   UNL     1       8.716  -2.561   1.239  1.00  0.00     0.016 A 
ATOM     45  C   UNL     1       7.796  -2.555   3.872  1.00  0.00     0.010 A 
ATOM     46  C   UNL     1       9.104  -1.571   2.123  1.00  0.00     0.010 A 
ATOM     47  C   UNL     1       8.464  -1.440   3.369  1.00  0.00    -0.014 A 
BRANCH  47  48
ATOM     48  C   UNL     1       8.302  -0.070   3.931  1.00  0.00     0.031 A 
ATOM     49  C   UNL     1       9.353   0.905   3.641  1.00  0.00     0.074 A 
ATOM     50  C   UNL     1       7.220   0.463   4.545  1.00  0.00     0.049 A 
ATOM     51  N   UNL     1      10.331   1.201   4.433  1.00  0.00    -0.248 NA
ATOM     52  C   UNL     1       9.381   1.550   2.326  1.00  0.00     0.031 C 
ATOM     53  C   UNL     1       7.013   1.867   4.916  1.00  0.00     0.029 A 
ATOM     54  N   UNL     1       6.030  -0.150   4.953  1.00  0.00    -0.354 N 
ATOM     55  C   UNL     1      10.972   2.242   3.797  1.00  0.00     0.074 A 
ATOM     56  C   UNL     1      10.552   2.181   2.404  1.00  0.00     0.031 C 
ATOM     57  C   UNL     1       5.946   1.960   5.731  1.00  0.00     0.029 A 
ATOM     58  C   UNL     1       5.456   0.615   5.985  1.00  0.00     0.049 A 
ATOM     59  H   UNL     1       5.656  -0.981   4.580  1.00  0.00     0.167 HD
ATOM     60  C   UNL     1      11.257   3.411   4.444  1.00  0.00     0.037 A 
ATOM     61  C   UNL     1       5.202   0.052   7.199  1.00  0.00     0.037 A 
ATOM     62  C   UNL     1      10.405   3.591   5.625  1.00  0.00     0.049 A 
ATOM     63  C   UNL     1       6.199   0.543   8.209  1.00  0.00     0.074 A 
ATOM     64  C   UNL     1       9.339   4.449   5.858  1.00  0.00     0.029 A 
ATOM     65  N   UNL     1      10.380   2.660   6.660  1.00  0.00    -0.354 N 
ATOM     66  N   UNL     1       7.228   1.261   7.859  1.00  0.00    -0.248 NA
ATOM     67  C   UNL     1       6.158   0.302   9.646  1.00  0.00     0.031 C 
ATOM     68  C   UNL     1       8.687   4.040   7.047  1.00  0.00     0.029 A 
ATOM     69  C   UNL     1       9.356   2.937   7.549  1.00  0.00     0.049 A 
ATOM     70  H   UNL     1      11.007   1.906   6.747  1.00  0.00     0.167 HD
ATOM     71  C   UNL     1       8.004   1.526   8.937  1.00  0.00     0.074 A 
ATOM     72  C   UNL     1       7.283   0.928  10.045  1.00  0.00     0.031 C 
ATOM     73  C   UNL     1       9.191   2.177   8.784  1.00  0.00     0.037 A 
BRANCH  60  74
ATOM     74  C   UNL     1      11.989   4.545   3.750  1.00  0.00     0.064 A 
ATOM     75  C   UNL     1      11.998   5.849   4.280  1.00  0.00     0.173 A 
ATOM     76  C   UNL     1      12.773   4.375   2.585  1.00  0.00     0.173 A 
ATOM     77  F   UNL     1      11.430   6.127   5.460  1.00  0.00    -0.203 F 
ATOM     78  C   UNL     1      12.633   6.914   3.634  1.00  0.00     0.198 A 
ATOM     79  C   UNL     1      13.360   5.448   1.909  1.00  0.00     0.198 A 
ATOM     80  F   UNL     1      13.031   3.155   2.089  1.00  0.00    -0.203 F 
ATOM     81  F   UNL     1      12.619   8.131   4.195  1.00  0.00    -0.200 F 
ATOM     82  C   UNL     1      13.285   6.721   2.433  1.00  0.00     0.200 A 
ATOM     83  F   UNL     1      14.011   5.234   0.757  1.00  0.00    -0.200 F 
ATOM     84  F   UNL     1      13.876   7.747   1.807  1.00  0.00    -0.200 F 
ENDBRANCH  60  74
BRANCH  61  85
ATOM     85  C   UNL     1       4.598  -1.304   7.071  1.00  0.00     0.064 A 
ATOM     86  C   UNL     1       3.258  -1.348   6.632  1.00  0.00     0.173 A 
ATOM     87  C   UNL     1       5.375  -2.452   6.867  1.00  0.00     0.173 A 
ATOM     88  F   UNL     1       2.466  -0.276   6.796  1.00  0.00    -0.203 F 
ATOM     89  C   UNL     1       2.771  -2.419   5.884  1.00  0.00     0.198 A 
ATOM     90  C   UNL     1       4.886  -3.519   6.103  1.00  0.00     0.198 A 
ATOM     91  F   UNL     1       6.655  -2.479   7.264  1.00  0.00    -0.203 F 
ATOM     92  F   UNL     1       1.544  -2.353   5.344  1.00  0.00    -0.200 F 
ATOM     93  C   UNL     1       3.603  -3.480   5.575  1.00  0.00     0.200 A 
ATOM     94  F   UNL     1       5.698  -4.536   5.776  1.00  0.00    -0.200 F 
ATOM     95  F   UNL     1       3.196  -4.420   4.709  1.00  0.00    -0.200 F 
ENDBRANCH  61  85
BRANCH  73  96
ATOM     96  C   UNL     1      10.270   2.217   9.819  1.00  0.00     0.064 A 
ATOM     97  C   UNL     1      10.490   1.176  10.734  1.00  0.00     0.173 A 
ATOM     98  C   UNL     1      11.237   3.247   9.802  1.00  0.00     0.173 A 
ATOM     99  F   UNL     1       9.701   0.093  10.764  1.00  0.00    -0.203 F 
ATOM    100  C   UNL     1      11.571   1.192  11.612  1.00  0.00     0.198 A 
ATOM    101  C   UNL     1      12.349   3.227  10.636  1.00  0.00     0.198 A 
ATOM    102  F   UNL     1      11.143   4.284   8.956  1.00  0.00    -0.203 F 
ATOM    103  F   UNL     1      11.717   0.198  12.499  1.00  0.00    -0.200 F 
ATOM    104  C   UNL     1      12.507   2.208  11.554  1.00  0.00     0.200 A 
ATOM    105  F   UNL     1      13.276   4.189  10.531  1.00  0.00    -0.200 F 
ATOM    106  F   UNL     1      13.569   2.195  12.369  1.00  0.00    -0.200 F 
ENDBRANCH  73  96
ENDBRANCH  47  48
ENDBRANCH  40  42
ENDBRANCH  39  40
ENDBRANCH  38  39
ENDBRANCH  37  38
ENDBRANCH  36  37
ENDBRANCH  35  36
ENDBRANCH   1  35
TORSDOF 19
