REMARK SMILES O=C(OCCOCCOC(=O)c1nccnc1C(=O)Nc1ccc2c(c1)OCO2)c1ccc(-c2c3nc(c(-c4c(F)c(F)c(F)c(F)c4F)c4ccc([nH]4)c(-c4c(F)c(F)c(F)c(F)c4F)c4nc(c(-c5c(F)c(F)c(F)c(F)c5F)c5ccc2[nH]5)C=C4)C=C3)cc1
REMARK SMILES IDX 6 1 5 2 4 3 3 4 2 5 1 6 30 7 31 8 92 9 32 10 91 11 33 12
REMARK SMILES IDX 34 13 35 14 85 15 36 16 90 17 84 18 86 19 37 20 89 21 83 22
REMARK SMILES IDX 82 23 38 25 70 26 50 27 69 28 51 29 54 30 68 31 87 32 52 33
REMARK SMILES IDX 53 34 67 36 88 37 55 38 39 39 40 40 48 41 41 42 42 43 46 44
REMARK SMILES IDX 49 45 43 46 44 47 47 48 45 49 71 50 72 51 80 52 73 53 74 54
REMARK SMILES IDX 78 55 81 56 75 57 76 58 79 59 77 60 56 61 57 62 65 63 58 64
REMARK SMILES IDX 59 65 63 66 66 67 60 68 61 69 64 70 62 71 7 72 8 73 9 74
REMARK SMILES IDX 10 75 11 76 12 77 13 78 17 79 14 80 16 81 15 82 18 83 19 84
REMARK SMILES IDX 20 85 21 87 22 88 26 89 23 90 25 91 24 92 27 93 29 94 28 95
REMARK H PARENT 86 24 54 35 20 86
REMARK Flexibility Score: inf
ROOT
ATOM      1  O   UNL     1       4.129  -0.027  -0.229  1.00  0.00    -0.374 OA
ENDROOT
BRANCH   1   2
ATOM      2  C   UNL     1       4.342  -1.049   0.732  1.00  0.00     0.202 C 
BRANCH   2   3
ATOM      3  C   UNL     1       3.423  -0.959   1.953  1.00  0.00     0.261 C 
BRANCH   3   4
ATOM      4  O   UNL     1       2.045  -0.672   1.623  1.00  0.00    -0.460 OA
BRANCH   4   5
ATOM      5  C   UNL     1       1.408   0.494   1.931  1.00  0.00     0.338 C 
ATOM      6  O   UNL     1       0.189   0.557   2.009  1.00  0.00    -0.246 OA
BRANCH   5   7
ATOM      7  C   UNL     1       2.208   1.725   2.121  1.00  0.00     0.060 A 
ATOM      8  C   UNL     1       3.016   2.204   1.098  1.00  0.00     0.016 A 
ATOM      9  C   UNL     1       2.105   2.471   3.288  1.00  0.00     0.016 A 
ATOM     10  C   UNL     1       3.930   3.218   1.304  1.00  0.00     0.010 A 
ATOM     11  C   UNL     1       2.909   3.609   3.447  1.00  0.00     0.010 A 
ATOM     12  C   UNL     1       3.886   3.943   2.485  1.00  0.00    -0.014 A 
BRANCH  12  13
ATOM     13  C   UNL     1       4.956   4.927   2.777  1.00  0.00     0.031 A 
ATOM     14  C   UNL     1       5.764   4.714   4.024  1.00  0.00     0.074 A 
ATOM     15  C   UNL     1       5.275   5.921   1.925  1.00  0.00     0.049 A 
ATOM     16  N   UNL     1       6.513   5.549   4.689  1.00  0.00    -0.248 NA
ATOM     17  C   UNL     1       5.683   3.370   4.622  1.00  0.00     0.031 C 
ATOM     18  C   UNL     1       4.694   6.136   0.598  1.00  0.00     0.029 A 
ATOM     19  N   UNL     1       6.196   6.932   2.044  1.00  0.00    -0.354 N 
ATOM     20  C   UNL     1       6.889   4.870   5.841  1.00  0.00     0.074 A 
ATOM     21  C   UNL     1       6.306   3.550   5.774  1.00  0.00     0.031 C 
ATOM     22  C   UNL     1       5.308   7.172   0.006  1.00  0.00     0.029 A 
ATOM     23  C   UNL     1       6.222   7.780   0.963  1.00  0.00     0.049 A 
ATOM     24  H   UNL     1       6.781   7.039   2.828  1.00  0.00     0.167 HD
ATOM     25  C   UNL     1       7.635   5.337   6.869  1.00  0.00     0.037 A 
ATOM     26  C   UNL     1       6.862   8.954   0.800  1.00  0.00     0.037 A 
ATOM     27  C   UNL     1       8.263   6.630   6.845  1.00  0.00     0.049 A 
ATOM     28  C   UNL     1       7.655   9.482   1.966  1.00  0.00     0.074 A 
ATOM     29  C   UNL     1       9.012   7.256   7.821  1.00  0.00     0.029 A 
ATOM     30  N   UNL     1       8.230   7.487   5.749  1.00  0.00    -0.354 N 
ATOM     31  N   UNL     1       7.881   8.925   3.134  1.00  0.00    -0.248 NA
ATOM     32  C   UNL     1       8.249  10.814   1.811  1.00  0.00     0.031 C 
ATOM     33  C   UNL     1       9.400   8.509   7.330  1.00  0.00     0.029 A 
ATOM     34  C   UNL     1       8.944   8.638   6.025  1.00  0.00     0.049 A 
ATOM     35  H   UNL     1       7.767   7.301   4.901  1.00  0.00     0.167 HD
ATOM     36  C   UNL     1       8.662   9.823   3.844  1.00  0.00     0.074 A 
ATOM     37  C   UNL     1       8.881  10.959   2.967  1.00  0.00     0.031 C 
ATOM     38  C   UNL     1       9.154   9.729   5.105  1.00  0.00     0.037 A 
BRANCH  25  39
ATOM     39  C   UNL     1       7.705   4.487   8.106  1.00  0.00     0.064 A 
ATOM     40  C   UNL     1       8.358   3.245   8.141  1.00  0.00     0.173 A 
ATOM     41  C   UNL     1       7.025   4.896   9.265  1.00  0.00     0.173 A 
ATOM     42  F   UNL     1       8.997   2.788   7.053  1.00  0.00    -0.203 F 
ATOM     43  C   UNL     1       8.280   2.424   9.264  1.00  0.00     0.198 A 
ATOM     44  C   UNL     1       6.982   4.090  10.400  1.00  0.00     0.198 A 
ATOM     45  F   UNL     1       6.377   6.071   9.291  1.00  0.00    -0.203 F 
ATOM     46  F   UNL     1       8.831   1.202   9.238  1.00  0.00    -0.200 F 
ATOM     47  C   UNL     1       7.594   2.847  10.393  1.00  0.00     0.200 A 
ATOM     48  F   UNL     1       6.321   4.505  11.490  1.00  0.00    -0.200 F 
ATOM     49  F   UNL     1       7.503   2.047  11.464  1.00  0.00    -0.200 F 
ENDBRANCH  25  39
BRANCH  26  50
ATOM     50  C   UNL     1       6.724   9.727  -0.466  1.00  0.00     0.064 A 
ATOM     51  C   UNL     1       7.833   9.965  -1.291  1.00  0.00     0.173 A 
ATOM     52  C   UNL     1       5.488  10.246  -0.884  1.00  0.00     0.173 A 
ATOM     53  F   UNL     1       9.044   9.517  -0.930  1.00  0.00    -0.203 F 
ATOM     54  C   UNL     1       7.713  10.696  -2.474  1.00  0.00     0.198 A 
ATOM     55  C   UNL     1       5.362  10.946  -2.083  1.00  0.00     0.198 A 
ATOM     56  F   UNL     1       4.392  10.059  -0.135  1.00  0.00    -0.203 F 
ATOM     57  F   UNL     1       8.799  10.945  -3.218  1.00  0.00    -0.200 F 
ATOM     58  C   UNL     1       6.476  11.178  -2.874  1.00  0.00     0.200 A 
ATOM     59  F   UNL     1       4.160  11.395  -2.471  1.00  0.00    -0.200 F 
ATOM     60  F   UNL     1       6.359  11.871  -4.014  1.00  0.00    -0.200 F 
ENDBRANCH  26  50
BRANCH  38  61
ATOM     61  C   UNL     1      10.034  10.849   5.571  1.00  0.00     0.064 A 
ATOM     62  C   UNL     1       9.518  12.110   5.899  1.00  0.00     0.173 A 
ATOM     63  C   UNL     1      11.411  10.633   5.730  1.00  0.00     0.173 A 
ATOM     64  F   UNL     1       8.210  12.366   5.747  1.00  0.00    -0.203 F 
ATOM     65  C   UNL     1      10.357  13.126   6.346  1.00  0.00     0.198 A 
ATOM     66  C   UNL     1      12.240  11.640   6.209  1.00  0.00     0.198 A 
ATOM     67  F   UNL     1      11.947   9.439   5.436  1.00  0.00    -0.203 F 
ATOM     68  F   UNL     1       9.854  14.340   6.607  1.00  0.00    -0.200 F 
ATOM     69  C   UNL     1      11.714  12.888   6.509  1.00  0.00     0.200 A 
ATOM     70  F   UNL     1      13.548  11.404   6.381  1.00  0.00    -0.200 F 
ATOM     71  F   UNL     1      12.519  13.865   6.949  1.00  0.00    -0.200 F 
ENDBRANCH  38  61
ENDBRANCH  12  13
ENDBRANCH   5   7
ENDBRANCH   4   5
ENDBRANCH   3   4
ENDBRANCH   2   3
ENDBRANCH   1   2
BRANCH   1  72
ATOM     72  C   UNL     1       3.030  -0.268  -1.123  1.00  0.00     0.202 C 
BRANCH  72  73
ATOM     73  C   UNL     1       3.172   0.667  -2.479  1.00  0.00     0.261 C 
BRANCH  73  74
ATOM     74  O   UNL     1       4.295   0.357  -4.127  1.00  0.00    -0.458 OA
BRANCH  74  75
ATOM     75  C   UNL     1       5.178  -0.231  -5.111  1.00  0.00     0.359 C 
ATOM     76  O   UNL     1       5.633   0.456  -6.022  1.00  0.00    -0.244 OA
BRANCH  75  77
ATOM     77  C   UNL     1       5.528  -1.716  -5.081  1.00  0.00     0.179 A 
ATOM     78  N   UNL     1       4.856  -2.431  -6.045  1.00  0.00    -0.245 NA
ATOM     79  C   UNL     1       6.293  -2.381  -4.107  1.00  0.00     0.161 A 
ATOM     80  C   UNL     1       4.960  -3.780  -5.986  1.00  0.00     0.132 A 
ATOM     81  N   UNL     1       6.378  -3.752  -4.071  1.00  0.00    -0.247 NA
ATOM     82  C   UNL     1       5.700  -4.427  -5.017  1.00  0.00     0.132 A 
BRANCH  79  83
ATOM     83  C   UNL     1       6.982  -1.769  -2.928  1.00  0.00     0.276 C 
ATOM     84  O   UNL     1       8.085  -2.175  -2.563  1.00  0.00    -0.267 OA
ATOM     85  N   UNL     1       6.393  -0.751  -2.229  1.00  0.00    -0.320 N 
ATOM     86  H   UNL     1       6.863  -0.390  -1.444  1.00  0.00     0.170 HD
BRANCH  85  87
ATOM     87  C   UNL     1       5.170  -0.205  -2.571  1.00  0.00     0.045 A 
ATOM     88  C   UNL     1       3.798  -1.244  -3.233  1.00  0.00     0.030 A 
ATOM     89  C   UNL     1       5.222   1.565  -2.918  1.00  0.00     0.076 A 
ATOM     90  C   UNL     1       2.537  -0.469  -4.279  1.00  0.00     0.053 A 
ATOM     91  C   UNL     1       3.942   2.255  -3.935  1.00  0.00     0.167 A 
ATOM     92  C   UNL     1       2.660   1.283  -4.603  1.00  0.00     0.165 A 
ATOM     93  O   UNL     1       3.620   3.557  -4.146  1.00  0.00    -0.454 OA
ATOM     94  O   UNL     1       1.727   2.142  -5.093  1.00  0.00    -0.454 OA
ATOM     95  C   UNL     1       2.235   3.448  -4.633  1.00  0.00     0.468 C 
ENDBRANCH  85  87
ENDBRANCH  79  83
ENDBRANCH  75  77
ENDBRANCH  74  75
ENDBRANCH  73  74
ENDBRANCH  72  73
ENDBRANCH   1  72
TORSDOF 16
