REMARK SMILES Cc1nc(CCNc2nccc(-c3cc(C(=O)OCCOCCOC(=O)c4ccc(-c5c6nc(c(-c7c(F)c(F)c(F)c(F)c7F)c7ccc([nH]7)c(-c7c(F)c(F)c(F)c(F)c7F)c7nc(c(-c8c(F)c(F)c(F)c(F)c8F)c8ccc5[nH]8)C=C7)C=C6)cc4)ccn3)n2)cc(=O)[nH]1
REMARK SMILES IDX 19 1 18 2 16 3 17 4 15 5 13 6 14 7 92 8 91 9 90 10 12 11
REMARK SMILES IDX 8 12 9 13 93 14 10 15 11 16 7 17 6 19 5 20 4 21 1 22 2 23
REMARK SMILES IDX 3 24 97 25 95 26 94 28 96 29 20 30 21 31 22 32 23 33 24 34
REMARK SMILES IDX 25 35 26 36 27 37 28 38 89 39 29 40 88 41 30 42 31 43 32 44
REMARK SMILES IDX 82 45 33 46 87 47 81 48 83 49 34 50 86 51 80 52 79 53 35 55
REMARK SMILES IDX 67 56 47 57 66 58 48 59 51 60 65 61 84 62 49 63 50 64 64 66
REMARK SMILES IDX 85 67 52 68 36 69 37 70 45 71 38 72 39 73 43 74 46 75 40 76
REMARK SMILES IDX 41 77 44 78 42 79 68 80 69 81 77 82 70 83 71 84 75 85 78 86
REMARK SMILES IDX 72 87 73 88 76 89 74 90 53 91 54 92 62 93 55 94 56 95 60 96
REMARK SMILES IDX 63 97 57 98 58 99 61 100 59 101
REMARK H PARENT 7 18 97 27 83 54 51 65
REMARK Flexibility Score: inf
ROOT
ATOM      1  C   UNL     1       3.491  13.225   1.989  1.00  0.00     0.261 C 
ENDROOT
BRANCH   1   2
ATOM      2  O   UNL     1       3.524  11.807   2.219  1.00  0.00    -0.460 OA
BRANCH   2   3
ATOM      3  C   UNL     1       3.934  11.438   3.457  1.00  0.00     0.338 C 
ATOM      4  O   UNL     1       4.412  12.159   4.319  1.00  0.00    -0.246 OA
BRANCH   3   5
ATOM      5  C   UNL     1       3.550  10.034   3.709  1.00  0.00     0.063 A 
ATOM      6  C   UNL     1       3.176   7.769   3.037  1.00  0.00     0.090 A 
ATOM      7  C   UNL     1       3.560   9.064   2.704  1.00  0.00     0.046 A 
ATOM      8  N   UNL     1       2.760   7.453   4.294  1.00  0.00    -0.255 NA
ATOM      9  C   UNL     1       2.744   8.413   5.238  1.00  0.00     0.112 A 
ATOM     10  C   UNL     1       3.141   9.708   5.000  1.00  0.00     0.036 A 
BRANCH   6  11
ATOM     11  C   UNL     1       3.308   6.628   2.107  1.00  0.00     0.094 A 
ATOM     12  C   UNL     1       2.514   4.563   1.484  1.00  0.00     0.223 A 
ATOM     13  N   UNL     1       3.617   4.282   0.778  1.00  0.00    -0.222 NA
ATOM     14  N   UNL     1       2.301   5.722   2.111  1.00  0.00    -0.211 NA
ATOM     15  C   UNL     1       4.558   5.236   0.712  1.00  0.00     0.117 A 
ATOM     16  C   UNL     1       4.462   6.434   1.371  1.00  0.00     0.051 A 
BRANCH  12  17
ATOM     17  N   UNL     1       1.631   3.529   1.625  1.00  0.00    -0.354 N 
ATOM     18  H   UNL     1       1.966   2.641   1.886  1.00  0.00     0.163 HD
BRANCH  17  19
ATOM     19  C   UNL     1       0.212   3.712   1.399  1.00  0.00     0.122 C 
BRANCH  19  20
ATOM     20  C   UNL     1      -0.210   3.141   0.030  1.00  0.00     0.077 C 
BRANCH  20  21
ATOM     21  C   UNL     1      -0.098   1.628  -0.063  1.00  0.00     0.050 A 
ATOM     22  C   UNL     1      -2.438  -1.216   0.145  1.00  0.00     0.087 C 
ATOM     23  C   UNL     1      -1.207  -0.366   0.030  1.00  0.00     0.105 A 
ATOM     24  N   UNL     1      -1.271   0.925   0.107  1.00  0.00    -0.240 NA
ATOM     25  N   UNL     1      -0.043  -1.056  -0.162  1.00  0.00    -0.311 N 
ATOM     26  C   UNL     1       1.148  -0.423  -0.334  1.00  0.00     0.251 A 
ATOM     27  H   UNL     1      -0.069  -2.040  -0.177  1.00  0.00     0.171 HD
ATOM     28  C   UNL     1       1.078   1.042  -0.339  1.00  0.00     0.095 A 
ATOM     29  O   UNL     1       2.210  -1.019  -0.464  1.00  0.00    -0.270 OA
ENDBRANCH  20  21
ENDBRANCH  19  20
ENDBRANCH  17  19
ENDBRANCH  12  17
ENDBRANCH   6  11
ENDBRANCH   3   5
ENDBRANCH   2   3
ENDBRANCH   1   2
BRANCH   1  30
ATOM     30  C   UNL     1       2.053  13.744   1.883  1.00  0.00     0.202 C 
BRANCH  30  31
ATOM     31  O   UNL     1       1.224  13.602   3.034  1.00  0.00    -0.374 OA
BRANCH  31  32
ATOM     32  C   UNL     1       0.645  12.320   3.282  1.00  0.00     0.202 C 
BRANCH  32  33
ATOM     33  C   UNL     1      -0.556  11.905   2.423  1.00  0.00     0.261 C 
BRANCH  33  34
ATOM     34  O   UNL     1      -0.220  11.770   1.031  1.00  0.00    -0.460 OA
BRANCH  34  35
ATOM     35  C   UNL     1      -0.714  12.749   0.235  1.00  0.00     0.338 C 
ATOM     36  O   UNL     1      -1.438  13.676   0.558  1.00  0.00    -0.246 OA
BRANCH  35  37
ATOM     37  C   UNL     1      -0.101  12.660  -1.102  1.00  0.00     0.060 A 
ATOM     38  C   UNL     1       0.539  13.802  -1.600  1.00  0.00     0.016 A 
ATOM     39  C   UNL     1      -0.217  11.511  -1.886  1.00  0.00     0.016 A 
ATOM     40  C   UNL     1       1.024  13.817  -2.905  1.00  0.00     0.010 A 
ATOM     41  C   UNL     1       0.265  11.530  -3.199  1.00  0.00     0.010 A 
ATOM     42  C   UNL     1       0.857  12.694  -3.725  1.00  0.00    -0.014 A 
BRANCH  42  43
ATOM     43  C   UNL     1       1.180  12.784  -5.169  1.00  0.00     0.031 A 
ATOM     44  C   UNL     1       0.062  12.946  -6.161  1.00  0.00     0.074 A 
ATOM     45  C   UNL     1       2.456  12.743  -5.590  1.00  0.00     0.049 A 
ATOM     46  N   UNL     1       0.110  12.996  -7.468  1.00  0.00    -0.248 NA
ATOM     47  C   UNL     1      -1.295  13.065  -5.604  1.00  0.00     0.031 C 
ATOM     48  C   UNL     1       3.626  12.629  -4.722  1.00  0.00     0.029 A 
ATOM     49  N   UNL     1       2.979  12.785  -6.858  1.00  0.00    -0.354 N 
ATOM     50  C   UNL     1      -1.206  13.142  -7.889  1.00  0.00     0.074 A 
ATOM     51  C   UNL     1      -2.033  13.139  -6.701  1.00  0.00     0.031 C 
ATOM     52  C   UNL     1       4.732  12.599  -5.485  1.00  0.00     0.029 A 
ATOM     53  C   UNL     1       4.345  12.655  -6.893  1.00  0.00     0.049 A 
ATOM     54  H   UNL     1       2.427  12.898  -7.666  1.00  0.00     0.167 HD
ATOM     55  C   UNL     1      -1.679  13.275  -9.151  1.00  0.00     0.037 A 
ATOM     56  C   UNL     1       5.182  12.564  -7.945  1.00  0.00     0.037 A 
ATOM     57  C   UNL     1      -0.852  13.279 -10.329  1.00  0.00     0.049 A 
ATOM     58  C   UNL     1       4.623  12.640  -9.342  1.00  0.00     0.074 A 
ATOM     59  C   UNL     1      -1.232  13.432 -11.651  1.00  0.00     0.029 A 
ATOM     60  N   UNL     1       0.526  13.114 -10.327  1.00  0.00    -0.354 N 
ATOM     61  N   UNL     1       3.382  12.807  -9.732  1.00  0.00    -0.248 NA
ATOM     62  C   UNL     1       5.584  12.520 -10.448  1.00  0.00     0.031 C 
ATOM     63  C   UNL     1      -0.094  13.298 -12.453  1.00  0.00     0.029 A 
ATOM     64  C   UNL     1       1.006  13.129 -11.628  1.00  0.00     0.049 A 
ATOM     65  H   UNL     1       1.081  13.002  -9.522  1.00  0.00     0.167 HD
ATOM     66  C   UNL     1       3.417  12.844 -11.120  1.00  0.00     0.074 A 
ATOM     67  C   UNL     1       4.804  12.697 -11.505  1.00  0.00     0.031 C 
ATOM     68  C   UNL     1       2.392  12.990 -11.997  1.00  0.00     0.037 A 
BRANCH  55  69
ATOM     69  C   UNL     1      -3.166  13.399  -9.328  1.00  0.00     0.064 A 
ATOM     70  C   UNL     1      -3.867  14.547  -8.927  1.00  0.00     0.173 A 
ATOM     71  C   UNL     1      -3.894  12.369  -9.942  1.00  0.00     0.173 A 
ATOM     72  F   UNL     1      -3.221  15.556  -8.324  1.00  0.00    -0.203 F 
ATOM     73  C   UNL     1      -5.244  14.646  -9.110  1.00  0.00     0.198 A 
ATOM     74  C   UNL     1      -5.266  12.485 -10.153  1.00  0.00     0.198 A 
ATOM     75  F   UNL     1      -3.274  11.251 -10.349  1.00  0.00    -0.203 F 
ATOM     76  F   UNL     1      -5.899  15.731  -8.675  1.00  0.00    -0.200 F 
ATOM     77  C   UNL     1      -5.941  13.620  -9.729  1.00  0.00     0.200 A 
ATOM     78  F   UNL     1      -5.934  11.498 -10.765  1.00  0.00    -0.200 F 
ATOM     79  F   UNL     1      -7.264  13.721  -9.913  1.00  0.00    -0.200 F 
ENDBRANCH  55  69
BRANCH  56  80
ATOM     80  C   UNL     1       6.640  12.378  -7.720  1.00  0.00     0.064 A 
ATOM     81  C   UNL     1       7.560  13.378  -8.066  1.00  0.00     0.173 A 
ATOM     82  C   UNL     1       7.146  11.190  -7.172  1.00  0.00     0.173 A 
ATOM     83  F   UNL     1       7.129  14.523  -8.615  1.00  0.00    -0.203 F 
ATOM     84  C   UNL     1       8.930  13.187  -7.895  1.00  0.00     0.198 A 
ATOM     85  C   UNL     1       8.513  11.013  -6.971  1.00  0.00     0.198 A 
ATOM     86  F   UNL     1       6.309  10.201  -6.822  1.00  0.00    -0.203 F 
ATOM     87  F   UNL     1       9.790  14.138  -8.283  1.00  0.00    -0.200 F 
ATOM     88  C   UNL     1       9.405  12.007  -7.341  1.00  0.00     0.200 A 
ATOM     89  F   UNL     1       8.965   9.877  -6.421  1.00  0.00    -0.200 F 
ATOM     90  F   UNL     1      10.721  11.826  -7.173  1.00  0.00    -0.200 F 
ENDBRANCH  56  80
BRANCH  68  91
ATOM     91  C   UNL     1       2.735  13.043 -13.460  1.00  0.00     0.064 A 
ATOM     92  C   UNL     1       3.181  11.911 -14.158  1.00  0.00     0.173 A 
ATOM     93  C   UNL     1       2.573  14.236 -14.182  1.00  0.00     0.173 A 
ATOM     94  F   UNL     1       3.366  10.749 -13.513  1.00  0.00    -0.203 F 
ATOM     95  C   UNL     1       3.481  11.979 -15.516  1.00  0.00     0.198 A 
ATOM     96  C   UNL     1       2.841  14.291 -15.547  1.00  0.00     0.198 A 
ATOM     97  F   UNL     1       2.141  15.347 -13.566  1.00  0.00    -0.203 F 
ATOM     98  F   UNL     1       3.957  10.898 -16.150  1.00  0.00    -0.200 F 
ATOM     99  C   UNL     1       3.303  13.166 -16.211  1.00  0.00     0.200 A 
ATOM    100  F   UNL     1       2.651  15.435 -16.219  1.00  0.00    -0.200 F 
ATOM    101  F   UNL     1       3.583  13.227 -17.520  1.00  0.00    -0.200 F 
ENDBRANCH  68  91
ENDBRANCH  42  43
ENDBRANCH  35  37
ENDBRANCH  34  35
ENDBRANCH  33  34
ENDBRANCH  32  33
ENDBRANCH  31  32
ENDBRANCH  30  31
ENDBRANCH   1  30
TORSDOF 19
