REMARK SMILES CC[NH+]1CCC2(CC1)OC[C@@H](C(=O)OCCOCCOC(=O)c1ccc(-c3c4nc(c(-c5c(F)c(F)c(F)c(F)c5F)c5ccc([nH]5)c(-c5c(F)c(F)c(F)c(F)c5F)c5nc(c(-c6c(F)c(F)c(F)c(F)c6F)c6ccc3[nH]6)C=C5)C=C4)cc1)N2C(=O)c1ccc(Cl)c([N+](=O)[O-])c1
REMARK SMILES IDX 16 1 15 2 14 3 12 4 13 5 11 6 3 7 4 8 8 9 5 11 7 12 6 13
REMARK SMILES IDX 9 14 86 15 10 16 2 17 1 18 87 19 88 20 89 21 90 22 98 23
REMARK SMILES IDX 91 24 94 25 92 26 93 27 95 28 96 29 97 30 17 31 18 32 19 33
REMARK SMILES IDX 20 34 21 35 22 36 23 37 24 38 85 39 25 40 84 41 26 42 27 43
REMARK SMILES IDX 28 44 78 45 29 46 83 47 77 48 79 49 30 50 82 51 76 52 75 53
REMARK SMILES IDX 31 55 63 56 43 57 62 58 44 59 47 60 61 61 80 62 45 63 46 64
REMARK SMILES IDX 60 66 81 67 48 68 32 69 33 70 41 71 34 72 35 73 39 74 42 75
REMARK SMILES IDX 36 76 37 77 40 78 38 79 64 80 65 81 73 82 66 83 67 84 71 85
REMARK SMILES IDX 74 86 68 87 69 88 72 89 70 90 49 91 50 92 58 93 51 94 52 95
REMARK SMILES IDX 56 96 59 97 53 98 54 99 57 100 55 101
REMARK H PARENT 3 10 79 54 47 65
REMARK Flexibility Score: inf
ROOT
ATOM      1  C   UNL     1       8.681   5.527  -2.241  1.00  0.00     0.202 C 
ENDROOT
BRANCH   1   2
ATOM      2  C   UNL     1       8.529   4.226  -1.439  1.00  0.00     0.261 C 
BRANCH   2   3
ATOM      3  O   UNL     1       7.176   3.842  -1.115  1.00  0.00    -0.462 OA
BRANCH   3   4
ATOM      4  C   UNL     1       6.848   4.019   0.192  1.00  0.00     0.331 C 
ATOM      5  O   UNL     1       7.617   4.485   1.033  1.00  0.00    -0.250 OA
BRANCH   4   6
ATOM      6  C   UNL     1       5.464   3.515   0.619  1.00  0.00     0.224 C 
ATOM      7  N   UNL     1       0.722   1.253   0.352  1.00  0.00    -0.335 N 
ATOM      8  C   UNL     1       1.085   2.520   0.980  1.00  0.00     0.267 C 
ATOM      9  C   UNL     1       1.747   0.678  -0.509  1.00  0.00     0.267 C 
ATOM     10  H   UNL     1       0.002   1.460  -0.340  1.00  0.00     0.348 HD
ATOM     11  C   UNL     1       2.498   2.617   1.529  1.00  0.00     0.120 C 
ATOM     12  C   UNL     1       3.170   0.689   0.020  1.00  0.00     0.120 C 
ATOM     13  C   UNL     1       3.612   2.004   0.656  1.00  0.00     0.155 C 
ATOM     14  O   UNL     1       4.591   1.582   1.655  1.00  0.00    -0.352 OA
ATOM     15  N   UNL     1       4.360   2.979  -0.182  1.00  0.00    -0.293 N 
ATOM     16  C   UNL     1       5.789   2.333   1.507  1.00  0.00     0.200 C 
BRANCH   7  17
ATOM     17  C   UNL     1       0.069   0.345   1.298  1.00  0.00     0.258 C 
ATOM     18  C   UNL     1      -0.374  -0.990   0.709  1.00  0.00     0.071 C 
ENDBRANCH   7  17
BRANCH  15  19
ATOM     19  C   UNL     1       3.937   3.759  -1.246  1.00  0.00     0.257 C 
ATOM     20  O   UNL     1       4.457   4.832  -1.534  1.00  0.00    -0.269 OA
BRANCH  19  21
ATOM     21  C   UNL     1       2.814   3.404  -2.113  1.00  0.00     0.047 A 
ATOM     22  C   UNL     1       2.976   2.561  -3.216  1.00  0.00     0.016 A 
ATOM     23  C   UNL     1       1.605   4.071  -1.916  1.00  0.00     0.101 A 
ATOM     24  C   UNL     1       1.878   2.304  -4.052  1.00  0.00     0.028 A 
ATOM     25  C   UNL     1       0.489   3.735  -2.696  1.00  0.00     0.288 A 
ATOM     26  C   UNL     1       0.618   2.864  -3.781  1.00  0.00     0.118 A 
ATOM     27  Cl  UNL     1      -0.664   2.476  -4.869  1.00  0.00    -0.077 Cl
BRANCH  25  28
ATOM     28  N   UNL     1      -0.799   4.265  -2.270  1.00  0.00     0.064 N 
ATOM     29  O   UNL     1      -1.774   3.505  -2.274  1.00  0.00    -0.258 OA
ATOM     30  O   UNL     1      -0.811   5.430  -1.848  1.00  0.00    -0.258 OA
ENDBRANCH  25  28
ENDBRANCH  19  21
ENDBRANCH  15  19
ENDBRANCH   4   6
ENDBRANCH   3   4
ENDBRANCH   2   3
ENDBRANCH   1   2
BRANCH   1  31
ATOM     31  O   UNL     1       8.118   6.718  -1.706  1.00  0.00    -0.374 OA
BRANCH  31  32
ATOM     32  C   UNL     1       6.697   6.856  -1.780  1.00  0.00     0.202 C 
BRANCH  32  33
ATOM     33  C   UNL     1       6.085   6.936  -3.189  1.00  0.00     0.261 C 
BRANCH  33  34
ATOM     34  O   UNL     1       6.202   5.692  -3.911  1.00  0.00    -0.460 OA
BRANCH  34  35
ATOM     35  C   UNL     1       6.663   5.797  -5.176  1.00  0.00     0.338 C 
ATOM     36  O   UNL     1       6.865   6.820  -5.819  1.00  0.00    -0.246 OA
BRANCH  35  37
ATOM     37  C   UNL     1       7.096   4.471  -5.650  1.00  0.00     0.060 A 
ATOM     38  C   UNL     1       8.456   4.288  -5.928  1.00  0.00     0.016 A 
ATOM     39  C   UNL     1       6.180   3.442  -5.880  1.00  0.00     0.016 A 
ATOM     40  C   UNL     1       8.904   3.079  -6.460  1.00  0.00     0.010 A 
ATOM     41  C   UNL     1       6.630   2.233  -6.426  1.00  0.00     0.010 A 
ATOM     42  C   UNL     1       7.990   2.053  -6.740  1.00  0.00    -0.014 A 
BRANCH  42  43
ATOM     43  C   UNL     1       8.450   0.843  -7.468  1.00  0.00     0.031 A 
ATOM     44  C   UNL     1       8.279   0.772  -8.961  1.00  0.00     0.074 A 
ATOM     45  C   UNL     1       9.055  -0.166  -6.816  1.00  0.00     0.049 A 
ATOM     46  N   UNL     1       8.598  -0.192  -9.788  1.00  0.00    -0.248 NA
ATOM     47  C   UNL     1       7.673   1.946  -9.609  1.00  0.00     0.031 C 
ATOM     48  C   UNL     1       9.326  -0.201  -5.380  1.00  0.00     0.029 A 
ATOM     49  N   UNL     1       9.551  -1.359  -7.282  1.00  0.00    -0.354 N 
ATOM     50  C   UNL     1       8.248   0.264 -11.051  1.00  0.00     0.074 A 
ATOM     51  C   UNL     1       7.658   1.575 -10.882  1.00  0.00     0.031 C 
ATOM     52  C   UNL     1       9.931  -1.364  -5.080  1.00  0.00     0.029 A 
ATOM     53  C   UNL     1      10.063  -2.166  -6.295  1.00  0.00     0.049 A 
ATOM     54  H   UNL     1       9.540  -1.612  -8.233  1.00  0.00     0.167 HD
ATOM     55  C   UNL     1       8.417  -0.349 -12.247  1.00  0.00     0.037 A 
ATOM     56  C   UNL     1      10.560  -3.417  -6.364  1.00  0.00     0.037 A 
ATOM     57  C   UNL     1       8.998  -1.652 -12.425  1.00  0.00     0.049 A 
ATOM     58  C   UNL     1      10.630  -4.120  -7.696  1.00  0.00     0.074 A 
ATOM     59  C   UNL     1       9.224  -2.343 -13.604  1.00  0.00     0.029 A 
ATOM     60  N   UNL     1       9.439  -2.466 -11.394  1.00  0.00    -0.354 N 
ATOM     61  N   UNL     1      10.319  -3.671  -8.887  1.00  0.00    -0.248 NA
ATOM     62  C   UNL     1      11.116  -5.509  -7.690  1.00  0.00     0.031 C 
ATOM     63  C   UNL     1       9.761  -3.594 -13.283  1.00  0.00     0.029 A 
ATOM     64  C   UNL     1       9.905  -3.666 -11.907  1.00  0.00     0.049 A 
ATOM     65  H   UNL     1       9.424  -2.228 -10.439  1.00  0.00     0.167 HD
ATOM     66  C   UNL     1      10.586  -4.710  -9.769  1.00  0.00     0.074 A 
ATOM     67  C   UNL     1      11.102  -5.809  -8.981  1.00  0.00     0.031 C 
ATOM     68  C   UNL     1      10.414  -4.752 -11.112  1.00  0.00     0.037 A 
BRANCH  55  69
ATOM     69  C   UNL     1       7.961   0.383 -13.473  1.00  0.00     0.064 A 
ATOM     70  C   UNL     1       8.704   1.446 -14.004  1.00  0.00     0.173 A 
ATOM     71  C   UNL     1       6.812  -0.031 -14.162  1.00  0.00     0.173 A 
ATOM     72  F   UNL     1       9.805   1.882 -13.372  1.00  0.00    -0.203 F 
ATOM     73  C   UNL     1       8.308   2.076 -15.180  1.00  0.00     0.198 A 
ATOM     74  C   UNL     1       6.430   0.589 -15.349  1.00  0.00     0.198 A 
ATOM     75  F   UNL     1       6.072  -1.047 -13.694  1.00  0.00    -0.203 F 
ATOM     76  F   UNL     1       9.020   3.106 -15.660  1.00  0.00    -0.200 F 
ATOM     77  C   UNL     1       7.177   1.642 -15.856  1.00  0.00     0.200 A 
ATOM     78  F   UNL     1       5.343   0.162 -16.006  1.00  0.00    -0.200 F 
ATOM     79  F   UNL     1       6.805   2.240 -16.996  1.00  0.00    -0.200 F 
ENDBRANCH  55  69
BRANCH  56  80
ATOM     80  C   UNL     1      10.998  -4.117  -5.128  1.00  0.00     0.064 A 
ATOM     81  C   UNL     1      12.347  -4.430  -4.912  1.00  0.00     0.173 A 
ATOM     82  C   UNL     1      10.068  -4.534  -4.165  1.00  0.00     0.173 A 
ATOM     83  F   UNL     1      13.270  -4.080  -5.820  1.00  0.00    -0.203 F 
ATOM     84  C   UNL     1      12.745  -5.154  -3.789  1.00  0.00     0.198 A 
ATOM     85  C   UNL     1      10.470  -5.234  -3.031  1.00  0.00     0.198 A 
ATOM     86  F   UNL     1       8.764  -4.265  -4.330  1.00  0.00    -0.203 F 
ATOM     87  F   UNL     1      14.034  -5.488  -3.633  1.00  0.00    -0.200 F 
ATOM     88  C   UNL     1      11.807  -5.552  -2.848  1.00  0.00     0.200 A 
ATOM     89  F   UNL     1       9.561  -5.610  -2.121  1.00  0.00    -0.200 F 
ATOM     90  F   UNL     1      12.190  -6.254  -1.773  1.00  0.00    -0.200 F 
ENDBRANCH  56  80
BRANCH  68  91
ATOM     91  C   UNL     1      10.793  -6.020 -11.819  1.00  0.00     0.064 A 
ATOM     92  C   UNL     1       9.993  -7.169 -11.732  1.00  0.00     0.173 A 
ATOM     93  C   UNL     1      11.935  -6.073 -12.631  1.00  0.00     0.173 A 
ATOM     94  F   UNL     1       8.900  -7.172 -10.955  1.00  0.00    -0.203 F 
ATOM     95  C   UNL     1      10.334  -8.331 -12.419  1.00  0.00     0.198 A 
ATOM     96  C   UNL     1      12.260  -7.229 -13.336  1.00  0.00     0.198 A 
ATOM     97  F   UNL     1      12.729  -4.998 -12.752  1.00  0.00    -0.203 F 
ATOM     98  F   UNL     1       9.576  -9.428 -12.293  1.00  0.00    -0.200 F 
ATOM     99  C   UNL     1      11.462  -8.357 -13.226  1.00  0.00     0.200 A 
ATOM    100  F   UNL     1      13.344  -7.250 -14.124  1.00  0.00    -0.200 F 
ATOM    101  F   UNL     1      11.783  -9.474 -13.894  1.00  0.00    -0.200 F 
ENDBRANCH  68  91
ENDBRANCH  42  43
ENDBRANCH  35  37
ENDBRANCH  34  35
ENDBRANCH  33  34
ENDBRANCH  32  33
ENDBRANCH  31  32
ENDBRANCH   1  31
TORSDOF 18
