REMARK SMILES Cc1ccc(N2CC[C@H]([NH+]3CCOCC3)[C@H](CCC(=O)OCCOCCOC(=O)c3ccc(-c4c5nc(c(-c6c(F)c(F)c(F)c(F)c6F)c6ccc([nH]6)c(-c6c(F)c(F)c(F)c(F)c6F)c6nc(c(-c7c(F)c(F)c(F)c(F)c7F)c7ccc4[nH]7)C=C6)C=C5)cc3)C2)nc1
REMARK SMILES IDX 23 1 22 2 21 3 19 4 20 5 18 6 17 7 16 8 6 9 7 10 93 11 8 12
REMARK SMILES IDX 9 13 5 14 1 15 2 16 3 17 95 18 4 19 94 20 10 21 11 22 15 23
REMARK SMILES IDX 12 25 14 26 13 27 24 28 25 29 26 30 27 31 28 32 29 33 30 34
REMARK SMILES IDX 31 35 92 36 32 37 91 38 33 39 34 40 35 41 85 42 36 43 90 44
REMARK SMILES IDX 84 45 86 46 37 47 89 48 83 49 82 50 38 52 70 53 50 54 69 55
REMARK SMILES IDX 51 56 54 57 68 58 87 59 52 60 53 61 67 63 88 64 55 65 39 66
REMARK SMILES IDX 40 67 48 68 41 69 42 70 46 71 49 72 43 73 44 74 47 75 45 76
REMARK SMILES IDX 71 77 72 78 80 79 73 80 74 81 78 82 81 83 75 84 76 85 79 86
REMARK SMILES IDX 77 87 56 88 57 89 65 90 58 91 59 92 63 93 66 94 60 95 61 96
REMARK SMILES IDX 64 97 62 98
REMARK H PARENT 10 24 86 51 54 62
REMARK Flexibility Score: inf
ROOT
ATOM      1  C   UNL     1      -6.751   0.252  -6.377  1.00  0.00     0.202 C 
ENDROOT
BRANCH   1   2
ATOM      2  C   UNL     1      -6.984  -0.954  -5.466  1.00  0.00     0.261 C 
BRANCH   2   3
ATOM      3  O   UNL     1      -5.911  -1.071  -4.517  1.00  0.00    -0.463 OA
BRANCH   3   4
ATOM      4  C   UNL     1      -5.478  -2.335  -4.289  1.00  0.00     0.305 C 
ATOM      5  O   UNL     1      -6.011  -3.350  -4.723  1.00  0.00    -0.252 OA
BRANCH   4   6
ATOM      6  C   UNL     1      -4.147  -2.368  -3.573  1.00  0.00     0.123 C 
BRANCH   6   7
ATOM      7  C   UNL     1      -3.839  -1.385  -2.442  1.00  0.00     0.023 C 
BRANCH   7   8
ATOM      8  C   UNL     1      -4.926  -0.653  -1.604  1.00  0.00     0.067 C 
ATOM      9  N   UNL     1      -3.368   0.335   0.094  1.00  0.00    -0.356 N 
ATOM     10  C   UNL     1      -3.940  -0.410   1.201  1.00  0.00     0.124 C 
ATOM     11  C   UNL     1      -4.244   0.644  -1.033  1.00  0.00     0.127 C 
ATOM     12  C   UNL     1      -4.601  -1.695   0.715  1.00  0.00     0.087 C 
ATOM     13  C   UNL     1      -5.627  -1.375  -0.384  1.00  0.00     0.190 C 
BRANCH   9  14
ATOM     14  C   UNL     1      -1.998   0.221  -0.067  1.00  0.00     0.128 A 
ATOM     15  C   UNL     1       2.259  -0.130  -0.072  1.00  0.00     0.046 C 
ATOM     16  C   UNL     1       0.773   0.033  -0.098  1.00  0.00    -0.033 A 
ATOM     17  C   UNL     1       0.162   1.253  -0.372  1.00  0.00     0.009 A 
ATOM     18  C   UNL     1      -0.062  -1.046   0.145  1.00  0.00     0.117 A 
ATOM     19  C   UNL     1      -1.232   1.344  -0.369  1.00  0.00     0.047 A 
ATOM     20  N   UNL     1      -1.412  -0.970   0.181  1.00  0.00    -0.239 NA
ENDBRANCH   9  14
BRANCH  13  21
ATOM     21  N   UNL     1      -6.660  -2.401  -0.647  1.00  0.00    -0.328 N 
ATOM     22  C   UNL     1      -7.500  -2.751   0.529  1.00  0.00     0.291 C 
ATOM     23  C   UNL     1      -6.318  -3.645  -1.330  1.00  0.00     0.291 C 
ATOM     24  H   UNL     1      -7.171  -1.855  -1.341  1.00  0.00     0.348 HD
ATOM     25  C   UNL     1      -7.046  -3.980   1.357  1.00  0.00     0.221 C 
ATOM     26  C   UNL     1      -5.777  -4.768  -0.449  1.00  0.00     0.221 C 
ATOM     27  O   UNL     1      -6.742  -5.116   0.544  1.00  0.00    -0.370 OA
ENDBRANCH  13  21
ENDBRANCH   7   8
ENDBRANCH   6   7
ENDBRANCH   4   6
ENDBRANCH   3   4
ENDBRANCH   2   3
ENDBRANCH   1   2
BRANCH   1  28
ATOM     28  O   UNL     1      -5.621   0.201  -7.251  1.00  0.00    -0.374 OA
BRANCH  28  29
ATOM     29  C   UNL     1      -4.330   0.025  -6.676  1.00  0.00     0.202 C 
BRANCH  29  30
ATOM     30  C   UNL     1      -3.713   1.211  -5.917  1.00  0.00     0.261 C 
BRANCH  30  31
ATOM     31  O   UNL     1      -4.617   1.884  -5.025  1.00  0.00    -0.460 OA
BRANCH  31  32
ATOM     32  C   UNL     1      -4.991   3.116  -5.450  1.00  0.00     0.338 C 
ATOM     33  O   UNL     1      -4.588   3.717  -6.436  1.00  0.00    -0.246 OA
BRANCH  32  34
ATOM     34  C   UNL     1      -6.089   3.650  -4.628  1.00  0.00     0.060 A 
ATOM     35  C   UNL     1      -7.288   3.952  -5.283  1.00  0.00     0.016 A 
ATOM     36  C   UNL     1      -5.905   3.993  -3.287  1.00  0.00     0.016 A 
ATOM     37  C   UNL     1      -8.291   4.648  -4.613  1.00  0.00     0.010 A 
ATOM     38  C   UNL     1      -6.913   4.700  -2.616  1.00  0.00     0.010 A 
ATOM     39  C   UNL     1      -8.092   5.066  -3.290  1.00  0.00    -0.014 A 
BRANCH  39  40
ATOM     40  C   UNL     1      -9.072   6.004  -2.686  1.00  0.00     0.031 A 
ATOM     41  C   UNL     1      -8.793   7.482  -2.715  1.00  0.00     0.074 A 
ATOM     42  C   UNL     1     -10.234   5.549  -2.186  1.00  0.00     0.049 A 
ATOM     43  N   UNL     1      -9.547   8.477  -2.318  1.00  0.00    -0.248 NA
ATOM     44  C   UNL     1      -7.495   7.896  -3.270  1.00  0.00     0.031 C 
ATOM     45  C   UNL     1     -10.632   4.145  -2.124  1.00  0.00     0.029 A 
ATOM     46  N   UNL     1     -11.298   6.227  -1.645  1.00  0.00    -0.354 N 
ATOM     47  C   UNL     1      -8.819   9.631  -2.579  1.00  0.00     0.074 A 
ATOM     48  C   UNL     1      -7.551   9.214  -3.138  1.00  0.00     0.031 C 
ATOM     49  C   UNL     1     -11.855   4.063  -1.574  1.00  0.00     0.029 A 
ATOM     50  C   UNL     1     -12.319   5.407  -1.233  1.00  0.00     0.049 A 
ATOM     51  H   UNL     1     -11.326   7.207  -1.560  1.00  0.00     0.167 HD
ATOM     52  C   UNL     1      -9.181  10.921  -2.384  1.00  0.00     0.037 A 
ATOM     53  C   UNL     1     -13.492   5.709  -0.643  1.00  0.00     0.037 A 
ATOM     54  C   UNL     1     -10.443  11.341  -1.835  1.00  0.00     0.049 A 
ATOM     55  C   UNL     1     -13.850   7.150  -0.394  1.00  0.00     0.074 A 
ATOM     56  C   UNL     1     -10.913  12.627  -1.635  1.00  0.00     0.029 A 
ATOM     57  N   UNL     1     -11.434  10.480  -1.390  1.00  0.00    -0.354 N 
ATOM     58  N   UNL     1     -13.174   8.234  -0.688  1.00  0.00    -0.248 NA
ATOM     59  C   UNL     1     -15.139   7.408   0.263  1.00  0.00     0.031 C 
ATOM     60  C   UNL     1     -12.171  12.544  -1.027  1.00  0.00     0.029 A 
ATOM     61  C   UNL     1     -12.502  11.207  -0.888  1.00  0.00     0.049 A 
ATOM     62  H   UNL     1     -11.387   9.497  -1.426  1.00  0.00     0.167 HD
ATOM     63  C   UNL     1     -13.960   9.300  -0.270  1.00  0.00     0.074 A 
ATOM     64  C   UNL     1     -15.173   8.734   0.282  1.00  0.00     0.031 C 
ATOM     65  C   UNL     1     -13.700  10.629  -0.336  1.00  0.00     0.037 A 
BRANCH  52  66
ATOM     66  C   UNL     1      -8.187  11.983  -2.753  1.00  0.00     0.064 A 
ATOM     67  C   UNL     1      -7.926  12.311  -4.092  1.00  0.00     0.173 A 
ATOM     68  C   UNL     1      -7.523  12.711  -1.755  1.00  0.00     0.173 A 
ATOM     69  F   UNL     1      -8.528  11.635  -5.082  1.00  0.00    -0.203 F 
ATOM     70  C   UNL     1      -7.021  13.318  -4.418  1.00  0.00     0.198 A 
ATOM     71  C   UNL     1      -6.636  13.732  -2.084  1.00  0.00     0.198 A 
ATOM     72  F   UNL     1      -7.741  12.437  -0.460  1.00  0.00    -0.203 F 
ATOM     73  F   UNL     1      -6.761  13.592  -5.703  1.00  0.00    -0.200 F 
ATOM     74  C   UNL     1      -6.383  14.032  -3.414  1.00  0.00     0.200 A 
ATOM     75  F   UNL     1      -6.027  14.427  -1.114  1.00  0.00    -0.200 F 
ATOM     76  F   UNL     1      -5.518  15.006  -3.730  1.00  0.00    -0.200 F 
ENDBRANCH  52  66
BRANCH  53  77
ATOM     77  C   UNL     1     -14.417   4.619  -0.242  1.00  0.00     0.064 A 
ATOM     78  C   UNL     1     -15.634   4.418  -0.906  1.00  0.00     0.173 A 
ATOM     79  C   UNL     1     -14.104   3.763   0.824  1.00  0.00     0.173 A 
ATOM     80  F   UNL     1     -15.988   5.228  -1.915  1.00  0.00    -0.203 F 
ATOM     81  C   UNL     1     -16.512   3.411  -0.509  1.00  0.00     0.198 A 
ATOM     82  C   UNL     1     -14.970   2.741   1.205  1.00  0.00     0.198 A 
ATOM     83  F   UNL     1     -12.952   3.918   1.493  1.00  0.00    -0.203 F 
ATOM     84  F   UNL     1     -17.689   3.266  -1.133  1.00  0.00    -0.200 F 
ATOM     85  C   UNL     1     -16.177   2.570   0.542  1.00  0.00     0.200 A 
ATOM     86  F   UNL     1     -14.639   1.926   2.215  1.00  0.00    -0.200 F 
ATOM     87  F   UNL     1     -17.020   1.601   0.922  1.00  0.00    -0.200 F 
ENDBRANCH  53  77
BRANCH  65  88
ATOM     88  C   UNL     1     -14.750  11.561   0.193  1.00  0.00     0.064 A 
ATOM     89  C   UNL     1     -14.976  11.702   1.570  1.00  0.00     0.173 A 
ATOM     90  C   UNL     1     -15.516  12.345  -0.683  1.00  0.00     0.173 A 
ATOM     91  F   UNL     1     -14.280  10.964   2.447  1.00  0.00    -0.203 F 
ATOM     92  C   UNL     1     -15.949  12.576   2.049  1.00  0.00     0.198 A 
ATOM     93  C   UNL     1     -16.469  13.236  -0.199  1.00  0.00     0.198 A 
ATOM     94  F   UNL     1     -15.333  12.252  -2.009  1.00  0.00    -0.203 F 
ATOM     95  F   UNL     1     -16.179  12.661   3.367  1.00  0.00    -0.200 F 
ATOM     96  C   UNL     1     -16.690  13.346   1.165  1.00  0.00     0.200 A 
ATOM     97  F   UNL     1     -17.177  13.988  -1.054  1.00  0.00    -0.200 F 
ATOM     98  F   UNL     1     -17.624  14.188   1.629  1.00  0.00    -0.200 F 
ENDBRANCH  65  88
ENDBRANCH  39  40
ENDBRANCH  32  34
ENDBRANCH  31  32
ENDBRANCH  30  31
ENDBRANCH  29  30
ENDBRANCH  28  29
ENDBRANCH   1  28
TORSDOF 18
