REMARK SMILES O=C(OCCOCCOC(=O)[C@@H](Cc1c(F)cccc1Cl)c1ccc(Cl)cc1)c1ccc(-c2c3nc(c(-c4c(F)c(F)c(F)c(F)c4F)c4ccc([nH]4)c(-c4c(F)c(F)c(F)c(F)c4F)c4nc(c(-c5c(F)c(F)c(F)c(F)c5F)c5ccc2[nH]5)C=C4)C=C3)cc1
REMARK SMILES IDX 6 1 5 2 4 3 3 4 2 5 1 6 29 7 30 8 91 9 31 10 90 11 32 12
REMARK SMILES IDX 33 13 34 14 84 15 35 16 89 17 83 18 85 19 36 20 88 21 82 22
REMARK SMILES IDX 81 23 37 25 69 26 49 27 68 28 50 29 53 30 67 31 86 32 51 33
REMARK SMILES IDX 52 34 66 36 87 37 54 38 38 39 39 40 47 41 40 42 41 43 45 44
REMARK SMILES IDX 48 45 42 46 43 47 46 48 44 49 70 50 71 51 79 52 72 53 73 54
REMARK SMILES IDX 77 55 80 56 74 57 75 58 78 59 76 60 55 61 56 62 64 63 57 64
REMARK SMILES IDX 58 65 62 66 65 67 59 68 60 69 63 70 61 71 7 72 8 73 9 74
REMARK SMILES IDX 10 75 11 76 12 77 13 78 14 79 15 80 20 81 16 82 17 83 19 84
REMARK SMILES IDX 21 85 18 86 22 87 23 88 28 89 24 90 27 91 25 92 26 93
REMARK H PARENT 85 24 53 35
REMARK Flexibility Score: inf
ROOT
ATOM      1  O   UNL     1       4.221   1.367   0.795  1.00  0.00    -0.374 OA
ENDROOT
BRANCH   1   2
ATOM      2  C   UNL     1       4.617   0.944  -0.512  1.00  0.00     0.202 C 
BRANCH   2   3
ATOM      3  C   UNL     1       4.311  -0.523  -0.875  1.00  0.00     0.261 C 
BRANCH   3   4
ATOM      4  O   UNL     1       2.894  -0.806  -0.778  1.00  0.00    -0.460 OA
BRANCH   4   5
ATOM      5  C   UNL     1       2.220  -1.432   0.220  1.00  0.00     0.338 C 
ATOM      6  O   UNL     1       1.009  -1.610   0.122  1.00  0.00    -0.246 OA
BRANCH   5   7
ATOM      7  C   UNL     1       2.915  -1.923   1.440  1.00  0.00     0.060 A 
ATOM      8  C   UNL     1       4.080  -1.338   1.908  1.00  0.00     0.016 A 
ATOM      9  C   UNL     1       2.375  -2.983   2.180  1.00  0.00     0.016 A 
ATOM     10  C   UNL     1       4.787  -1.839   2.959  1.00  0.00     0.010 A 
ATOM     11  C   UNL     1       3.039  -3.457   3.322  1.00  0.00     0.010 A 
ATOM     12  C   UNL     1       4.261  -2.885   3.692  1.00  0.00    -0.014 A 
BRANCH  12  13
ATOM     13  C   UNL     1       5.171  -3.371   4.732  1.00  0.00     0.031 A 
ATOM     14  C   UNL     1       5.979  -4.587   4.421  1.00  0.00     0.074 A 
ATOM     15  C   UNL     1       5.497  -2.516   5.721  1.00  0.00     0.049 A 
ATOM     16  N   UNL     1       6.907  -5.161   5.131  1.00  0.00    -0.248 NA
ATOM     17  C   UNL     1       5.739  -5.223   3.112  1.00  0.00     0.031 C 
ATOM     18  C   UNL     1       4.900  -1.185   5.913  1.00  0.00     0.029 A 
ATOM     19  N   UNL     1       6.471  -2.577   6.676  1.00  0.00    -0.354 N 
ATOM     20  C   UNL     1       7.331  -6.245   4.378  1.00  0.00     0.074 A 
ATOM     21  C   UNL     1       6.578  -6.245   3.147  1.00  0.00     0.031 C 
ATOM     22  C   UNL     1       5.560  -0.540   6.885  1.00  0.00     0.029 A 
ATOM     23  C   UNL     1       6.539  -1.450   7.459  1.00  0.00     0.049 A 
ATOM     24  H   UNL     1       7.066  -3.353   6.792  1.00  0.00     0.167 HD
ATOM     25  C   UNL     1       8.261  -7.163   4.719  1.00  0.00     0.037 A 
ATOM     26  C   UNL     1       7.280  -1.219   8.557  1.00  0.00     0.037 A 
ATOM     27  C   UNL     1       8.978  -7.107   5.962  1.00  0.00     0.049 A 
ATOM     28  C   UNL     1       8.204  -2.324   8.988  1.00  0.00     0.074 A 
ATOM     29  C   UNL     1       9.825  -8.039   6.526  1.00  0.00     0.029 A 
ATOM     30  N   UNL     1       8.925  -6.024   6.836  1.00  0.00    -0.354 N 
ATOM     31  N   UNL     1       8.480  -3.452   8.374  1.00  0.00    -0.248 NA
ATOM     32  C   UNL     1       8.893  -2.148  10.268  1.00  0.00     0.031 C 
ATOM     33  C   UNL     1      10.254  -7.535   7.760  1.00  0.00     0.029 A 
ATOM     34  C   UNL     1       9.718  -6.266   7.941  1.00  0.00     0.049 A 
ATOM     35  H   UNL     1       8.398  -5.205   6.688  1.00  0.00     0.167 HD
ATOM     36  C   UNL     1       9.373  -4.124   9.191  1.00  0.00     0.074 A 
ATOM     37  C   UNL     1       9.621  -3.253  10.326  1.00  0.00     0.031 C 
ATOM     38  C   UNL     1       9.926  -5.354   9.038  1.00  0.00     0.037 A 
BRANCH  25  39
ATOM     39  C   UNL     1       8.440  -8.324   3.789  1.00  0.00     0.064 A 
ATOM     40  C   UNL     1       9.078  -8.196   2.546  1.00  0.00     0.173 A 
ATOM     41  C   UNL     1       7.897  -9.575   4.122  1.00  0.00     0.173 A 
ATOM     42  F   UNL     1       9.574  -7.011   2.161  1.00  0.00    -0.203 F 
ATOM     43  C   UNL     1       9.144  -9.271   1.662  1.00  0.00     0.198 A 
ATOM     44  C   UNL     1       7.986 -10.653   3.246  1.00  0.00     0.198 A 
ATOM     45  F   UNL     1       7.257  -9.744   5.288  1.00  0.00    -0.203 F 
ATOM     46  F   UNL     1       9.702  -9.110   0.454  1.00  0.00    -0.200 F 
ATOM     47  C   UNL     1       8.602 -10.499   2.013  1.00  0.00     0.200 A 
ATOM     48  F   UNL     1       7.456 -11.836   3.586  1.00  0.00    -0.200 F 
ATOM     49  F   UNL     1       8.654 -11.528   1.156  1.00  0.00    -0.200 F 
ENDBRANCH  25  39
BRANCH  26  50
ATOM     50  C   UNL     1       7.082   0.018   9.363  1.00  0.00     0.064 A 
ATOM     51  C   UNL     1       8.127   0.918   9.608  1.00  0.00     0.173 A 
ATOM     52  C   UNL     1       5.833   0.309   9.940  1.00  0.00     0.173 A 
ATOM     53  F   UNL     1       9.346   0.684   9.102  1.00  0.00    -0.203 F 
ATOM     54  C   UNL     1       7.937   2.043  10.414  1.00  0.00     0.198 A 
ATOM     55  C   UNL     1       5.634   1.452  10.710  1.00  0.00     0.198 A 
ATOM     56  F   UNL     1       4.793  -0.518   9.750  1.00  0.00    -0.203 F 
ATOM     57  F   UNL     1       8.969   2.854  10.681  1.00  0.00    -0.200 F 
ATOM     58  C   UNL     1       6.690   2.311  10.959  1.00  0.00     0.200 A 
ATOM     59  F   UNL     1       4.421   1.712  11.219  1.00  0.00    -0.200 F 
ATOM     60  F   UNL     1       6.510   3.389  11.734  1.00  0.00    -0.200 F 
ENDBRANCH  26  50
BRANCH  38  61
ATOM     61  C   UNL     1      10.865  -5.792  10.116  1.00  0.00     0.064 A 
ATOM     62  C   UNL     1      10.399  -6.165  11.385  1.00  0.00     0.173 A 
ATOM     63  C   UNL     1      12.242  -5.865   9.863  1.00  0.00     0.173 A 
ATOM     64  F   UNL     1       9.091  -6.091  11.673  1.00  0.00    -0.203 F 
ATOM     65  C   UNL     1      11.287  -6.568  12.375  1.00  0.00     0.198 A 
ATOM     66  C   UNL     1      13.122  -6.301  10.846  1.00  0.00     0.198 A 
ATOM     67  F   UNL     1      12.728  -5.524   8.660  1.00  0.00    -0.203 F 
ATOM     68  F   UNL     1      10.830  -6.867  13.599  1.00  0.00    -0.200 F 
ATOM     69  C   UNL     1      12.645  -6.643  12.103  1.00  0.00     0.200 A 
ATOM     70  F   UNL     1      14.432  -6.386  10.578  1.00  0.00    -0.200 F 
ATOM     71  F   UNL     1      13.498  -7.037  13.058  1.00  0.00    -0.200 F 
ENDBRANCH  38  61
ENDBRANCH  12  13
ENDBRANCH   5   7
ENDBRANCH   4   5
ENDBRANCH   3   4
ENDBRANCH   2   3
ENDBRANCH   1   2
BRANCH   1  72
ATOM     72  C   UNL     1       2.845   1.718   0.967  1.00  0.00     0.202 C 
BRANCH  72  73
ATOM     73  C   UNL     1       2.708   3.221   1.135  1.00  0.00     0.261 C 
BRANCH  73  74
ATOM     74  O   UNL     1       3.011   3.833  -0.124  1.00  0.00    -0.463 OA
BRANCH  74  75
ATOM     75  C   UNL     1       4.322   4.114  -0.347  1.00  0.00     0.313 C 
ATOM     76  O   UNL     1       5.225   3.991   0.476  1.00  0.00    -0.252 OA
BRANCH  75  77
ATOM     77  C   UNL     1       4.535   4.715  -1.726  1.00  0.00     0.134 C 
BRANCH  77  78
ATOM     78  C   UNL     1       4.021   3.888  -2.957  1.00  0.00     0.060 C 
BRANCH  78  79
ATOM     79  C   UNL     1       2.568   3.460  -3.061  1.00  0.00     0.008 A 
ATOM     80  C   UNL     1       1.557   4.413  -3.144  1.00  0.00     0.127 A 
ATOM     81  C   UNL     1       2.141   2.123  -3.123  1.00  0.00     0.047 A 
ATOM     82  F   UNL     1       1.868   5.681  -3.437  1.00  0.00    -0.207 F 
ATOM     83  C   UNL     1       0.209   4.091  -2.995  1.00  0.00     0.039 A 
ATOM     84  C   UNL     1       0.797   1.774  -2.925  1.00  0.00     0.021 A 
ATOM     85  Cl  UNL     1       3.187   0.864  -3.677  1.00  0.00    -0.084 Cl
ATOM     86  C   UNL     1      -0.169   2.768  -2.814  1.00  0.00     0.005 A 
ENDBRANCH  78  79
ENDBRANCH  77  78
BRANCH  77  87
ATOM     87  C   UNL     1       4.227   6.201  -1.654  1.00  0.00    -0.033 A 
ATOM     88  C   UNL     1       5.249   7.134  -1.876  1.00  0.00     0.006 A 
ATOM     89  C   UNL     1       2.973   6.674  -1.233  1.00  0.00     0.006 A 
ATOM     90  C   UNL     1       5.009   8.500  -1.714  1.00  0.00     0.021 A 
ATOM     91  C   UNL     1       2.721   8.036  -1.101  1.00  0.00     0.021 A 
ATOM     92  C   UNL     1       3.743   8.945  -1.341  1.00  0.00     0.041 A 
ATOM     93  Cl  UNL     1       3.442  10.627  -1.154  1.00  0.00    -0.084 Cl
ENDBRANCH  77  87
ENDBRANCH  75  77
ENDBRANCH  74  75
ENDBRANCH  73  74
ENDBRANCH  72  73
ENDBRANCH   1  72
TORSDOF 17
