REMARK SMILES C[NH2+][C@]1(C(=O)OCCOCCOC(=O)c2ccc(-c3c4nc(c(-c5c(F)c(F)c(F)c(F)c5F)c5ccc([nH]5)c(-c5c(F)c(F)c(F)c(F)c5F)c5nc(c(-c6c(F)c(F)c(F)c(F)c6F)c6ccc3[nH]6)C=C5)C=C4)cc2)CCC[C@@H]1CC[N@H+]1CCC[C@H]([NH+](C)C)C1
REMARK SMILES IDX 8 1 7 2 6 3 4 4 5 5 3 6 78 7 81 8 79 9 80 10 2 11 1 12 82 15
REMARK SMILES IDX 83 16 84 17 85 18 92 19 86 21 88 22 87 23 89 24 90 25 91 26
REMARK SMILES IDX 9 28 10 29 11 30 12 31 13 32 14 33 15 34 16 35 77 36 17 37
REMARK SMILES IDX 76 38 18 39 19 40 20 41 70 42 21 43 75 44 69 45 71 46 22 47
REMARK SMILES IDX 74 48 68 49 67 50 23 52 55 53 35 54 54 55 36 56 39 57 53 58
REMARK SMILES IDX 72 59 37 60 38 61 52 63 73 64 40 65 24 66 25 67 33 68 26 69
REMARK SMILES IDX 27 70 31 71 34 72 28 73 29 74 32 75 30 76 56 77 57 78 65 79
REMARK SMILES IDX 58 80 59 81 63 82 66 83 60 84 61 85 64 86 62 87 41 88 42 89
REMARK SMILES IDX 50 90 43 91 44 92 48 93 51 94 45 95 46 96 49 97 47 98
REMARK H PARENT 2 13 2 14 84 20 89 27 71 51 39 62
REMARK Flexibility Score: inf
ROOT
ATOM      1  C   UNL     1       3.359   2.471   0.314  1.00  0.00     0.202 C 
ENDROOT
BRANCH   1   2
ATOM      2  C   UNL     1       2.473   1.457  -0.412  1.00  0.00     0.261 C 
BRANCH   2   3
ATOM      3  O   UNL     1       1.081   1.809  -0.498  1.00  0.00    -0.459 OA
BRANCH   3   4
ATOM      4  C   UNL     1       0.279   1.190   0.411  1.00  0.00     0.368 C 
ATOM      5  O   UNL     1       0.701   0.519   1.353  1.00  0.00    -0.245 OA
BRANCH   4   6
ATOM      6  C   UNL     1      -1.230   1.361   0.139  1.00  0.00     0.197 C 
ATOM      7  C   UNL     1      -1.625   2.519  -0.792  1.00  0.00     0.081 C 
ATOM      8  C   UNL     1      -1.714   0.155  -0.726  1.00  0.00     0.068 C 
ATOM      9  C   UNL     1      -3.035   2.154  -1.257  1.00  0.00     0.008 C 
ATOM     10  C   UNL     1      -3.093   0.620  -1.237  1.00  0.00     0.011 C 
BRANCH   6  11
ATOM     11  N   UNL     1      -1.970   1.357   1.440  1.00  0.00    -0.334 N 
ATOM     12  C   UNL     1      -1.982   2.624   2.154  1.00  0.00     0.331 C 
ATOM     13  H   UNL     1      -2.937   1.093   1.252  1.00  0.00     0.347 HD
ATOM     14  H   UNL     1      -1.475   0.700   2.043  1.00  0.00     0.347 HD
ENDBRANCH   6  11
BRANCH   8  15
ATOM     15  C   UNL     1      -1.740  -1.197   0.015  1.00  0.00     0.072 C 
BRANCH  15  16
ATOM     16  C   UNL     1      -1.443  -2.445  -0.835  1.00  0.00     0.262 C 
BRANCH  16  17
ATOM     17  N   UNL     1      -0.169  -2.502  -1.580  1.00  0.00    -0.330 N 
ATOM     18  C   UNL     1       0.997  -1.990  -0.861  1.00  0.00     0.262 C 
ATOM     19  C   UNL     1       0.102  -3.896  -1.987  1.00  0.00     0.327 C 
ATOM     20  H   UNL     1      -0.301  -1.885  -2.381  1.00  0.00     0.348 HD
ATOM     21  C   UNL     1       2.272  -2.002  -1.708  1.00  0.00     0.068 C 
ATOM     22  C   UNL     1       1.301  -4.026  -2.968  1.00  0.00     0.239 C 
ATOM     23  C   UNL     1       2.547  -3.350  -2.360  1.00  0.00     0.077 C 
BRANCH  22  24
ATOM     24  N   UNL     1       1.051  -3.664  -4.388  1.00  0.00    -0.333 N 
ATOM     25  C   UNL     1       0.044  -4.543  -4.990  1.00  0.00     0.332 C 
ATOM     26  C   UNL     1       0.674  -2.272  -4.625  1.00  0.00     0.332 C 
ATOM     27  H   UNL     1       1.959  -3.791  -4.836  1.00  0.00     0.348 HD
ENDBRANCH  22  24
ENDBRANCH  16  17
ENDBRANCH  15  16
ENDBRANCH   8  15
ENDBRANCH   4   6
ENDBRANCH   3   4
ENDBRANCH   2   3
ENDBRANCH   1   2
BRANCH   1  28
ATOM     28  O   UNL     1       3.124   2.731   1.693  1.00  0.00    -0.374 OA
BRANCH  28  29
ATOM     29  C   UNL     1       1.940   3.428   2.060  1.00  0.00     0.202 C 
BRANCH  29  30
ATOM     30  C   UNL     1       1.861   4.931   1.782  1.00  0.00     0.261 C 
BRANCH  30  31
ATOM     31  O   UNL     1       2.050   5.252   0.396  1.00  0.00    -0.460 OA
BRANCH  31  32
ATOM     32  C   UNL     1       3.250   5.812   0.122  1.00  0.00     0.338 C 
ATOM     33  O   UNL     1       4.126   6.123   0.921  1.00  0.00    -0.246 OA
BRANCH  32  34
ATOM     34  C   UNL     1       3.472   5.863  -1.331  1.00  0.00     0.060 A 
ATOM     35  C   UNL     1       4.683   5.348  -1.814  1.00  0.00     0.016 A 
ATOM     36  C   UNL     1       2.565   6.487  -2.190  1.00  0.00     0.016 A 
ATOM     37  C   UNL     1       5.029   5.524  -3.148  1.00  0.00     0.010 A 
ATOM     38  C   UNL     1       2.920   6.675  -3.528  1.00  0.00     0.010 A 
ATOM     39  C   UNL     1       4.173   6.239  -3.996  1.00  0.00    -0.014 A 
BRANCH  39  40
ATOM     40  C   UNL     1       4.685   6.703  -5.304  1.00  0.00     0.031 A 
ATOM     41  C   UNL     1       5.229   8.100  -5.404  1.00  0.00     0.074 A 
ATOM     42  C   UNL     1       4.703   5.881  -6.366  1.00  0.00     0.049 A 
ATOM     43  N   UNL     1       5.708   8.735  -6.443  1.00  0.00    -0.248 NA
ATOM     44  C   UNL     1       5.234   8.891  -4.162  1.00  0.00     0.031 C 
ATOM     45  C   UNL     1       4.244   4.494  -6.367  1.00  0.00     0.029 A 
ATOM     46  N   UNL     1       5.123   6.101  -7.652  1.00  0.00    -0.354 N 
ATOM     47  C   UNL     1       6.063   9.996  -5.982  1.00  0.00     0.074 A 
ATOM     48  C   UNL     1       5.719  10.050  -4.579  1.00  0.00     0.031 C 
ATOM     49  C   UNL     1       4.396   3.987  -7.602  1.00  0.00     0.029 A 
ATOM     50  C   UNL     1       4.935   5.024  -8.481  1.00  0.00     0.049 A 
ATOM     51  H   UNL     1       5.522   6.950  -7.952  1.00  0.00     0.167 HD
ATOM     52  C   UNL     1       6.635  11.013  -6.668  1.00  0.00     0.037 A 
ATOM     53  C   UNL     1       5.157   4.903  -9.804  1.00  0.00     0.037 A 
ATOM     54  C   UNL     1       6.976  10.949  -8.065  1.00  0.00     0.049 A 
ATOM     55  C   UNL     1       5.732   6.072 -10.560  1.00  0.00     0.074 A 
ATOM     56  C   UNL     1       7.570  11.916  -8.855  1.00  0.00     0.029 A 
ATOM     57  N   UNL     1       6.743   9.851  -8.880  1.00  0.00    -0.354 N 
ATOM     58  N   UNL     1       6.085   7.254 -10.115  1.00  0.00    -0.248 NA
ATOM     59  C   UNL     1       5.944   5.888 -12.002  1.00  0.00     0.031 C 
ATOM     60  C   UNL     1       7.653  11.420 -10.161  1.00  0.00     0.029 A 
ATOM     61  C   UNL     1       7.159  10.125 -10.172  1.00  0.00     0.049 A 
ATOM     62  H   UNL     1       6.341   9.002  -8.584  1.00  0.00     0.167 HD
ATOM     63  C   UNL     1       6.585   7.944 -11.212  1.00  0.00     0.074 A 
ATOM     64  C   UNL     1       6.500   7.042 -12.343  1.00  0.00     0.031 C 
ATOM     65  C   UNL     1       7.071   9.208 -11.280  1.00  0.00     0.037 A 
BRANCH  52  66
ATOM     66  C   UNL     1       6.901  12.289  -5.924  1.00  0.00     0.064 A 
ATOM     67  C   UNL     1       7.912  12.382  -4.956  1.00  0.00     0.173 A 
ATOM     68  C   UNL     1       6.149  13.440  -6.200  1.00  0.00     0.173 A 
ATOM     69  F   UNL     1       8.648  11.305  -4.643  1.00  0.00    -0.203 F 
ATOM     70  C   UNL     1       8.144  13.574  -4.274  1.00  0.00     0.198 A 
ATOM     71  C   UNL     1       6.402  14.638  -5.537  1.00  0.00     0.198 A 
ATOM     72  F   UNL     1       5.170  13.405  -7.117  1.00  0.00    -0.203 F 
ATOM     73  F   UNL     1       9.084  13.628  -3.321  1.00  0.00    -0.200 F 
ATOM     74  C   UNL     1       7.394  14.703  -4.570  1.00  0.00     0.200 A 
ATOM     75  F   UNL     1       5.682  15.730  -5.831  1.00  0.00    -0.200 F 
ATOM     76  F   UNL     1       7.621  15.851  -3.917  1.00  0.00    -0.200 F 
ENDBRANCH  52  66
BRANCH  53  77
ATOM     77  C   UNL     1       4.825   3.632 -10.497  1.00  0.00     0.064 A 
ATOM     78  C   UNL     1       5.830   2.804 -11.015  1.00  0.00     0.173 A 
ATOM     79  C   UNL     1       3.493   3.223 -10.665  1.00  0.00     0.173 A 
ATOM     80  F   UNL     1       7.117   3.164 -10.902  1.00  0.00    -0.203 F 
ATOM     81  C   UNL     1       5.516   1.625 -11.689  1.00  0.00     0.198 A 
ATOM     82  C   UNL     1       3.181   2.030 -11.313  1.00  0.00     0.198 A 
ATOM     83  F   UNL     1       2.493   3.980 -10.189  1.00  0.00    -0.203 F 
ATOM     84  F   UNL     1       6.495   0.876 -12.213  1.00  0.00    -0.200 F 
ATOM     85  C   UNL     1       4.192   1.236 -11.832  1.00  0.00     0.200 A 
ATOM     86  F   UNL     1       1.902   1.654 -11.440  1.00  0.00    -0.200 F 
ATOM     87  F   UNL     1       3.891   0.101 -12.477  1.00  0.00    -0.200 F 
ENDBRANCH  53  77
BRANCH  65  88
ATOM     88  C   UNL     1       7.580   9.678 -12.611  1.00  0.00     0.064 A 
ATOM     89  C   UNL     1       6.709   9.981 -13.667  1.00  0.00     0.173 A 
ATOM     90  C   UNL     1       8.955   9.872 -12.815  1.00  0.00     0.173 A 
ATOM     91  F   UNL     1       5.387   9.799 -13.526  1.00  0.00    -0.203 F 
ATOM     92  C   UNL     1       7.198  10.436 -14.889  1.00  0.00     0.198 A 
ATOM     93  C   UNL     1       9.438  10.356 -14.027  1.00  0.00     0.198 A 
ATOM     94  F   UNL     1       9.829   9.605 -11.833  1.00  0.00    -0.203 F 
ATOM     95  F   UNL     1       6.352  10.676 -15.900  1.00  0.00    -0.200 F 
ATOM     96  C   UNL     1       8.560  10.631 -15.065  1.00  0.00     0.200 A 
ATOM     97  F   UNL     1      10.753  10.557 -14.191  1.00  0.00    -0.200 F 
ATOM     98  F   UNL     1       9.028  11.077 -16.239  1.00  0.00    -0.200 F 
ENDBRANCH  65  88
ENDBRANCH  39  40
ENDBRANCH  32  34
ENDBRANCH  31  32
ENDBRANCH  30  31
ENDBRANCH  29  30
ENDBRANCH  28  29
ENDBRANCH   1  28
TORSDOF 19
