REMARK SMILES Cc1nonc1C[C@@]1(C(=O)OCCOCCOC(=O)c2ccc(-c3c4nc(c(-c5c(F)c(F)c(F)c(F)c5F)c5ccc([nH]5)c(-c5c(F)c(F)c(F)c(F)c5F)c5nc(c(-c6c(F)c(F)c(F)c(F)c6F)c6ccc3[nH]6)C=C5)C=C4)cc2)CCC[NH2+]C1
REMARK SMILES IDX 14 1 13 2 12 3 11 4 9 5 10 6 8 7 83 8 87 9 84 10 86 11 85 12
REMARK SMILES IDX 7 15 6 16 1 17 2 18 3 19 4 20 5 21 15 22 16 23 17 24 18 25
REMARK SMILES IDX 19 26 20 27 21 28 82 29 22 30 81 31 23 32 24 33 25 34 75 35
REMARK SMILES IDX 26 36 80 37 74 38 76 39 27 40 79 41 73 42 72 43 28 45 60 46
REMARK SMILES IDX 40 47 59 48 41 49 44 50 58 51 77 52 42 53 43 54 57 56 78 57
REMARK SMILES IDX 45 58 29 59 30 60 38 61 31 62 32 63 36 64 39 65 33 66 34 67
REMARK SMILES IDX 37 68 35 69 61 70 62 71 70 72 63 73 64 74 68 75 71 76 65 77
REMARK SMILES IDX 66 78 69 79 67 80 46 81 47 82 55 83 48 84 49 85 53 86 56 87
REMARK SMILES IDX 50 88 51 89 54 90 52 91
REMARK H PARENT 86 13 86 14 76 44 44 55
REMARK Flexibility Score: inf
ROOT
ATOM      1  O   UNL     1      -0.261   2.088   2.773  1.00  0.00    -0.374 OA
ENDROOT
BRANCH   1   2
ATOM      2  C   UNL     1       1.143   1.951   2.619  1.00  0.00     0.202 C 
BRANCH   2   3
ATOM      3  C   UNL     1       1.775   1.974   1.214  1.00  0.00     0.261 C 
BRANCH   3   4
ATOM      4  O   UNL     1       1.163   2.830   0.237  1.00  0.00    -0.463 OA
BRANCH   4   5
ATOM      5  C   UNL     1       0.149   2.217  -0.444  1.00  0.00     0.318 C 
ATOM      6  O   UNL     1      -0.247   1.094  -0.154  1.00  0.00    -0.251 OA
BRANCH   5   7
ATOM      7  C   UNL     1      -0.408   3.053  -1.612  1.00  0.00     0.122 C 
ATOM      8  C   UNL     1      -1.954   2.971  -1.615  1.00  0.00     0.031 C 
ATOM      9  C   UNL     1       0.129   2.393  -2.915  1.00  0.00     0.279 C 
ATOM     10  C   UNL     1      -2.508   1.599  -2.008  1.00  0.00     0.063 C 
ATOM     11  N   UNL     1      -0.392   1.057  -3.189  1.00  0.00    -0.345 N 
ATOM     12  C   UNL     1      -1.850   1.035  -3.260  1.00  0.00     0.260 C 
ATOM     13  H   UNL     1      -0.015   0.734  -4.080  1.00  0.00     0.346 HD
ATOM     14  H   UNL     1      -0.108   0.448  -2.422  1.00  0.00     0.346 HD
BRANCH   7  15
ATOM     15  C   UNL     1       0.121   4.524  -1.641  1.00  0.00     0.086 C 
BRANCH  15  16
ATOM     16  C   UNL     1      -0.433   5.581  -0.734  1.00  0.00     0.109 A 
ATOM     17  C   UNL     1       1.345   7.505  -0.942  1.00  0.00     0.073 C 
ATOM     18  C   UNL     1       0.100   6.866  -0.468  1.00  0.00     0.105 A 
ATOM     19  N   UNL     1      -0.740   7.548   0.314  1.00  0.00    -0.055 NA
ATOM     20  O   UNL     1      -1.818   6.699   0.509  1.00  0.00    -0.244 OA
ATOM     21  N   UNL     1      -1.625   5.490  -0.142  1.00  0.00    -0.055 NA
ENDBRANCH  15  16
ENDBRANCH   7  15
ENDBRANCH   5   7
ENDBRANCH   4   5
ENDBRANCH   3   4
ENDBRANCH   2   3
ENDBRANCH   1   2
BRANCH   1  22
ATOM     22  C   UNL     1      -0.867   3.337   2.444  1.00  0.00     0.202 C 
BRANCH  22  23
ATOM     23  C   UNL     1      -0.405   4.580   3.208  1.00  0.00     0.261 C 
BRANCH  23  24
ATOM     24  O   UNL     1       0.981   4.881   2.961  1.00  0.00    -0.460 OA
BRANCH  24  25
ATOM     25  C   UNL     1       1.715   5.078   4.080  1.00  0.00     0.338 C 
ATOM     26  O   UNL     1       1.321   5.138   5.235  1.00  0.00    -0.246 OA
BRANCH  25  27
ATOM     27  C   UNL     1       3.147   5.027   3.750  1.00  0.00     0.060 A 
ATOM     28  C   UNL     1       3.911   4.003   4.325  1.00  0.00     0.016 A 
ATOM     29  C   UNL     1       3.747   6.021   2.977  1.00  0.00     0.016 A 
ATOM     30  C   UNL     1       5.293   3.991   4.161  1.00  0.00     0.010 A 
ATOM     31  C   UNL     1       5.137   6.016   2.826  1.00  0.00     0.010 A 
ATOM     32  C   UNL     1       5.916   5.020   3.444  1.00  0.00    -0.014 A 
BRANCH  32  33
ATOM     33  C   UNL     1       7.392   5.130   3.462  1.00  0.00     0.031 A 
ATOM     34  C   UNL     1       8.043   6.044   4.462  1.00  0.00     0.074 A 
ATOM     35  C   UNL     1       8.141   4.402   2.617  1.00  0.00     0.049 A 
ATOM     36  N   UNL     1       9.309   6.324   4.630  1.00  0.00    -0.248 NA
ATOM     37  C   UNL     1       7.142   6.731   5.401  1.00  0.00     0.031 C 
ATOM     38  C   UNL     1       7.622   3.442   1.645  1.00  0.00     0.029 A 
ATOM     39  N   UNL     1       9.501   4.362   2.440  1.00  0.00    -0.354 N 
ATOM     40  C   UNL     1       9.359   7.217   5.692  1.00  0.00     0.074 A 
ATOM     41  C   UNL     1       7.994   7.455   6.112  1.00  0.00     0.031 C 
ATOM     42  C   UNL     1       8.652   2.914   0.964  1.00  0.00     0.029 A 
ATOM     43  C   UNL     1       9.897   3.523   1.429  1.00  0.00     0.049 A 
ATOM     44  H   UNL     1      10.131   4.885   2.986  1.00  0.00     0.167 HD
ATOM     45  C   UNL     1      10.447   7.780   6.270  1.00  0.00     0.037 A 
ATOM     46  C   UNL     1      11.124   3.295   0.924  1.00  0.00     0.037 A 
ATOM     47  C   UNL     1      11.801   7.547   5.841  1.00  0.00     0.049 A 
ATOM     48  C   UNL     1      12.309   4.012   1.517  1.00  0.00     0.074 A 
ATOM     49  C   UNL     1      12.974   8.061   6.364  1.00  0.00     0.029 A 
ATOM     50  N   UNL     1      12.159   6.735   4.775  1.00  0.00    -0.354 N 
ATOM     51  N   UNL     1      12.351   4.844   2.529  1.00  0.00    -0.248 NA
ATOM     52  C   UNL     1      13.615   3.763   0.892  1.00  0.00     0.031 C 
ATOM     53  C   UNL     1      14.039   7.599   5.583  1.00  0.00     0.029 A 
ATOM     54  C   UNL     1      13.534   6.759   4.603  1.00  0.00     0.049 A 
ATOM     55  H   UNL     1      11.530   6.218   4.222  1.00  0.00     0.167 HD
ATOM     56  C   UNL     1      13.685   5.199   2.679  1.00  0.00     0.074 A 
ATOM     57  C   UNL     1      14.423   4.484   1.658  1.00  0.00     0.031 C 
ATOM     58  C   UNL     1      14.249   6.039   3.581  1.00  0.00     0.037 A 
BRANCH  45  59
ATOM     59  C   UNL     1      10.210   8.726   7.409  1.00  0.00     0.064 A 
ATOM     60  C   UNL     1       9.798   8.271   8.671  1.00  0.00     0.173 A 
ATOM     61  C   UNL     1      10.418  10.103   7.244  1.00  0.00     0.173 A 
ATOM     62  F   UNL     1       9.572   6.964   8.876  1.00  0.00    -0.203 F 
ATOM     63  C   UNL     1       9.577   9.163   9.717  1.00  0.00     0.198 A 
ATOM     64  C   UNL     1      10.222  10.990   8.299  1.00  0.00     0.198 A 
ATOM     65  F   UNL     1      10.815  10.589   6.058  1.00  0.00    -0.203 F 
ATOM     66  F   UNL     1       9.140   8.711  10.900  1.00  0.00    -0.200 F 
ATOM     67  C   UNL     1       9.794  10.521   9.532  1.00  0.00     0.200 A 
ATOM     68  F   UNL     1      10.441  12.300   8.121  1.00  0.00    -0.200 F 
ATOM     69  F   UNL     1       9.584  11.378  10.540  1.00  0.00    -0.200 F 
ENDBRANCH  45  59
BRANCH  46  70
ATOM     70  C   UNL     1      11.293   2.357  -0.215  1.00  0.00     0.064 A 
ATOM     71  C   UNL     1      11.942   1.127  -0.048  1.00  0.00     0.173 A 
ATOM     72  C   UNL     1      10.811   2.673  -1.494  1.00  0.00     0.173 A 
ATOM     73  F   UNL     1      12.442   0.792   1.151  1.00  0.00    -0.203 F 
ATOM     74  C   UNL     1      12.113   0.252  -1.119  1.00  0.00     0.198 A 
ATOM     75  C   UNL     1      10.960   1.787  -2.558  1.00  0.00     0.198 A 
ATOM     76  F   UNL     1      10.185   3.840  -1.706  1.00  0.00    -0.203 F 
ATOM     77  F   UNL     1      12.770  -0.902  -0.941  1.00  0.00    -0.200 F 
ATOM     78  C   UNL     1      11.616   0.580  -2.372  1.00  0.00     0.200 A 
ATOM     79  F   UNL     1      10.468   2.104  -3.764  1.00  0.00    -0.200 F 
ATOM     80  F   UNL     1      11.774  -0.264  -3.400  1.00  0.00    -0.200 F 
ENDBRANCH  46  70
BRANCH  58  81
ATOM     81  C   UNL     1      15.738   6.215   3.521  1.00  0.00     0.064 A 
ATOM     82  C   UNL     1      16.347   6.968   2.507  1.00  0.00     0.173 A 
ATOM     83  C   UNL     1      16.559   5.667   4.518  1.00  0.00     0.173 A 
ATOM     84  F   UNL     1      15.606   7.498   1.523  1.00  0.00    -0.203 F 
ATOM     85  C   UNL     1      17.727   7.152   2.485  1.00  0.00     0.198 A 
ATOM     86  C   UNL     1      17.935   5.875   4.507  1.00  0.00     0.198 A 
ATOM     87  F   UNL     1      16.023   4.943   5.513  1.00  0.00    -0.203 F 
ATOM     88  F   UNL     1      18.292   7.844   1.486  1.00  0.00    -0.200 F 
ATOM     89  C   UNL     1      18.518   6.613   3.489  1.00  0.00     0.200 A 
ATOM     90  F   UNL     1      18.697   5.363   5.484  1.00  0.00    -0.200 F 
ATOM     91  F   UNL     1      19.845   6.800   3.470  1.00  0.00    -0.200 F 
ENDBRANCH  58  81
ENDBRANCH  32  33
ENDBRANCH  25  27
ENDBRANCH  24  25
ENDBRANCH  23  24
ENDBRANCH  22  23
ENDBRANCH   1  22
TORSDOF 16
