REMARK SMILES COc1ccc(CCNC(=O)[C@@]2(C)CC[C@@H](C(=O)OCCOCCOC(=O)c3ccc(-c4c5nc(c(-c6c(F)c(F)c(F)c(F)c6F)c6ccc([nH]6)c(-c6c(F)c(F)c(F)c(F)c6F)c6nc(c(-c7c(F)c(F)c(F)c(F)c7F)c7ccc4[nH]7)C=C6)C=C5)cc3)C2(C)C)cc1OC
REMARK SMILES IDX 20 1 19 2 17 3 18 4 16 5 12 6 13 7 14 8 91 9 15 10 92 11
REMARK SMILES IDX 93 12 10 13 9 14 11 16 8 17 7 18 6 19 3 20 4 21 95 22 5 23
REMARK SMILES IDX 94 24 2 25 1 26 96 27 97 28 21 29 22 30 23 31 24 32 25 33
REMARK SMILES IDX 26 34 27 35 28 36 29 37 90 38 30 39 89 40 31 41 32 42 33 43
REMARK SMILES IDX 83 44 34 45 88 46 82 47 84 48 35 49 87 50 81 51 80 52 36 54
REMARK SMILES IDX 68 55 48 56 67 57 49 58 52 59 66 60 85 61 50 62 51 63 65 65
REMARK SMILES IDX 86 66 53 67 37 68 38 69 46 70 39 71 40 72 44 73 47 74 41 75
REMARK SMILES IDX 42 76 45 77 43 78 69 79 70 80 78 81 71 82 72 83 76 84 79 85
REMARK SMILES IDX 73 86 74 87 77 88 75 89 54 90 55 91 63 92 56 93 57 94 61 95
REMARK SMILES IDX 64 96 58 97 59 98 62 99 60 100
REMARK H PARENT 9 15 84 53 52 64
REMARK Flexibility Score: inf
ROOT
ATOM      1  C   UNL     1      -3.264  -7.573  10.018  1.00  0.00     0.261 C 
ENDROOT
BRANCH   1   2
ATOM      2  O   UNL     1      -2.162  -6.664   9.832  1.00  0.00    -0.463 OA
BRANCH   2   3
ATOM      3  C   UNL     1      -0.944  -7.117  10.218  1.00  0.00     0.309 C 
ATOM      4  O   UNL     1      -0.731  -8.235  10.674  1.00  0.00    -0.252 OA
BRANCH   3   5
ATOM      5  C   UNL     1       0.151  -6.064  10.118  1.00  0.00     0.106 C 
ATOM      6  C   UNL     1       0.705  -3.780   9.273  1.00  0.00     0.052 C 
ATOM      7  C   UNL     1       2.143  -3.505   9.758  1.00  0.00     0.022 C 
ATOM      8  C   UNL     1      -0.217  -3.721  10.532  1.00  0.00     0.018 C 
ATOM      9  C   UNL     1       0.420  -5.260   8.784  1.00  0.00    -0.008 C 
ATOM     10  C   UNL     1      -0.031  -5.046  11.242  1.00  0.00     0.017 C 
ATOM     11  C   UNL     1      -0.758  -5.256   7.788  1.00  0.00     0.013 C 
ATOM     12  C   UNL     1       1.598  -5.953   8.068  1.00  0.00     0.013 C 
BRANCH   6  13
ATOM     13  C   UNL     1       0.232  -2.651   8.310  1.00  0.00     0.226 C 
ATOM     14  N   UNL     1       0.847  -2.330   7.144  1.00  0.00    -0.355 N 
ATOM     15  H   UNL     1       0.372  -1.631   6.639  1.00  0.00     0.163 HD
ATOM     16  O   UNL     1      -0.789  -1.996   8.554  1.00  0.00    -0.274 OA
BRANCH  14  17
ATOM     17  C   UNL     1       2.051  -2.791   6.473  1.00  0.00     0.120 C 
BRANCH  17  18
ATOM     18  C   UNL     1       1.775  -3.485   5.132  1.00  0.00     0.057 C 
BRANCH  18  19
ATOM     19  C   UNL     1       1.489  -2.522   4.006  1.00  0.00    -0.042 A 
ATOM     20  C   UNL     1       1.040  -0.637   1.967  1.00  0.00     0.160 A 
ATOM     21  C   UNL     1      -0.016  -1.070   2.781  1.00  0.00     0.051 A 
ATOM     22  C   UNL     1       2.326  -1.155   2.155  1.00  0.00     0.160 A 
ATOM     23  C   UNL     1       0.204  -2.015   3.788  1.00  0.00     0.008 A 
ATOM     24  C   UNL     1       2.536  -2.088   3.179  1.00  0.00     0.054 A 
BRANCH  20  25
ATOM     25  O   UNL     1       0.822   0.401   1.101  1.00  0.00    -0.493 OA
ATOM     26  C   UNL     1       0.007   0.030  -0.009  1.00  0.00     0.278 C 
ENDBRANCH  20  25
BRANCH  22  27
ATOM     27  O   UNL     1       3.472  -0.833   1.479  1.00  0.00    -0.493 OA
ATOM     28  C   UNL     1       3.330  -0.324   0.161  1.00  0.00     0.278 C 
ENDBRANCH  22  27
ENDBRANCH  18  19
ENDBRANCH  17  18
ENDBRANCH  14  17
ENDBRANCH   6  13
ENDBRANCH   3   5
ENDBRANCH   2   3
ENDBRANCH   1   2
BRANCH   1  29
ATOM     29  C   UNL     1      -3.684  -8.254   8.714  1.00  0.00     0.202 C 
BRANCH  29  30
ATOM     30  O   UNL     1      -2.829  -9.282   8.219  1.00  0.00    -0.374 OA
BRANCH  30  31
ATOM     31  C   UNL     1      -1.692  -8.877   7.460  1.00  0.00     0.202 C 
BRANCH  31  32
ATOM     32  C   UNL     1      -1.967  -8.439   6.011  1.00  0.00     0.261 C 
BRANCH  32  33
ATOM     33  O   UNL     1      -2.758  -7.233   5.936  1.00  0.00    -0.460 OA
BRANCH  33  34
ATOM     34  C   UNL     1      -4.016  -7.401   5.466  1.00  0.00     0.338 C 
ATOM     35  O   UNL     1      -4.491  -8.423   4.987  1.00  0.00    -0.246 OA
BRANCH  34  36
ATOM     36  C   UNL     1      -4.858  -6.226   5.777  1.00  0.00     0.060 A 
ATOM     37  C   UNL     1      -6.091  -6.479   6.393  1.00  0.00     0.016 A 
ATOM     38  C   UNL     1      -4.510  -4.922   5.416  1.00  0.00     0.016 A 
ATOM     39  C   UNL     1      -7.011  -5.449   6.577  1.00  0.00     0.010 A 
ATOM     40  C   UNL     1      -5.440  -3.886   5.601  1.00  0.00     0.010 A 
ATOM     41  C   UNL     1      -6.715  -4.152   6.138  1.00  0.00    -0.014 A 
BRANCH  41  42
ATOM     42  C   UNL     1      -7.805  -3.140   6.098  1.00  0.00     0.031 A 
ATOM     43  C   UNL     1      -8.469  -2.826   4.782  1.00  0.00     0.074 A 
ATOM     44  C   UNL     1      -8.265  -2.566   7.225  1.00  0.00     0.049 A 
ATOM     45  N   UNL     1      -9.453  -2.001   4.519  1.00  0.00    -0.248 NA
ATOM     46  C   UNL     1      -7.958  -3.542   3.602  1.00  0.00     0.031 C 
ATOM     47  C   UNL     1      -7.752  -2.816   8.570  1.00  0.00     0.029 A 
ATOM     48  N   UNL     1      -9.277  -1.655   7.415  1.00  0.00    -0.354 N 
ATOM     49  C   UNL     1      -9.673  -2.095   3.150  1.00  0.00     0.074 A 
ATOM     50  C   UNL     1      -8.700  -3.031   2.630  1.00  0.00     0.031 C 
ATOM     51  C   UNL     1      -8.451  -2.076   9.448  1.00  0.00     0.029 A 
ATOM     52  C   UNL     1      -9.438  -1.275   8.725  1.00  0.00     0.049 A 
ATOM     53  H   UNL     1      -9.834  -1.308   6.681  1.00  0.00     0.167 HD
ATOM     54  C   UNL     1     -10.608  -1.468   2.396  1.00  0.00     0.037 A 
ATOM     55  C   UNL     1     -10.272  -0.369   9.276  1.00  0.00     0.037 A 
ATOM     56  C   UNL     1     -11.586  -0.545   2.909  1.00  0.00     0.049 A 
ATOM     57  C   UNL     1     -11.249   0.375   8.400  1.00  0.00     0.074 A 
ATOM     58  C   UNL     1     -12.589   0.118   2.222  1.00  0.00     0.029 A 
ATOM     59  N   UNL     1     -11.682  -0.148   4.234  1.00  0.00    -0.354 N 
ATOM     60  N   UNL     1     -11.468   0.257   7.113  1.00  0.00    -0.248 NA
ATOM     61  C   UNL     1     -12.099   1.379   9.058  1.00  0.00     0.031 C 
ATOM     62  C   UNL     1     -13.249   0.965   3.117  1.00  0.00     0.029 A 
ATOM     63  C   UNL     1     -12.705   0.778   4.377  1.00  0.00     0.049 A 
ATOM     64  H   UNL     1     -11.109  -0.474   4.965  1.00  0.00     0.167 HD
ATOM     65  C   UNL     1     -12.500   1.140   6.816  1.00  0.00     0.074 A 
ATOM     66  C   UNL     1     -12.874   1.778   8.060  1.00  0.00     0.031 C 
ATOM     67  C   UNL     1     -13.084   1.398   5.620  1.00  0.00     0.037 A 
BRANCH  54  68
ATOM     68  C   UNL     1     -10.608  -1.736   0.918  1.00  0.00     0.064 A 
ATOM     69  C   UNL     1     -11.020  -2.967   0.387  1.00  0.00     0.173 A 
ATOM     70  C   UNL     1     -10.246  -0.722   0.017  1.00  0.00     0.173 A 
ATOM     71  F   UNL     1     -11.365  -3.973   1.204  1.00  0.00    -0.203 F 
ATOM     72  C   UNL     1     -11.050  -3.180  -0.989  1.00  0.00     0.198 A 
ATOM     73  C   UNL     1     -10.308  -0.927  -1.358  1.00  0.00     0.198 A 
ATOM     74  F   UNL     1      -9.850   0.477   0.471  1.00  0.00    -0.203 F 
ATOM     75  F   UNL     1     -11.408  -4.378  -1.473  1.00  0.00    -0.200 F 
ATOM     76  C   UNL     1     -10.704  -2.158  -1.860  1.00  0.00     0.200 A 
ATOM     77  F   UNL     1      -9.988   0.067  -2.198  1.00  0.00    -0.200 F 
ATOM     78  F   UNL     1     -10.747  -2.360  -3.184  1.00  0.00    -0.200 F 
ENDBRANCH  54  68
BRANCH  55  79
ATOM     79  C   UNL     1     -10.214  -0.092  10.737  1.00  0.00     0.064 A 
ATOM     80  C   UNL     1     -11.293  -0.398  11.579  1.00  0.00     0.173 A 
ATOM     81  C   UNL     1      -9.096   0.531  11.313  1.00  0.00     0.173 A 
ATOM     82  F   UNL     1     -12.398  -0.966  11.073  1.00  0.00    -0.203 F 
ATOM     83  C   UNL     1     -11.266  -0.068  12.934  1.00  0.00     0.198 A 
ATOM     84  C   UNL     1      -9.057   0.829  12.673  1.00  0.00     0.198 A 
ATOM     85  F   UNL     1      -8.040   0.853  10.551  1.00  0.00    -0.203 F 
ATOM     86  F   UNL     1     -12.335  -0.316  13.702  1.00  0.00    -0.200 F 
ATOM     87  C   UNL     1     -10.146   0.539  13.480  1.00  0.00     0.200 A 
ATOM     88  F   UNL     1      -7.968   1.406  13.199  1.00  0.00    -0.200 F 
ATOM     89  F   UNL     1     -10.122   0.859  14.781  1.00  0.00    -0.200 F 
ENDBRANCH  55  79
BRANCH  67  90
ATOM     90  C   UNL     1     -14.226   2.377   5.598  1.00  0.00     0.064 A 
ATOM     91  C   UNL     1     -14.032   3.749   5.811  1.00  0.00     0.173 A 
ATOM     92  C   UNL     1     -15.530   1.937   5.316  1.00  0.00     0.173 A 
ATOM     93  F   UNL     1     -12.809   4.222   6.096  1.00  0.00    -0.203 F 
ATOM     94  C   UNL     1     -15.103   4.640   5.773  1.00  0.00     0.198 A 
ATOM     95  C   UNL     1     -16.592   2.834   5.244  1.00  0.00     0.198 A 
ATOM     96  F   UNL     1     -15.772   0.636   5.094  1.00  0.00    -0.203 F 
ATOM     97  F   UNL     1     -14.901   5.939   6.032  1.00  0.00    -0.200 F 
ATOM     98  C   UNL     1     -16.380   4.183   5.482  1.00  0.00     0.200 A 
ATOM     99  F   UNL     1     -17.821   2.393   4.944  1.00  0.00    -0.200 F 
ATOM    100  F   UNL     1     -17.407   5.043   5.436  1.00  0.00    -0.200 F 
ENDBRANCH  67  90
ENDBRANCH  41  42
ENDBRANCH  34  36
ENDBRANCH  33  34
ENDBRANCH  32  33
ENDBRANCH  31  32
ENDBRANCH  30  31
ENDBRANCH  29  30
ENDBRANCH   1  29
TORSDOF 20
