REMARK SMILES COc1ccc(OC)c(NC(=O)[C@@H]2[C@@H](C(=O)OCCOCCOC(=O)c3ccc(-c4c5nc(c(-c6c(F)c(F)c(F)c(F)c6F)c6ccc([nH]6)c(-c6c(F)c(F)c(F)c(F)c6F)c6nc(c(-c7c(F)c(F)c(F)c(F)c7F)c7ccc4[nH]7)C=C6)C=C5)cc3)[C@H]3C=C[C@@H]2C3)c1
REMARK SMILES IDX 19 1 18 2 17 3 15 4 16 5 14 6 13 7 92 8 89 9 91 10 93 11
REMARK SMILES IDX 90 12 11 13 10 14 12 16 9 17 3 18 4 19 94 20 5 21 6 22 2 23
REMARK SMILES IDX 1 24 7 25 8 26 20 27 21 28 22 29 23 30 24 31 25 32 26 33
REMARK SMILES IDX 27 34 88 35 28 36 87 37 29 38 30 39 31 40 81 41 32 42 86 43
REMARK SMILES IDX 80 44 82 45 33 46 85 47 79 48 78 49 34 51 66 52 46 53 65 54
REMARK SMILES IDX 47 55 50 56 64 57 83 58 48 59 49 60 63 62 84 63 51 64 35 65
REMARK SMILES IDX 36 66 44 67 37 68 38 69 42 70 45 71 39 72 40 73 43 74 41 75
REMARK SMILES IDX 67 76 68 77 76 78 69 79 70 80 74 81 77 82 71 83 72 84 75 85
REMARK SMILES IDX 73 86 52 87 53 88 61 89 54 90 55 91 59 92 62 93 56 94 57 95
REMARK SMILES IDX 60 96 58 97
REMARK H PARENT 10 15 82 50 50 61
REMARK Flexibility Score: inf
ROOT
ATOM      1  C   UNL     1      -1.792  -5.995   0.962  1.00  0.00     0.202 C 
ENDROOT
BRANCH   1   2
ATOM      2  C   UNL     1      -1.200  -6.286   2.355  1.00  0.00     0.261 C 
BRANCH   2   3
ATOM      3  O   UNL     1       0.203  -5.969   2.550  1.00  0.00    -0.463 OA
BRANCH   3   4
ATOM      4  C   UNL     1       1.073  -7.008   2.389  1.00  0.00     0.310 C 
ATOM      5  O   UNL     1       0.749  -8.058   1.849  1.00  0.00    -0.252 OA
BRANCH   4   6
ATOM      6  C   UNL     1       2.449  -6.738   3.027  1.00  0.00     0.119 C 
ATOM      7  C   UNL     1       3.668  -6.910   2.045  1.00  0.00     0.100 C 
ATOM      8  C   UNL     1       4.398  -8.148   2.670  1.00  0.00     0.025 C 
ATOM      9  C   UNL     1       2.738  -7.826   4.124  1.00  0.00     0.027 C 
ATOM     10  C   UNL     1       3.519  -9.371   2.615  1.00  0.00    -0.027 C 
ATOM     11  C   UNL     1       4.265  -7.832   4.168  1.00  0.00     0.017 C 
ATOM     12  C   UNL     1       2.565  -9.213   3.542  1.00  0.00    -0.027 C 
BRANCH   7  13
ATOM     13  C   UNL     1       4.723  -5.771   2.005  1.00  0.00     0.229 C 
ATOM     14  N   UNL     1       4.495  -4.451   1.792  1.00  0.00    -0.323 N 
ATOM     15  H   UNL     1       5.295  -3.894   1.932  1.00  0.00     0.170 HD
ATOM     16  O   UNL     1       5.922  -6.029   2.196  1.00  0.00    -0.274 OA
BRANCH  14  17
ATOM     17  C   UNL     1       3.375  -3.709   1.418  1.00  0.00     0.087 A 
ATOM     18  C   UNL     1       2.168  -1.625   1.645  1.00  0.00     0.121 A 
ATOM     19  C   UNL     1       1.012  -2.242   1.207  1.00  0.00     0.050 A 
ATOM     20  C   UNL     1       3.341  -2.360   1.796  1.00  0.00     0.076 A 
ATOM     21  C   UNL     1       1.102  -3.529   0.696  1.00  0.00     0.052 A 
ATOM     22  C   UNL     1       2.306  -4.222   0.704  1.00  0.00     0.142 A 
BRANCH  18  23
ATOM     23  O   UNL     1       2.149  -0.304   1.982  1.00  0.00    -0.497 OA
ATOM     24  C   UNL     1       2.184   0.509   0.803  1.00  0.00     0.278 C 
ENDBRANCH  18  23
BRANCH  22  25
ATOM     25  O   UNL     1       2.356  -5.385  -0.003  1.00  0.00    -0.495 OA
ATOM     26  C   UNL     1       3.283  -5.332  -1.093  1.00  0.00     0.278 C 
ENDBRANCH  22  25
ENDBRANCH  14  17
ENDBRANCH   7  13
ENDBRANCH   4   6
ENDBRANCH   3   4
ENDBRANCH   2   3
ENDBRANCH   1   2
BRANCH   1  27
ATOM     27  O   UNL     1      -1.597  -6.999  -0.034  1.00  0.00    -0.374 OA
BRANCH  27  28
ATOM     28  C   UNL     1      -0.337  -6.970  -0.701  1.00  0.00     0.202 C 
BRANCH  28  29
ATOM     29  C   UNL     1      -0.344  -6.207  -2.031  1.00  0.00     0.261 C 
BRANCH  29  30
ATOM     30  O   UNL     1      -0.457  -4.783  -1.825  1.00  0.00    -0.460 OA
BRANCH  30  31
ATOM     31  C   UNL     1      -1.643  -4.226  -2.146  1.00  0.00     0.338 C 
ATOM     32  O   UNL     1      -2.586  -4.772  -2.705  1.00  0.00    -0.246 OA
BRANCH  31  33
ATOM     33  C   UNL     1      -1.741  -2.857  -1.589  1.00  0.00     0.060 A 
ATOM     34  C   UNL     1      -2.926  -2.520  -0.927  1.00  0.00     0.016 A 
ATOM     35  C   UNL     1      -0.731  -1.900  -1.730  1.00  0.00     0.016 A 
ATOM     36  C   UNL     1      -3.129  -1.221  -0.455  1.00  0.00     0.010 A 
ATOM     37  C   UNL     1      -0.930  -0.599  -1.234  1.00  0.00     0.010 A 
ATOM     38  C   UNL     1      -2.147  -0.234  -0.627  1.00  0.00    -0.014 A 
BRANCH  38  39
ATOM     39  C   UNL     1      -2.476   1.188  -0.310  1.00  0.00     0.031 A 
ATOM     40  C   UNL     1      -2.639   2.177  -1.441  1.00  0.00     0.074 A 
ATOM     41  C   UNL     1      -2.703   1.598   0.955  1.00  0.00     0.049 A 
ATOM     42  N   UNL     1      -2.982   3.442  -1.399  1.00  0.00    -0.248 NA
ATOM     43  C   UNL     1      -2.367   1.681  -2.799  1.00  0.00     0.031 C 
ATOM     44  C   UNL     1      -2.575   0.769   2.153  1.00  0.00     0.029 A 
ATOM     45  N   UNL     1      -3.104   2.822   1.442  1.00  0.00    -0.354 N 
ATOM     46  C   UNL     1      -2.947   3.889  -2.714  1.00  0.00     0.074 A 
ATOM     47  C   UNL     1      -2.506   2.778  -3.527  1.00  0.00     0.031 C 
ATOM     48  C   UNL     1      -2.912   1.500   3.231  1.00  0.00     0.029 A 
ATOM     49  C   UNL     1      -3.263   2.854   2.808  1.00  0.00     0.049 A 
ATOM     50  H   UNL     1      -3.264   3.604   0.864  1.00  0.00     0.167 HD
ATOM     51  C   UNL     1      -3.278   5.104  -3.211  1.00  0.00     0.037 A 
ATOM     52  C   UNL     1      -3.649   3.858   3.624  1.00  0.00     0.037 A 
ATOM     53  C   UNL     1      -3.779   6.201  -2.428  1.00  0.00     0.049 A 
ATOM     54  C   UNL     1      -4.020   5.200   3.040  1.00  0.00     0.074 A 
ATOM     55  C   UNL     1      -4.206   7.444  -2.864  1.00  0.00     0.029 A 
ATOM     56  N   UNL     1      -3.929   6.186  -1.052  1.00  0.00    -0.354 N 
ATOM     57  N   UNL     1      -4.051   5.581   1.787  1.00  0.00    -0.248 NA
ATOM     58  C   UNL     1      -4.422   6.252   3.990  1.00  0.00     0.031 C 
ATOM     59  C   UNL     1      -4.573   8.198  -1.746  1.00  0.00     0.029 A 
ATOM     60  C   UNL     1      -4.421   7.407  -0.620  1.00  0.00     0.049 A 
ATOM     61  H   UNL     1      -3.718   5.422  -0.468  1.00  0.00     0.167 HD
ATOM     62  C   UNL     1      -4.507   6.895   1.796  1.00  0.00     0.074 A 
ATOM     63  C   UNL     1      -4.756   7.244   3.177  1.00  0.00     0.031 C 
ATOM     64  C   UNL     1      -4.697   7.738   0.753  1.00  0.00     0.037 A 
BRANCH  51  65
ATOM     65  C   UNL     1      -3.118   5.323  -4.687  1.00  0.00     0.064 A 
ATOM     66  C   UNL     1      -3.990   4.739  -5.617  1.00  0.00     0.173 A 
ATOM     67  C   UNL     1      -2.120   6.183  -5.169  1.00  0.00     0.173 A 
ATOM     68  F   UNL     1      -4.952   3.900  -5.206  1.00  0.00    -0.203 F 
ATOM     69  C   UNL     1      -3.856   4.993  -6.979  1.00  0.00     0.198 A 
ATOM     70  C   UNL     1      -2.008   6.457  -6.529  1.00  0.00     0.198 A 
ATOM     71  F   UNL     1      -1.265   6.771  -4.319  1.00  0.00    -0.203 F 
ATOM     72  F   UNL     1      -4.676   4.394  -7.854  1.00  0.00    -0.200 F 
ATOM     73  C   UNL     1      -2.872   5.859  -7.433  1.00  0.00     0.200 A 
ATOM     74  F   UNL     1      -1.065   7.305  -6.964  1.00  0.00    -0.200 F 
ATOM     75  F   UNL     1      -2.755   6.114  -8.743  1.00  0.00    -0.200 F 
ENDBRANCH  51  65
BRANCH  52  76
ATOM     76  C   UNL     1      -3.718   3.652   5.098  1.00  0.00     0.064 A 
ATOM     77  C   UNL     1      -4.943   3.687   5.780  1.00  0.00     0.173 A 
ATOM     78  C   UNL     1      -2.553   3.496   5.862  1.00  0.00     0.173 A 
ATOM     79  F   UNL     1      -6.084   3.865   5.098  1.00  0.00    -0.203 F 
ATOM     80  C   UNL     1      -4.997   3.612   7.171  1.00  0.00     0.198 A 
ATOM     81  C   UNL     1      -2.610   3.389   7.251  1.00  0.00     0.198 A 
ATOM     82  F   UNL     1      -1.355   3.463   5.261  1.00  0.00    -0.203 F 
ATOM     83  F   UNL     1      -6.175   3.720   7.801  1.00  0.00    -0.200 F 
ATOM     84  C   UNL     1      -3.831   3.461   7.905  1.00  0.00     0.200 A 
ATOM     85  F   UNL     1      -1.481   3.237   7.956  1.00  0.00    -0.200 F 
ATOM     86  F   UNL     1      -3.881   3.403   9.243  1.00  0.00    -0.200 F 
ENDBRANCH  52  76
BRANCH  64  87
ATOM     87  C   UNL     1      -5.247   9.104   1.045  1.00  0.00     0.064 A 
ATOM     88  C   UNL     1      -4.474  10.093   1.671  1.00  0.00     0.173 A 
ATOM     89  C   UNL     1      -6.547   9.447   0.641  1.00  0.00     0.173 A 
ATOM     90  F   UNL     1      -3.229   9.813   2.087  1.00  0.00    -0.203 F 
ATOM     91  C   UNL     1      -4.989  11.366   1.901  1.00  0.00     0.198 A 
ATOM     92  C   UNL     1      -7.048  10.729   0.846  1.00  0.00     0.198 A 
ATOM     93  F   UNL     1      -7.325   8.541   0.029  1.00  0.00    -0.203 F 
ATOM     94  F   UNL     1      -4.246  12.282   2.538  1.00  0.00    -0.200 F 
ATOM     95  C   UNL     1      -6.271  11.686   1.482  1.00  0.00     0.200 A 
ATOM     96  F   UNL     1      -8.282  11.041   0.425  1.00  0.00    -0.200 F 
ATOM     97  F   UNL     1      -6.761  12.915   1.694  1.00  0.00    -0.200 F 
ENDBRANCH  64  87
ENDBRANCH  38  39
ENDBRANCH  31  33
ENDBRANCH  30  31
ENDBRANCH  29  30
ENDBRANCH  28  29
ENDBRANCH  27  28
ENDBRANCH   1  27
TORSDOF 18
