REMARK SMILES C[C@@H](Sc1nc2ccccc2c(=O)n1N)C(=O)OCCOCCOC(=O)c1ccc(-c2c3nc(c(-c4c(F)c(F)c(F)c(F)c4F)c4ccc([nH]4)c(-c4c(F)c(F)c(F)c(F)c4F)c4nc(c(-c5c(F)c(F)c(F)c(F)c5F)c5ccc2[nH]5)C=C4)C=C3)cc1
REMARK SMILES IDX 20 1 19 2 18 3 16 4 17 5 2 6 1 7 3 8 4 9 5 10 14 11 6 12
REMARK SMILES IDX 12 13 7 14 11 15 13 16 8 17 10 18 9 19 15 20 21 23 22 24
REMARK SMILES IDX 23 25 24 26 25 27 26 28 27 29 28 30 89 31 29 32 88 33 30 34
REMARK SMILES IDX 31 35 32 36 82 37 33 38 87 39 81 40 83 41 34 42 86 43 80 44
REMARK SMILES IDX 79 45 35 47 67 48 47 49 66 50 48 51 51 52 65 53 84 54 49 55
REMARK SMILES IDX 50 56 64 58 85 59 52 60 36 61 37 62 45 63 38 64 39 65 43 66
REMARK SMILES IDX 46 67 40 68 41 69 44 70 42 71 68 72 69 73 77 74 70 75 71 76
REMARK SMILES IDX 75 77 78 78 72 79 73 80 76 81 74 82 53 83 54 84 62 85 55 86
REMARK SMILES IDX 56 87 60 88 63 89 57 90 58 91 61 92 59 93
REMARK H PARENT 15 21 15 22 83 46 51 57
REMARK Flexibility Score: inf
ROOT
ATOM      1  C   UNL     1      -3.705  -0.361   0.877  1.00  0.00     0.202 C 
ENDROOT
BRANCH   1   2
ATOM      2  C   UNL     1      -2.985   0.533   1.888  1.00  0.00     0.261 C 
BRANCH   2   3
ATOM      3  O   UNL     1      -1.600   0.717   1.552  1.00  0.00    -0.462 OA
BRANCH   3   4
ATOM      4  C   UNL     1      -0.707   0.130   2.397  1.00  0.00     0.319 C 
ATOM      5  O   UNL     1      -1.012  -0.485   3.414  1.00  0.00    -0.251 OA
BRANCH   4   6
ATOM      6  C   UNL     1       0.740   0.330   1.958  1.00  0.00     0.161 C 
ATOM      7  C   UNL     1       0.934   0.692   0.489  1.00  0.00     0.032 C 
BRANCH   6   8
ATOM      8  S   UNL     1       1.446   1.596   3.063  1.00  0.00    -0.071 SA
BRANCH   8   9
ATOM      9  C   UNL     1       3.154   1.376   2.773  1.00  0.00     0.191 A 
ATOM     10  N   UNL     1       3.775   2.360   2.209  1.00  0.00    -0.222 NA
ATOM     11  N   UNL     1       3.780   0.213   3.214  1.00  0.00    -0.202 N 
ATOM     12  C   UNL     1       5.165   2.272   2.070  1.00  0.00     0.079 A 
ATOM     13  C   UNL     1       5.160   0.040   3.099  1.00  0.00     0.280 A 
ATOM     14  C   UNL     1       5.850   3.358   1.520  1.00  0.00     0.029 A 
ATOM     15  C   UNL     1       5.899   1.167   2.503  1.00  0.00     0.068 A 
ATOM     16  O   UNL     1       5.750  -0.970   3.480  1.00  0.00    -0.267 OA
ATOM     17  C   UNL     1       7.243   3.343   1.419  1.00  0.00     0.002 A 
ATOM     18  C   UNL     1       7.294   1.139   2.402  1.00  0.00     0.016 A 
ATOM     19  C   UNL     1       7.965   2.236   1.863  1.00  0.00     0.001 A 
BRANCH  11  20
ATOM     20  N   UNL     1       3.049  -0.868   3.808  1.00  0.00    -0.334 N 
ATOM     21  H   UNL     1       2.072  -0.802   3.916  1.00  0.00     0.178 HD
ATOM     22  H   UNL     1       3.523  -1.676   4.109  1.00  0.00     0.178 HD
ENDBRANCH  11  20
ENDBRANCH   8   9
ENDBRANCH   6   8
ENDBRANCH   4   6
ENDBRANCH   3   4
ENDBRANCH   2   3
ENDBRANCH   1   2
BRANCH   1  23
ATOM     23  O   UNL     1      -3.247  -1.707   0.776  1.00  0.00    -0.374 OA
BRANCH  23  24
ATOM     24  C   UNL     1      -2.045  -1.946   0.044  1.00  0.00     0.202 C 
BRANCH  24  25
ATOM     25  C   UNL     1      -2.140  -1.832  -1.483  1.00  0.00     0.261 C 
BRANCH  25  26
ATOM     26  O   UNL     1      -2.370  -0.476  -1.914  1.00  0.00    -0.460 OA
BRANCH  26  27
ATOM     27  C   UNL     1      -3.516  -0.284  -2.608  1.00  0.00     0.338 C 
ATOM     28  O   UNL     1      -4.315  -1.136  -2.976  1.00  0.00    -0.246 OA
BRANCH  27  29
ATOM     29  C   UNL     1      -3.801   1.156  -2.730  1.00  0.00     0.060 A 
ATOM     30  C   UNL     1      -5.000   1.631  -2.182  1.00  0.00     0.016 A 
ATOM     31  C   UNL     1      -2.956   2.014  -3.437  1.00  0.00     0.016 A 
ATOM     32  C   UNL     1      -5.372   2.962  -2.361  1.00  0.00     0.010 A 
ATOM     33  C   UNL     1      -3.338   3.347  -3.627  1.00  0.00     0.010 A 
ATOM     34  C   UNL     1      -4.558   3.822  -3.110  1.00  0.00    -0.014 A 
BRANCH  34  35
ATOM     35  C   UNL     1      -5.030   5.192  -3.426  1.00  0.00     0.031 A 
ATOM     36  C   UNL     1      -5.666   5.467  -4.760  1.00  0.00     0.074 A 
ATOM     37  C   UNL     1      -4.910   6.179  -2.520  1.00  0.00     0.049 A 
ATOM     38  N   UNL     1      -6.110   6.597  -5.250  1.00  0.00    -0.248 NA
ATOM     39  C   UNL     1      -5.826   4.316  -5.662  1.00  0.00     0.031 C 
ATOM     40  C   UNL     1      -4.343   6.028  -1.181  1.00  0.00     0.029 A 
ATOM     41  N   UNL     1      -5.248   7.507  -2.596  1.00  0.00    -0.354 N 
ATOM     42  C   UNL     1      -6.596   6.296  -6.515  1.00  0.00     0.074 A 
ATOM     43  C   UNL     1      -6.376   4.881  -6.728  1.00  0.00     0.031 C 
ATOM     44  C   UNL     1      -4.355   7.223  -0.567  1.00  0.00     0.029 A 
ATOM     45  C   UNL     1      -4.901   8.226  -1.479  1.00  0.00     0.049 A 
ATOM     46  H   UNL     1      -5.697   7.905  -3.376  1.00  0.00     0.167 HD
ATOM     47  C   UNL     1      -7.180   7.125  -7.413  1.00  0.00     0.037 A 
ATOM     48  C   UNL     1      -4.988   9.548  -1.234  1.00  0.00     0.037 A 
ATOM     49  C   UNL     1      -7.406   8.530  -7.198  1.00  0.00     0.049 A 
ATOM     50  C   UNL     1      -5.575  10.459  -2.282  1.00  0.00     0.074 A 
ATOM     51  C   UNL     1      -8.029   9.441  -8.034  1.00  0.00     0.029 A 
ATOM     52  N   UNL     1      -7.008   9.230  -6.070  1.00  0.00    -0.354 N 
ATOM     53  N   UNL     1      -6.069  10.158  -3.458  1.00  0.00    -0.248 NA
ATOM     54  C   UNL     1      -5.614  11.895  -1.967  1.00  0.00     0.031 C 
ATOM     55  C   UNL     1      -7.963  10.703  -7.434  1.00  0.00     0.029 A 
ATOM     56  C   UNL     1      -7.341  10.569  -6.203  1.00  0.00     0.049 A 
ATOM     57  H   UNL     1      -6.557   8.835  -5.289  1.00  0.00     0.167 HD
ATOM     58  C   UNL     1      -6.494  11.358  -4.013  1.00  0.00     0.074 A 
ATOM     59  C   UNL     1      -6.219  12.391  -3.037  1.00  0.00     0.031 C 
ATOM     60  C   UNL     1      -7.060  11.586  -5.223  1.00  0.00     0.037 A 
BRANCH  47  61
ATOM     61  C   UNL     1      -7.604   6.545  -8.729  1.00  0.00     0.064 A 
ATOM     62  C   UNL     1      -8.739   5.730  -8.841  1.00  0.00     0.173 A 
ATOM     63  C   UNL     1      -6.908   6.870  -9.903  1.00  0.00     0.173 A 
ATOM     64  F   UNL     1      -9.433   5.383  -7.746  1.00  0.00    -0.203 F 
ATOM     65  C   UNL     1      -9.157   5.253 -10.081  1.00  0.00     0.198 A 
ATOM     66  C   UNL     1      -7.341   6.410 -11.143  1.00  0.00     0.198 A 
ATOM     67  F   UNL     1      -5.818   7.650  -9.848  1.00  0.00    -0.203 F 
ATOM     68  F   UNL     1     -10.230   4.455 -10.164  1.00  0.00    -0.200 F 
ATOM     69  C   UNL     1      -8.463   5.601 -11.231  1.00  0.00     0.200 A 
ATOM     70  F   UNL     1      -6.676   6.757 -12.254  1.00  0.00    -0.200 F 
ATOM     71  F   UNL     1      -8.876   5.154 -12.426  1.00  0.00    -0.200 F 
ENDBRANCH  47  61
BRANCH  48  72
ATOM     72  C   UNL     1      -4.476  10.105   0.045  1.00  0.00     0.064 A 
ATOM     73  C   UNL     1      -5.343  10.662   0.994  1.00  0.00     0.173 A 
ATOM     74  C   UNL     1      -3.101  10.129   0.324  1.00  0.00     0.173 A 
ATOM     75  F   UNL     1      -6.664  10.690   0.759  1.00  0.00    -0.203 F 
ATOM     76  C   UNL     1      -4.854  11.242   2.163  1.00  0.00     0.198 A 
ATOM     77  C   UNL     1      -2.615  10.682   1.506  1.00  0.00     0.198 A 
ATOM     78  F   UNL     1      -2.228   9.614  -0.554  1.00  0.00    -0.203 F 
ATOM     79  F   UNL     1      -5.701  11.817   3.028  1.00  0.00    -0.200 F 
ATOM     80  C   UNL     1      -3.491  11.247   2.421  1.00  0.00     0.200 A 
ATOM     81  F   UNL     1      -1.299  10.678   1.754  1.00  0.00    -0.200 F 
ATOM     82  F   UNL     1      -3.022  11.809   3.543  1.00  0.00    -0.200 F 
ENDBRANCH  48  72
BRANCH  60  83
ATOM     83  C   UNL     1      -7.434  13.001  -5.554  1.00  0.00     0.064 A 
ATOM     84  C   UNL     1      -6.460  13.965  -5.853  1.00  0.00     0.173 A 
ATOM     85  C   UNL     1      -8.781  13.388  -5.611  1.00  0.00     0.173 A 
ATOM     86  F   UNL     1      -5.157  13.649  -5.796  1.00  0.00    -0.203 F 
ATOM     87  C   UNL     1      -6.820  15.271  -6.173  1.00  0.00     0.198 A 
ATOM     88  C   UNL     1      -9.139  14.688  -5.960  1.00  0.00     0.198 A 
ATOM     89  F   UNL     1      -9.751  12.502  -5.341  1.00  0.00    -0.203 F 
ATOM     90  F   UNL     1      -5.871  16.187  -6.411  1.00  0.00    -0.200 F 
ATOM     91  C   UNL     1      -8.159  15.629  -6.234  1.00  0.00     0.200 A 
ATOM     92  F   UNL     1     -10.433  15.029  -6.031  1.00  0.00    -0.200 F 
ATOM     93  F   UNL     1      -8.504  16.885  -6.549  1.00  0.00    -0.200 F 
ENDBRANCH  60  83
ENDBRANCH  34  35
ENDBRANCH  27  29
ENDBRANCH  26  27
ENDBRANCH  25  26
ENDBRANCH  24  25
ENDBRANCH  23  24
ENDBRANCH   1  23
TORSDOF 17
