REMARK SMILES CSc1ccc(CNc2ccc(N3CCOCC3)c(C(=O)OCCOCCOC(=O)c3ccc(-c4c5nc(c(-c6c(F)c(F)c(F)c(F)c6F)c6ccc([nH]6)c(-c6c(F)c(F)c(F)c(F)c6F)c6nc(c(-c7c(F)c(F)c(F)c(F)c7F)c7ccc4[nH]7)C=C6)C=C5)cc3)c2)cc1
REMARK SMILES IDX 24 1 23 2 22 3 20 4 21 5 19 6 9 7 10 8 94 9 11 10 12 11 8 12
REMARK SMILES IDX 7 14 6 15 3 16 4 17 96 18 5 19 95 20 2 21 1 22 13 23 14 24
REMARK SMILES IDX 18 25 15 26 17 27 16 28 25 29 26 30 27 31 28 32 29 33 30 34
REMARK SMILES IDX 31 35 32 36 93 37 33 38 92 39 34 40 35 41 36 42 86 43 37 44
REMARK SMILES IDX 91 45 85 46 87 47 38 48 90 49 84 50 83 51 39 53 71 54 51 55
REMARK SMILES IDX 70 56 52 57 55 58 69 59 88 60 53 61 54 62 68 64 89 65 56 66
REMARK SMILES IDX 40 67 41 68 49 69 42 70 43 71 47 72 50 73 44 74 45 75 48 76
REMARK SMILES IDX 46 77 72 78 73 79 81 80 74 81 75 82 79 83 82 84 76 85 77 86
REMARK SMILES IDX 80 87 78 88 57 89 58 90 66 91 59 92 60 93 64 94 67 95 61 96
REMARK SMILES IDX 62 97 65 98 63 99
REMARK H PARENT 8 13 87 52 55 63
REMARK Flexibility Score: inf
ROOT
ATOM      1  C   UNL     1       2.840   3.035 -13.704  1.00  0.00     0.202 C 
ENDROOT
BRANCH   1   2
ATOM      2  C   UNL     1       2.335   1.798 -12.958  1.00  0.00     0.261 C 
BRANCH   2   3
ATOM      3  O   UNL     1       2.883   1.779 -11.630  1.00  0.00    -0.460 OA
BRANCH   3   4
ATOM      4  C   UNL     1       3.239   0.555 -11.169  1.00  0.00     0.340 C 
ATOM      5  O   UNL     1       2.941  -0.523 -11.665  1.00  0.00    -0.246 OA
BRANCH   4   6
ATOM      6  C   UNL     1       4.084   0.734  -9.973  1.00  0.00     0.085 A 
ATOM      7  C   UNL     1       4.213   1.558  -7.683  1.00  0.00     0.035 A 
ATOM      8  C   UNL     1       5.507   1.030  -7.621  1.00  0.00     0.028 A 
ATOM      9  C   UNL     1       3.525   1.428  -8.887  1.00  0.00     0.043 A 
ATOM     10  C   UNL     1       6.082   0.364  -8.714  1.00  0.00     0.029 A 
ATOM     11  C   UNL     1       5.380   0.191  -9.909  1.00  0.00     0.052 A 
BRANCH   7  12
ATOM     12  N   UNL     1       3.665   2.135  -6.554  1.00  0.00    -0.381 N 
ATOM     13  H   UNL     1       4.282   2.490  -5.874  1.00  0.00     0.160 HD
BRANCH  12  14
ATOM     14  C   UNL     1       2.239   2.256  -6.303  1.00  0.00     0.148 C 
BRANCH  14  15
ATOM     15  C   UNL     1       1.855   1.471  -5.069  1.00  0.00    -0.029 A 
ATOM     16  C   UNL     1       1.020  -0.028  -2.829  1.00  0.00     0.007 A 
ATOM     17  C   UNL     1       1.762  -0.633  -3.847  1.00  0.00     0.015 A 
ATOM     18  C   UNL     1       0.686   1.324  -2.942  1.00  0.00     0.015 A 
ATOM     19  C   UNL     1       2.174   0.109  -4.957  1.00  0.00     0.007 A 
ATOM     20  C   UNL     1       1.102   2.069  -4.051  1.00  0.00     0.007 A 
BRANCH  16  21
ATOM     21  S   UNL     1       0.459  -1.024  -1.460  1.00  0.00    -0.130 SA
ATOM     22  C   UNL     1       1.100  -0.055  -0.070  1.00  0.00     0.091 C 
ENDBRANCH  16  21
ENDBRANCH  14  15
ENDBRANCH  12  14
ENDBRANCH   7  12
BRANCH  11  23
ATOM     23  N   UNL     1       5.965  -0.484 -10.952  1.00  0.00    -0.366 N 
ATOM     24  C   UNL     1       6.836   0.164 -11.927  1.00  0.00     0.145 C 
ATOM     25  C   UNL     1       5.869  -1.940 -11.062  1.00  0.00     0.145 C 
ATOM     26  C   UNL     1       6.387  -0.270 -13.333  1.00  0.00     0.181 C 
ATOM     27  C   UNL     1       5.558  -2.331 -12.520  1.00  0.00     0.181 C 
ATOM     28  O   UNL     1       6.454  -1.704 -13.460  1.00  0.00    -0.378 OA
ENDBRANCH  11  23
ENDBRANCH   4   6
ENDBRANCH   3   4
ENDBRANCH   2   3
ENDBRANCH   1   2
BRANCH   1  29
ATOM     29  O   UNL     1       4.221   3.033 -14.079  1.00  0.00    -0.374 OA
BRANCH  29  30
ATOM     30  C   UNL     1       5.183   3.126 -13.032  1.00  0.00     0.202 C 
BRANCH  30  31
ATOM     31  C   UNL     1       5.506   4.515 -12.473  1.00  0.00     0.261 C 
BRANCH  31  32
ATOM     32  O   UNL     1       4.343   5.290 -12.180  1.00  0.00    -0.460 OA
BRANCH  32  33
ATOM     33  C   UNL     1       3.991   6.141 -13.170  1.00  0.00     0.338 C 
ATOM     34  O   UNL     1       4.595   6.375 -14.209  1.00  0.00    -0.246 OA
BRANCH  33  35
ATOM     35  C   UNL     1       2.646   6.661 -12.897  1.00  0.00     0.060 A 
ATOM     36  C   UNL     1       1.687   6.542 -13.909  1.00  0.00     0.016 A 
ATOM     37  C   UNL     1       2.339   7.279 -11.683  1.00  0.00     0.016 A 
ATOM     38  C   UNL     1       0.420   7.083 -13.727  1.00  0.00     0.010 A 
ATOM     39  C   UNL     1       1.071   7.832 -11.505  1.00  0.00     0.010 A 
ATOM     40  C   UNL     1       0.121   7.764 -12.540  1.00  0.00    -0.014 A 
BRANCH  40  41
ATOM     41  C   UNL     1      -1.131   8.543 -12.447  1.00  0.00     0.031 A 
ATOM     42  C   UNL     1      -1.077  10.020 -12.713  1.00  0.00     0.074 A 
ATOM     43  C   UNL     1      -2.291   7.937 -12.147  1.00  0.00     0.049 A 
ATOM     44  N   UNL     1      -2.034  10.909 -12.657  1.00  0.00    -0.248 NA
ATOM     45  C   UNL     1       0.236  10.569 -13.089  1.00  0.00     0.031 C 
ATOM     46  C   UNL     1      -2.456   6.506 -11.899  1.00  0.00     0.029 A 
ATOM     47  N   UNL     1      -3.551   8.455 -11.993  1.00  0.00    -0.354 N 
ATOM     48  C   UNL     1      -1.439  12.120 -12.982  1.00  0.00     0.074 A 
ATOM     49  C   UNL     1      -0.034  11.861 -13.206  1.00  0.00     0.031 C 
ATOM     50  C   UNL     1      -3.744   6.261 -11.607  1.00  0.00     0.029 A 
ATOM     51  C   UNL     1      -4.485   7.521 -11.621  1.00  0.00     0.049 A 
ATOM     52  H   UNL     1      -3.765   9.405 -12.134  1.00  0.00     0.167 HD
ATOM     53  C   UNL     1      -2.019  13.338 -13.090  1.00  0.00     0.037 A 
ATOM     54  C   UNL     1      -5.785   7.678 -11.307  1.00  0.00     0.037 A 
ATOM     55  C   UNL     1      -3.419  13.583 -12.870  1.00  0.00     0.049 A 
ATOM     56  C   UNL     1      -6.395   9.053 -11.387  1.00  0.00     0.074 A 
ATOM     57  C   UNL     1      -4.117  14.772 -12.985  1.00  0.00     0.029 A 
ATOM     58  N   UNL     1      -4.335  12.616 -12.481  1.00  0.00    -0.354 N 
ATOM     59  N   UNL     1      -5.837  10.189 -11.732  1.00  0.00    -0.248 NA
ATOM     60  C   UNL     1      -7.818   9.168 -11.040  1.00  0.00     0.031 C 
ATOM     61  C   UNL     1      -5.444  14.535 -12.612  1.00  0.00     0.029 A 
ATOM     62  C   UNL     1      -5.586  13.187 -12.322  1.00  0.00     0.049 A 
ATOM     63  H   UNL     1      -4.126  11.664 -12.339  1.00  0.00     0.167 HD
ATOM     64  C   UNL     1      -6.842  11.145 -11.671  1.00  0.00     0.074 A 
ATOM     65  C   UNL     1      -8.049  10.453 -11.269  1.00  0.00     0.031 C 
ATOM     66  C   UNL     1      -6.775  12.475 -11.926  1.00  0.00     0.037 A 
BRANCH  53  67
ATOM     67  C   UNL     1      -1.136  14.501 -13.434  1.00  0.00     0.064 A 
ATOM     68  C   UNL     1      -0.583  14.658 -14.714  1.00  0.00     0.173 A 
ATOM     69  C   UNL     1      -0.865  15.490 -12.476  1.00  0.00     0.173 A 
ATOM     70  F   UNL     1      -0.798  13.732 -15.660  1.00  0.00    -0.203 F 
ATOM     71  C   UNL     1       0.226  15.751 -15.015  1.00  0.00     0.198 A 
ATOM     72  C   UNL     1      -0.079  16.595 -12.789  1.00  0.00     0.198 A 
ATOM     73  F   UNL     1      -1.368  15.387 -11.237  1.00  0.00    -0.203 F 
ATOM     74  F   UNL     1       0.779  15.858 -16.231  1.00  0.00    -0.200 F 
ATOM     75  C   UNL     1       0.471  16.722 -14.056  1.00  0.00     0.200 A 
ATOM     76  F   UNL     1       0.148  17.538 -11.864  1.00  0.00    -0.200 F 
ATOM     77  F   UNL     1       1.243  17.777 -14.350  1.00  0.00    -0.200 F 
ENDBRANCH  53  67
BRANCH  54  78
ATOM     78  C   UNL     1      -6.591   6.506 -10.876  1.00  0.00     0.064 A 
ATOM     79  C   UNL     1      -7.630   6.007 -11.673  1.00  0.00     0.173 A 
ATOM     80  C   UNL     1      -6.348   5.871  -9.649  1.00  0.00     0.173 A 
ATOM     81  F   UNL     1      -7.917   6.595 -12.844  1.00  0.00    -0.203 F 
ATOM     82  C   UNL     1      -8.408   4.930 -11.251  1.00  0.00     0.198 A 
ATOM     83  C   UNL     1      -7.107   4.776  -9.241  1.00  0.00     0.198 A 
ATOM     84  F   UNL     1      -5.365   6.309  -8.848  1.00  0.00    -0.203 F 
ATOM     85  F   UNL     1      -9.426   4.504 -12.011  1.00  0.00    -0.200 F 
ATOM     86  C   UNL     1      -8.142   4.312 -10.038  1.00  0.00     0.200 A 
ATOM     87  F   UNL     1      -6.838   4.175  -8.074  1.00  0.00    -0.200 F 
ATOM     88  F   UNL     1      -8.889   3.276  -9.634  1.00  0.00    -0.200 F 
ENDBRANCH  54  78
BRANCH  66  89
ATOM     89  C   UNL     1      -8.048  13.263 -11.812  1.00  0.00     0.064 A 
ATOM     90  C   UNL     1      -8.630  13.546 -10.568  1.00  0.00     0.173 A 
ATOM     91  C   UNL     1      -8.666  13.780 -12.960  1.00  0.00     0.173 A 
ATOM     92  F   UNL     1      -8.084  13.062  -9.441  1.00  0.00    -0.203 F 
ATOM     93  C   UNL     1      -9.798  14.297 -10.480  1.00  0.00     0.198 A 
ATOM     94  C   UNL     1      -9.817  14.557 -12.866  1.00  0.00     0.198 A 
ATOM     95  F   UNL     1      -8.144  13.545 -14.174  1.00  0.00    -0.203 F 
ATOM     96  F   UNL     1     -10.363  14.516  -9.284  1.00  0.00    -0.200 F 
ATOM     97  C   UNL     1     -10.386  14.809 -11.627  1.00  0.00     0.200 A 
ATOM     98  F   UNL     1     -10.374  15.064 -13.975  1.00  0.00    -0.200 F 
ATOM     99  F   UNL     1     -11.506  15.539 -11.539  1.00  0.00    -0.200 F 
ENDBRANCH  66  89
ENDBRANCH  40  41
ENDBRANCH  33  35
ENDBRANCH  32  33
ENDBRANCH  31  32
ENDBRANCH  30  31
ENDBRANCH  29  30
ENDBRANCH   1  29
TORSDOF 19
