REMARK SMILES O=C(OCCOCCOC(=O)[C@@H]1C=C[C@H](NC(=O)[C@@H]2Cc3ccccc3O2)C1)c1ccc(-c2c3nc(c(-c4c(F)c(F)c(F)c(F)c4F)c4ccc([nH]4)c(-c4c(F)c(F)c(F)c(F)c4F)c4nc(c(-c5c(F)c(F)c(F)c(F)c5F)c5ccc2[nH]5)C=C4)C=C3)cc1
REMARK SMILES IDX 6 1 5 2 4 3 3 4 2 5 1 6 29 7 30 8 91 9 31 10 90 11 32 12
REMARK SMILES IDX 33 13 34 14 84 15 35 16 89 17 83 18 85 19 36 20 88 21 82 22
REMARK SMILES IDX 81 23 37 25 69 26 49 27 68 28 50 29 53 30 67 31 86 32 51 33
REMARK SMILES IDX 52 34 66 36 87 37 54 38 38 39 39 40 47 41 40 42 41 43 45 44
REMARK SMILES IDX 48 45 42 46 43 47 46 48 44 49 70 50 71 51 79 52 72 53 73 54
REMARK SMILES IDX 77 55 80 56 74 57 75 58 78 59 76 60 55 61 56 62 64 63 57 64
REMARK SMILES IDX 58 65 62 66 65 67 59 68 60 69 63 70 61 71 7 72 8 73 9 74
REMARK SMILES IDX 10 75 11 76 12 77 13 78 28 79 14 80 15 81 16 82 17 83 18 85
REMARK SMILES IDX 19 86 20 87 27 88 21 89 26 90 22 91 25 92 23 93 24 94
REMARK H PARENT 85 24 53 35 16 84
REMARK Flexibility Score: inf
ROOT
ATOM      1  O   UNL     1       6.643  -2.381   0.443  1.00  0.00    -0.374 OA
ENDROOT
BRANCH   1   2
ATOM      2  C   UNL     1       5.570  -3.271   0.744  1.00  0.00     0.202 C 
BRANCH   2   3
ATOM      3  C   UNL     1       4.580  -3.515  -0.395  1.00  0.00     0.261 C 
BRANCH   3   4
ATOM      4  O   UNL     1       5.242  -4.086  -1.537  1.00  0.00    -0.460 OA
BRANCH   4   5
ATOM      5  C   UNL     1       5.725  -3.458  -2.631  1.00  0.00     0.338 C 
ATOM      6  O   UNL     1       6.314  -4.103  -3.495  1.00  0.00    -0.246 OA
BRANCH   5   7
ATOM      7  C   UNL     1       5.538  -2.000  -2.857  1.00  0.00     0.060 A 
ATOM      8  C   UNL     1       5.375  -1.064  -1.839  1.00  0.00     0.016 A 
ATOM      9  C   UNL     1       5.578  -1.538  -4.182  1.00  0.00     0.016 A 
ATOM     10  C   UNL     1       5.181   0.269  -2.096  1.00  0.00     0.010 A 
ATOM     11  C   UNL     1       5.424  -0.181  -4.461  1.00  0.00     0.010 A 
ATOM     12  C   UNL     1       5.209   0.711  -3.407  1.00  0.00    -0.014 A 
BRANCH  12  13
ATOM     13  C   UNL     1       4.857   2.113  -3.603  1.00  0.00     0.031 A 
ATOM     14  C   UNL     1       3.460   2.417  -4.014  1.00  0.00     0.074 A 
ATOM     15  C   UNL     1       5.727   3.054  -3.207  1.00  0.00     0.049 A 
ATOM     16  N   UNL     1       2.926   3.558  -4.339  1.00  0.00    -0.248 NA
ATOM     17  C   UNL     1       2.526   1.276  -4.043  1.00  0.00     0.031 C 
ATOM     18  C   UNL     1       7.030   2.788  -2.587  1.00  0.00     0.029 A 
ATOM     19  N   UNL     1       5.636   4.414  -3.230  1.00  0.00    -0.354 N 
ATOM     20  C   UNL     1       1.612   3.265  -4.670  1.00  0.00     0.074 A 
ATOM     21  C   UNL     1       1.415   1.849  -4.474  1.00  0.00     0.031 C 
ATOM     22  C   UNL     1       7.618   3.957  -2.292  1.00  0.00     0.029 A 
ATOM     23  C   UNL     1       6.777   5.035  -2.791  1.00  0.00     0.049 A 
ATOM     24  H   UNL     1       4.834   4.899  -3.530  1.00  0.00     0.167 HD
ATOM     25  C   UNL     1       0.680   4.127  -5.134  1.00  0.00     0.037 A 
ATOM     26  C   UNL     1       7.115   6.333  -2.868  1.00  0.00     0.037 A 
ATOM     27  C   UNL     1       0.956   5.526  -5.309  1.00  0.00     0.049 A 
ATOM     28  C   UNL     1       6.109   7.262  -3.488  1.00  0.00     0.074 A 
ATOM     29  C   UNL     1       0.160   6.511  -5.854  1.00  0.00     0.029 A 
ATOM     30  N   UNL     1       2.151   6.133  -4.929  1.00  0.00    -0.354 N 
ATOM     31  N   UNL     1       4.904   6.986  -3.935  1.00  0.00    -0.248 NA
ATOM     32  C   UNL     1       6.503   8.663  -3.641  1.00  0.00     0.031 C 
ATOM     33  C   UNL     1       0.894   7.704  -5.849  1.00  0.00     0.029 A 
ATOM     34  C   UNL     1       2.124   7.477  -5.244  1.00  0.00     0.049 A 
ATOM     35  H   UNL     1       2.906   5.670  -4.498  1.00  0.00     0.167 HD
ATOM     36  C   UNL     1       4.385   8.178  -4.409  1.00  0.00     0.074 A 
ATOM     37  C   UNL     1       5.411   9.184  -4.187  1.00  0.00     0.031 C 
ATOM     38  C   UNL     1       3.178   8.428  -4.977  1.00  0.00     0.037 A 
BRANCH  25  39
ATOM     39  C   UNL     1      -0.618   3.534  -5.591  1.00  0.00     0.064 A 
ATOM     40  C   UNL     1      -1.548   2.977  -4.699  1.00  0.00     0.173 A 
ATOM     41  C   UNL     1      -0.889   3.431  -6.964  1.00  0.00     0.173 A 
ATOM     42  F   UNL     1      -1.321   3.011  -3.377  1.00  0.00    -0.203 F 
ATOM     43  C   UNL     1      -2.675   2.302  -5.168  1.00  0.00     0.198 A 
ATOM     44  C   UNL     1      -2.031   2.783  -7.428  1.00  0.00     0.198 A 
ATOM     45  F   UNL     1      -0.027   3.932  -7.862  1.00  0.00    -0.203 F 
ATOM     46  F   UNL     1      -3.506   1.706  -4.300  1.00  0.00    -0.200 F 
ATOM     47  C   UNL     1      -2.915   2.207  -6.530  1.00  0.00     0.200 A 
ATOM     48  F   UNL     1      -2.259   2.691  -8.745  1.00  0.00    -0.200 F 
ATOM     49  F   UNL     1      -3.986   1.538  -6.979  1.00  0.00    -0.200 F 
ENDBRANCH  25  39
BRANCH  26  50
ATOM     50  C   UNL     1       8.467   6.767  -2.434  1.00  0.00     0.064 A 
ATOM     51  C   UNL     1       8.648   7.593  -1.319  1.00  0.00     0.173 A 
ATOM     52  C   UNL     1       9.619   6.306  -3.095  1.00  0.00     0.173 A 
ATOM     53  F   UNL     1       7.583   8.072  -0.660  1.00  0.00    -0.203 F 
ATOM     54  C   UNL     1       9.927   7.939  -0.880  1.00  0.00     0.198 A 
ATOM     55  C   UNL     1      10.895   6.628  -2.638  1.00  0.00     0.198 A 
ATOM     56  F   UNL     1       9.505   5.508  -4.167  1.00  0.00    -0.203 F 
ATOM     57  F   UNL     1      10.073   8.748   0.178  1.00  0.00    -0.200 F 
ATOM     58  C   UNL     1      11.048   7.447  -1.533  1.00  0.00     0.200 A 
ATOM     59  F   UNL     1      11.973   6.131  -3.261  1.00  0.00    -0.200 F 
ATOM     60  F   UNL     1      12.275   7.764  -1.096  1.00  0.00    -0.200 F 
ENDBRANCH  26  50
BRANCH  38  61
ATOM     61  C   UNL     1       2.890   9.849  -5.343  1.00  0.00     0.064 A 
ATOM     62  C   UNL     1       3.450  10.441  -6.481  1.00  0.00     0.173 A 
ATOM     63  C   UNL     1       1.964  10.586  -4.591  1.00  0.00     0.173 A 
ATOM     64  F   UNL     1       4.350   9.773  -7.218  1.00  0.00    -0.203 F 
ATOM     65  C   UNL     1       3.093  11.732  -6.854  1.00  0.00     0.198 A 
ATOM     66  C   UNL     1       1.589  11.865  -4.983  1.00  0.00     0.198 A 
ATOM     67  F   UNL     1       1.401  10.050  -3.497  1.00  0.00    -0.203 F 
ATOM     68  F   UNL     1       3.655  12.295  -7.933  1.00  0.00    -0.200 F 
ATOM     69  C   UNL     1       2.155  12.437  -6.113  1.00  0.00     0.200 A 
ATOM     70  F   UNL     1       0.671  12.538  -4.276  1.00  0.00    -0.200 F 
ATOM     71  F   UNL     1       1.794  13.671  -6.488  1.00  0.00    -0.200 F 
ENDBRANCH  38  61
ENDBRANCH  12  13
ENDBRANCH   5   7
ENDBRANCH   4   5
ENDBRANCH   3   4
ENDBRANCH   2   3
ENDBRANCH   1   2
BRANCH   1  72
ATOM     72  C   UNL     1       7.829  -3.011  -0.046  1.00  0.00     0.202 C 
BRANCH  72  73
ATOM     73  C   UNL     1       8.831  -3.224   1.084  1.00  0.00     0.261 C 
BRANCH  73  74
ATOM     74  O   UNL     1       8.415  -4.321   1.918  1.00  0.00    -0.463 OA
BRANCH  74  75
ATOM     75  C   UNL     1       7.673  -4.013   3.021  1.00  0.00     0.312 C 
ATOM     76  O   UNL     1       7.357  -2.887   3.364  1.00  0.00    -0.252 OA
BRANCH  75  77
ATOM     77  C   UNL     1       7.211  -5.266   3.768  1.00  0.00     0.124 C 
ATOM     78  C   UNL     1       8.141  -6.429   3.618  1.00  0.00    -0.014 C 
ATOM     79  C   UNL     1       5.875  -5.836   3.263  1.00  0.00     0.048 C 
ATOM     80  C   UNL     1       7.595  -7.418   2.902  1.00  0.00    -0.006 C 
ATOM     81  C   UNL     1       6.198  -7.111   2.461  1.00  0.00     0.106 C 
BRANCH  81  82
ATOM     82  N   UNL     1       6.220  -6.937   1.024  1.00  0.00    -0.347 N 
ATOM     83  C   UNL     1       5.218  -7.118   0.111  1.00  0.00     0.261 C 
ATOM     84  H   UNL     1       7.083  -6.647   0.649  1.00  0.00     0.164 HD
ATOM     85  O   UNL     1       5.538  -7.118  -1.081  1.00  0.00    -0.271 OA
BRANCH  83  86
ATOM     86  C   UNL     1       3.762  -7.399   0.542  1.00  0.00     0.266 C 
ATOM     87  C   UNL     1       2.756  -6.792  -0.467  1.00  0.00     0.095 C 
ATOM     88  O   UNL     1       3.436  -6.956   1.873  1.00  0.00    -0.480 OA
ATOM     89  C   UNL     1       1.956  -5.929   0.435  1.00  0.00    -0.002 A 
ATOM     90  C   UNL     1       2.402  -6.078   1.733  1.00  0.00     0.123 A 
ATOM     91  C   UNL     1       0.936  -5.040   0.137  1.00  0.00     0.008 A 
ATOM     92  C   UNL     1       1.857  -5.368   2.783  1.00  0.00     0.047 A 
ATOM     93  C   UNL     1       0.372  -4.304   1.185  1.00  0.00     0.001 A 
ATOM     94  C   UNL     1       0.829  -4.468   2.502  1.00  0.00     0.004 A 
ENDBRANCH  83  86
ENDBRANCH  81  82
ENDBRANCH  75  77
ENDBRANCH  74  75
ENDBRANCH  73  74
ENDBRANCH  72  73
ENDBRANCH   1  72
TORSDOF 16
