REMARK SMILES COc1ccc(-c2sc(C(=O)OCCOCCOC(=O)c3ccc(-c4c5nc(c(-c6c(F)c(F)c(F)c(F)c6F)c6ccc([nH]6)c(-c6c(F)c(F)c(F)c(F)c6F)c6nc(c(-c7c(F)c(F)c(F)c(F)c7F)c7ccc4[nH]7)C=C6)C=C5)cc3)cc2C)c(OC)c1
REMARK SMILES IDX 15 1 14 2 13 3 12 4 10 5 11 6 9 7 7 8 8 9 85 10 84 11 86 12
REMARK SMILES IDX 6 13 3 14 4 15 90 16 5 17 87 18 2 19 1 20 88 21 89 22 16 23
REMARK SMILES IDX 17 24 18 25 19 26 20 27 21 28 22 29 83 30 23 31 82 32 24 33
REMARK SMILES IDX 25 34 26 35 76 36 27 37 81 38 75 39 77 40 28 41 80 42 74 43
REMARK SMILES IDX 73 44 29 46 61 47 41 48 60 49 42 50 45 51 59 52 78 53 43 54
REMARK SMILES IDX 44 55 58 57 79 58 46 59 30 60 31 61 39 62 32 63 33 64 37 65
REMARK SMILES IDX 40 66 34 67 35 68 38 69 36 70 62 71 63 72 71 73 64 74 65 75
REMARK SMILES IDX 69 76 72 77 66 78 67 79 70 80 68 81 47 82 48 83 56 84 49 85
REMARK SMILES IDX 50 86 54 87 57 88 51 89 52 90 55 91 53 92
REMARK H PARENT 77 45 45 56
REMARK Flexibility Score: inf
ROOT
ATOM      1  O   UNL     1       3.497  12.016  -1.896  1.00  0.00    -0.374 OA
ENDROOT
BRANCH   1   2
ATOM      2  C   UNL     1       2.158  12.336  -1.518  1.00  0.00     0.202 C 
BRANCH   2   3
ATOM      3  C   UNL     1       1.061  11.752  -2.415  1.00  0.00     0.261 C 
BRANCH   3   4
ATOM      4  O   UNL     1       1.083  10.315  -2.391  1.00  0.00    -0.459 OA
BRANCH   4   5
ATOM      5  C   UNL     1       1.570   9.728  -3.523  1.00  0.00     0.348 C 
ATOM      6  O   UNL     1       1.792  10.325  -4.571  1.00  0.00    -0.245 OA
BRANCH   5   7
ATOM      7  C   UNL     1       1.925   8.340  -3.297  1.00  0.00     0.113 A 
ATOM      8  C   UNL     1       2.050   5.942  -2.663  1.00  0.00     0.042 A 
ATOM      9  S   UNL     1       1.152   7.330  -2.163  1.00  0.00    -0.128 S 
ATOM     10  C   UNL     1       3.023   6.282  -3.596  1.00  0.00    -0.031 A 
ATOM     11  C   UNL     1       2.925   7.662  -3.961  1.00  0.00     0.031 A 
ATOM     12  C   UNL     1       4.024   5.364  -4.218  1.00  0.00     0.046 C 
BRANCH   8  13
ATOM     13  C   UNL     1       1.679   4.611  -2.139  1.00  0.00     0.034 A 
ATOM     14  C   UNL     1       0.885   2.011  -1.380  1.00  0.00     0.122 A 
ATOM     15  C   UNL     1      -0.020   2.867  -1.998  1.00  0.00     0.047 A 
ATOM     16  C   UNL     1       2.192   2.443  -1.144  1.00  0.00     0.093 A 
ATOM     17  C   UNL     1       0.368   4.154  -2.366  1.00  0.00     0.017 A 
ATOM     18  C   UNL     1       2.601   3.736  -1.522  1.00  0.00     0.131 A 
BRANCH  14  19
ATOM     19  O   UNL     1       0.395   0.765  -1.100  1.00  0.00    -0.497 OA
ATOM     20  C   UNL     1       1.016   0.074  -0.023  1.00  0.00     0.278 C 
ENDBRANCH  14  19
BRANCH  18  21
ATOM     21  O   UNL     1       3.872   4.218  -1.314  1.00  0.00    -0.496 OA
ATOM     22  C   UNL     1       4.891   3.269  -1.022  1.00  0.00     0.278 C 
ENDBRANCH  18  21
ENDBRANCH   8  13
ENDBRANCH   5   7
ENDBRANCH   4   5
ENDBRANCH   3   4
ENDBRANCH   2   3
ENDBRANCH   1   2
BRANCH   1  23
ATOM     23  C   UNL     1       4.017  10.772  -1.417  1.00  0.00     0.202 C 
BRANCH  23  24
ATOM     24  C   UNL     1       4.536  10.778   0.025  1.00  0.00     0.261 C 
BRANCH  24  25
ATOM     25  O   UNL     1       3.458  10.923   0.968  1.00  0.00    -0.460 OA
BRANCH  25  26
ATOM     26  C   UNL     1       3.435  12.101   1.633  1.00  0.00     0.338 C 
ATOM     27  O   UNL     1       4.274  12.986   1.605  1.00  0.00    -0.246 OA
BRANCH  26  28
ATOM     28  C   UNL     1       2.130  12.274   2.302  1.00  0.00     0.060 A 
ATOM     29  C   UNL     1       1.473  13.498   2.119  1.00  0.00     0.016 A 
ATOM     30  C   UNL     1       1.583  11.294   3.134  1.00  0.00     0.016 A 
ATOM     31  C   UNL     1       0.296  13.769   2.812  1.00  0.00     0.010 A 
ATOM     32  C   UNL     1       0.403  11.571   3.834  1.00  0.00     0.010 A 
ATOM     33  C   UNL     1      -0.225  12.823   3.704  1.00  0.00    -0.014 A 
BRANCH  33  34
ATOM     34  C   UNL     1      -1.344  13.206   4.598  1.00  0.00     0.031 A 
ATOM     35  C   UNL     1      -1.041  13.624   6.011  1.00  0.00     0.074 A 
ATOM     36  C   UNL     1      -2.610  13.220   4.148  1.00  0.00     0.049 A 
ATOM     37  N   UNL     1      -1.859  13.997   6.962  1.00  0.00    -0.248 NA
ATOM     38  C   UNL     1       0.377  13.619   6.404  1.00  0.00     0.031 C 
ATOM     39  C   UNL     1      -3.027  12.867   2.793  1.00  0.00     0.029 A 
ATOM     40  N   UNL     1      -3.780  13.544   4.789  1.00  0.00    -0.354 N 
ATOM     41  C   UNL     1      -1.058  14.269   8.063  1.00  0.00     0.074 A 
ATOM     42  C   UNL     1       0.307  13.987   7.674  1.00  0.00     0.031 C 
ATOM     43  C   UNL     1      -4.363  12.986   2.705  1.00  0.00     0.029 A 
ATOM     44  C   UNL     1      -4.895  13.398   4.003  1.00  0.00     0.049 A 
ATOM     45  H   UNL     1      -3.816  13.851   5.724  1.00  0.00     0.167 HD
ATOM     46  C   UNL     1      -1.426  14.723   9.285  1.00  0.00     0.037 A 
ATOM     47  C   UNL     1      -6.198  13.564   4.304  1.00  0.00     0.037 A 
ATOM     48  C   UNL     1      -2.784  15.004   9.671  1.00  0.00     0.049 A 
ATOM     49  C   UNL     1      -6.587  14.011   5.689  1.00  0.00     0.074 A 
ATOM     50  C   UNL     1      -3.256  15.491  10.878  1.00  0.00     0.029 A 
ATOM     51  N   UNL     1      -3.891  14.815   8.857  1.00  0.00    -0.354 N 
ATOM     52  N   UNL     1      -5.821  14.299   6.713  1.00  0.00    -0.248 NA
ATOM     53  C   UNL     1      -8.025  14.162   5.956  1.00  0.00     0.031 C 
ATOM     54  C   UNL     1      -4.652  15.551  10.810  1.00  0.00     0.029 A 
ATOM     55  C   UNL     1      -5.047  15.150   9.544  1.00  0.00     0.049 A 
ATOM     56  H   UNL     1      -3.860  14.491   7.928  1.00  0.00     0.167 HD
ATOM     57  C   UNL     1      -6.678  14.688   7.734  1.00  0.00     0.074 A 
ATOM     58  C   UNL     1      -8.023  14.614   7.202  1.00  0.00     0.031 C 
ATOM     59  C   UNL     1      -6.378  15.074   8.999  1.00  0.00     0.037 A 
BRANCH  46  60
ATOM     60  C   UNL     1      -0.343  14.922  10.303  1.00  0.00     0.064 A 
ATOM     61  C   UNL     1       0.578  15.976  10.203  1.00  0.00     0.173 A 
ATOM     62  C   UNL     1      -0.243  14.066  11.410  1.00  0.00     0.173 A 
ATOM     63  F   UNL     1       0.534  16.814   9.157  1.00  0.00    -0.203 F 
ATOM     64  C   UNL     1       1.575  16.149  11.160  1.00  0.00     0.198 A 
ATOM     65  C   UNL     1       0.738  14.258  12.379  1.00  0.00     0.198 A 
ATOM     66  F   UNL     1      -1.101  13.045  11.555  1.00  0.00    -0.203 F 
ATOM     67  F   UNL     1       2.472  17.135  11.021  1.00  0.00    -0.200 F 
ATOM     68  C   UNL     1       1.650  15.294  12.250  1.00  0.00     0.200 A 
ATOM     69  F   UNL     1       0.802  13.438  13.437  1.00  0.00    -0.200 F 
ATOM     70  F   UNL     1       2.607  15.465  13.173  1.00  0.00    -0.200 F 
ENDBRANCH  46  60
BRANCH  47  71
ATOM     71  C   UNL     1      -7.234  13.301   3.272  1.00  0.00     0.064 A 
ATOM     72  C   UNL     1      -7.989  14.345   2.722  1.00  0.00     0.173 A 
ATOM     73  C   UNL     1      -7.501  11.998   2.828  1.00  0.00     0.173 A 
ATOM     74  F   UNL     1      -7.790  15.606   3.135  1.00  0.00    -0.203 F 
ATOM     75  C   UNL     1      -8.982  14.095   1.777  1.00  0.00     0.198 A 
ATOM     76  C   UNL     1      -8.475  11.751   1.864  1.00  0.00     0.198 A 
ATOM     77  F   UNL     1      -6.808  10.963   3.327  1.00  0.00    -0.203 F 
ATOM     78  F   UNL     1      -9.720  15.106   1.300  1.00  0.00    -0.200 F 
ATOM     79  C   UNL     1      -9.220  12.798   1.344  1.00  0.00     0.200 A 
ATOM     80  F   UNL     1      -8.695  10.498   1.442  1.00  0.00    -0.200 F 
ATOM     81  F   UNL     1     -10.173  12.558   0.434  1.00  0.00    -0.200 F 
ENDBRANCH  47  71
BRANCH  59  82
ATOM     82  C   UNL     1      -7.521  15.476   9.887  1.00  0.00     0.064 A 
ATOM     83  C   UNL     1      -8.418  14.530  10.405  1.00  0.00     0.173 A 
ATOM     84  C   UNL     1      -7.700  16.819  10.251  1.00  0.00     0.173 A 
ATOM     85  F   UNL     1      -8.299  13.235  10.076  1.00  0.00    -0.203 F 
ATOM     86  C   UNL     1      -9.467  14.919  11.235  1.00  0.00     0.198 A 
ATOM     87  C   UNL     1      -8.732  17.200  11.104  1.00  0.00     0.198 A 
ATOM     88  F   UNL     1      -6.865  17.762   9.788  1.00  0.00    -0.203 F 
ATOM     89  F   UNL     1     -10.340  14.005  11.680  1.00  0.00    -0.200 F 
ATOM     90  C   UNL     1      -9.619  16.252  11.588  1.00  0.00     0.200 A 
ATOM     91  F   UNL     1      -8.869  18.486  11.454  1.00  0.00    -0.200 F 
ATOM     92  F   UNL     1     -10.626  16.623  12.391  1.00  0.00    -0.200 F 
ENDBRANCH  59  82
ENDBRANCH  33  34
ENDBRANCH  26  28
ENDBRANCH  25  26
ENDBRANCH  24  25
ENDBRANCH  23  24
ENDBRANCH   1  23
TORSDOF 17
