REMARK SMILES O=C(OCCOCCOC(=O)c1cccnc1C[N@@H+]1CCC[C@H]1c1ccccn1)c1ccc(-c2c3nc(c(-c4c(F)c(F)c(F)c(F)c4F)c4ccc([nH]4)c(-c4c(F)c(F)c(F)c(F)c4F)c4nc(c(-c5c(F)c(F)c(F)c(F)c5F)c5ccc2[nH]5)C=C4)C=C3)cc1
REMARK SMILES IDX 7 1 6 2 5 3 4 4 3 5 2 6 1 7 30 8 31 9 92 10 32 11 91 12
REMARK SMILES IDX 33 13 34 14 35 15 85 16 36 17 90 18 84 19 86 20 37 21 89 22
REMARK SMILES IDX 83 23 82 24 38 26 70 27 50 28 69 29 51 30 54 31 68 32 87 33
REMARK SMILES IDX 52 34 53 35 67 37 88 38 55 39 39 40 40 41 48 42 41 43 42 44
REMARK SMILES IDX 46 45 49 46 43 47 44 48 47 49 45 50 71 51 72 52 80 53 73 54
REMARK SMILES IDX 74 55 78 56 81 57 75 58 76 59 79 60 77 61 56 62 57 63 65 64
REMARK SMILES IDX 58 65 59 66 63 67 66 68 60 69 61 70 64 71 62 72 8 73 9 74
REMARK SMILES IDX 10 75 11 76 12 77 13 78 17 79 14 80 16 81 15 82 18 83 19 84
REMARK SMILES IDX 20 85 23 86 21 88 22 89 24 90 25 91 29 92 26 93 28 94 27 95
REMARK H PARENT 86 25 54 36 19 87
REMARK Flexibility Score: inf
ROOT
ATOM      1  C   UNL     1       2.871   2.684  -2.404  1.00  0.00     0.202 C 
ENDROOT
BRANCH   1   2
ATOM      2  O   UNL     1       4.035   2.673  -1.596  1.00  0.00    -0.374 OA
BRANCH   2   3
ATOM      3  C   UNL     1       4.531   1.439  -1.090  1.00  0.00     0.202 C 
BRANCH   3   4
ATOM      4  C   UNL     1       3.570   0.309  -0.637  1.00  0.00     0.261 C 
BRANCH   4   5
ATOM      5  O   UNL     1       2.173   0.641  -0.413  1.00  0.00    -0.460 OA
BRANCH   5   6
ATOM      6  C   UNL     1       1.590   0.666   0.816  1.00  0.00     0.338 C 
ATOM      7  O   UNL     1       0.483   0.198   1.045  1.00  0.00    -0.246 OA
BRANCH   6   8
ATOM      8  C   UNL     1       2.333   1.403   1.857  1.00  0.00     0.060 A 
ATOM      9  C   UNL     1       3.243   2.352   1.450  1.00  0.00     0.016 A 
ATOM     10  C   UNL     1       2.159   1.185   3.222  1.00  0.00     0.016 A 
ATOM     11  C   UNL     1       4.244   2.754   2.293  1.00  0.00     0.010 A 
ATOM     12  C   UNL     1       2.990   1.856   4.132  1.00  0.00     0.010 A 
ATOM     13  C   UNL     1       4.086   2.604   3.666  1.00  0.00    -0.014 A 
BRANCH  13  14
ATOM     14  C   UNL     1       5.099   3.259   4.532  1.00  0.00     0.031 A 
ATOM     15  C   UNL     1       5.831   2.456   5.564  1.00  0.00     0.074 A 
ATOM     16  C   UNL     1       5.451   4.540   4.280  1.00  0.00     0.049 A 
ATOM     17  N   UNL     1       6.662   2.867   6.484  1.00  0.00    -0.248 NA
ATOM     18  C   UNL     1       5.586   1.005   5.585  1.00  0.00     0.031 C 
ATOM     19  C   UNL     1       4.858   5.396   3.242  1.00  0.00     0.029 A 
ATOM     20  N   UNL     1       6.444   5.327   4.802  1.00  0.00    -0.354 N 
ATOM     21  C   UNL     1       6.958   1.749   7.250  1.00  0.00     0.074 A 
ATOM     22  C   UNL     1       6.245   0.633   6.672  1.00  0.00     0.031 C 
ATOM     23  C   UNL     1       5.598   6.500   3.093  1.00  0.00     0.029 A 
ATOM     24  C   UNL     1       6.594   6.530   4.149  1.00  0.00     0.049 A 
ATOM     25  H   UNL     1       6.998   5.058   5.570  1.00  0.00     0.167 HD
ATOM     26  C   UNL     1       7.740   1.686   8.354  1.00  0.00     0.037 A 
ATOM     27  C   UNL     1       7.406   7.570   4.409  1.00  0.00     0.037 A 
ATOM     28  C   UNL     1       8.488   2.808   8.854  1.00  0.00     0.049 A 
ATOM     29  C   UNL     1       8.268   7.472   5.631  1.00  0.00     0.074 A 
ATOM     30  C   UNL     1       9.264   2.901   9.993  1.00  0.00     0.029 A 
ATOM     31  N   UNL     1       8.572   4.038   8.209  1.00  0.00    -0.354 N 
ATOM     32  N   UNL     1       8.428   6.456   6.446  1.00  0.00    -0.248 NA
ATOM     33  C   UNL     1       9.017   8.674   6.006  1.00  0.00     0.031 C 
ATOM     34  C   UNL     1       9.798   4.194  10.051  1.00  0.00     0.029 A 
ATOM     35  C   UNL     1       9.390   4.895   8.925  1.00  0.00     0.049 A 
ATOM     36  H   UNL     1       8.117   4.266   7.366  1.00  0.00     0.167 HD
ATOM     37  C   UNL     1       9.290   6.894   7.435  1.00  0.00     0.074 A 
ATOM     38  C   UNL     1       9.649   8.259   7.095  1.00  0.00     0.031 C 
ATOM     39  C   UNL     1       9.730   6.240   8.537  1.00  0.00     0.037 A 
BRANCH  26  40
ATOM     40  C   UNL     1       7.736   0.396   9.120  1.00  0.00     0.064 A 
ATOM     41  C   UNL     1       8.359  -0.766   8.645  1.00  0.00     0.173 A 
ATOM     42  C   UNL     1       7.047   0.316  10.342  1.00  0.00     0.173 A 
ATOM     43  F   UNL     1       9.005  -0.754   7.469  1.00  0.00    -0.203 F 
ATOM     44  C   UNL     1       8.261  -1.969   9.344  1.00  0.00     0.198 A 
ATOM     45  C   UNL     1       6.975  -0.879  11.052  1.00  0.00     0.198 A 
ATOM     46  F   UNL     1       6.427   1.397  10.840  1.00  0.00    -0.203 F 
ATOM     47  F   UNL     1       8.806  -3.083   8.837  1.00  0.00    -0.200 F 
ATOM     48  C   UNL     1       7.572  -2.024  10.547  1.00  0.00     0.200 A 
ATOM     49  F   UNL     1       6.309  -0.928  12.214  1.00  0.00    -0.200 F 
ATOM     50  F   UNL     1       7.467  -3.184  11.210  1.00  0.00    -0.200 F 
ENDBRANCH  26  40
BRANCH  27  51
ATOM     51  C   UNL     1       7.373   8.793   3.559  1.00  0.00     0.064 A 
ATOM     52  C   UNL     1       8.501   9.201   2.832  1.00  0.00     0.173 A 
ATOM     53  C   UNL     1       6.213   9.576   3.440  1.00  0.00     0.173 A 
ATOM     54  F   UNL     1       9.645   8.507   2.925  1.00  0.00    -0.203 F 
ATOM     55  C   UNL     1       8.469  10.341   2.029  1.00  0.00     0.198 A 
ATOM     56  C   UNL     1       6.170  10.691   2.606  1.00  0.00     0.198 A 
ATOM     57  F   UNL     1       5.103   9.242   4.116  1.00  0.00    -0.203 F 
ATOM     58  F   UNL     1       9.575  10.732   1.380  1.00  0.00    -0.200 F 
ATOM     59  C   UNL     1       7.301  11.078   1.907  1.00  0.00     0.200 A 
ATOM     60  F   UNL     1       5.031  11.385   2.478  1.00  0.00    -0.200 F 
ATOM     61  F   UNL     1       7.267  12.165   1.125  1.00  0.00    -0.200 F 
ENDBRANCH  27  51
BRANCH  39  62
ATOM     62  C   UNL     1      10.678   6.992   9.416  1.00  0.00     0.064 A 
ATOM     63  C   UNL     1      10.235   8.022  10.258  1.00  0.00     0.173 A 
ATOM     64  C   UNL     1      12.040   6.662   9.426  1.00  0.00     0.173 A 
ATOM     65  F   UNL     1       8.943   8.383  10.262  1.00  0.00    -0.203 F 
ATOM     66  C   UNL     1      11.132   8.716  11.062  1.00  0.00     0.198 A 
ATOM     67  C   UNL     1      12.929   7.340  10.251  1.00  0.00     0.198 A 
ATOM     68  F   UNL     1      12.504   5.683   8.636  1.00  0.00    -0.203 F 
ATOM     69  F   UNL     1      10.700   9.730  11.824  1.00  0.00    -0.200 F 
ATOM     70  C   UNL     1      12.476   8.370  11.063  1.00  0.00     0.200 A 
ATOM     71  F   UNL     1      14.225   7.002  10.257  1.00  0.00    -0.200 F 
ATOM     72  F   UNL     1      13.339   9.039  11.841  1.00  0.00    -0.200 F 
ENDBRANCH  39  62
ENDBRANCH  13  14
ENDBRANCH   6   8
ENDBRANCH   5   6
ENDBRANCH   4   5
ENDBRANCH   3   4
ENDBRANCH   2   3
ENDBRANCH   1   2
BRANCH   1  73
ATOM     73  C   UNL     1       3.040   2.168  -3.824  1.00  0.00     0.261 C 
BRANCH  73  74
ATOM     74  O   UNL     1       3.416   0.784  -3.909  1.00  0.00    -0.460 OA
BRANCH  74  75
ATOM     75  C   UNL     1       4.721   0.563  -4.174  1.00  0.00     0.340 C 
ATOM     76  O   UNL     1       5.648   1.365  -4.112  1.00  0.00    -0.246 OA
BRANCH  75  77
ATOM     77  C   UNL     1       4.891  -0.765  -4.751  1.00  0.00     0.087 A 
ATOM     78  C   UNL     1       4.450  -0.893  -6.076  1.00  0.00     0.019 A 
ATOM     79  C   UNL     1       5.646  -1.787  -4.165  1.00  0.00     0.109 A 
ATOM     80  C   UNL     1       4.812  -2.008  -6.812  1.00  0.00     0.021 A 
ATOM     81  N   UNL     1       6.026  -2.861  -4.910  1.00  0.00    -0.254 NA
ATOM     82  C   UNL     1       5.614  -2.947  -6.196  1.00  0.00     0.111 A 
BRANCH  79  83
ATOM     83  C   UNL     1       6.179  -1.730  -2.738  1.00  0.00     0.321 C 
BRANCH  83  84
ATOM     84  N   UNL     1       5.978  -2.883  -1.824  1.00  0.00    -0.322 N 
ATOM     85  C   UNL     1       6.641  -4.115  -2.250  1.00  0.00     0.263 C 
ATOM     86  C   UNL     1       4.572  -3.212  -1.507  1.00  0.00     0.234 C 
ATOM     87  H   UNL     1       6.421  -2.529  -0.976  1.00  0.00     0.349 HD
ATOM     88  C   UNL     1       5.562  -5.046  -2.770  1.00  0.00     0.068 C 
ATOM     89  C   UNL     1       4.277  -4.589  -2.109  1.00  0.00     0.078 C 
BRANCH  86  90
ATOM     90  C   UNL     1       4.253  -3.224  -0.005  1.00  0.00     0.098 A 
ATOM     91  C   UNL     1       5.046  -3.909   0.917  1.00  0.00     0.030 A 
ATOM     92  N   UNL     1       3.097  -2.618   0.376  1.00  0.00    -0.255 NA
ATOM     93  C   UNL     1       4.646  -3.976   2.252  1.00  0.00     0.004 A 
ATOM     94  C   UNL     1       2.732  -2.698   1.678  1.00  0.00     0.111 A 
ATOM     95  C   UNL     1       3.467  -3.358   2.644  1.00  0.00     0.020 A 
ENDBRANCH  86  90
ENDBRANCH  83  84
ENDBRANCH  79  83
ENDBRANCH  75  77
ENDBRANCH  74  75
ENDBRANCH  73  74
ENDBRANCH   1  73
TORSDOF 17
