REMARK SMILES COc1ccc(-c2ccc(C#N)c(S[C@@H](C)C(=O)OCCOCCOC(=O)c3ccc(-c4c5nc(c(-c6c(F)c(F)c(F)c(F)c6F)c6ccc([nH]6)c(-c6c(F)c(F)c(F)c(F)c6F)c6nc(c(-c7c(F)c(F)c(F)c(F)c7F)c7ccc4[nH]7)C=C6)C=C5)cc3)n2)cc1
REMARK SMILES IDX 21 1 20 2 19 3 17 4 18 5 15 6 16 7 14 8 13 9 7 10 8 11 91 12
REMARK SMILES IDX 9 13 10 14 6 15 3 16 4 17 93 18 5 19 92 20 2 21 1 22 11 23
REMARK SMILES IDX 12 24 22 25 23 26 24 27 25 28 26 29 27 30 28 31 29 32 90 33
REMARK SMILES IDX 30 34 89 35 31 36 32 37 33 38 83 39 34 40 88 41 82 42 84 43
REMARK SMILES IDX 35 44 87 45 81 46 80 47 36 49 68 50 48 51 67 52 49 53 52 54
REMARK SMILES IDX 66 55 85 56 50 57 51 58 65 60 86 61 53 62 37 63 38 64 46 65
REMARK SMILES IDX 39 66 40 67 44 68 47 69 41 70 42 71 45 72 43 73 69 74 70 75
REMARK SMILES IDX 78 76 71 77 72 78 76 79 79 80 73 81 74 82 77 83 75 84 54 85
REMARK SMILES IDX 55 86 63 87 56 88 57 89 61 90 64 91 58 92 59 93 62 94 60 95
REMARK H PARENT 84 48 52 59
REMARK Flexibility Score: inf
ROOT
ATOM      1  C   UNL     1       0.809   9.631   8.297  1.00  0.00     0.202 C 
ENDROOT
BRANCH   1   2
ATOM      2  C   UNL     1       2.113   9.019   8.806  1.00  0.00     0.261 C 
BRANCH   2   3
ATOM      3  O   UNL     1       2.039   7.587   8.887  1.00  0.00    -0.462 OA
BRANCH   3   4
ATOM      4  C   UNL     1       2.203   7.061  10.131  1.00  0.00     0.319 C 
ATOM      5  O   UNL     1       2.423   7.730  11.137  1.00  0.00    -0.251 OA
BRANCH   4   6
ATOM      6  C   UNL     1       2.024   5.555  10.201  1.00  0.00     0.160 C 
ATOM      7  C   UNL     1       3.172   4.827  10.886  1.00  0.00     0.032 C 
BRANCH   6   8
ATOM      8  S   UNL     1       1.359   4.662   8.746  1.00  0.00    -0.090 SA
BRANCH   8   9
ATOM      9  C   UNL     1       2.374   4.845   7.291  1.00  0.00     0.115 A 
ATOM     10  C   UNL     1       2.366   4.151   5.027  1.00  0.00     0.072 A 
ATOM     11  C   UNL     1       3.503   4.899   4.761  1.00  0.00     0.030 A 
ATOM     12  N   UNL     1       1.785   4.164   6.251  1.00  0.00    -0.240 NA
ATOM     13  C   UNL     1       4.109   5.584   5.798  1.00  0.00     0.024 A 
ATOM     14  C   UNL     1       3.576   5.521   7.093  1.00  0.00     0.084 A 
BRANCH  10  15
ATOM     15  C   UNL     1       1.790   3.290   3.979  1.00  0.00     0.000 A 
ATOM     16  C   UNL     1       0.841   1.822   1.745  1.00  0.00     0.118 A 
ATOM     17  C   UNL     1      -0.022   2.631   2.489  1.00  0.00     0.047 A 
ATOM     18  C   UNL     1       2.170   1.711   2.139  1.00  0.00     0.047 A 
ATOM     19  C   UNL     1       0.439   3.334   3.612  1.00  0.00     0.014 A 
ATOM     20  C   UNL     1       2.633   2.436   3.242  1.00  0.00     0.014 A 
BRANCH  16  21
ATOM     21  O   UNL     1       0.294   1.234   0.638  1.00  0.00    -0.497 OA
ATOM     22  C   UNL     1       0.938   0.055   0.166  1.00  0.00     0.278 C 
ENDBRANCH  16  21
ENDBRANCH  10  15
BRANCH  14  23
ATOM     23  C   UNL     1       4.371   6.138   8.102  1.00  0.00     0.102 C 
ATOM     24  N   UNL     1       5.065   6.653   8.873  1.00  0.00    -0.192 NA
ENDBRANCH  14  23
ENDBRANCH   8   9
ENDBRANCH   6   8
ENDBRANCH   4   6
ENDBRANCH   3   4
ENDBRANCH   2   3
ENDBRANCH   1   2
BRANCH   1  25
ATOM     25  O   UNL     1      -0.393   9.339   9.000  1.00  0.00    -0.374 OA
BRANCH  25  26
ATOM     26  C   UNL     1      -0.877   7.998   9.014  1.00  0.00     0.202 C 
BRANCH  26  27
ATOM     27  C   UNL     1      -1.339   7.357   7.696  1.00  0.00     0.261 C 
BRANCH  27  28
ATOM     28  O   UNL     1      -0.347   7.344   6.655  1.00  0.00    -0.460 OA
BRANCH  28  29
ATOM     29  C   UNL     1      -0.596   8.198   5.632  1.00  0.00     0.338 C 
ATOM     30  O   UNL     1      -1.528   8.975   5.518  1.00  0.00    -0.246 OA
BRANCH  29  31
ATOM     31  C   UNL     1       0.527   8.186   4.681  1.00  0.00     0.060 A 
ATOM     32  C   UNL     1       1.292   9.346   4.524  1.00  0.00     0.016 A 
ATOM     33  C   UNL     1       0.724   7.090   3.848  1.00  0.00     0.016 A 
ATOM     34  C   UNL     1       2.242   9.420   3.506  1.00  0.00     0.010 A 
ATOM     35  C   UNL     1       1.683   7.159   2.834  1.00  0.00     0.010 A 
ATOM     36  C   UNL     1       2.425   8.337   2.635  1.00  0.00    -0.014 A 
BRANCH  36  37
ATOM     37  C   UNL     1       3.293   8.480   1.439  1.00  0.00     0.031 A 
ATOM     38  C   UNL     1       2.664   8.545   0.073  1.00  0.00     0.074 A 
ATOM     39  C   UNL     1       4.630   8.564   1.570  1.00  0.00     0.049 A 
ATOM     40  N   UNL     1       3.236   8.608  -1.103  1.00  0.00    -0.248 NA
ATOM     41  C   UNL     1       1.194   8.528   0.026  1.00  0.00     0.031 C 
ATOM     42  C   UNL     1       5.356   8.551   2.838  1.00  0.00     0.029 A 
ATOM     43  N   UNL     1       5.614   8.671   0.619  1.00  0.00    -0.354 N 
ATOM     44  C   UNL     1       2.197   8.624  -2.027  1.00  0.00     0.074 A 
ATOM     45  C   UNL     1       0.964   8.520  -1.278  1.00  0.00     0.031 C 
ATOM     46  C   UNL     1       6.673   8.646   2.587  1.00  0.00     0.029 A 
ATOM     47  C   UNL     1       6.884   8.681   1.142  1.00  0.00     0.049 A 
ATOM     48  H   UNL     1       5.428   8.735  -0.345  1.00  0.00     0.167 HD
ATOM     49  C   UNL     1       2.266   8.728  -3.376  1.00  0.00     0.037 A 
ATOM     50  C   UNL     1       8.081   8.691   0.523  1.00  0.00     0.037 A 
ATOM     51  C   UNL     1       3.497   8.835  -4.117  1.00  0.00     0.049 A 
ATOM     52  C   UNL     1       8.132   8.727  -0.984  1.00  0.00     0.074 A 
ATOM     53  C   UNL     1       3.671   8.971  -5.483  1.00  0.00     0.029 A 
ATOM     54  N   UNL     1       4.765   8.805  -3.554  1.00  0.00    -0.354 N 
ATOM     55  N   UNL     1       7.146   8.771  -1.847  1.00  0.00    -0.248 NA
ATOM     56  C   UNL     1       9.466   8.717  -1.602  1.00  0.00     0.031 C 
ATOM     57  C   UNL     1       5.043   8.945  -5.753  1.00  0.00     0.029 A 
ATOM     58  C   UNL     1       5.726   8.880  -4.550  1.00  0.00     0.049 A 
ATOM     59  H   UNL     1       4.954   8.739  -2.590  1.00  0.00     0.167 HD
ATOM     60  C   UNL     1       7.739   8.834  -3.103  1.00  0.00     0.074 A 
ATOM     61  C   UNL     1       9.170   8.835  -2.888  1.00  0.00     0.031 C 
ATOM     62  C   UNL     1       7.150   8.888  -4.324  1.00  0.00     0.037 A 
BRANCH  49  63
ATOM     63  C   UNL     1       0.975   8.699  -4.146  1.00  0.00     0.064 A 
ATOM     64  C   UNL     1       0.039   9.743  -4.069  1.00  0.00     0.173 A 
ATOM     65  C   UNL     1       0.687   7.627  -5.005  1.00  0.00     0.173 A 
ATOM     66  F   UNL     1       0.258  10.789  -3.258  1.00  0.00    -0.203 F 
ATOM     67  C   UNL     1      -1.148   9.697  -4.797  1.00  0.00     0.198 A 
ATOM     68  C   UNL     1      -0.482   7.603  -5.760  1.00  0.00     0.198 A 
ATOM     69  F   UNL     1       1.549   6.606  -5.125  1.00  0.00    -0.203 F 
ATOM     70  F   UNL     1      -2.051  10.678  -4.664  1.00  0.00    -0.200 F 
ATOM     71  C   UNL     1      -1.404   8.633  -5.648  1.00  0.00     0.200 A 
ATOM     72  F   UNL     1      -0.716   6.583  -6.598  1.00  0.00    -0.200 F 
ATOM     73  F   UNL     1      -2.541   8.596  -6.356  1.00  0.00    -0.200 F 
ENDBRANCH  49  63
BRANCH  50  74
ATOM     74  C   UNL     1       9.334   8.650   1.324  1.00  0.00     0.064 A 
ATOM     75  C   UNL     1      10.232   9.727   1.323  1.00  0.00     0.173 A 
ATOM     76  C   UNL     1       9.674   7.522   2.086  1.00  0.00     0.173 A 
ATOM     77  F   UNL     1       9.965  10.820   0.593  1.00  0.00    -0.203 F 
ATOM     78  C   UNL     1      11.432   9.666   2.029  1.00  0.00     0.198 A 
ATOM     79  C   UNL     1      10.856   7.477   2.822  1.00  0.00     0.198 A 
ATOM     80  F   UNL     1       8.850   6.464   2.126  1.00  0.00    -0.203 F 
ATOM     81  F   UNL     1      12.299  10.685   1.960  1.00  0.00    -0.200 F 
ATOM     82  C   UNL     1      11.740   8.543   2.783  1.00  0.00     0.200 A 
ATOM     83  F   UNL     1      11.139   6.397   3.563  1.00  0.00    -0.200 F 
ATOM     84  F   UNL     1      12.893   8.486   3.463  1.00  0.00    -0.200 F 
ENDBRANCH  50  74
BRANCH  62  85
ATOM     85  C   UNL     1       8.048   9.005  -5.526  1.00  0.00     0.064 A 
ATOM     86  C   UNL     1       8.883   7.955  -5.937  1.00  0.00     0.173 A 
ATOM     87  C   UNL     1       8.042  10.175  -6.302  1.00  0.00     0.173 A 
ATOM     88  F   UNL     1       8.938   6.818  -5.227  1.00  0.00    -0.203 F 
ATOM     89  C   UNL     1       9.701   8.085  -7.057  1.00  0.00     0.198 A 
ATOM     90  C   UNL     1       8.830  10.287  -7.444  1.00  0.00     0.198 A 
ATOM     91  F   UNL     1       7.256  11.209  -5.963  1.00  0.00    -0.203 F 
ATOM     92  F   UNL     1      10.535   7.091  -7.394  1.00  0.00    -0.200 F 
ATOM     93  C   UNL     1       9.667   9.246  -7.814  1.00  0.00     0.200 A 
ATOM     94  F   UNL     1       8.778  11.402  -8.186  1.00  0.00    -0.200 F 
ATOM     95  F   UNL     1      10.448   9.365  -8.897  1.00  0.00    -0.200 F 
ENDBRANCH  62  85
ENDBRANCH  36  37
ENDBRANCH  29  31
ENDBRANCH  28  29
ENDBRANCH  27  28
ENDBRANCH  26  27
ENDBRANCH  25  26
ENDBRANCH   1  25
TORSDOF 19
