REMARK SMILES CCc1ccc(C[N@H+]2CC[C@@H](C(=O)OCCOCCOC(=O)c3ccc(-c4c5nc(c(-c6c(F)c(F)c(F)c(F)c6F)c6ccc([nH]6)c(-c6c(F)c(F)c(F)c(F)c6F)c6nc(c(-c7c(F)c(F)c(F)c(F)c7F)c7ccc4[nH]7)C=C6)C=C5)cc3)[C@@H]2C)cc1
REMARK SMILES IDX 16 1 15 2 14 3 12 4 13 5 11 6 8 7 9 8 86 9 10 11 87 12 7 13
REMARK SMILES IDX 6 14 3 15 4 16 89 17 5 18 88 19 2 20 1 21 17 22 18 23 19 24
REMARK SMILES IDX 20 25 21 26 22 27 23 28 24 29 85 30 25 31 84 32 26 33 27 34
REMARK SMILES IDX 28 35 78 36 29 37 83 38 77 39 79 40 30 41 82 42 76 43 75 44
REMARK SMILES IDX 31 46 63 47 43 48 62 49 44 50 47 51 61 52 80 53 45 54 46 55
REMARK SMILES IDX 60 57 81 58 48 59 32 60 33 61 41 62 34 63 35 64 39 65 42 66
REMARK SMILES IDX 36 67 37 68 40 69 38 70 64 71 65 72 73 73 66 74 67 75 71 76
REMARK SMILES IDX 74 77 68 78 69 79 72 80 70 81 49 82 50 83 58 84 51 85 52 86
REMARK SMILES IDX 56 87 59 88 53 89 54 90 57 91 55 92
REMARK H PARENT 8 10 79 45 47 56
REMARK Flexibility Score: inf
ROOT
ATOM      1  C   UNL     1       0.521  -3.181   4.813  1.00  0.00     0.202 C 
ENDROOT
BRANCH   1   2
ATOM      2  C   UNL     1      -0.713  -2.317   4.533  1.00  0.00     0.261 C 
BRANCH   2   3
ATOM      3  O   UNL     1      -0.588  -1.022   5.157  1.00  0.00    -0.463 OA
BRANCH   3   4
ATOM      4  C   UNL     1      -1.438  -0.742   6.177  1.00  0.00     0.315 C 
ATOM      5  O   UNL     1      -2.334  -1.483   6.561  1.00  0.00    -0.252 OA
BRANCH   4   6
ATOM      6  C   UNL     1      -1.175   0.611   6.809  1.00  0.00     0.162 C 
ATOM      7  N   UNL     1       0.504   2.357   6.803  1.00  0.00    -0.328 N 
ATOM      8  C   UNL     1      -0.793   2.915   6.418  1.00  0.00     0.263 C 
ATOM      9  C   UNL     1       0.291   0.934   7.146  1.00  0.00     0.195 C 
ATOM     10  H   UNL     1       0.855   2.839   7.631  1.00  0.00     0.348 HD
ATOM     11  C   UNL     1      -1.621   1.750   5.912  1.00  0.00     0.083 C 
ATOM     12  C   UNL     1       0.569   0.746   8.641  1.00  0.00     0.076 C 
BRANCH   7  13
ATOM     13  C   UNL     1       1.603   2.635   5.856  1.00  0.00     0.299 C 
BRANCH  13  14
ATOM     14  C   UNL     1       1.508   1.983   4.490  1.00  0.00     0.006 A 
ATOM     15  C   UNL     1       0.920   0.531   2.137  1.00  0.00    -0.048 A 
ATOM     16  C   UNL     1       1.749  -0.006   3.124  1.00  0.00     0.004 A 
ATOM     17  C   UNL     1       0.511   1.861   2.271  1.00  0.00     0.004 A 
ATOM     18  C   UNL     1       2.049   0.712   4.282  1.00  0.00     0.010 A 
ATOM     19  C   UNL     1       0.809   2.584   3.435  1.00  0.00     0.010 A 
BRANCH  15  20
ATOM     20  C   UNL     1       0.343  -0.383   1.083  1.00  0.00     0.032 C 
ATOM     21  C   UNL     1       0.519   0.050  -0.359  1.00  0.00     0.009 C 
ENDBRANCH  15  20
ENDBRANCH  13  14
ENDBRANCH   7  13
ENDBRANCH   4   6
ENDBRANCH   3   4
ENDBRANCH   2   3
ENDBRANCH   1   2
BRANCH   1  22
ATOM     22  O   UNL     1       0.588  -3.725   6.132  1.00  0.00    -0.374 OA
BRANCH  22  23
ATOM     23  C   UNL     1       1.045  -2.840   7.151  1.00  0.00     0.202 C 
BRANCH  23  24
ATOM     24  C   UNL     1       2.561  -2.814   7.367  1.00  0.00     0.261 C 
BRANCH  24  25
ATOM     25  O   UNL     1       3.262  -2.244   6.245  1.00  0.00    -0.460 OA
BRANCH  25  26
ATOM     26  C   UNL     1       3.826  -3.145   5.405  1.00  0.00     0.338 C 
ATOM     27  O   UNL     1       3.815  -4.361   5.510  1.00  0.00    -0.246 OA
BRANCH  26  28
ATOM     28  C   UNL     1       4.369  -2.456   4.215  1.00  0.00     0.060 A 
ATOM     29  C   UNL     1       4.110  -3.020   2.959  1.00  0.00     0.016 A 
ATOM     30  C   UNL     1       5.143  -1.297   4.320  1.00  0.00     0.016 A 
ATOM     31  C   UNL     1       4.651  -2.446   1.807  1.00  0.00     0.010 A 
ATOM     32  C   UNL     1       5.686  -0.724   3.165  1.00  0.00     0.010 A 
ATOM     33  C   UNL     1       5.473  -1.313   1.907  1.00  0.00    -0.014 A 
BRANCH  33  34
ATOM     34  C   UNL     1       6.237  -0.845   0.722  1.00  0.00     0.031 A 
ATOM     35  C   UNL     1       7.682  -1.230   0.595  1.00  0.00     0.074 A 
ATOM     36  C   UNL     1       5.662  -0.099  -0.237  1.00  0.00     0.049 A 
ATOM     37  N   UNL     1       8.550  -0.908  -0.329  1.00  0.00    -0.248 NA
ATOM     38  C   UNL     1       8.225  -2.080   1.665  1.00  0.00     0.031 C 
ATOM     39  C   UNL     1       4.274   0.340  -0.225  1.00  0.00     0.029 A 
ATOM     40  N   UNL     1       6.170   0.422  -1.403  1.00  0.00    -0.354 N 
ATOM     41  C   UNL     1       9.744  -1.499   0.056  1.00  0.00     0.074 A 
ATOM     42  C   UNL     1       9.498  -2.173   1.313  1.00  0.00     0.031 C 
ATOM     43  C   UNL     1       4.028   1.045  -1.343  1.00  0.00     0.029 A 
ATOM     44  C   UNL     1       5.254   1.145  -2.129  1.00  0.00     0.049 A 
ATOM     45  H   UNL     1       7.102   0.291  -1.690  1.00  0.00     0.167 HD
ATOM     46  C   UNL     1      10.937  -1.482  -0.583  1.00  0.00     0.037 A 
ATOM     47  C   UNL     1       5.390   1.827  -3.284  1.00  0.00     0.037 A 
ATOM     48  C   UNL     1      11.180  -0.801  -1.828  1.00  0.00     0.049 A 
ATOM     49  C   UNL     1       6.742   1.874  -3.949  1.00  0.00     0.074 A 
ATOM     50  C   UNL     1      12.353  -0.733  -2.558  1.00  0.00     0.029 A 
ATOM     51  N   UNL     1      10.234  -0.060  -2.523  1.00  0.00    -0.354 N 
ATOM     52  N   UNL     1       7.861   1.290  -3.592  1.00  0.00    -0.248 NA
ATOM     53  C   UNL     1       6.856   2.687  -5.168  1.00  0.00     0.031 C 
ATOM     54  C   UNL     1      12.135   0.098  -3.661  1.00  0.00     0.029 A 
ATOM     55  C   UNL     1      10.806   0.490  -3.659  1.00  0.00     0.049 A 
ATOM     56  H   UNL     1       9.296   0.057  -2.249  1.00  0.00     0.167 HD
ATOM     57  C   UNL     1       8.801   1.644  -4.551  1.00  0.00     0.074 A 
ATOM     58  C   UNL     1       8.118   2.479  -5.517  1.00  0.00     0.031 C 
ATOM     59  C   UNL     1      10.112   1.309  -4.622  1.00  0.00     0.037 A 
BRANCH  46  60
ATOM     60  C   UNL     1      12.081  -2.193   0.080  1.00  0.00     0.064 A 
ATOM     61  C   UNL     1      12.116  -3.591   0.195  1.00  0.00     0.173 A 
ATOM     62  C   UNL     1      13.162  -1.465   0.599  1.00  0.00     0.173 A 
ATOM     63  F   UNL     1      11.099  -4.333  -0.270  1.00  0.00    -0.203 F 
ATOM     64  C   UNL     1      13.172  -4.231   0.838  1.00  0.00     0.198 A 
ATOM     65  C   UNL     1      14.234  -2.110   1.209  1.00  0.00     0.198 A 
ATOM     66  F   UNL     1      13.181  -0.127   0.513  1.00  0.00    -0.203 F 
ATOM     67  F   UNL     1      13.154  -5.562   0.991  1.00  0.00    -0.200 F 
ATOM     68  C   UNL     1      14.233  -3.491   1.338  1.00  0.00     0.200 A 
ATOM     69  F   UNL     1      15.265  -1.395   1.679  1.00  0.00    -0.200 F 
ATOM     70  F   UNL     1      15.251  -4.108   1.953  1.00  0.00    -0.200 F 
ENDBRANCH  46  60
BRANCH  47  71
ATOM     71  C   UNL     1       4.224   2.530  -3.889  1.00  0.00     0.064 A 
ATOM     72  C   UNL     1       3.702   2.129  -5.127  1.00  0.00     0.173 A 
ATOM     73  C   UNL     1       3.622   3.630  -3.258  1.00  0.00     0.173 A 
ATOM     74  F   UNL     1       4.256   1.101  -5.787  1.00  0.00    -0.203 F 
ATOM     75  C   UNL     1       2.639   2.811  -5.719  1.00  0.00     0.198 A 
ATOM     76  C   UNL     1       2.536   4.287  -3.833  1.00  0.00     0.198 A 
ATOM     77  F   UNL     1       4.082   4.061  -2.075  1.00  0.00    -0.203 F 
ATOM     78  F   UNL     1       2.197   2.439  -6.928  1.00  0.00    -0.200 F 
ATOM     79  C   UNL     1       2.052   3.884  -5.068  1.00  0.00     0.200 A 
ATOM     80  F   UNL     1       1.962   5.315  -3.192  1.00  0.00    -0.200 F 
ATOM     81  F   UNL     1       1.027   4.536  -5.634  1.00  0.00    -0.200 F 
ENDBRANCH  47  71
BRANCH  59  82
ATOM     82  C   UNL     1      10.894   1.802  -5.806  1.00  0.00     0.064 A 
ATOM     83  C   UNL     1      11.241   3.152  -5.957  1.00  0.00     0.173 A 
ATOM     84  C   UNL     1      11.354   0.895  -6.774  1.00  0.00     0.173 A 
ATOM     85  F   UNL     1      10.814   4.063  -5.068  1.00  0.00    -0.203 F 
ATOM     86  C   UNL     1      12.002   3.579  -7.042  1.00  0.00     0.198 A 
ATOM     87  C   UNL     1      12.143   1.320  -7.839  1.00  0.00     0.198 A 
ATOM     88  F   UNL     1      11.056  -0.409  -6.675  1.00  0.00    -0.203 F 
ATOM     89  F   UNL     1      12.285   4.881  -7.189  1.00  0.00    -0.200 F 
ATOM     90  C   UNL     1      12.462   2.662  -7.975  1.00  0.00     0.200 A 
ATOM     91  F   UNL     1      12.600   0.429  -8.730  1.00  0.00    -0.200 F 
ATOM     92  F   UNL     1      13.208   3.073  -9.010  1.00  0.00    -0.200 F 
ENDBRANCH  59  82
ENDBRANCH  33  34
ENDBRANCH  26  28
ENDBRANCH  25  26
ENDBRANCH  24  25
ENDBRANCH  23  24
ENDBRANCH  22  23
ENDBRANCH   1  22
TORSDOF 17
