REMARK SMILES Cn1cc(S(=O)(=O)NC[C@H]2CC[C@@H](C(=O)OCCOCCOC(=O)c3ccc(-c4c5nc(c(-c6c(F)c(F)c(F)c(F)c6F)c6ccc([nH]6)c(-c6c(F)c(F)c(F)c(F)c6F)c6nc(c(-c7c(F)c(F)c(F)c(F)c7F)c7ccc4[nH]7)C=C6)C=C5)cc3)CC2)cn1
REMARK SMILES IDX 18 1 17 2 16 3 14 4 15 5 13 6 10 7 11 8 89 9 12 10 88 11
REMARK SMILES IDX 9 12 8 13 5 15 6 16 7 17 4 18 1 19 2 20 3 21 91 22 90 23
REMARK SMILES IDX 19 24 20 25 21 26 22 27 23 28 24 29 25 30 26 31 87 32 27 33
REMARK SMILES IDX 86 34 28 35 29 36 30 37 80 38 31 39 85 40 79 41 81 42 32 43
REMARK SMILES IDX 84 44 78 45 77 46 33 48 65 49 45 50 64 51 46 52 49 53 63 54
REMARK SMILES IDX 82 55 47 56 48 57 62 59 83 60 50 61 34 62 35 63 43 64 36 65
REMARK SMILES IDX 37 66 41 67 44 68 38 69 39 70 42 71 40 72 66 73 67 74 75 75
REMARK SMILES IDX 68 76 69 77 73 78 76 79 70 80 71 81 74 82 72 83 51 84 52 85
REMARK SMILES IDX 60 86 53 87 54 88 58 89 61 90 55 91 56 92 59 93 57 94
REMARK H PARENT 8 14 81 47 49 58
REMARK Flexibility Score: inf
ROOT
ATOM      1  C   UNL     1       7.795  -2.384  -0.658  1.00  0.00     0.202 C 
ENDROOT
BRANCH   1   2
ATOM      2  C   UNL     1       6.569  -1.518  -0.957  1.00  0.00     0.261 C 
BRANCH   2   3
ATOM      3  O   UNL     1       5.696  -2.110  -1.934  1.00  0.00    -0.463 OA
BRANCH   3   4
ATOM      4  C   UNL     1       5.507  -1.400  -3.078  1.00  0.00     0.309 C 
ATOM      5  O   UNL     1       5.985  -0.294  -3.305  1.00  0.00    -0.252 OA
BRANCH   4   6
ATOM      6  C   UNL     1       4.617  -2.118  -4.094  1.00  0.00     0.099 C 
ATOM      7  C   UNL     1       2.318  -3.221  -2.560  1.00  0.00     0.004 C 
ATOM      8  C   UNL     1       2.426  -1.731  -2.913  1.00  0.00     0.006 C 
ATOM      9  C   UNL     1       3.609  -4.035  -2.725  1.00  0.00     0.006 C 
ATOM     10  C   UNL     1       3.249  -1.446  -4.162  1.00  0.00     0.015 C 
ATOM     11  C   UNL     1       4.437  -3.630  -3.939  1.00  0.00     0.015 C 
BRANCH   7  12
ATOM     12  C   UNL     1       1.663  -3.450  -1.189  1.00  0.00     0.102 C 
BRANCH  12  13
ATOM     13  N   UNL     1       2.481  -3.125  -0.007  1.00  0.00    -0.211 NA
ATOM     14  H   UNL     1       2.165  -3.758   0.728  1.00  0.00     0.141 HD
BRANCH  13  15
ATOM     15  S   UNL     1       2.554  -1.605   0.704  1.00  0.00     0.243 S 
ATOM     16  O   UNL     1       3.605  -0.861   0.059  1.00  0.00    -0.207 OA
ATOM     17  O   UNL     1       2.579  -1.810   2.138  1.00  0.00    -0.207 OA
BRANCH  15  18
ATOM     18  C   UNL     1       1.143  -0.693   0.436  1.00  0.00     0.120 A 
ATOM     19  C   UNL     1      -2.336   0.062  -0.005  1.00  0.00     0.173 C 
ATOM     20  N   UNL     1      -0.904  -0.005   0.155  1.00  0.00    -0.274 N 
ATOM     21  C   UNL     1      -0.171  -1.101   0.501  1.00  0.00     0.130 A 
ATOM     22  N   UNL     1      -0.158   1.092  -0.078  1.00  0.00    -0.180 NA
ATOM     23  C   UNL     1       1.097   0.668   0.106  1.00  0.00     0.156 A 
ENDBRANCH  15  18
ENDBRANCH  13  15
ENDBRANCH  12  13
ENDBRANCH   7  12
ENDBRANCH   4   6
ENDBRANCH   3   4
ENDBRANCH   2   3
ENDBRANCH   1   2
BRANCH   1  24
ATOM     24  O   UNL     1       8.627  -2.766  -1.747  1.00  0.00    -0.374 OA
BRANCH  24  25
ATOM     25  C   UNL     1       8.097  -3.662  -2.718  1.00  0.00     0.202 C 
BRANCH  25  26
ATOM     26  C   UNL     1       7.805  -5.107  -2.286  1.00  0.00     0.261 C 
BRANCH  26  27
ATOM     27  O   UNL     1       6.835  -5.225  -1.226  1.00  0.00    -0.460 OA
BRANCH  27  28
ATOM     28  C   UNL     1       7.339  -5.718  -0.067  1.00  0.00     0.338 C 
ATOM     29  O   UNL     1       8.485  -6.076   0.149  1.00  0.00    -0.246 OA
BRANCH  28  30
ATOM     30  C   UNL     1       6.342  -5.657   1.016  1.00  0.00     0.060 A 
ATOM     31  C   UNL     1       6.665  -4.899   2.148  1.00  0.00     0.016 A 
ATOM     32  C   UNL     1       5.208  -6.471   1.006  1.00  0.00     0.016 A 
ATOM     33  C   UNL     1       5.892  -5.006   3.302  1.00  0.00     0.010 A 
ATOM     34  C   UNL     1       4.431  -6.574   2.168  1.00  0.00     0.010 A 
ATOM     35  C   UNL     1       4.798  -5.882   3.337  1.00  0.00    -0.014 A 
BRANCH  35  36
ATOM     36  C   UNL     1       4.140  -6.172   4.639  1.00  0.00     0.031 A 
ATOM     37  C   UNL     1       4.420  -7.473   5.340  1.00  0.00     0.074 A 
ATOM     38  C   UNL     1       3.341  -5.261   5.222  1.00  0.00     0.049 A 
ATOM     39  N   UNL     1       3.944  -7.929   6.472  1.00  0.00    -0.248 NA
ATOM     40  C   UNL     1       5.364  -8.386   4.676  1.00  0.00     0.031 C 
ATOM     41  C   UNL     1       3.029  -3.949   4.669  1.00  0.00     0.029 A 
ATOM     42  N   UNL     1       2.646  -5.302   6.405  1.00  0.00    -0.354 N 
ATOM     43  C   UNL     1       4.521  -9.180   6.652  1.00  0.00     0.074 A 
ATOM     44  C   UNL     1       5.354  -9.429   5.495  1.00  0.00     0.031 C 
ATOM     45  C   UNL     1       2.197  -3.306   5.503  1.00  0.00     0.029 A 
ATOM     46  C   UNL     1       1.894  -4.176   6.637  1.00  0.00     0.049 A 
ATOM     47  H   UNL     1       2.682  -6.064   7.027  1.00  0.00     0.167 HD
ATOM     48  C   UNL     1       4.378 -10.036   7.692  1.00  0.00     0.037 A 
ATOM     49  C   UNL     1       1.043  -3.888   7.640  1.00  0.00     0.037 A 
ATOM     50  C   UNL     1       3.556  -9.780   8.848  1.00  0.00     0.049 A 
ATOM     51  C   UNL     1       0.853  -4.884   8.754  1.00  0.00     0.074 A 
ATOM     52  C   UNL     1       3.365 -10.576   9.963  1.00  0.00     0.029 A 
ATOM     53  N   UNL     1       2.783  -8.643   9.033  1.00  0.00    -0.354 N 
ATOM     54  N   UNL     1       1.417  -6.055   8.925  1.00  0.00    -0.248 NA
ATOM     55  C   UNL     1      -0.088  -4.513   9.820  1.00  0.00     0.031 C 
ATOM     56  C   UNL     1       2.428  -9.952  10.793  1.00  0.00     0.029 A 
ATOM     57  C   UNL     1       2.089  -8.732  10.231  1.00  0.00     0.049 A 
ATOM     58  H   UNL     1       2.735  -7.884   8.407  1.00  0.00     0.167 HD
ATOM     59  C   UNL     1       0.929  -6.543  10.131  1.00  0.00     0.074 A 
ATOM     60  C   UNL     1       0.033  -5.535  10.655  1.00  0.00     0.031 C 
ATOM     61  C   UNL     1       1.202  -7.720  10.748  1.00  0.00     0.037 A 
BRANCH  48  62
ATOM     62  C   UNL     1       5.104 -11.350   7.618  1.00  0.00     0.064 A 
ATOM     63  C   UNL     1       6.501 -11.435   7.720  1.00  0.00     0.173 A 
ATOM     64  C   UNL     1       4.385 -12.548   7.482  1.00  0.00     0.173 A 
ATOM     65  F   UNL     1       7.238 -10.320   7.840  1.00  0.00    -0.203 F 
ATOM     66  C   UNL     1       7.151 -12.665   7.661  1.00  0.00     0.198 A 
ATOM     67  C   UNL     1       5.035 -13.778   7.457  1.00  0.00     0.198 A 
ATOM     68  F   UNL     1       3.047 -12.527   7.385  1.00  0.00    -0.203 F 
ATOM     69  F   UNL     1       8.490 -12.717   7.710  1.00  0.00    -0.200 F 
ATOM     70  C   UNL     1       6.418 -13.836   7.538  1.00  0.00     0.200 A 
ATOM     71  F   UNL     1       4.323 -14.909   7.353  1.00  0.00    -0.200 F 
ATOM     72  F   UNL     1       7.045 -15.020   7.490  1.00  0.00    -0.200 F 
ENDBRANCH  48  62
BRANCH  49  73
ATOM     73  C   UNL     1       0.299  -2.600   7.634  1.00  0.00     0.064 A 
ATOM     74  C   UNL     1       0.545  -1.614   8.599  1.00  0.00     0.173 A 
ATOM     75  C   UNL     1      -0.689  -2.338   6.672  1.00  0.00     0.173 A 
ATOM     76  F   UNL     1       1.458  -1.827   9.558  1.00  0.00    -0.203 F 
ATOM     77  C   UNL     1      -0.185  -0.426   8.617  1.00  0.00     0.198 A 
ATOM     78  C   UNL     1      -1.393  -1.137   6.670  1.00  0.00     0.198 A 
ATOM     79  F   UNL     1      -0.970  -3.251   5.730  1.00  0.00    -0.203 F 
ATOM     80  F   UNL     1       0.028   0.473   9.587  1.00  0.00    -0.200 F 
ATOM     81  C   UNL     1      -1.149  -0.186   7.649  1.00  0.00     0.200 A 
ATOM     82  F   UNL     1      -2.319  -0.907   5.728  1.00  0.00    -0.200 F 
ATOM     83  F   UNL     1      -1.853   0.954   7.669  1.00  0.00    -0.200 F 
ENDBRANCH  49  73
BRANCH  61  84
ATOM     84  C   UNL     1       0.558  -7.964  12.085  1.00  0.00     0.064 A 
ATOM     85  C   UNL     1      -0.821  -8.184  12.216  1.00  0.00     0.173 A 
ATOM     86  C   UNL     1       1.340  -8.005  13.250  1.00  0.00     0.173 A 
ATOM     87  F   UNL     1      -1.617  -8.143  11.137  1.00  0.00    -0.203 F 
ATOM     88  C   UNL     1      -1.398  -8.397  13.466  1.00  0.00     0.198 A 
ATOM     89  C   UNL     1       0.766  -8.256  14.493  1.00  0.00     0.198 A 
ATOM     90  F   UNL     1       2.666  -7.813  13.183  1.00  0.00    -0.203 F 
ATOM     91  F   UNL     1      -2.726  -8.543  13.573  1.00  0.00    -0.200 F 
ATOM     92  C   UNL     1      -0.604  -8.440  14.602  1.00  0.00     0.200 A 
ATOM     93  F   UNL     1       1.538  -8.316  15.587  1.00  0.00    -0.200 F 
ATOM     94  F   UNL     1      -1.160  -8.651  15.803  1.00  0.00    -0.200 F 
ENDBRANCH  61  84
ENDBRANCH  35  36
ENDBRANCH  28  30
ENDBRANCH  27  28
ENDBRANCH  26  27
ENDBRANCH  25  26
ENDBRANCH  24  25
ENDBRANCH   1  24
TORSDOF 18
