REMARK SMILES C[C@@H](c1ccc(Cl)cc1)N1C[C@H](C(=O)OCCOCCOC(=O)c2ccc(-c3c4nc(c(-c5c(F)c(F)c(F)c(F)c5F)c5ccc([nH]5)c(-c5c(F)c(F)c(F)c(F)c5F)c5nc(c(-c6c(F)c(F)c(F)c(F)c6F)c6ccc3[nH]6)C=C5)C=C4)cc2)CC1=O
REMARK SMILES IDX 18 1 17 2 16 3 15 4 13 5 14 6 12 7 10 8 11 9 88 10 87 11
REMARK SMILES IDX 89 12 2 13 1 14 3 15 4 16 9 17 5 18 8 19 6 20 7 21 19 22
REMARK SMILES IDX 20 23 21 24 22 25 23 26 24 27 25 28 86 29 26 30 85 31 27 32
REMARK SMILES IDX 28 33 29 34 79 35 30 36 84 37 78 38 80 39 31 40 83 41 77 42
REMARK SMILES IDX 76 43 32 45 64 46 44 47 63 48 45 49 48 50 62 51 81 52 46 53
REMARK SMILES IDX 47 54 61 56 82 57 49 58 33 59 34 60 42 61 35 62 36 63 40 64
REMARK SMILES IDX 43 65 37 66 38 67 41 68 39 69 65 70 66 71 74 72 67 73 68 74
REMARK SMILES IDX 72 75 75 76 69 77 70 78 73 79 71 80 50 81 51 82 59 83 52 84
REMARK SMILES IDX 53 85 57 86 60 87 54 88 55 89 58 90 56 91
REMARK H PARENT 80 44 48 55
REMARK Flexibility Score: inf
ROOT
ATOM      1  O   UNL     1      -2.656   0.348  -5.915  1.00  0.00    -0.374 OA
ENDROOT
BRANCH   1   2
ATOM      2  C   UNL     1      -3.924  -0.299  -6.015  1.00  0.00     0.202 C 
BRANCH   2   3
ATOM      3  C   UNL     1      -4.196  -1.449  -5.040  1.00  0.00     0.261 C 
BRANCH   3   4
ATOM      4  O   UNL     1      -4.161  -1.020  -3.665  1.00  0.00    -0.463 OA
BRANCH   4   5
ATOM      5  C   UNL     1      -3.480  -1.840  -2.822  1.00  0.00     0.311 C 
ATOM      6  O   UNL     1      -3.072  -2.954  -3.131  1.00  0.00    -0.252 OA
BRANCH   5   7
ATOM      7  C   UNL     1      -3.329  -1.277  -1.416  1.00  0.00     0.128 C 
ATOM      8  N   UNL     1      -1.142  -0.460  -1.250  1.00  0.00    -0.335 N 
ATOM      9  C   UNL     1      -1.939  -1.615  -0.895  1.00  0.00     0.136 C 
ATOM     10  C   UNL     1      -1.939   0.665  -1.388  1.00  0.00     0.224 C 
ATOM     11  C   UNL     1      -3.386   0.241  -1.266  1.00  0.00     0.117 C 
ATOM     12  O   UNL     1      -1.561   1.812  -1.561  1.00  0.00    -0.275 OA
BRANCH   8  13
ATOM     13  C   UNL     1       0.327  -0.399  -1.217  1.00  0.00     0.112 C 
ATOM     14  C   UNL     1       0.846  -0.086   0.189  1.00  0.00     0.036 C 
BRANCH  13  15
ATOM     15  C   UNL     1       0.999  -1.621  -1.830  1.00  0.00    -0.026 A 
ATOM     16  C   UNL     1       1.004  -2.872  -1.188  1.00  0.00     0.007 A 
ATOM     17  C   UNL     1       1.617  -1.519  -3.089  1.00  0.00     0.007 A 
ATOM     18  C   UNL     1       1.545  -3.999  -1.812  1.00  0.00     0.021 A 
ATOM     19  C   UNL     1       2.189  -2.640  -3.700  1.00  0.00     0.021 A 
ATOM     20  C   UNL     1       2.133  -3.878  -3.067  1.00  0.00     0.041 A 
ATOM     21  Cl  UNL     1       2.788  -5.269  -3.841  1.00  0.00    -0.084 Cl
ENDBRANCH  13  15
ENDBRANCH   8  13
ENDBRANCH   5   7
ENDBRANCH   4   5
ENDBRANCH   3   4
ENDBRANCH   2   3
ENDBRANCH   1   2
BRANCH   1  22
ATOM     22  C   UNL     1      -2.427   1.167  -4.769  1.00  0.00     0.202 C 
BRANCH  22  23
ATOM     23  C   UNL     1      -3.159   2.515  -4.717  1.00  0.00     0.261 C 
BRANCH  23  24
ATOM     24  O   UNL     1      -4.593   2.368  -4.698  1.00  0.00    -0.460 OA
BRANCH  24  25
ATOM     25  C   UNL     1      -5.229   2.902  -5.768  1.00  0.00     0.338 C 
ATOM     26  O   UNL     1      -4.738   3.560  -6.675  1.00  0.00    -0.246 OA
BRANCH  25  27
ATOM     27  C   UNL     1      -6.627   2.437  -5.822  1.00  0.00     0.060 A 
ATOM     28  C   UNL     1      -7.042   1.783  -6.990  1.00  0.00     0.016 A 
ATOM     29  C   UNL     1      -7.541   2.721  -4.806  1.00  0.00     0.016 A 
ATOM     30  C   UNL     1      -8.384   1.459  -7.172  1.00  0.00     0.010 A 
ATOM     31  C   UNL     1      -8.893   2.404  -4.995  1.00  0.00     0.010 A 
ATOM     32  C   UNL     1      -9.325   1.808  -6.194  1.00  0.00    -0.014 A 
BRANCH  32  33
ATOM     33  C   UNL     1     -10.770   1.695  -6.511  1.00  0.00     0.031 A 
ATOM     34  C   UNL     1     -11.507   2.915  -6.991  1.00  0.00     0.074 A 
ATOM     35  C   UNL     1     -11.406   0.514  -6.425  1.00  0.00     0.049 A 
ATOM     36  N   UNL     1     -12.765   3.049  -7.327  1.00  0.00    -0.248 NA
ATOM     37  C   UNL     1     -10.718   4.152  -7.109  1.00  0.00     0.031 C 
ATOM     38  C   UNL     1     -10.792  -0.747  -6.015  1.00  0.00     0.029 A 
ATOM     39  N   UNL     1     -12.714   0.186  -6.679  1.00  0.00    -0.354 N 
ATOM     40  C   UNL     1     -12.918   4.380  -7.695  1.00  0.00     0.074 A 
ATOM     41  C   UNL     1     -11.634   5.021  -7.513  1.00  0.00     0.031 C 
ATOM     42  C   UNL     1     -11.726  -1.713  -6.038  1.00  0.00     0.029 A 
ATOM     43  C   UNL     1     -13.007  -1.133  -6.439  1.00  0.00     0.049 A 
ATOM     44  H   UNL     1     -13.380   0.836  -7.003  1.00  0.00     0.167 HD
ATOM     45  C   UNL     1     -14.027   5.008  -8.154  1.00  0.00     0.037 A 
ATOM     46  C   UNL     1     -14.180  -1.791  -6.519  1.00  0.00     0.037 A 
ATOM     47  C   UNL     1     -15.303   4.371  -8.339  1.00  0.00     0.049 A 
ATOM     48  C   UNL     1     -15.415  -1.054  -6.968  1.00  0.00     0.074 A 
ATOM     49  C   UNL     1     -16.482   4.919  -8.815  1.00  0.00     0.029 A 
ATOM     50  N   UNL     1     -15.570   3.041  -8.049  1.00  0.00    -0.354 N 
ATOM     51  N   UNL     1     -15.544   0.198  -7.337  1.00  0.00    -0.248 NA
ATOM     52  C   UNL     1     -16.667  -1.823  -7.014  1.00  0.00     0.031 C 
ATOM     53  C   UNL     1     -17.473   3.933  -8.770  1.00  0.00     0.029 A 
ATOM     54  C   UNL     1     -16.900   2.757  -8.311  1.00  0.00     0.049 A 
ATOM     55  H   UNL     1     -14.911   2.394  -7.707  1.00  0.00     0.167 HD
ATOM     56  C   UNL     1     -16.880   0.359  -7.683  1.00  0.00     0.074 A 
ATOM     57  C   UNL     1     -17.518  -0.927  -7.492  1.00  0.00     0.031 C 
ATOM     58  C   UNL     1     -17.519   1.471  -8.122  1.00  0.00     0.037 A 
BRANCH  45  59
ATOM     59  C   UNL     1     -13.912   6.470  -8.467  1.00  0.00     0.064 A 
ATOM     60  C   UNL     1     -13.219   6.930  -9.596  1.00  0.00     0.173 A 
ATOM     61  C   UNL     1     -14.534   7.422  -7.644  1.00  0.00     0.173 A 
ATOM     62  F   UNL     1     -12.596   6.060 -10.406  1.00  0.00    -0.203 F 
ATOM     63  C   UNL     1     -13.132   8.291  -9.877  1.00  0.00     0.198 A 
ATOM     64  C   UNL     1     -14.466   8.780  -7.943  1.00  0.00     0.198 A 
ATOM     65  F   UNL     1     -15.212   7.034  -6.554  1.00  0.00    -0.203 F 
ATOM     66  F   UNL     1     -12.429   8.711 -10.938  1.00  0.00    -0.200 F 
ATOM     67  C   UNL     1     -13.761   9.214  -9.055  1.00  0.00     0.200 A 
ATOM     68  F   UNL     1     -15.083   9.670  -7.153  1.00  0.00    -0.200 F 
ATOM     69  F   UNL     1     -13.681  10.523  -9.331  1.00  0.00    -0.200 F 
ENDBRANCH  45  59
BRANCH  46  70
ATOM     70  C   UNL     1     -14.248  -3.231  -6.156  1.00  0.00     0.064 A 
ATOM     71  C   UNL     1     -14.482  -4.214  -7.126  1.00  0.00     0.173 A 
ATOM     72  C   UNL     1     -14.097  -3.649  -4.825  1.00  0.00     0.173 A 
ATOM     73  F   UNL     1     -14.660  -3.860  -8.408  1.00  0.00    -0.203 F 
ATOM     74  C   UNL     1     -14.577  -5.560  -6.778  1.00  0.00     0.198 A 
ATOM     75  C   UNL     1     -14.166  -4.997  -4.482  1.00  0.00     0.198 A 
ATOM     76  F   UNL     1     -13.875  -2.747  -3.858  1.00  0.00    -0.203 F 
ATOM     77  F   UNL     1     -14.845  -6.475  -7.719  1.00  0.00    -0.200 F 
ATOM     78  C   UNL     1     -14.414  -5.951  -5.458  1.00  0.00     0.200 A 
ATOM     79  F   UNL     1     -13.998  -5.372  -3.207  1.00  0.00    -0.200 F 
ATOM     80  F   UNL     1     -14.503  -7.246  -5.124  1.00  0.00    -0.200 F 
ENDBRANCH  46  70
BRANCH  58  81
ATOM     81  C   UNL     1     -18.977   1.342  -8.455  1.00  0.00     0.064 A 
ATOM     82  C   UNL     1     -19.952   1.216  -7.455  1.00  0.00     0.173 A 
ATOM     83  C   UNL     1     -19.407   1.391  -9.790  1.00  0.00     0.173 A 
ATOM     84  F   UNL     1     -19.590   1.150  -6.165  1.00  0.00    -0.203 F 
ATOM     85  C   UNL     1     -21.302   1.120  -7.781  1.00  0.00     0.198 A 
ATOM     86  C   UNL     1     -20.760   1.323 -10.111  1.00  0.00     0.198 A 
ATOM     87  F   UNL     1     -18.514   1.519 -10.784  1.00  0.00    -0.203 F 
ATOM     88  F   UNL     1     -22.213   0.956  -6.811  1.00  0.00    -0.200 F 
ATOM     89  C   UNL     1     -21.705   1.180  -9.107  1.00  0.00     0.200 A 
ATOM     90  F   UNL     1     -21.148   1.394 -11.391  1.00  0.00    -0.200 F 
ATOM     91  F   UNL     1     -23.006   1.095  -9.417  1.00  0.00    -0.200 F 
ENDBRANCH  58  81
ENDBRANCH  32  33
ENDBRANCH  25  27
ENDBRANCH  24  25
ENDBRANCH  23  24
ENDBRANCH  22  23
ENDBRANCH   1  22
TORSDOF 16
