REMARK SMILES O=C(OCCOCCOC(=O)[C@H]1C[C@@H](O)CN1C(=O)C[C@@H]1CSCC[NH2+]1)c1ccc(-c2c3nc(c(-c4c(F)c(F)c(F)c(F)c4F)c4ccc([nH]4)c(-c4c(F)c(F)c(F)c(F)c4F)c4nc(c(-c5c(F)c(F)c(F)c(F)c5F)c5ccc2[nH]5)C=C4)C=C3)cc1
REMARK SMILES IDX 7 1 6 2 5 3 4 4 3 5 2 6 1 7 27 8 28 9 89 10 29 11 88 12
REMARK SMILES IDX 30 13 31 14 32 15 82 16 33 17 87 18 81 19 83 20 34 21 86 22
REMARK SMILES IDX 80 23 79 24 35 26 67 27 47 28 66 29 48 30 51 31 65 32 84 33
REMARK SMILES IDX 49 34 50 35 64 37 85 38 52 39 36 40 37 41 45 42 38 43 39 44
REMARK SMILES IDX 43 45 46 46 40 47 41 48 44 49 42 50 68 51 69 52 77 53 70 54
REMARK SMILES IDX 71 55 75 56 78 57 72 58 73 59 76 60 74 61 53 62 54 63 62 64
REMARK SMILES IDX 55 65 56 66 60 67 63 68 57 69 58 70 61 71 59 72 8 73 9 74
REMARK SMILES IDX 10 75 11 76 12 77 13 78 17 79 14 80 16 81 18 82 19 83 20 84
REMARK SMILES IDX 21 85 22 86 26 87 23 88 25 89 24 92 15 93
REMARK H PARENT 83 25 51 36 26 90 26 91 15 94
REMARK Flexibility Score: inf
ROOT
ATOM      1  C   UNL     1       2.593   2.272  -0.351  1.00  0.00     0.202 C 
ENDROOT
BRANCH   1   2
ATOM      2  O   UNL     1       3.905   1.706  -0.236  1.00  0.00    -0.374 OA
BRANCH   2   3
ATOM      3  C   UNL     1       4.170   0.596  -1.088  1.00  0.00     0.202 C 
BRANCH   3   4
ATOM      4  C   UNL     1       3.655  -0.769  -0.623  1.00  0.00     0.261 C 
BRANCH   4   5
ATOM      5  O   UNL     1       2.249  -0.718  -0.310  1.00  0.00    -0.460 OA
BRANCH   5   6
ATOM      6  C   UNL     1       1.701  -0.878   0.922  1.00  0.00     0.338 C 
ATOM      7  O   UNL     1       0.493  -1.039   1.052  1.00  0.00    -0.246 OA
BRANCH   6   8
ATOM      8  C   UNL     1       2.560  -0.877   2.133  1.00  0.00     0.060 A 
ATOM      9  C   UNL     1       3.641  -0.013   2.259  1.00  0.00     0.016 A 
ATOM     10  C   UNL     1       2.246  -1.713   3.207  1.00  0.00     0.016 A 
ATOM     11  C   UNL     1       4.500  -0.070   3.330  1.00  0.00     0.010 A 
ATOM     12  C   UNL     1       3.035  -1.685   4.363  1.00  0.00     0.010 A 
ATOM     13  C   UNL     1       4.173  -0.866   4.418  1.00  0.00    -0.014 A 
BRANCH  13  14
ATOM     14  C   UNL     1       5.071  -0.806   5.582  1.00  0.00     0.031 A 
ATOM     15  C   UNL     1       5.880  -2.009   5.928  1.00  0.00     0.074 A 
ATOM     16  C   UNL     1       5.236   0.372   6.215  1.00  0.00     0.049 A 
ATOM     17  N   UNL     1       6.635  -2.222   6.970  1.00  0.00    -0.248 NA
ATOM     18  C   UNL     1       5.837  -3.127   4.971  1.00  0.00     0.031 C 
ATOM     19  C   UNL     1       4.582   1.633   5.843  1.00  0.00     0.029 A 
ATOM     20  N   UNL     1       6.030   0.717   7.274  1.00  0.00    -0.354 N 
ATOM     21  C   UNL     1       7.108  -3.517   6.827  1.00  0.00     0.074 A 
ATOM     22  C   UNL     1       6.571  -4.039   5.590  1.00  0.00     0.031 C 
ATOM     23  C   UNL     1       5.040   2.618   6.626  1.00  0.00     0.029 A 
ATOM     24  C   UNL     1       5.924   2.041   7.627  1.00  0.00     0.049 A 
ATOM     25  H   UNL     1       6.620   0.080   7.737  1.00  0.00     0.167 HD
ATOM     26  C   UNL     1       7.906  -4.200   7.678  1.00  0.00     0.037 A 
ATOM     27  C   UNL     1       6.441   2.693   8.683  1.00  0.00     0.037 A 
ATOM     28  C   UNL     1       8.427  -3.627   8.890  1.00  0.00     0.049 A 
ATOM     29  C   UNL     1       7.259   1.889   9.654  1.00  0.00     0.074 A 
ATOM     30  C   UNL     1       9.180  -4.224   9.882  1.00  0.00     0.029 A 
ATOM     31  N   UNL     1       8.248  -2.299   9.262  1.00  0.00    -0.354 N 
ATOM     32  N   UNL     1       7.614   0.627   9.586  1.00  0.00    -0.248 NA
ATOM     33  C   UNL     1       7.721   2.582  10.860  1.00  0.00     0.031 C 
ATOM     34  C   UNL     1       9.426  -3.265  10.872  1.00  0.00     0.029 A 
ATOM     35  C   UNL     1       8.870  -2.057  10.474  1.00  0.00     0.049 A 
ATOM     36  H   UNL     1       7.752  -1.628   8.739  1.00  0.00     0.167 HD
ATOM     37  C   UNL     1       8.347   0.373  10.733  1.00  0.00     0.074 A 
ATOM     38  C   UNL     1       8.407   1.624  11.467  1.00  0.00     0.031 C 
ATOM     39  C   UNL     1       8.909  -0.786  11.155  1.00  0.00     0.037 A 
BRANCH  26  40
ATOM     40  C   UNL     1       8.168  -5.641   7.359  1.00  0.00     0.064 A 
ATOM     41  C   UNL     1       8.985  -6.033   6.288  1.00  0.00     0.173 A 
ATOM     42  C   UNL     1       7.543  -6.650   8.108  1.00  0.00     0.173 A 
ATOM     43  F   UNL     1       9.579  -5.109   5.519  1.00  0.00    -0.203 F 
ATOM     44  C   UNL     1       9.139  -7.379   5.959  1.00  0.00     0.198 A 
ATOM     45  C   UNL     1       7.721  -7.995   7.794  1.00  0.00     0.198 A 
ATOM     46  F   UNL     1       6.742  -6.331   9.136  1.00  0.00    -0.203 F 
ATOM     47  F   UNL     1       9.870  -7.726   4.891  1.00  0.00    -0.200 F 
ATOM     48  C   UNL     1       8.509  -8.358   6.714  1.00  0.00     0.200 A 
ATOM     49  F   UNL     1       7.111  -8.939   8.525  1.00  0.00    -0.200 F 
ATOM     50  F   UNL     1       8.648  -9.650   6.387  1.00  0.00    -0.200 F 
ENDBRANCH  26  40
BRANCH  27  51
ATOM     51  C   UNL     1       6.136   4.132   8.908  1.00  0.00     0.064 A 
ATOM     52  C   UNL     1       7.148   5.101   8.886  1.00  0.00     0.173 A 
ATOM     53  C   UNL     1       4.824   4.572   9.151  1.00  0.00     0.173 A 
ATOM     54  F   UNL     1       8.421   4.735   8.680  1.00  0.00    -0.203 F 
ATOM     55  C   UNL     1       6.863   6.448   9.114  1.00  0.00     0.198 A 
ATOM     56  C   UNL     1       4.536   5.922   9.342  1.00  0.00     0.198 A 
ATOM     57  F   UNL     1       3.814   3.691   9.185  1.00  0.00    -0.203 F 
ATOM     58  F   UNL     1       7.858   7.346   9.134  1.00  0.00    -0.200 F 
ATOM     59  C   UNL     1       5.557   6.858   9.333  1.00  0.00     0.200 A 
ATOM     60  F   UNL     1       3.269   6.313   9.536  1.00  0.00    -0.200 F 
ATOM     61  F   UNL     1       5.284   8.152   9.546  1.00  0.00    -0.200 F 
ENDBRANCH  27  51
BRANCH  39  62
ATOM     62  C   UNL     1       9.664  -0.729  12.446  1.00  0.00     0.064 A 
ATOM     63  C   UNL     1       9.003  -0.644  13.679  1.00  0.00     0.173 A 
ATOM     64  C   UNL     1      11.064  -0.803  12.445  1.00  0.00     0.173 A 
ATOM     65  F   UNL     1       7.665  -0.551  13.723  1.00  0.00    -0.203 F 
ATOM     66  C   UNL     1       9.721  -0.613  14.869  1.00  0.00     0.198 A 
ATOM     67  C   UNL     1      11.777  -0.802  13.639  1.00  0.00     0.198 A 
ATOM     68  F   UNL     1      11.737  -0.890  11.288  1.00  0.00    -0.203 F 
ATOM     69  F   UNL     1       9.075  -0.485  16.036  1.00  0.00    -0.200 F 
ATOM     70  C   UNL     1      11.106  -0.701  14.848  1.00  0.00     0.200 A 
ATOM     71  F   UNL     1      13.113  -0.899  13.618  1.00  0.00    -0.200 F 
ATOM     72  F   UNL     1      11.796  -0.681  15.997  1.00  0.00    -0.200 F 
ENDBRANCH  39  62
ENDBRANCH  13  14
ENDBRANCH   6   8
ENDBRANCH   5   6
ENDBRANCH   4   5
ENDBRANCH   3   4
ENDBRANCH   2   3
ENDBRANCH   1   2
BRANCH   1  73
ATOM     73  C   UNL     1       2.748   3.732  -0.752  1.00  0.00     0.261 C 
BRANCH  73  74
ATOM     74  O   UNL     1       3.305   3.709  -2.072  1.00  0.00    -0.462 OA
BRANCH  74  75
ATOM     75  C   UNL     1       4.643   3.905  -2.185  1.00  0.00     0.329 C 
ATOM     76  O   UNL     1       5.335   4.500  -1.363  1.00  0.00    -0.250 OA
BRANCH  75  77
ATOM     77  C   UNL     1       5.200   3.315  -3.499  1.00  0.00     0.197 C 
ATOM     78  C   UNL     1       6.529   2.598  -3.201  1.00  0.00     0.070 C 
ATOM     79  N   UNL     1       4.360   2.314  -4.167  1.00  0.00    -0.326 N 
ATOM     80  C   UNL     1       6.479   1.233  -3.881  1.00  0.00     0.136 C 
ATOM     81  C   UNL     1       5.105   1.121  -4.519  1.00  0.00     0.152 C 
BRANCH  79  82
ATOM     82  C   UNL     1       3.121   2.634  -4.695  1.00  0.00     0.229 C 
ATOM     83  O   UNL     1       2.725   3.794  -4.790  1.00  0.00    -0.275 OA
BRANCH  82  84
ATOM     84  C   UNL     1       2.250   1.474  -5.147  1.00  0.00     0.166 C 
BRANCH  84  85
ATOM     85  C   UNL     1       2.517   1.144  -6.627  1.00  0.00     0.201 C 
ATOM     86  C   UNL     1       1.347   1.577  -7.539  1.00  0.00     0.135 C 
ATOM     87  N   UNL     1       2.948  -0.259  -6.843  1.00  0.00    -0.342 N 
ATOM     88  S   UNL     1      -0.123   0.502  -7.426  1.00  0.00    -0.150 SA
ATOM     89  C   UNL     1       1.877  -1.246  -6.670  1.00  0.00     0.271 C 
ATOM     90  H   UNL     1       3.691  -0.472  -6.177  1.00  0.00     0.346 HD
ATOM     91  H   UNL     1       3.258  -0.326  -7.812  1.00  0.00     0.346 HD
ATOM     92  C   UNL     1       0.730  -1.085  -7.666  1.00  0.00     0.131 C 
ENDBRANCH  84  85
ENDBRANCH  82  84
ENDBRANCH  79  82
BRANCH  80  93
ATOM     93  O   UNL     1       6.662   0.179  -2.938  1.00  0.00    -0.391 OA
ATOM     94  H   UNL     1       5.966   0.224  -2.264  1.00  0.00     0.211 HD
ENDBRANCH  80  93
ENDBRANCH  75  77
ENDBRANCH  74  75
ENDBRANCH  73  74
ENDBRANCH   1  73
TORSDOF 18
