REMARK SMILES COc1ccc(OCC(=O)N/N=C(/C)C(=O)OCCOCCOC(=O)c2ccc(-c3c4nc(c(-c5c(F)c(F)c(F)c(F)c5F)c5ccc([nH]5)c(-c5c(F)c(F)c(F)c(F)c5F)c5nc(c(-c6c(F)c(F)c(F)c(F)c6F)c6ccc3[nH]6)C=C5)C=C4)cc2)cc1
REMARK SMILES IDX 18 1 17 2 15 3 16 4 13 5 12 6 14 7 11 8 9 9 10 10 8 12 7 13
REMARK SMILES IDX 6 14 3 15 4 16 90 17 5 18 89 19 2 20 1 21 19 22 20 23 21 24
REMARK SMILES IDX 22 25 23 26 24 27 25 28 26 29 27 30 88 31 28 32 87 33 29 34
REMARK SMILES IDX 30 35 31 36 81 37 32 38 86 39 80 40 82 41 33 42 85 43 79 44
REMARK SMILES IDX 78 45 34 47 66 48 46 49 65 50 47 51 50 52 64 53 83 54 48 55
REMARK SMILES IDX 49 56 63 58 84 59 51 60 35 61 36 62 44 63 37 64 38 65 42 66
REMARK SMILES IDX 45 67 39 68 40 69 43 70 41 71 67 72 68 73 76 74 69 75 70 76
REMARK SMILES IDX 74 77 77 78 71 79 72 80 75 81 73 82 52 83 53 84 61 85 54 86
REMARK SMILES IDX 55 87 59 88 62 89 56 90 57 91 60 92 58 93
REMARK H PARENT 11 11 82 46 50 57
REMARK Flexibility Score: inf
ROOT
ATOM      1  C   UNL     1       2.651  -5.099   6.433  1.00  0.00     0.261 C 
ENDROOT
BRANCH   1   2
ATOM      2  O   UNL     1       2.190  -6.207   5.665  1.00  0.00    -0.459 OA
BRANCH   2   3
ATOM      3  C   UNL     1       1.100  -6.007   4.902  1.00  0.00     0.354 C 
ATOM      4  O   UNL     1       0.240  -5.155   5.007  1.00  0.00    -0.245 OA
BRANCH   3   5
ATOM      5  C   UNL     1       0.983  -7.182   3.977  1.00  0.00     0.142 C 
ATOM      6  N   UNL     1       1.431  -7.366   2.774  1.00  0.00    -0.170 NA
ATOM      7  C   UNL     1       0.212  -8.325   4.597  1.00  0.00     0.077 C 
BRANCH   6   8
ATOM      8  N   UNL     1       2.121  -6.616   1.884  1.00  0.00    -0.244 N 
ATOM      9  C   UNL     1       2.888  -5.489   1.827  1.00  0.00     0.277 C 
ATOM     10  O   UNL     1       3.359  -5.186   0.721  1.00  0.00    -0.269 OA
ATOM     11  H   UNL     1       2.046  -7.013   0.986  1.00  0.00     0.193 HD
BRANCH   9  12
ATOM     12  C   UNL     1       3.263  -4.670   3.034  1.00  0.00     0.331 C 
BRANCH  12  13
ATOM     13  O   UNL     1       2.277  -3.836   3.593  1.00  0.00    -0.484 OA
BRANCH  13  14
ATOM     14  C   UNL     1       1.837  -2.792   2.843  1.00  0.00     0.120 A 
ATOM     15  C   UNL     1       0.695  -0.687   1.403  1.00  0.00     0.119 A 
ATOM     16  C   UNL     1      -0.034  -1.326   2.405  1.00  0.00     0.050 A 
ATOM     17  C   UNL     1       2.015  -1.073   1.160  1.00  0.00     0.050 A 
ATOM     18  C   UNL     1       0.538  -2.371   3.125  1.00  0.00     0.050 A 
ATOM     19  C   UNL     1       2.586  -2.125   1.879  1.00  0.00     0.050 A 
BRANCH  15  20
ATOM     20  O   UNL     1       0.027   0.306   0.742  1.00  0.00    -0.497 OA
ATOM     21  C   UNL     1       0.564   0.664  -0.525  1.00  0.00     0.278 C 
ENDBRANCH  15  20
ENDBRANCH  13  14
ENDBRANCH  12  13
ENDBRANCH   9  12
ENDBRANCH   6   8
ENDBRANCH   3   5
ENDBRANCH   2   3
ENDBRANCH   1   2
BRANCH   1  22
ATOM     22  C   UNL     1       4.191  -5.046   6.497  1.00  0.00     0.202 C 
BRANCH  22  23
ATOM     23  O   UNL     1       5.000  -5.680   5.508  1.00  0.00    -0.374 OA
BRANCH  23  24
ATOM     24  C   UNL     1       4.851  -7.065   5.192  1.00  0.00     0.202 C 
BRANCH  24  25
ATOM     25  C   UNL     1       5.227  -8.117   6.232  1.00  0.00     0.261 C 
BRANCH  25  26
ATOM     26  O   UNL     1       4.525  -7.941   7.464  1.00  0.00    -0.460 OA
BRANCH  26  27
ATOM     27  C   UNL     1       5.291  -7.432   8.457  1.00  0.00     0.338 C 
ATOM     28  O   UNL     1       6.478  -7.157   8.418  1.00  0.00    -0.246 OA
BRANCH  27  29
ATOM     29  C   UNL     1       4.427  -7.061   9.586  1.00  0.00     0.060 A 
ATOM     30  C   UNL     1       4.641  -5.807  10.172  1.00  0.00     0.016 A 
ATOM     31  C   UNL     1       3.468  -7.942  10.091  1.00  0.00     0.016 A 
ATOM     32  C   UNL     1       3.939  -5.452  11.314  1.00  0.00     0.010 A 
ATOM     33  C   UNL     1       2.775  -7.592  11.247  1.00  0.00     0.010 A 
ATOM     34  C   UNL     1       3.049  -6.369  11.883  1.00  0.00    -0.014 A 
BRANCH  34  35
ATOM     35  C   UNL     1       2.581  -6.131  13.261  1.00  0.00     0.031 A 
ATOM     36  C   UNL     1       3.337  -6.779  14.384  1.00  0.00     0.074 A 
ATOM     37  C   UNL     1       1.546  -5.309  13.494  1.00  0.00     0.049 A 
ATOM     38  N   UNL     1       3.123  -6.724  15.672  1.00  0.00    -0.248 NA
ATOM     39  C   UNL     1       4.497  -7.604  14.001  1.00  0.00     0.031 C 
ATOM     40  C   UNL     1       0.787  -4.598  12.468  1.00  0.00     0.029 A 
ATOM     41  N   UNL     1       0.961  -4.935  14.673  1.00  0.00    -0.354 N 
ATOM     42  C   UNL     1       4.117  -7.504  16.250  1.00  0.00     0.074 A 
ATOM     43  C   UNL     1       4.913  -8.051  15.175  1.00  0.00     0.031 C 
ATOM     44  C   UNL     1      -0.175  -3.873  13.065  1.00  0.00     0.029 A 
ATOM     45  C   UNL     1      -0.111  -4.096  14.508  1.00  0.00     0.049 A 
ATOM     46  H   UNL     1       1.278  -5.239  15.554  1.00  0.00     0.167 HD
ATOM     47  C   UNL     1       4.346  -7.730  17.564  1.00  0.00     0.037 A 
ATOM     48  C   UNL     1      -0.949  -3.584  15.427  1.00  0.00     0.037 A 
ATOM     49  C   UNL     1       3.536  -7.181  18.618  1.00  0.00     0.049 A 
ATOM     50  C   UNL     1      -0.712  -3.907  16.880  1.00  0.00     0.074 A 
ATOM     51  C   UNL     1       3.665  -7.348  19.985  1.00  0.00     0.029 A 
ATOM     52  N   UNL     1       2.437  -6.358  18.415  1.00  0.00    -0.354 N 
ATOM     53  N   UNL     1       0.233  -4.636  17.424  1.00  0.00    -0.248 NA
ATOM     54  C   UNL     1      -1.654  -3.328  17.846  1.00  0.00     0.031 C 
ATOM     55  C   UNL     1       2.615  -6.663  20.606  1.00  0.00     0.029 A 
ATOM     56  C   UNL     1       1.866  -6.022  19.630  1.00  0.00     0.049 A 
ATOM     57  H   UNL     1       2.111  -6.057  17.535  1.00  0.00     0.167 HD
ATOM     58  C   UNL     1       0.022  -4.576  18.795  1.00  0.00     0.074 A 
ATOM     59  C   UNL     1      -1.136  -3.728  18.998  1.00  0.00     0.031 C 
ATOM     60  C   UNL     1       0.720  -5.165  19.798  1.00  0.00     0.037 A 
BRANCH  47  61
ATOM     61  C   UNL     1       5.493  -8.628  17.922  1.00  0.00     0.064 A 
ATOM     62  C   UNL     1       6.827  -8.228  17.747  1.00  0.00     0.173 A 
ATOM     63  C   UNL     1       5.256  -9.902  18.459  1.00  0.00     0.173 A 
ATOM     64  F   UNL     1       7.108  -7.028  17.216  1.00  0.00    -0.203 F 
ATOM     65  C   UNL     1       7.880  -9.080  18.073  1.00  0.00     0.198 A 
ATOM     66  C   UNL     1       6.311 -10.740  18.811  1.00  0.00     0.198 A 
ATOM     67  F   UNL     1       4.000 -10.336  18.642  1.00  0.00    -0.203 F 
ATOM     68  F   UNL     1       9.144  -8.696  17.850  1.00  0.00    -0.200 F 
ATOM     69  C   UNL     1       7.621 -10.332  18.612  1.00  0.00     0.200 A 
ATOM     70  F   UNL     1       6.059 -11.946  19.339  1.00  0.00    -0.200 F 
ATOM     71  F   UNL     1       8.635 -11.149  18.930  1.00  0.00    -0.200 F 
ENDBRANCH  47  61
BRANCH  48  72
ATOM     72  C   UNL     1      -2.080  -2.719  15.004  1.00  0.00     0.064 A 
ATOM     73  C   UNL     1      -2.112  -1.357  15.331  1.00  0.00     0.173 A 
ATOM     74  C   UNL     1      -3.158  -3.239  14.272  1.00  0.00     0.173 A 
ATOM     75  F   UNL     1      -1.115  -0.817  16.047  1.00  0.00    -0.203 F 
ATOM     76  C   UNL     1      -3.189  -0.553  14.961  1.00  0.00     0.198 A 
ATOM     77  C   UNL     1      -4.220  -2.428  13.877  1.00  0.00     0.198 A 
ATOM     78  F   UNL     1      -3.175  -4.537  13.931  1.00  0.00    -0.203 F 
ATOM     79  F   UNL     1      -3.217   0.736  15.328  1.00  0.00    -0.200 F 
ATOM     80  C   UNL     1      -4.239  -1.088  14.230  1.00  0.00     0.200 A 
ATOM     81  F   UNL     1      -5.225  -2.947  13.160  1.00  0.00    -0.200 F 
ATOM     82  F   UNL     1      -5.273  -0.314  13.873  1.00  0.00    -0.200 F 
ENDBRANCH  48  72
BRANCH  60  83
ATOM     83  C   UNL     1       0.276  -4.870  21.201  1.00  0.00     0.064 A 
ATOM     84  C   UNL     1      -0.915  -5.391  21.725  1.00  0.00     0.173 A 
ATOM     85  C   UNL     1       1.075  -4.079  22.041  1.00  0.00     0.173 A 
ATOM     86  F   UNL     1      -1.719  -6.143  20.957  1.00  0.00    -0.203 F 
ATOM     87  C   UNL     1      -1.309  -5.102  23.028  1.00  0.00     0.198 A 
ATOM     88  C   UNL     1       0.694  -3.819  23.354  1.00  0.00     0.198 A 
ATOM     89  F   UNL     1       2.229  -3.566  21.591  1.00  0.00    -0.203 F 
ATOM     90  F   UNL     1      -2.480  -5.563  23.490  1.00  0.00    -0.200 F 
ATOM     91  C   UNL     1      -0.502  -4.322  23.843  1.00  0.00     0.200 A 
ATOM     92  F   UNL     1       1.484  -3.079  24.145  1.00  0.00    -0.200 F 
ATOM     93  F   UNL     1      -0.881  -4.047  25.099  1.00  0.00    -0.200 F 
ENDBRANCH  60  83
ENDBRANCH  34  35
ENDBRANCH  27  29
ENDBRANCH  26  27
ENDBRANCH  25  26
ENDBRANCH  24  25
ENDBRANCH  23  24
ENDBRANCH  22  23
ENDBRANCH   1  22
TORSDOF 19
