REMARK SMILES C[C@@H](C(=O)OCCOCCOC(=O)c1ccc(-c2c3nc(c(-c4c(F)c(F)c(F)c(F)c4F)c4ccc([nH]4)c(-c4c(F)c(F)c(F)c(F)c4F)c4nc(c(-c5c(F)c(F)c(F)c(F)c5F)c5ccc2[nH]5)C=C4)C=C3)cc1)c1ccc(-c2cccc(OC(=O)NCCCc3ccccc3)c2)c(F)c1
REMARK SMILES IDX 5 1 3 2 4 3 2 4 1 5 77 6 78 7 102 8 79 9 100 10 80 11 101 12
REMARK SMILES IDX 81 13 82 14 99 15 83 16 85 17 84 18 86 19 87 20 88 21 89 22
REMARK SMILES IDX 90 24 91 25 92 26 93 27 94 28 98 29 95 30 97 31 96 32 6 33
REMARK SMILES IDX 7 34 8 35 9 36 10 37 11 38 12 39 13 40 14 41 15 42 76 43
REMARK SMILES IDX 16 44 75 45 17 46 18 47 19 48 69 49 20 50 74 51 68 52 70 53
REMARK SMILES IDX 21 54 73 55 67 56 66 57 22 59 54 60 34 61 53 62 35 63 38 64
REMARK SMILES IDX 52 65 71 66 36 67 37 68 51 70 72 71 39 72 23 73 24 74 32 75
REMARK SMILES IDX 25 76 26 77 30 78 33 79 27 80 28 81 31 82 29 83 55 84 56 85
REMARK SMILES IDX 64 86 57 87 58 88 62 89 65 90 59 91 60 92 63 93 61 94 40 95
REMARK SMILES IDX 41 96 49 97 42 98 43 99 47 100 50 101 44 102 45 103 48 104
REMARK SMILES IDX 46 105
REMARK H PARENT 89 23 70 58 38 69
REMARK Flexibility Score: inf
ROOT
ATOM      1  O   UNL     1       2.075   2.123   1.999  1.00  0.00    -0.463 OA
ENDROOT
BRANCH   1   2
ATOM      2  C   UNL     1       1.158   1.391   2.688  1.00  0.00     0.313 C 
ATOM      3  O   UNL     1       0.768   1.666   3.818  1.00  0.00    -0.252 OA
BRANCH   2   4
ATOM      4  C   UNL     1       0.595   0.227   1.867  1.00  0.00     0.126 C 
ATOM      5  C   UNL     1       1.306  -0.043   0.535  1.00  0.00     0.025 C 
BRANCH   4   6
ATOM      6  C   UNL     1      -0.911   0.329   1.639  1.00  0.00    -0.031 A 
ATOM      7  C   UNL     1      -1.607   1.550   1.668  1.00  0.00     0.005 A 
ATOM      8  C   UNL     1      -1.643  -0.838   1.388  1.00  0.00     0.044 A 
ATOM      9  C   UNL     1      -2.992   1.600   1.488  1.00  0.00     0.012 A 
ATOM     10  C   UNL     1      -3.026  -0.783   1.226  1.00  0.00     0.131 A 
ATOM     11  C   UNL     1      -3.730   0.427   1.299  1.00  0.00     0.018 A 
ATOM     12  F   UNL     1      -3.686  -1.939   1.049  1.00  0.00    -0.206 F 
BRANCH  11  13
ATOM     13  C   UNL     1      -5.193   0.459   1.384  1.00  0.00    -0.012 A 
ATOM     14  C   UNL     1      -5.999   1.208   0.516  1.00  0.00     0.009 A 
ATOM     15  C   UNL     1      -5.803  -0.225   2.446  1.00  0.00     0.056 A 
ATOM     16  C   UNL     1      -7.383   1.273   0.715  1.00  0.00     0.004 A 
ATOM     17  C   UNL     1      -7.170  -0.134   2.662  1.00  0.00     0.133 A 
ATOM     18  C   UNL     1      -7.969   0.607   1.793  1.00  0.00     0.047 A 
BRANCH  17  19
ATOM     19  O   UNL     1      -7.833  -0.783   3.725  1.00  0.00    -0.410 OA
BRANCH  19  20
ATOM     20  C   UNL     1      -7.206  -1.332   4.840  1.00  0.00     0.412 C 
ATOM     21  O   UNL     1      -6.007  -1.289   5.109  1.00  0.00    -0.224 OA
ATOM     22  N   UNL     1      -8.071  -1.953   5.691  1.00  0.00    -0.321 N 
ATOM     23  H   UNL     1      -7.682  -2.468   6.434  1.00  0.00     0.167 HD
BRANCH  22  24
ATOM     24  C   UNL     1      -9.509  -1.916   5.591  1.00  0.00     0.120 C 
BRANCH  24  25
ATOM     25  C   UNL     1     -10.206  -3.168   6.117  1.00  0.00     0.026 C 
BRANCH  25  26
ATOM     26  C   UNL     1      -9.652  -3.832   7.384  1.00  0.00     0.037 C 
BRANCH  26  27
ATOM     27  C   UNL     1      -9.793  -3.163   8.732  1.00  0.00    -0.048 A 
ATOM     28  C   UNL     1      -9.995  -1.794   8.927  1.00  0.00     0.004 A 
ATOM     29  C   UNL     1      -9.643  -3.972   9.874  1.00  0.00     0.004 A 
ATOM     30  C   UNL     1     -10.038  -1.247  10.214  1.00  0.00     0.000 A 
ATOM     31  C   UNL     1      -9.696  -3.430  11.160  1.00  0.00     0.000 A 
ATOM     32  C   UNL     1      -9.888  -2.064  11.330  1.00  0.00     0.000 A 
ENDBRANCH  26  27
ENDBRANCH  25  26
ENDBRANCH  24  25
ENDBRANCH  22  24
ENDBRANCH  19  20
ENDBRANCH  17  19
ENDBRANCH  11  13
ENDBRANCH   4   6
ENDBRANCH   2   4
ENDBRANCH   1   2
BRANCH   1  33
ATOM     33  C   UNL     1       2.371   3.419   2.542  1.00  0.00     0.261 C 
BRANCH  33  34
ATOM     34  C   UNL     1       2.243   4.499   1.464  1.00  0.00     0.202 C 
BRANCH  34  35
ATOM     35  O   UNL     1       0.966   4.656   0.845  1.00  0.00    -0.374 OA
BRANCH  35  36
ATOM     36  C   UNL     1       0.552   3.661  -0.090  1.00  0.00     0.202 C 
BRANCH  36  37
ATOM     37  C   UNL     1       1.196   3.656  -1.480  1.00  0.00     0.261 C 
BRANCH  37  38
ATOM     38  O   UNL     1       2.607   3.387  -1.431  1.00  0.00    -0.460 OA
BRANCH  38  39
ATOM     39  C   UNL     1       3.387   4.457  -1.716  1.00  0.00     0.338 C 
ATOM     40  O   UNL     1       3.026   5.567  -2.070  1.00  0.00    -0.246 OA
BRANCH  39  41
ATOM     41  C   UNL     1       4.783   4.168  -1.347  1.00  0.00     0.060 A 
ATOM     42  C   UNL     1       5.414   5.065  -0.475  1.00  0.00     0.016 A 
ATOM     43  C   UNL     1       5.484   3.095  -1.898  1.00  0.00     0.016 A 
ATOM     44  C   UNL     1       6.769   4.926  -0.195  1.00  0.00     0.010 A 
ATOM     45  C   UNL     1       6.848   2.962  -1.623  1.00  0.00     0.010 A 
ATOM     46  C   UNL     1       7.502   3.901  -0.804  1.00  0.00    -0.014 A 
BRANCH  46  47
ATOM     47  C   UNL     1       8.980   3.915  -0.708  1.00  0.00     0.031 A 
ATOM     48  C   UNL     1       9.777   4.436  -1.872  1.00  0.00     0.074 A 
ATOM     49  C   UNL     1       9.598   3.510   0.414  1.00  0.00     0.049 A 
ATOM     50  N   UNL     1      11.074   4.513  -2.025  1.00  0.00    -0.248 NA
ATOM     51  C   UNL     1       9.005   4.937  -3.021  1.00  0.00     0.031 C 
ATOM     52  C   UNL     1       8.926   3.033   1.621  1.00  0.00     0.029 A 
ATOM     53  N   UNL     1      10.933   3.432   0.717  1.00  0.00    -0.354 N 
ATOM     54  C   UNL     1      11.273   5.057  -3.287  1.00  0.00     0.074 A 
ATOM     55  C   UNL     1       9.966   5.265  -3.872  1.00  0.00     0.031 C 
ATOM     56  C   UNL     1       9.854   2.705   2.535  1.00  0.00     0.029 A 
ATOM     57  C   UNL     1      11.183   2.914   1.963  1.00  0.00     0.049 A 
ATOM     58  H   UNL     1      11.644   3.721   0.101  1.00  0.00     0.167 HD
ATOM     59  C   UNL     1      12.443   5.362  -3.898  1.00  0.00     0.037 A 
ATOM     60  C   UNL     1      12.354   2.620   2.560  1.00  0.00     0.037 A 
ATOM     61  C   UNL     1      13.738   5.159  -3.304  1.00  0.00     0.049 A 
ATOM     62  C   UNL     1      13.641   2.900   1.827  1.00  0.00     0.074 A 
ATOM     63  C   UNL     1      14.983   5.459  -3.827  1.00  0.00     0.029 A 
ATOM     64  N   UNL     1      13.954   4.596  -2.054  1.00  0.00    -0.354 N 
ATOM     65  N   UNL     1      13.824   3.438   0.646  1.00  0.00    -0.248 NA
ATOM     66  C   UNL     1      14.887   2.532   2.515  1.00  0.00     0.031 C 
ATOM     67  C   UNL     1      15.954   5.019  -2.922  1.00  0.00     0.029 A 
ATOM     68  C   UNL     1      15.314   4.508  -1.804  1.00  0.00     0.049 A 
ATOM     69  H   UNL     1      13.246   4.301  -1.437  1.00  0.00     0.167 HD
ATOM     70  C   UNL     1      15.199   3.506   0.463  1.00  0.00     0.074 A 
ATOM     71  C   UNL     1      15.805   2.966   1.663  1.00  0.00     0.031 C 
ATOM     72  C   UNL     1      15.899   3.976  -0.599  1.00  0.00     0.037 A 
BRANCH  59  73
ATOM     73  C   UNL     1      12.379   5.916  -5.292  1.00  0.00     0.064 A 
ATOM     74  C   UNL     1      11.895   7.205  -5.558  1.00  0.00     0.173 A 
ATOM     75  C   UNL     1      12.848   5.156  -6.375  1.00  0.00     0.173 A 
ATOM     76  F   UNL     1      11.421   7.968  -4.562  1.00  0.00    -0.203 F 
ATOM     77  C   UNL     1      11.859   7.704  -6.859  1.00  0.00     0.198 A 
ATOM     78  C   UNL     1      12.841   5.669  -7.669  1.00  0.00     0.198 A 
ATOM     79  F   UNL     1      13.324   3.918  -6.177  1.00  0.00    -0.203 F 
ATOM     80  F   UNL     1      11.349   8.920  -7.095  1.00  0.00    -0.200 F 
ATOM     81  C   UNL     1      12.340   6.939  -7.911  1.00  0.00     0.200 A 
ATOM     82  F   UNL     1      13.320   4.934  -8.683  1.00  0.00    -0.200 F 
ATOM     83  F   UNL     1      12.316   7.424  -9.161  1.00  0.00    -0.200 F 
ENDBRANCH  59  73
BRANCH  60  84
ATOM     84  C   UNL     1      12.368   2.016   3.919  1.00  0.00     0.064 A 
ATOM     85  C   UNL     1      12.886   2.716   5.017  1.00  0.00     0.173 A 
ATOM     86  C   UNL     1      11.886   0.717   4.143  1.00  0.00     0.173 A 
ATOM     87  F   UNL     1      13.381   3.951   4.850  1.00  0.00    -0.203 F 
ATOM     88  C   UNL     1      12.944   2.132   6.281  1.00  0.00     0.198 A 
ATOM     89  C   UNL     1      11.914   0.147   5.413  1.00  0.00     0.198 A 
ATOM     90  F   UNL     1      11.380   0.003   3.127  1.00  0.00    -0.203 F 
ATOM     91  F   UNL     1      13.494   2.804   7.302  1.00  0.00    -0.200 F 
ATOM     92  C   UNL     1      12.453   0.851   6.480  1.00  0.00     0.200 A 
ATOM     93  F   UNL     1      11.426  -1.087   5.603  1.00  0.00    -0.200 F 
ATOM     94  F   UNL     1      12.507   0.290   7.696  1.00  0.00    -0.200 F 
ENDBRANCH  60  84
BRANCH  72  95
ATOM     95  C   UNL     1      17.399   3.970  -0.497  1.00  0.00     0.064 A 
ATOM     96  C   UNL     1      18.139   2.779  -0.524  1.00  0.00     0.173 A 
ATOM     97  C   UNL     1      18.106   5.180  -0.411  1.00  0.00     0.173 A 
ATOM     98  F   UNL     1      17.511   1.595  -0.591  1.00  0.00    -0.203 F 
ATOM     99  C   UNL     1      19.529   2.797  -0.438  1.00  0.00     0.198 A 
ATOM    100  C   UNL     1      19.497   5.196  -0.362  1.00  0.00     0.198 A 
ATOM    101  F   UNL     1      17.448   6.349  -0.391  1.00  0.00    -0.203 F 
ATOM    102  F   UNL     1      20.211   1.645  -0.411  1.00  0.00    -0.200 F 
ATOM    103  C   UNL     1      20.207   4.005  -0.366  1.00  0.00     0.200 A 
ATOM    104  F   UNL     1      20.151   6.365  -0.310  1.00  0.00    -0.200 F 
ATOM    105  F   UNL     1      21.545   4.021  -0.293  1.00  0.00    -0.200 F 
ENDBRANCH  72  95
ENDBRANCH  46  47
ENDBRANCH  39  41
ENDBRANCH  38  39
ENDBRANCH  37  38
ENDBRANCH  36  37
ENDBRANCH  35  36
ENDBRANCH  34  35
ENDBRANCH  33  34
ENDBRANCH   1  33
TORSDOF 22
