REMARK SMILES COc1ccc(-c2ccc(C(=O)NCc3ccc(C(=O)OCCOCCOC(=O)c4ccc(-c5c6nc(c(-c7c(F)c(F)c(F)c(F)c7F)c7ccc([nH]7)c(-c7c(F)c(F)c(F)c(F)c7F)c7nc(c(-c8c(F)c(F)c(F)c(F)c8F)c8ccc5[nH]8)C=C7)C=C6)cc4)cc3)o2)c([N+](=O)[O-])c1
REMARK SMILES IDX 22 1 21 2 19 3 20 4 18 5 15 6 16 7 94 8 17 9 93 10 14 11
REMARK SMILES IDX 13 12 11 13 12 14 10 16 7 17 8 18 95 19 9 20 6 21 3 22 4 23
REMARK SMILES IDX 100 24 5 25 96 26 2 27 1 28 97 29 98 30 99 31 23 32 24 33
REMARK SMILES IDX 25 34 26 35 27 36 28 37 29 38 30 39 31 40 92 41 32 42 91 43
REMARK SMILES IDX 33 44 34 45 35 46 85 47 36 48 90 49 84 50 86 51 37 52 89 53
REMARK SMILES IDX 83 54 82 55 38 57 70 58 50 59 69 60 51 61 54 62 68 63 87 64
REMARK SMILES IDX 52 65 53 66 67 68 88 69 55 70 39 71 40 72 48 73 41 74 42 75
REMARK SMILES IDX 46 76 49 77 43 78 44 79 47 80 45 81 71 82 72 83 80 84 73 85
REMARK SMILES IDX 74 86 78 87 81 88 75 89 76 90 79 91 77 92 56 93 57 94 65 95
REMARK SMILES IDX 58 96 59 97 63 98 66 99 60 100 61 101 64 102 62 103
REMARK H PARENT 13 15 86 56 54 67
REMARK Flexibility Score: inf
ROOT
ATOM      1  C   UNL     1       2.935  15.736  -5.812  1.00  0.00     0.261 C 
ENDROOT
BRANCH   1   2
ATOM      2  O   UNL     1       2.879  14.679  -4.840  1.00  0.00    -0.460 OA
BRANCH   2   3
ATOM      3  C   UNL     1       3.999  14.554  -4.088  1.00  0.00     0.338 C 
ATOM      4  O   UNL     1       5.065  15.125  -4.266  1.00  0.00    -0.246 OA
BRANCH   3   5
ATOM      5  C   UNL     1       3.746  13.716  -2.894  1.00  0.00     0.060 A 
ATOM      6  C   UNL     1       3.518  12.112  -0.590  1.00  0.00    -0.029 A 
ATOM      7  C   UNL     1       4.341  13.248  -0.592  1.00  0.00     0.006 A 
ATOM      8  C   UNL     1       2.759  11.832  -1.740  1.00  0.00     0.006 A 
ATOM      9  C   UNL     1       4.453  14.043  -1.732  1.00  0.00     0.016 A 
ATOM     10  C   UNL     1       2.870  12.628  -2.890  1.00  0.00     0.016 A 
BRANCH   6  11
ATOM     11  C   UNL     1       3.576  11.178   0.597  1.00  0.00     0.152 C 
BRANCH  11  12
ATOM     12  N   UNL     1       2.281  10.763   1.072  1.00  0.00    -0.345 N 
ATOM     13  C   UNL     1       1.669   9.533   1.068  1.00  0.00     0.287 C 
ATOM     14  O   UNL     1       0.675   9.434   1.792  1.00  0.00    -0.266 OA
ATOM     15  H   UNL     1       1.741  11.485   1.468  1.00  0.00     0.164 HD
BRANCH  13  16
ATOM     16  C   UNL     1       2.151   8.438   0.242  1.00  0.00     0.192 A 
ATOM     17  C   UNL     1       2.146   6.316  -0.395  1.00  0.00     0.142 A 
ATOM     18  C   UNL     1       3.029   6.961  -1.228  1.00  0.00     0.052 A 
ATOM     19  O   UNL     1       1.598   7.199   0.480  1.00  0.00    -0.451 OA
ATOM     20  C   UNL     1       3.031   8.318  -0.822  1.00  0.00     0.057 A 
BRANCH  17  21
ATOM     21  C   UNL     1       1.681   4.945  -0.297  1.00  0.00     0.095 A 
ATOM     22  C   UNL     1       0.710   2.285  -0.388  1.00  0.00     0.125 A 
ATOM     23  C   UNL     1      -0.143   3.366  -0.624  1.00  0.00     0.047 A 
ATOM     24  C   UNL     1       2.048   2.525  -0.086  1.00  0.00     0.132 A 
ATOM     25  C   UNL     1       0.331   4.681  -0.567  1.00  0.00     0.023 A 
ATOM     26  C   UNL     1       2.521   3.850  -0.040  1.00  0.00     0.284 A 
BRANCH  22  27
ATOM     27  O   UNL     1       0.127   1.056  -0.518  1.00  0.00    -0.497 OA
ATOM     28  C   UNL     1       0.802  -0.040   0.088  1.00  0.00     0.278 C 
ENDBRANCH  22  27
BRANCH  26  29
ATOM     29  N   UNL     1       3.930   4.043   0.281  1.00  0.00     0.063 N 
ATOM     30  O   UNL     1       4.228   4.915   1.106  1.00  0.00    -0.258 OA
ATOM     31  O   UNL     1       4.740   3.288  -0.277  1.00  0.00    -0.258 OA
ENDBRANCH  26  29
ENDBRANCH  17  21
ENDBRANCH  13  16
ENDBRANCH  11  12
ENDBRANCH   6  11
ENDBRANCH   3   5
ENDBRANCH   2   3
ENDBRANCH   1   2
BRANCH   1  32
ATOM     32  C   UNL     1       1.994  16.888  -5.447  1.00  0.00     0.202 C 
BRANCH  32  33
ATOM     33  O   UNL     1       2.213  17.510  -4.182  1.00  0.00    -0.374 OA
BRANCH  33  34
ATOM     34  C   UNL     1       1.667  16.862  -3.031  1.00  0.00     0.202 C 
BRANCH  34  35
ATOM     35  C   UNL     1       0.158  17.026  -2.809  1.00  0.00     0.261 C 
BRANCH  35  36
ATOM     36  O   UNL     1      -0.608  16.299  -3.788  1.00  0.00    -0.460 OA
BRANCH  36  37
ATOM     37  C   UNL     1      -1.298  17.064  -4.663  1.00  0.00     0.338 C 
ATOM     38  O   UNL     1      -1.407  18.282  -4.663  1.00  0.00    -0.246 OA
BRANCH  37  39
ATOM     39  C   UNL     1      -1.782  16.229  -5.777  1.00  0.00     0.060 A 
ATOM     40  C   UNL     1      -1.472  16.637  -7.082  1.00  0.00     0.016 A 
ATOM     41  C   UNL     1      -2.576  15.103  -5.555  1.00  0.00     0.016 A 
ATOM     42  C   UNL     1      -1.995  15.947  -8.174  1.00  0.00     0.010 A 
ATOM     43  C   UNL     1      -3.109  14.418  -6.650  1.00  0.00     0.010 A 
ATOM     44  C   UNL     1      -2.849  14.857  -7.962  1.00  0.00    -0.014 A 
BRANCH  44  45
ATOM     45  C   UNL     1      -3.605  14.273  -9.095  1.00  0.00     0.031 A 
ATOM     46  C   UNL     1      -5.033  14.693  -9.301  1.00  0.00     0.074 A 
ATOM     47  C   UNL     1      -3.034  13.382  -9.922  1.00  0.00     0.049 A 
ATOM     48  N   UNL     1      -5.921  14.239 -10.147  1.00  0.00    -0.248 NA
ATOM     49  C   UNL     1      -5.527  15.771  -8.428  1.00  0.00     0.031 C 
ATOM     50  C   UNL     1      -1.643  12.939  -9.857  1.00  0.00     0.029 A 
ATOM     51  N   UNL     1      -3.565  12.676 -10.973  1.00  0.00    -0.354 N 
ATOM     52  C   UNL     1      -7.079  14.964  -9.901  1.00  0.00     0.074 A 
ATOM     53  C   UNL     1      -6.791  15.872  -8.812  1.00  0.00     0.031 C 
ATOM     54  C   UNL     1      -1.434  12.021 -10.816  1.00  0.00     0.029 A 
ATOM     55  C   UNL     1      -2.686  11.783 -11.533  1.00  0.00     0.049 A 
ATOM     56  H   UNL     1      -4.487  12.799 -11.294  1.00  0.00     0.167 HD
ATOM     57  C   UNL     1      -8.274  14.882 -10.532  1.00  0.00     0.037 A 
ATOM     58  C   UNL     1      -2.884  10.858 -12.492  1.00  0.00     0.037 A 
ATOM     59  C   UNL     1      -8.556  13.978 -11.615  1.00  0.00     0.049 A 
ATOM     60  C   UNL     1      -4.248  10.725 -13.121  1.00  0.00     0.074 A 
ATOM     61  C   UNL     1      -9.732  13.823 -12.328  1.00  0.00     0.029 A 
ATOM     62  N   UNL     1      -7.647  13.069 -12.138  1.00  0.00    -0.354 N 
ATOM     63  N   UNL     1      -5.337  11.418 -12.891  1.00  0.00    -0.248 NA
ATOM     64  C   UNL     1      -4.410   9.678 -14.140  1.00  0.00     0.031 C 
ATOM     65  C   UNL     1      -9.550  12.787 -13.249  1.00  0.00     0.029 A 
ATOM     66  C   UNL     1      -8.244  12.334 -13.148  1.00  0.00     0.049 A 
ATOM     67  H   UNL     1      -6.716  12.963 -11.835  1.00  0.00     0.167 HD
ATOM     68  C   UNL     1      -6.300  10.918 -13.759  1.00  0.00     0.074 A 
ATOM     69  C   UNL     1      -5.666   9.864 -14.522  1.00  0.00     0.031 C 
ATOM     70  C   UNL     1      -7.591  11.302 -13.913  1.00  0.00     0.037 A 
BRANCH  57  71
ATOM     71  C   UNL     1      -9.377  15.774 -10.044  1.00  0.00     0.064 A 
ATOM     72  C   UNL     1      -9.361  17.159 -10.269  1.00  0.00     0.173 A 
ATOM     73  C   UNL     1     -10.480  15.233  -9.367  1.00  0.00     0.173 A 
ATOM     74  F   UNL     1      -8.322  17.728 -10.899  1.00  0.00    -0.203 F 
ATOM     75  C   UNL     1     -10.395  17.971  -9.811  1.00  0.00     0.198 A 
ATOM     76  C   UNL     1     -11.526  16.044  -8.935  1.00  0.00     0.198 A 
ATOM     77  F   UNL     1     -10.547  13.914  -9.128  1.00  0.00    -0.203 F 
ATOM     78  F   UNL     1     -10.335  19.298  -9.995  1.00  0.00    -0.200 F 
ATOM     79  C   UNL     1     -11.479  17.413  -9.150  1.00  0.00     0.200 A 
ATOM     80  F   UNL     1     -12.578  15.501  -8.308  1.00  0.00    -0.200 F 
ATOM     81  F   UNL     1     -12.476  18.195  -8.715  1.00  0.00    -0.200 F 
ENDBRANCH  57  71
BRANCH  58  82
ATOM     82  C   UNL     1      -1.767   9.970 -12.909  1.00  0.00     0.064 A 
ATOM     83  C   UNL     1      -1.197  10.077 -14.184  1.00  0.00     0.173 A 
ATOM     84  C   UNL     1      -1.258   8.986 -12.047  1.00  0.00     0.173 A 
ATOM     85  F   UNL     1      -1.667  10.985 -15.053  1.00  0.00    -0.203 F 
ATOM     86  C   UNL     1      -0.172   9.225 -14.589  1.00  0.00     0.198 A 
ATOM     87  C   UNL     1      -0.214   8.153 -12.443  1.00  0.00     0.198 A 
ATOM     88  F   UNL     1      -1.771   8.840 -10.817  1.00  0.00    -0.203 F 
ATOM     89  F   UNL     1       0.325   9.320 -15.829  1.00  0.00    -0.200 F 
ATOM     90  C   UNL     1       0.323   8.268 -13.716  1.00  0.00     0.200 A 
ATOM     91  F   UNL     1       0.268   7.237 -11.592  1.00  0.00    -0.200 F 
ATOM     92  F   UNL     1       1.312   7.451 -14.104  1.00  0.00    -0.200 F 
ENDBRANCH  58  82
BRANCH  70  93
ATOM     93  C   UNL     1      -8.396  10.621 -14.981  1.00  0.00     0.064 A 
ATOM     94  C   UNL     1      -8.859   9.307 -14.832  1.00  0.00     0.173 A 
ATOM     95  C   UNL     1      -8.767  11.323 -16.139  1.00  0.00     0.173 A 
ATOM     96  F   UNL     1      -8.521   8.590 -13.750  1.00  0.00    -0.203 F 
ATOM     97  C   UNL     1      -9.652   8.714 -15.812  1.00  0.00     0.198 A 
ATOM     98  C   UNL     1      -9.582  10.737 -17.102  1.00  0.00     0.198 A 
ATOM     99  F   UNL     1      -8.355  12.586 -16.325  1.00  0.00    -0.203 F 
ATOM    100  F   UNL     1     -10.055   7.444 -15.666  1.00  0.00    -0.200 F 
ATOM    101  C   UNL     1     -10.021   9.432 -16.940  1.00  0.00     0.200 A 
ATOM    102  F   UNL     1      -9.949  11.437 -18.185  1.00  0.00    -0.200 F 
ATOM    103  F   UNL     1     -10.796   8.864 -17.874  1.00  0.00    -0.200 F 
ENDBRANCH  70  93
ENDBRANCH  44  45
ENDBRANCH  37  39
ENDBRANCH  36  37
ENDBRANCH  35  36
ENDBRANCH  34  35
ENDBRANCH  33  34
ENDBRANCH  32  33
ENDBRANCH   1  32
TORSDOF 20
