REMARK SMILES C[C@H](NC(=O)N1CC[C@H](C(=O)OCCOCCOC(=O)c2ccc(-c3c4nc(c(-c5c(F)c(F)c(F)c(F)c5F)c5ccc([nH]5)c(-c5c(F)c(F)c(F)c(F)c5F)c5nc(c(-c6c(F)c(F)c(F)c(F)c6F)c6ccc3[nH]6)C=C5)C=C4)cc2)[C@@H]1C)[C@@H]1CCCO1
REMARK SMILES IDX 14 1 13 2 12 3 10 4 11 5 9 6 6 7 7 8 84 9 8 10 85 11 4 12
REMARK SMILES IDX 3 13 5 15 2 16 1 17 86 18 87 19 90 20 88 21 89 22 15 23
REMARK SMILES IDX 16 24 17 25 18 26 19 27 20 28 21 29 22 30 83 31 23 32 82 33
REMARK SMILES IDX 24 34 25 35 26 36 76 37 27 38 81 39 75 40 77 41 28 42 80 43
REMARK SMILES IDX 74 44 73 45 29 47 61 48 41 49 60 50 42 51 45 52 59 53 78 54
REMARK SMILES IDX 43 55 44 56 58 58 79 59 46 60 30 61 31 62 39 63 32 64 33 65
REMARK SMILES IDX 37 66 40 67 34 68 35 69 38 70 36 71 62 72 63 73 71 74 64 75
REMARK SMILES IDX 65 76 69 77 72 78 66 79 67 80 70 81 68 82 47 83 48 84 56 85
REMARK SMILES IDX 49 86 50 87 54 88 57 89 51 90 52 91 55 92 53 93
REMARK H PARENT 3 14 77 46 45 57
REMARK Flexibility Score: inf
ROOT
ATOM      1  C   UNL     1       5.053   6.467   3.497  1.00  0.00     0.202 C 
ENDROOT
BRANCH   1   2
ATOM      2  C   UNL     1       3.864   6.904   2.634  1.00  0.00     0.261 C 
BRANCH   2   3
ATOM      3  O   UNL     1       2.859   5.871   2.575  1.00  0.00    -0.463 OA
BRANCH   3   4
ATOM      4  C   UNL     1       2.538   5.400   1.335  1.00  0.00     0.311 C 
ATOM      5  O   UNL     1       3.008   5.808   0.283  1.00  0.00    -0.252 OA
BRANCH   4   6
ATOM      6  C   UNL     1       1.511   4.299   1.448  1.00  0.00     0.123 C 
ATOM      7  N   UNL     1       0.999   2.426   0.090  1.00  0.00    -0.321 N 
ATOM      8  C   UNL     1       0.493   3.583  -0.610  1.00  0.00     0.122 C 
ATOM      9  C   UNL     1       1.957   2.858   1.097  1.00  0.00     0.098 C 
ATOM     10  C   UNL     1       0.332   4.597   0.505  1.00  0.00     0.039 C 
ATOM     11  C   UNL     1       3.378   2.602   0.589  1.00  0.00     0.032 C 
BRANCH   7  12
ATOM     12  C   UNL     1       0.873   1.176  -0.431  1.00  0.00     0.317 C 
ATOM     13  N   UNL     1       1.092   0.091   0.359  1.00  0.00    -0.333 N 
ATOM     14  H   UNL     1       1.845  -0.489   0.101  1.00  0.00     0.165 HD
ATOM     15  O   UNL     1       0.641   0.981  -1.625  1.00  0.00    -0.249 OA
BRANCH  13  16
ATOM     16  C   UNL     1       0.334  -0.321   1.558  1.00  0.00     0.109 C 
ATOM     17  C   UNL     1       0.715   0.371   2.861  1.00  0.00     0.034 C 
BRANCH  16  18
ATOM     18  C   UNL     1      -1.205  -0.323   1.383  1.00  0.00     0.140 C 
ATOM     19  C   UNL     1      -1.717  -1.421   0.462  1.00  0.00     0.036 C 
ATOM     20  O   UNL     1      -1.719   0.925   0.880  1.00  0.00    -0.376 OA
ATOM     21  C   UNL     1      -2.999  -0.817  -0.052  1.00  0.00     0.031 C 
ATOM     22  C   UNL     1      -2.599   0.631  -0.218  1.00  0.00     0.160 C 
ENDBRANCH  16  18
ENDBRANCH  13  16
ENDBRANCH   7  12
ENDBRANCH   4   6
ENDBRANCH   3   4
ENDBRANCH   2   3
ENDBRANCH   1   2
BRANCH   1  23
ATOM     23  O   UNL     1       5.948   5.488   2.964  1.00  0.00    -0.374 OA
BRANCH  23  24
ATOM     24  C   UNL     1       5.423   4.192   2.715  1.00  0.00     0.202 C 
BRANCH  24  25
ATOM     25  C   UNL     1       5.272   3.211   3.887  1.00  0.00     0.261 C 
BRANCH  25  26
ATOM     26  O   UNL     1       4.895   3.838   5.107  1.00  0.00    -0.460 OA
BRANCH  26  27
ATOM     27  C   UNL     1       5.957   4.241   5.839  1.00  0.00     0.338 C 
ATOM     28  O   UNL     1       7.143   4.038   5.625  1.00  0.00    -0.246 OA
BRANCH  27  29
ATOM     29  C   UNL     1       5.467   5.132   6.890  1.00  0.00     0.060 A 
ATOM     30  C   UNL     1       6.003   6.423   6.945  1.00  0.00     0.016 A 
ATOM     31  C   UNL     1       4.512   4.695   7.810  1.00  0.00     0.016 A 
ATOM     32  C   UNL     1       5.618   7.276   7.967  1.00  0.00     0.010 A 
ATOM     33  C   UNL     1       4.132   5.550   8.839  1.00  0.00     0.010 A 
ATOM     34  C   UNL     1       4.718   6.824   8.941  1.00  0.00    -0.014 A 
BRANCH  34  35
ATOM     35  C   UNL     1       4.534   7.619  10.168  1.00  0.00     0.031 A 
ATOM     36  C   UNL     1       5.296   7.215  11.395  1.00  0.00     0.074 A 
ATOM     37  C   UNL     1       3.733   8.696  10.161  1.00  0.00     0.049 A 
ATOM     38  N   UNL     1       5.292   7.747  12.589  1.00  0.00    -0.248 NA
ATOM     39  C   UNL     1       6.182   6.047  11.258  1.00  0.00     0.031 C 
ATOM     40  C   UNL     1       2.990   9.185   9.002  1.00  0.00     0.029 A 
ATOM     41  N   UNL     1       3.418   9.573  11.163  1.00  0.00    -0.354 N 
ATOM     42  C   UNL     1       6.170   6.979  13.342  1.00  0.00     0.074 A 
ATOM     43  C   UNL     1       6.652   5.917  12.488  1.00  0.00     0.031 C 
ATOM     44  C   UNL     1       2.305  10.284   9.358  1.00  0.00     0.029 A 
ATOM     45  C   UNL     1       2.537  10.549  10.776  1.00  0.00     0.049 A 
ATOM     46  H   UNL     1       3.788   9.509  12.073  1.00  0.00     0.167 HD
ATOM     47  C   UNL     1       6.550   7.160  14.628  1.00  0.00     0.037 A 
ATOM     48  C   UNL     1       1.976  11.535  11.500  1.00  0.00     0.037 A 
ATOM     49  C   UNL     1       6.046   8.218  15.463  1.00  0.00     0.049 A 
ATOM     50  C   UNL     1       2.345  11.659  12.956  1.00  0.00     0.074 A 
ATOM     51  C   UNL     1       6.354   8.503  16.780  1.00  0.00     0.029 A 
ATOM     52  N   UNL     1       5.114   9.163  15.055  1.00  0.00    -0.354 N 
ATOM     53  N   UNL     1       3.192  10.947  13.661  1.00  0.00    -0.248 NA
ATOM     54  C   UNL     1       1.681  12.725  13.714  1.00  0.00     0.031 C 
ATOM     55  C   UNL     1       5.563   9.583  17.186  1.00  0.00     0.029 A 
ATOM     56  C   UNL     1       4.812  10.015  16.104  1.00  0.00     0.049 A 
ATOM     57  H   UNL     1       4.724   9.219  14.152  1.00  0.00     0.167 HD
ATOM     58  C   UNL     1       3.190  11.499  14.935  1.00  0.00     0.074 A 
ATOM     59  C   UNL     1       2.264  12.614  14.899  1.00  0.00     0.031 C 
ATOM     60  C   UNL     1       3.889  11.123  16.035  1.00  0.00     0.037 A 
BRANCH  47  61
ATOM     61  C   UNL     1       7.524   6.173  15.205  1.00  0.00     0.064 A 
ATOM     62  C   UNL     1       8.854   6.097  14.760  1.00  0.00     0.173 A 
ATOM     63  C   UNL     1       7.121   5.282  16.211  1.00  0.00     0.173 A 
ATOM     64  F   UNL     1       9.289   6.912  13.787  1.00  0.00    -0.203 F 
ATOM     65  C   UNL     1       9.730   5.142  15.272  1.00  0.00     0.198 A 
ATOM     66  C   UNL     1       8.009   4.352  16.747  1.00  0.00     0.198 A 
ATOM     67  F   UNL     1       5.863   5.309  16.675  1.00  0.00    -0.203 F 
ATOM     68  F   UNL     1      10.974   5.045  14.784  1.00  0.00    -0.200 F 
ATOM     69  C   UNL     1       9.309   4.275  16.269  1.00  0.00     0.200 A 
ATOM     70  F   UNL     1       7.604   3.523  17.718  1.00  0.00    -0.200 F 
ATOM     71  F   UNL     1      10.151   3.356  16.760  1.00  0.00    -0.200 F 
ENDBRANCH  47  61
BRANCH  48  72
ATOM     72  C   UNL     1       1.026  12.480  10.861  1.00  0.00     0.064 A 
ATOM     73  C   UNL     1       1.357  13.832  10.695  1.00  0.00     0.173 A 
ATOM     74  C   UNL     1      -0.230  12.056  10.400  1.00  0.00     0.173 A 
ATOM     75  F   UNL     1       2.538  14.290  11.135  1.00  0.00    -0.203 F 
ATOM     76  C   UNL     1       0.462  14.727  10.112  1.00  0.00     0.198 A 
ATOM     77  C   UNL     1      -1.112  12.945   9.790  1.00  0.00     0.198 A 
ATOM     78  F   UNL     1      -0.595  10.772  10.530  1.00  0.00    -0.203 F 
ATOM     79  F   UNL     1       0.786  16.022  10.007  1.00  0.00    -0.200 F 
ATOM     80  C   UNL     1      -0.769  14.281   9.654  1.00  0.00     0.200 A 
ATOM     81  F   UNL     1      -2.293  12.506   9.334  1.00  0.00    -0.200 F 
ATOM     82  F   UNL     1      -1.627  15.140   9.087  1.00  0.00    -0.200 F 
ENDBRANCH  48  72
BRANCH  60  83
ATOM     83  C   UNL     1       3.712  11.952  17.275  1.00  0.00     0.064 A 
ATOM     84  C   UNL     1       2.519  11.937  18.011  1.00  0.00     0.173 A 
ATOM     85  C   UNL     1       4.769  12.744  17.752  1.00  0.00     0.173 A 
ATOM     86  F   UNL     1       1.474  11.208  17.590  1.00  0.00    -0.203 F 
ATOM     87  C   UNL     1       2.379  12.708  19.162  1.00  0.00     0.198 A 
ATOM     88  C   UNL     1       4.638  13.484  18.922  1.00  0.00     0.198 A 
ATOM     89  F   UNL     1       5.935  12.787  17.090  1.00  0.00    -0.203 F 
ATOM     90  F   UNL     1       1.210  12.723  19.817  1.00  0.00    -0.200 F 
ATOM     91  C   UNL     1       3.440  13.474  19.621  1.00  0.00     0.200 A 
ATOM     92  F   UNL     1       5.671  14.209  19.374  1.00  0.00    -0.200 F 
ATOM     93  F   UNL     1       3.306  14.209  20.733  1.00  0.00    -0.200 F 
ENDBRANCH  60  83
ENDBRANCH  34  35
ENDBRANCH  27  29
ENDBRANCH  26  27
ENDBRANCH  25  26
ENDBRANCH  24  25
ENDBRANCH  23  24
ENDBRANCH   1  23
TORSDOF 17
