REMARK SMILES Cc1c(NC(=O)[C@@H]2CC=CC[C@@H]2C(=O)OCCOCCOC(=O)c2ccc(-c3c4nc(c(-c5c(F)c(F)c(F)c(F)c5F)c5ccc([nH]5)c(-c5c(F)c(F)c(F)c(F)c5F)c5nc(c(-c6c(F)c(F)c(F)c(F)c6F)c6ccc3[nH]6)C=C5)C=C4)cc2)cccc1C(=O)N1CCOCC1
REMARK SMILES IDX 17 1 16 2 15 3 13 4 14 5 12 6 7 7 8 8 9 9 11 10 10 11 5 12
REMARK SMILES IDX 4 13 6 15 3 16 1 17 2 18 90 19 87 20 89 21 88 22 91 23 92 24
REMARK SMILES IDX 93 25 94 26 98 27 95 28 97 29 96 30 18 31 19 32 20 33 21 34
REMARK SMILES IDX 22 35 23 36 24 37 25 38 86 39 26 40 85 41 27 42 28 43 29 44
REMARK SMILES IDX 79 45 30 46 84 47 78 48 80 49 31 50 83 51 77 52 76 53 32 55
REMARK SMILES IDX 64 56 44 57 63 58 45 59 48 60 62 61 81 62 46 63 47 64 61 66
REMARK SMILES IDX 82 67 49 68 33 69 34 70 42 71 35 72 36 73 40 74 43 75 37 76
REMARK SMILES IDX 38 77 41 78 39 79 65 80 66 81 74 82 67 83 68 84 72 85 75 86
REMARK SMILES IDX 69 87 70 88 73 89 71 90 50 91 51 92 59 93 52 94 53 95 57 96
REMARK SMILES IDX 60 97 54 98 55 99 58 100 56 101
REMARK H PARENT 4 14 80 54 48 65
REMARK Flexibility Score: inf
ROOT
ATOM      1  C   UNL     1      -4.066  -1.836   1.532  1.00  0.00     0.202 C 
ENDROOT
BRANCH   1   2
ATOM      2  C   UNL     1      -3.879  -3.076   0.715  1.00  0.00     0.261 C 
BRANCH   2   3
ATOM      3  O   UNL     1      -2.668  -3.082  -0.068  1.00  0.00    -0.463 OA
BRANCH   3   4
ATOM      4  C   UNL     1      -2.360  -2.156  -1.024  1.00  0.00     0.310 C 
ATOM      5  O   UNL     1      -3.145  -1.583  -1.744  1.00  0.00    -0.252 OA
BRANCH   4   6
ATOM      6  C   UNL     1      -0.843  -1.927  -1.049  1.00  0.00     0.116 C 
ATOM      7  C   UNL     1      -0.053  -2.844  -0.062  1.00  0.00     0.097 C 
ATOM      8  C   UNL     1      -0.462  -2.548   1.403  1.00  0.00     0.041 C 
ATOM      9  C   UNL     1      -0.559  -1.075   1.681  1.00  0.00    -0.030 C 
ATOM     10  C   UNL     1      -0.558  -0.453  -0.748  1.00  0.00     0.043 C 
ATOM     11  C   UNL     1      -0.561  -0.138   0.721  1.00  0.00    -0.030 C 
BRANCH   7  12
ATOM     12  C   UNL     1      -0.217  -4.286  -0.526  1.00  0.00     0.228 C 
ATOM     13  N   UNL     1       0.167  -5.385   0.156  1.00  0.00    -0.326 N 
ATOM     14  H   UNL     1      -0.363  -6.181  -0.079  1.00  0.00     0.169 HD
ATOM     15  O   UNL     1      -0.704  -4.524  -1.638  1.00  0.00    -0.274 OA
BRANCH  13  16
ATOM     16  C   UNL     1       1.148  -5.654   1.125  1.00  0.00     0.044 A 
ATOM     17  C   UNL     1       0.305  -8.031   1.148  1.00  0.00     0.047 C 
ATOM     18  C   UNL     1       1.324  -7.004   1.548  1.00  0.00    -0.015 A 
ATOM     19  C   UNL     1       2.461  -7.339   2.321  1.00  0.00     0.045 A 
ATOM     20  C   UNL     1       2.019  -4.670   1.584  1.00  0.00     0.026 A 
ATOM     21  C   UNL     1       3.286  -6.298   2.790  1.00  0.00     0.014 A 
ATOM     22  C   UNL     1       3.048  -4.974   2.457  1.00  0.00     0.003 A 
BRANCH  19  23
ATOM     23  C   UNL     1       2.846  -8.700   2.834  1.00  0.00     0.254 C 
ATOM     24  O   UNL     1       3.619  -8.762   3.792  1.00  0.00    -0.269 OA
ATOM     25  N   UNL     1       2.254  -9.854   2.348  1.00  0.00    -0.334 N 
ATOM     26  C   UNL     1       2.356 -10.339   0.967  1.00  0.00     0.148 C 
ATOM     27  C   UNL     1       1.997 -10.913   3.316  1.00  0.00     0.148 C 
ATOM     28  C   UNL     1       1.162 -11.249   0.607  1.00  0.00     0.181 C 
ATOM     29  C   UNL     1       0.744 -11.679   2.903  1.00  0.00     0.181 C 
ATOM     30  O   UNL     1       0.922 -12.260   1.601  1.00  0.00    -0.378 OA
ENDBRANCH  19  23
ENDBRANCH  13  16
ENDBRANCH   7  12
ENDBRANCH   4   6
ENDBRANCH   3   4
ENDBRANCH   2   3
ENDBRANCH   1   2
BRANCH   1  31
ATOM     31  O   UNL     1      -4.249  -0.785   0.608  1.00  0.00    -0.374 OA
BRANCH  31  32
ATOM     32  C   UNL     1      -4.238   0.520   1.144  1.00  0.00     0.202 C 
BRANCH  32  33
ATOM     33  C   UNL     1      -5.336   0.736   2.189  1.00  0.00     0.261 C 
BRANCH  33  34
ATOM     34  O   UNL     1      -6.637   0.606   1.575  1.00  0.00    -0.460 OA
BRANCH  34  35
ATOM     35  C   UNL     1      -7.254  -0.597   1.744  1.00  0.00     0.338 C 
ATOM     36  O   UNL     1      -7.457  -1.138   2.820  1.00  0.00    -0.246 OA
BRANCH  35  37
ATOM     37  C   UNL     1      -7.377  -1.294   0.431  1.00  0.00     0.060 A 
ATOM     38  C   UNL     1      -7.712  -2.662   0.391  1.00  0.00     0.016 A 
ATOM     39  C   UNL     1      -6.815  -0.682  -0.686  1.00  0.00     0.016 A 
ATOM     40  C   UNL     1      -7.326  -3.445  -0.703  1.00  0.00     0.010 A 
ATOM     41  C   UNL     1      -6.300  -1.483  -1.678  1.00  0.00     0.010 A 
ATOM     42  C   UNL     1      -6.527  -2.867  -1.683  1.00  0.00    -0.014 A 
BRANCH  42  43
ATOM     43  C   UNL     1      -5.869  -3.570  -2.779  1.00  0.00     0.031 A 
ATOM     44  C   UNL     1      -6.354  -3.256  -4.135  1.00  0.00     0.074 A 
ATOM     45  C   UNL     1      -4.726  -4.278  -2.602  1.00  0.00     0.049 A 
ATOM     46  N   UNL     1      -6.024  -3.927  -5.179  1.00  0.00    -0.248 NA
ATOM     47  C   UNL     1      -7.324  -2.196  -4.436  1.00  0.00     0.031 C 
ATOM     48  C   UNL     1      -3.703  -4.641  -3.585  1.00  0.00     0.029 A 
ATOM     49  N   UNL     1      -4.241  -4.888  -1.435  1.00  0.00    -0.354 N 
ATOM     50  C   UNL     1      -6.366  -3.159  -6.261  1.00  0.00     0.074 A 
ATOM     51  C   UNL     1      -7.356  -2.243  -5.770  1.00  0.00     0.031 C 
ATOM     52  C   UNL     1      -2.952  -5.644  -3.088  1.00  0.00     0.029 A 
ATOM     53  C   UNL     1      -3.556  -6.047  -1.826  1.00  0.00     0.049 A 
ATOM     54  H   UNL     1      -4.361  -4.563  -0.513  1.00  0.00     0.167 HD
ATOM     55  C   UNL     1      -5.610  -3.280  -7.385  1.00  0.00     0.037 A 
ATOM     56  C   UNL     1      -4.056  -7.263  -1.477  1.00  0.00     0.037 A 
ATOM     57  C   UNL     1      -4.713  -4.450  -7.284  1.00  0.00     0.049 A 
ATOM     58  C   UNL     1      -4.468  -7.994  -2.721  1.00  0.00     0.074 A 
ATOM     59  C   UNL     1      -3.344  -4.646  -7.244  1.00  0.00     0.029 A 
ATOM     60  N   UNL     1      -5.266  -5.668  -6.886  1.00  0.00    -0.354 N 
ATOM     61  N   UNL     1      -4.563  -7.399  -3.878  1.00  0.00    -0.248 NA
ATOM     62  C   UNL     1      -4.805  -9.405  -2.795  1.00  0.00     0.031 C 
ATOM     63  C   UNL     1      -3.099  -5.984  -6.775  1.00  0.00     0.029 A 
ATOM     64  C   UNL     1      -4.315  -6.617  -6.570  1.00  0.00     0.049 A 
ATOM     65  H   UNL     1      -6.235  -5.834  -6.837  1.00  0.00     0.167 HD
ATOM     66  C   UNL     1      -4.818  -8.297  -4.851  1.00  0.00     0.074 A 
ATOM     67  C   UNL     1      -5.085  -9.525  -4.108  1.00  0.00     0.031 C 
ATOM     68  C   UNL     1      -4.756  -7.957  -6.174  1.00  0.00     0.037 A 
BRANCH  55  69
ATOM     69  C   UNL     1      -5.574  -2.252  -8.502  1.00  0.00     0.064 A 
ATOM     70  C   UNL     1      -4.871  -2.532  -9.690  1.00  0.00     0.173 A 
ATOM     71  C   UNL     1      -6.136  -0.952  -8.454  1.00  0.00     0.173 A 
ATOM     72  F   UNL     1      -4.253  -3.708  -9.866  1.00  0.00    -0.203 F 
ATOM     73  C   UNL     1      -4.765  -1.609 -10.740  1.00  0.00     0.198 A 
ATOM     74  C   UNL     1      -6.084  -0.056  -9.527  1.00  0.00     0.198 A 
ATOM     75  F   UNL     1      -6.702  -0.450  -7.352  1.00  0.00    -0.203 F 
ATOM     76  F   UNL     1      -4.042  -1.918 -11.825  1.00  0.00    -0.200 F 
ATOM     77  C   UNL     1      -5.391  -0.381 -10.668  1.00  0.00     0.200 A 
ATOM     78  F   UNL     1      -6.692   1.136  -9.426  1.00  0.00    -0.200 F 
ATOM     79  F   UNL     1      -5.307   0.493 -11.680  1.00  0.00    -0.200 F 
ENDBRANCH  55  69
BRANCH  56  80
ATOM     80  C   UNL     1      -4.730  -7.239  -0.141  1.00  0.00     0.064 A 
ATOM     81  C   UNL     1      -3.938  -6.944   0.989  1.00  0.00     0.173 A 
ATOM     82  C   UNL     1      -6.106  -7.041  -0.001  1.00  0.00     0.173 A 
ATOM     83  F   UNL     1      -2.610  -7.051   0.903  1.00  0.00    -0.203 F 
ATOM     84  C   UNL     1      -4.463  -6.375   2.149  1.00  0.00     0.198 A 
ATOM     85  C   UNL     1      -6.634  -6.453   1.158  1.00  0.00     0.198 A 
ATOM     86  F   UNL     1      -6.928  -7.285  -1.030  1.00  0.00    -0.203 F 
ATOM     87  F   UNL     1      -3.642  -5.980   3.134  1.00  0.00    -0.200 F 
ATOM     88  C   UNL     1      -5.810  -6.085   2.212  1.00  0.00     0.200 A 
ATOM     89  F   UNL     1      -7.938  -6.145   1.212  1.00  0.00    -0.200 F 
ATOM     90  F   UNL     1      -6.297  -5.388   3.249  1.00  0.00    -0.200 F 
ENDBRANCH  56  80
BRANCH  68  91
ATOM     91  C   UNL     1      -5.213  -8.915  -7.220  1.00  0.00     0.064 A 
ATOM     92  C   UNL     1      -4.921 -10.282  -7.167  1.00  0.00     0.173 A 
ATOM     93  C   UNL     1      -6.019  -8.482  -8.290  1.00  0.00     0.173 A 
ATOM     94  F   UNL     1      -4.021 -10.762  -6.296  1.00  0.00    -0.203 F 
ATOM     95  C   UNL     1      -5.572 -11.185  -7.999  1.00  0.00     0.198 A 
ATOM     96  C   UNL     1      -6.606  -9.378  -9.169  1.00  0.00     0.198 A 
ATOM     97  F   UNL     1      -6.306  -7.189  -8.492  1.00  0.00    -0.203 F 
ATOM     98  F   UNL     1      -5.394 -12.499  -7.814  1.00  0.00    -0.200 F 
ATOM     99  C   UNL     1      -6.428 -10.733  -8.988  1.00  0.00     0.200 A 
ATOM    100  F   UNL     1      -7.381  -8.918 -10.161  1.00  0.00    -0.200 F 
ATOM    101  F   UNL     1      -7.084 -11.603  -9.765  1.00  0.00    -0.200 F 
ENDBRANCH  68  91
ENDBRANCH  42  43
ENDBRANCH  35  37
ENDBRANCH  34  35
ENDBRANCH  33  34
ENDBRANCH  32  33
ENDBRANCH  31  32
ENDBRANCH   1  31
TORSDOF 17
