REMARK SMILES Cc1ccccc1/[NH+]=C1\S[C@@H](CC(=O)Nc2ccc(C(=O)OCCOCCOC(=O)c3ccc(-c4c5nc(c(-c6c(F)c(F)c(F)c(F)c6F)c6ccc([nH]6)c(-c6c(F)c(F)c(F)c(F)c6F)c6nc(c(-c7c(F)c(F)c(F)c(F)c7F)c7ccc4[nH]7)C=C6)C=C5)cc3)cc2)C(=O)N1C
REMARK SMILES IDX 24 1 23 2 22 3 20 4 21 5 19 6 16 7 17 8 95 9 18 10 94 11
REMARK SMILES IDX 15 12 13 13 14 14 12 16 11 17 8 18 9 19 10 21 98 22 96 23
REMARK SMILES IDX 99 24 97 25 7 26 1 27 2 28 3 29 4 30 6 31 5 32 25 33 26 34
REMARK SMILES IDX 27 35 28 36 29 37 30 38 31 39 32 40 93 41 33 42 92 43 34 44
REMARK SMILES IDX 35 45 36 46 86 47 37 48 91 49 85 50 87 51 38 52 90 53 84 54
REMARK SMILES IDX 83 55 39 57 71 58 51 59 70 60 52 61 55 62 69 63 88 64 53 65
REMARK SMILES IDX 54 66 68 68 89 69 56 70 40 71 41 72 49 73 42 74 43 75 47 76
REMARK SMILES IDX 50 77 44 78 45 79 48 80 46 81 72 82 73 83 81 84 74 85 75 86
REMARK SMILES IDX 79 87 82 88 76 89 77 90 80 91 78 92 57 93 58 94 66 95 59 96
REMARK SMILES IDX 60 97 64 98 67 99 61 100 62 101 65 102 63 103
REMARK H PARENT 15 15 8 20 87 56 55 67
REMARK Flexibility Score: inf
ROOT
ATOM      1  C   UNL     1       3.924   8.170  -1.478  1.00  0.00     0.202 C 
ENDROOT
BRANCH   1   2
ATOM      2  C   UNL     1       3.612   6.870  -2.150  1.00  0.00     0.261 C 
BRANCH   2   3
ATOM      3  O   UNL     1       4.610   5.860  -1.863  1.00  0.00    -0.460 OA
BRANCH   3   4
ATOM      4  C   UNL     1       5.922   5.931  -2.228  1.00  0.00     0.338 C 
ATOM      5  O   UNL     1       6.422   6.431  -3.220  1.00  0.00    -0.246 OA
BRANCH   4   6
ATOM      6  C   UNL     1       6.678   5.234  -1.169  1.00  0.00     0.060 A 
ATOM      7  C   UNL     1       7.869   3.741   0.839  1.00  0.00     0.041 A 
ATOM      8  C   UNL     1       6.673   4.400   1.067  1.00  0.00     0.027 A 
ATOM      9  C   UNL     1       8.597   4.008  -0.315  1.00  0.00     0.027 A 
ATOM     10  C   UNL     1       6.049   5.091   0.064  1.00  0.00     0.018 A 
ATOM     11  C   UNL     1       7.990   4.762  -1.338  1.00  0.00     0.018 A 
BRANCH   7  12
ATOM     12  N   UNL     1       8.223   2.751   1.763  1.00  0.00    -0.326 N 
ATOM     13  C   UNL     1       7.309   1.831   2.268  1.00  0.00     0.226 C 
ATOM     14  O   UNL     1       7.482   1.281   3.352  1.00  0.00    -0.275 OA
ATOM     15  H   UNL     1       9.158   2.704   2.069  1.00  0.00     0.169 HD
BRANCH  13  16
ATOM     16  C   UNL     1       6.225   1.360   1.294  1.00  0.00     0.128 C 
BRANCH  16  17
ATOM     17  C   UNL     1       4.761   1.523   1.657  1.00  0.00     0.183 C 
ATOM     18  N   UNL     1       1.211   1.933   0.951  1.00  0.00    -0.234 N 
ATOM     19  C   UNL     1       2.469   2.176   0.892  1.00  0.00     0.319 C 
ATOM     20  H   UNL     1       0.688   2.608   1.442  1.00  0.00     0.313 HD
ATOM     21  S   UNL     1       3.770   1.356   0.109  1.00  0.00    -0.022 SA
ATOM     22  N   UNL     1       3.030   3.186   1.616  1.00  0.00    -0.193 N 
ATOM     23  C   UNL     1       4.212   2.826   2.236  1.00  0.00     0.324 C 
ATOM     24  C   UNL     1       2.362   4.449   1.861  1.00  0.00     0.301 C 
ATOM     25  O   UNL     1       4.676   3.392   3.218  1.00  0.00    -0.245 OA
BRANCH  18  26
ATOM     26  C   UNL     1       0.449   0.870   0.435  1.00  0.00     0.128 A 
ATOM     27  C   UNL     1       2.097  -1.130   0.646  1.00  0.00     0.049 C 
ATOM     28  C   UNL     1       0.766  -0.505   0.347  1.00  0.00    -0.004 A 
ATOM     29  C   UNL     1      -0.233  -1.427  -0.043  1.00  0.00     0.008 A 
ATOM     30  C   UNL     1      -1.545  -1.032  -0.270  1.00  0.00     0.001 A 
ATOM     31  C   UNL     1      -0.890   1.235   0.183  1.00  0.00     0.052 A 
ATOM     32  C   UNL     1      -1.878   0.306  -0.151  1.00  0.00     0.004 A 
ENDBRANCH  18  26
ENDBRANCH  16  17
ENDBRANCH  13  16
ENDBRANCH   7  12
ENDBRANCH   4   6
ENDBRANCH   3   4
ENDBRANCH   2   3
ENDBRANCH   1   2
BRANCH   1  33
ATOM     33  O   UNL     1       5.131   8.595  -2.077  1.00  0.00    -0.374 OA
BRANCH  33  34
ATOM     34  C   UNL     1       5.745   9.718  -1.487  1.00  0.00     0.202 C 
BRANCH  34  35
ATOM     35  C   UNL     1       4.914  10.983  -1.707  1.00  0.00     0.261 C 
BRANCH  35  36
ATOM     36  O   UNL     1       4.770  11.212  -3.126  1.00  0.00    -0.460 OA
BRANCH  36  37
ATOM     37  C   UNL     1       3.585  10.815  -3.670  1.00  0.00     0.338 C 
ATOM     38  O   UNL     1       2.482  11.081  -3.221  1.00  0.00    -0.246 OA
BRANCH  37  39
ATOM     39  C   UNL     1       3.822   9.773  -4.714  1.00  0.00     0.060 A 
ATOM     40  C   UNL     1       2.745   8.993  -5.180  1.00  0.00     0.016 A 
ATOM     41  C   UNL     1       5.128   9.366  -4.973  1.00  0.00     0.016 A 
ATOM     42  C   UNL     1       2.978   7.728  -5.747  1.00  0.00     0.010 A 
ATOM     43  C   UNL     1       5.345   8.088  -5.451  1.00  0.00     0.010 A 
ATOM     44  C   UNL     1       4.280   7.236  -5.791  1.00  0.00    -0.014 A 
BRANCH  44  45
ATOM     45  C   UNL     1       4.667   5.843  -6.059  1.00  0.00     0.031 A 
ATOM     46  C   UNL     1       5.578   5.561  -7.189  1.00  0.00     0.074 A 
ATOM     47  C   UNL     1       4.461   4.865  -5.142  1.00  0.00     0.049 A 
ATOM     48  N   UNL     1       5.885   4.373  -7.582  1.00  0.00    -0.248 NA
ATOM     49  C   UNL     1       6.178   6.596  -8.026  1.00  0.00     0.031 C 
ATOM     50  C   UNL     1       5.241   3.640  -4.929  1.00  0.00     0.029 A 
ATOM     51  N   UNL     1       3.494   4.780  -4.134  1.00  0.00    -0.354 N 
ATOM     52  C   UNL     1       6.978   4.482  -8.404  1.00  0.00     0.074 A 
ATOM     53  C   UNL     1       6.983   5.864  -8.802  1.00  0.00     0.031 C 
ATOM     54  C   UNL     1       4.579   2.818  -4.096  1.00  0.00     0.029 A 
ATOM     55  C   UNL     1       3.283   3.425  -3.849  1.00  0.00     0.049 A 
ATOM     56  H   UNL     1       3.041   5.539  -3.701  1.00  0.00     0.167 HD
ATOM     57  C   UNL     1       7.824   3.413  -8.488  1.00  0.00     0.037 A 
ATOM     58  C   UNL     1       2.059   2.853  -3.973  1.00  0.00     0.037 A 
ATOM     59  C   UNL     1       7.244   2.235  -7.802  1.00  0.00     0.049 A 
ATOM     60  C   UNL     1       2.195   1.749  -4.965  1.00  0.00     0.074 A 
ATOM     61  C   UNL     1       7.603   1.509  -6.677  1.00  0.00     0.029 A 
ATOM     62  N   UNL     1       5.944   1.817  -8.123  1.00  0.00    -0.354 N 
ATOM     63  N   UNL     1       3.021   1.825  -5.975  1.00  0.00    -0.248 NA
ATOM     64  C   UNL     1       1.600   0.431  -4.788  1.00  0.00     0.031 C 
ATOM     65  C   UNL     1       6.494   0.694  -6.303  1.00  0.00     0.029 A 
ATOM     66  C   UNL     1       5.463   0.897  -7.210  1.00  0.00     0.049 A 
ATOM     67  H   UNL     1       5.437   2.139  -8.903  1.00  0.00     0.167 HD
ATOM     68  C   UNL     1       3.193   0.571  -6.472  1.00  0.00     0.074 A 
ATOM     69  C   UNL     1       2.242  -0.259  -5.747  1.00  0.00     0.031 C 
ATOM     70  C   UNL     1       4.160   0.254  -7.375  1.00  0.00     0.037 A 
BRANCH  57  71
ATOM     71  C   UNL     1       9.271   3.466  -8.992  1.00  0.00     0.064 A 
ATOM     72  C   UNL     1      10.090   2.314  -8.933  1.00  0.00     0.173 A 
ATOM     73  C   UNL     1       9.949   4.612  -9.472  1.00  0.00     0.173 A 
ATOM     74  F   UNL     1       9.609   1.137  -8.511  1.00  0.00    -0.203 F 
ATOM     75  C   UNL     1      11.446   2.319  -9.295  1.00  0.00     0.198 A 
ATOM     76  C   UNL     1      11.292   4.608  -9.868  1.00  0.00     0.198 A 
ATOM     77  F   UNL     1       9.375   5.810  -9.560  1.00  0.00    -0.203 F 
ATOM     78  F   UNL     1      12.172   1.199  -9.170  1.00  0.00    -0.200 F 
ATOM     79  C   UNL     1      12.046   3.465  -9.770  1.00  0.00     0.200 A 
ATOM     80  F   UNL     1      11.848   5.740 -10.328  1.00  0.00    -0.200 F 
ATOM     81  F   UNL     1      13.338   3.472 -10.123  1.00  0.00    -0.200 F 
ENDBRANCH  57  71
BRANCH  58  82
ATOM     82  C   UNL     1       0.947   3.818  -3.762  1.00  0.00     0.064 A 
ATOM     83  C   UNL     1       0.745   4.265  -2.439  1.00  0.00     0.173 A 
ATOM     84  C   UNL     1       0.462   4.638  -4.790  1.00  0.00     0.173 A 
ATOM     85  F   UNL     1       1.253   3.565  -1.416  1.00  0.00    -0.203 F 
ATOM     86  C   UNL     1       0.196   5.516  -2.159  1.00  0.00     0.198 A 
ATOM     87  C   UNL     1      -0.073   5.902  -4.505  1.00  0.00     0.198 A 
ATOM     88  F   UNL     1       0.640   4.293  -6.072  1.00  0.00    -0.203 F 
ATOM     89  F   UNL     1       0.173   5.966  -0.894  1.00  0.00    -0.200 F 
ATOM     90  C   UNL     1      -0.171   6.352  -3.196  1.00  0.00     0.200 A 
ATOM     91  F   UNL     1      -0.393   6.734  -5.508  1.00  0.00    -0.200 F 
ATOM     92  F   UNL     1      -0.541   7.615  -2.938  1.00  0.00    -0.200 F 
ENDBRANCH  58  82
BRANCH  70  93
ATOM     93  C   UNL     1       3.934  -0.772  -8.450  1.00  0.00     0.064 A 
ATOM     94  C   UNL     1       2.660  -1.270  -8.787  1.00  0.00     0.173 A 
ATOM     95  C   UNL     1       4.981  -1.138  -9.325  1.00  0.00     0.173 A 
ATOM     96  F   UNL     1       1.556  -0.906  -8.121  1.00  0.00    -0.203 F 
ATOM     97  C   UNL     1       2.461  -2.120  -9.871  1.00  0.00     0.198 A 
ATOM     98  C   UNL     1       4.765  -1.935 -10.445  1.00  0.00     0.198 A 
ATOM     99  F   UNL     1       6.235  -0.695  -9.152  1.00  0.00    -0.203 F 
ATOM    100  F   UNL     1       1.232  -2.596 -10.118  1.00  0.00    -0.200 F 
ATOM    101  C   UNL     1       3.509  -2.441 -10.708  1.00  0.00     0.200 A 
ATOM    102  F   UNL     1       5.779  -2.184 -11.285  1.00  0.00    -0.200 F 
ATOM    103  F   UNL     1       3.303  -3.215 -11.780  1.00  0.00    -0.200 F 
ENDBRANCH  70  93
ENDBRANCH  44  45
ENDBRANCH  37  39
ENDBRANCH  36  37
ENDBRANCH  35  36
ENDBRANCH  34  35
ENDBRANCH  33  34
ENDBRANCH   1  33
TORSDOF 18
