REMARK SMILES O=C(OCCOCCOC(=O)[C@H]1C[C@](O)(c2ccc(Cl)cc2)[C@@H](c2ccc(Cl)cc2)O1)c1ccc(-c2c3nc(c(-c4c(F)c(F)c(F)c(F)c4F)c4ccc([nH]4)c(-c4c(F)c(F)c(F)c(F)c4F)c4nc(c(-c5c(F)c(F)c(F)c(F)c5F)c5ccc2[nH]5)C=C4)C=C3)cc1
REMARK SMILES IDX 5 1 4 2 3 3 2 4 1 5 32 6 33 7 94 8 34 9 93 10 35 11 36 12
REMARK SMILES IDX 37 13 87 14 38 15 92 16 86 17 88 18 39 19 91 20 85 21 84 22
REMARK SMILES IDX 40 24 72 25 52 26 71 27 53 28 56 29 70 30 89 31 54 32 55 33
REMARK SMILES IDX 69 35 90 36 57 37 41 38 42 39 50 40 43 41 44 42 48 43 51 44
REMARK SMILES IDX 45 45 46 46 49 47 47 48 73 49 74 50 82 51 75 52 76 53 80 54
REMARK SMILES IDX 83 55 77 56 78 57 81 58 79 59 58 60 59 61 67 62 60 63 61 64
REMARK SMILES IDX 65 65 68 66 62 67 63 68 66 69 64 70 6 71 7 72 8 73 9 74
REMARK SMILES IDX 10 75 11 76 12 77 13 78 31 79 14 80 23 81 16 82 17 83 22 84
REMARK SMILES IDX 18 85 21 86 19 87 20 88 15 89 24 91 25 92 30 93 26 94 29 95
REMARK SMILES IDX 27 96 28 97
REMARK H PARENT 88 23 56 34 15 90
REMARK Flexibility Score: inf
ROOT
ATOM      1  C   UNL     1       7.489  -3.898   2.811  1.00  0.00     0.202 C 
ENDROOT
BRANCH   1   2
ATOM      2  C   UNL     1       8.178  -4.119   4.165  1.00  0.00     0.261 C 
BRANCH   2   3
ATOM      3  O   UNL     1       8.312  -2.857   4.894  1.00  0.00    -0.460 OA
BRANCH   3   4
ATOM      4  C   UNL     1       9.447  -2.257   5.340  1.00  0.00     0.338 C 
ATOM      5  O   UNL     1       9.448  -1.291   6.088  1.00  0.00    -0.246 OA
BRANCH   4   6
ATOM      6  C   UNL     1      10.692  -2.890   4.911  1.00  0.00     0.060 A 
ATOM      7  C   UNL     1      10.831  -3.145   3.560  1.00  0.00     0.016 A 
ATOM      8  C   UNL     1      11.579  -3.424   5.844  1.00  0.00     0.016 A 
ATOM      9  C   UNL     1      11.587  -4.225   3.187  1.00  0.00     0.010 A 
ATOM     10  C   UNL     1      12.547  -4.326   5.404  1.00  0.00     0.010 A 
ATOM     11  C   UNL     1      12.514  -4.780   4.077  1.00  0.00    -0.014 A 
BRANCH  11  12
ATOM     12  C   UNL     1      13.435  -5.806   3.542  1.00  0.00     0.031 A 
ATOM     13  C   UNL     1      13.567  -7.141   4.203  1.00  0.00     0.074 A 
ATOM     14  C   UNL     1      14.071  -5.532   2.385  1.00  0.00     0.049 A 
ATOM     15  N   UNL     1      14.454  -8.074   3.977  1.00  0.00    -0.248 NA
ATOM     16  C   UNL     1      12.614  -7.470   5.275  1.00  0.00     0.031 C 
ATOM     17  C   UNL     1      13.966  -4.264   1.649  1.00  0.00     0.029 A 
ATOM     18  N   UNL     1      14.863  -6.300   1.581  1.00  0.00    -0.354 N 
ATOM     19  C   UNL     1      14.239  -9.043   4.946  1.00  0.00     0.074 A 
ATOM     20  C   UNL     1      13.101  -8.617   5.730  1.00  0.00     0.031 C 
ATOM     21  C   UNL     1      14.515  -4.402   0.442  1.00  0.00     0.029 A 
ATOM     22  C   UNL     1      15.214  -5.673   0.411  1.00  0.00     0.049 A 
ATOM     23  H   UNL     1      15.153  -7.211   1.816  1.00  0.00     0.167 HD
ATOM     24  C   UNL     1      14.975 -10.158   5.163  1.00  0.00     0.037 A 
ATOM     25  C   UNL     1      16.086  -6.034  -0.545  1.00  0.00     0.037 A 
ATOM     26  C   UNL     1      16.061 -10.556   4.302  1.00  0.00     0.049 A 
ATOM     27  C   UNL     1      16.854  -7.292  -0.310  1.00  0.00     0.074 A 
ATOM     28  C   UNL     1      16.917 -11.634   4.417  1.00  0.00     0.029 A 
ATOM     29  N   UNL     1      16.420  -9.882   3.137  1.00  0.00    -0.354 N 
ATOM     30  N   UNL     1      16.754  -8.134   0.692  1.00  0.00    -0.248 NA
ATOM     31  C   UNL     1      17.891  -7.622  -1.287  1.00  0.00     0.031 C 
ATOM     32  C   UNL     1      17.807 -11.599   3.334  1.00  0.00     0.029 A 
ATOM     33  C   UNL     1      17.483 -10.521   2.523  1.00  0.00     0.049 A 
ATOM     34  H   UNL     1      15.980  -9.069   2.799  1.00  0.00     0.167 HD
ATOM     35  C   UNL     1      17.743  -9.077   0.493  1.00  0.00     0.074 A 
ATOM     36  C   UNL     1      18.397  -8.729  -0.758  1.00  0.00     0.031 C 
ATOM     37  C   UNL     1      18.100 -10.120   1.283  1.00  0.00     0.037 A 
BRANCH  24  38
ATOM     38  C   UNL     1      14.692 -10.947   6.410  1.00  0.00     0.064 A 
ATOM     39  C   UNL     1      13.537 -11.726   6.569  1.00  0.00     0.173 A 
ATOM     40  C   UNL     1      15.600 -10.903   7.482  1.00  0.00     0.173 A 
ATOM     41  F   UNL     1      12.624 -11.786   5.589  1.00  0.00    -0.203 F 
ATOM     42  C   UNL     1      13.287 -12.405   7.762  1.00  0.00     0.198 A 
ATOM     43  C   UNL     1      15.360 -11.603   8.663  1.00  0.00     0.198 A 
ATOM     44  F   UNL     1      16.720 -10.171   7.389  1.00  0.00    -0.203 F 
ATOM     45  F   UNL     1      12.150 -13.099   7.911  1.00  0.00    -0.200 F 
ATOM     46  C   UNL     1      14.199 -12.346   8.805  1.00  0.00     0.200 A 
ATOM     47  F   UNL     1      16.246 -11.546   9.667  1.00  0.00    -0.200 F 
ATOM     48  F   UNL     1      13.953 -12.994   9.953  1.00  0.00    -0.200 F 
ENDBRANCH  24  38
BRANCH  25  49
ATOM     49  C   UNL     1      16.328  -5.117  -1.689  1.00  0.00     0.064 A 
ATOM     50  C   UNL     1      15.911  -5.448  -2.983  1.00  0.00     0.173 A 
ATOM     51  C   UNL     1      16.860  -3.831  -1.485  1.00  0.00     0.173 A 
ATOM     52  F   UNL     1      15.415  -6.668  -3.236  1.00  0.00    -0.203 F 
ATOM     53  C   UNL     1      15.989  -4.519  -4.021  1.00  0.00     0.198 A 
ATOM     54  C   UNL     1      16.896  -2.891  -2.511  1.00  0.00     0.198 A 
ATOM     55  F   UNL     1      17.265  -3.458  -0.262  1.00  0.00    -0.203 F 
ATOM     56  F   UNL     1      15.587  -4.859  -5.253  1.00  0.00    -0.200 F 
ATOM     57  C   UNL     1      16.460  -3.236  -3.780  1.00  0.00     0.200 A 
ATOM     58  F   UNL     1      17.316  -1.643  -2.260  1.00  0.00    -0.200 F 
ATOM     59  F   UNL     1      16.485  -2.330  -4.766  1.00  0.00    -0.200 F 
ENDBRANCH  25  49
BRANCH  37  60
ATOM     60  C   UNL     1      19.249 -10.937   0.791  1.00  0.00     0.064 A 
ATOM     61  C   UNL     1      20.569 -10.483   0.922  1.00  0.00     0.173 A 
ATOM     62  C   UNL     1      19.024 -12.181   0.188  1.00  0.00     0.173 A 
ATOM     63  F   UNL     1      20.820  -9.286   1.473  1.00  0.00    -0.203 F 
ATOM     64  C   UNL     1      21.629 -11.244   0.444  1.00  0.00     0.198 A 
ATOM     65  C   UNL     1      20.089 -12.947  -0.270  1.00  0.00     0.198 A 
ATOM     66  F   UNL     1      17.774 -12.645   0.042  1.00  0.00    -0.203 F 
ATOM     67  F   UNL     1      22.881 -10.777   0.536  1.00  0.00    -0.200 F 
ATOM     68  C   UNL     1      21.388 -12.476  -0.148  1.00  0.00     0.200 A 
ATOM     69  F   UNL     1      19.857 -14.137  -0.840  1.00  0.00    -0.200 F 
ATOM     70  F   UNL     1      22.411 -13.206  -0.613  1.00  0.00    -0.200 F 
ENDBRANCH  37  60
ENDBRANCH  11  12
ENDBRANCH   4   6
ENDBRANCH   3   4
ENDBRANCH   2   3
ENDBRANCH   1   2
BRANCH   1  71
ATOM     71  O   UNL     1       8.167  -3.001   1.928  1.00  0.00    -0.374 OA
BRANCH  71  72
ATOM     72  C   UNL     1       7.883  -1.607   2.126  1.00  0.00     0.202 C 
BRANCH  72  73
ATOM     73  C   UNL     1       6.855  -1.078   1.126  1.00  0.00     0.261 C 
BRANCH  73  74
ATOM     74  O   UNL     1       5.554  -1.208   1.716  1.00  0.00    -0.461 OA
BRANCH  74  75
ATOM     75  C   UNL     1       4.864  -2.334   1.403  1.00  0.00     0.335 C 
ATOM     76  O   UNL     1       5.075  -3.042   0.426  1.00  0.00    -0.249 OA
BRANCH  75  77
ATOM     77  C   UNL     1       3.814  -2.624   2.479  1.00  0.00     0.232 C 
ATOM     78  C   UNL     1       3.591  -4.122   2.617  1.00  0.00     0.087 C 
ATOM     79  O   UNL     1       4.172  -2.147   3.781  1.00  0.00    -0.355 OA
ATOM     80  C   UNL     1       3.409  -4.393   4.117  1.00  0.00     0.123 C 
ATOM     81  C   UNL     1       3.477  -2.962   4.751  1.00  0.00     0.186 C 
BRANCH  80  82
ATOM     82  C   UNL     1       2.158  -5.236   4.323  1.00  0.00    -0.013 A 
ATOM     83  C   UNL     1       2.141  -6.552   3.806  1.00  0.00     0.008 A 
ATOM     84  C   UNL     1       0.990  -4.755   4.928  1.00  0.00     0.008 A 
ATOM     85  C   UNL     1       0.992  -7.342   3.863  1.00  0.00     0.021 A 
ATOM     86  C   UNL     1      -0.164  -5.545   4.981  1.00  0.00     0.021 A 
ATOM     87  C   UNL     1      -0.161  -6.830   4.444  1.00  0.00     0.041 A 
ATOM     88  Cl  UNL     1      -1.593  -7.779   4.486  1.00  0.00    -0.084 Cl
ENDBRANCH  80  82
BRANCH  80  89
ATOM     89  O   UNL     1       4.535  -5.209   4.505  1.00  0.00    -0.382 OA
ATOM     90  H   UNL     1       5.355  -4.705   4.388  1.00  0.00     0.212 HD
ENDBRANCH  80  89
BRANCH  81  91
ATOM     91  C   UNL     1       4.182  -2.821   6.091  1.00  0.00    -0.016 A 
ATOM     92  C   UNL     1       5.549  -3.093   6.184  1.00  0.00     0.008 A 
ATOM     93  C   UNL     1       3.541  -2.386   7.255  1.00  0.00     0.008 A 
ATOM     94  C   UNL     1       6.268  -2.990   7.375  1.00  0.00     0.021 A 
ATOM     95  C   UNL     1       4.256  -2.256   8.460  1.00  0.00     0.021 A 
ATOM     96  C   UNL     1       5.614  -2.567   8.517  1.00  0.00     0.041 A 
ATOM     97  Cl  UNL     1       6.486  -2.421   9.991  1.00  0.00    -0.084 Cl
ENDBRANCH  81  91
ENDBRANCH  75  77
ENDBRANCH  74  75
ENDBRANCH  73  74
ENDBRANCH  72  73
ENDBRANCH  71  72
ENDBRANCH   1  71
TORSDOF 17
