REMARK SMILES Cc1ccc(/C=C/C(=O)N[C@](C)(C(=O)OCCOCCOC(=O)c2ccc(-c3c4nc(c(-c5c(F)c(F)c(F)c(F)c5F)c5ccc([nH]5)c(-c5c(F)c(F)c(F)c(F)c5F)c5nc(c(-c6c(F)c(F)c(F)c(F)c6F)c6ccc3[nH]6)C=C5)C=C4)cc2)C(F)(F)F)o1
REMARK SMILES IDX 17 1 16 2 15 3 13 4 14 5 11 6 12 7 10 8 8 9 9 10 7 12 6 13
REMARK SMILES IDX 5 14 1 15 2 16 3 17 91 18 4 19 87 20 88 21 89 22 90 23 18 24
REMARK SMILES IDX 19 25 20 26 21 27 22 28 23 29 24 30 25 31 86 32 26 33 85 34
REMARK SMILES IDX 27 35 28 36 29 37 79 38 30 39 84 40 78 41 80 42 31 43 83 44
REMARK SMILES IDX 77 45 76 46 32 48 64 49 44 50 63 51 45 52 48 53 62 54 81 55
REMARK SMILES IDX 46 56 47 57 61 59 82 60 49 61 33 62 34 63 42 64 35 65 36 66
REMARK SMILES IDX 40 67 43 68 37 69 38 70 41 71 39 72 65 73 66 74 74 75 67 76
REMARK SMILES IDX 68 77 72 78 75 79 69 80 70 81 73 82 71 83 50 84 51 85 59 86
REMARK SMILES IDX 52 87 53 88 57 89 60 90 54 91 55 92 58 93 56 94
REMARK H PARENT 10 11 80 47 48 58
REMARK Flexibility Score: inf
ROOT
ATOM      1  C   UNL     1      -7.101   1.754  -3.536  1.00  0.00     0.202 C 
ENDROOT
BRANCH   1   2
ATOM      2  C   UNL     1      -7.350   1.233  -2.119  1.00  0.00     0.261 C 
BRANCH   2   3
ATOM      3  O   UNL     1      -6.479   1.863  -1.159  1.00  0.00    -0.461 OA
BRANCH   3   4
ATOM      4  C   UNL     1      -5.704   1.016  -0.416  1.00  0.00     0.341 C 
ATOM      5  O   UNL     1      -5.777  -0.203  -0.493  1.00  0.00    -0.249 OA
BRANCH   4   6
ATOM      6  C   UNL     1      -4.884   1.768   0.638  1.00  0.00     0.231 C 
ATOM      7  C   UNL     1      -4.140   2.988   0.083  1.00  0.00     0.058 C 
BRANCH   6   8
ATOM      8  N   UNL     1      -5.848   2.032   1.756  1.00  0.00    -0.329 N 
ATOM      9  C   UNL     1      -6.630   3.068   2.142  1.00  0.00     0.245 C 
ATOM     10  O   UNL     1      -7.502   2.873   2.984  1.00  0.00    -0.270 OA
ATOM     11  H   UNL     1      -5.934   1.260   2.361  1.00  0.00     0.165 HD
BRANCH   9  12
ATOM     12  C   UNL     1      -6.355   4.441   1.696  1.00  0.00     0.075 C 
ATOM     13  C   UNL     1      -6.645   4.887   0.467  1.00  0.00     0.053 C 
BRANCH  13  14
ATOM     14  C   UNL     1      -6.271   6.210   0.112  1.00  0.00     0.127 A 
ATOM     15  C   UNL     1      -6.539   9.737   0.737  1.00  0.00     0.087 C 
ATOM     16  C   UNL     1      -6.158   8.425   0.179  1.00  0.00     0.101 A 
ATOM     17  C   UNL     1      -5.326   8.037  -0.843  1.00  0.00     0.046 A 
ATOM     18  O   UNL     1      -6.714   7.333   0.769  1.00  0.00    -0.462 OA
ATOM     19  C   UNL     1      -5.406   6.626  -0.892  1.00  0.00     0.050 A 
ENDBRANCH  13  14
ENDBRANCH   9  12
ENDBRANCH   6   8
BRANCH   6  20
ATOM     20  C   UNL     1      -3.793   0.761   1.065  1.00  0.00     0.422 C 
ATOM     21  F   UNL     1      -3.046   0.345   0.016  1.00  0.00    -0.168 F 
ATOM     22  F   UNL     1      -2.934   1.343   1.942  1.00  0.00    -0.168 F 
ATOM     23  F   UNL     1      -4.298  -0.325   1.689  1.00  0.00    -0.168 F 
ENDBRANCH   6  20
ENDBRANCH   4   6
ENDBRANCH   3   4
ENDBRANCH   2   3
ENDBRANCH   1   2
BRANCH   1  24
ATOM     24  O   UNL     1      -5.794   1.536  -4.062  1.00  0.00    -0.374 OA
BRANCH  24  25
ATOM     25  C   UNL     1      -4.743   2.375  -3.588  1.00  0.00     0.202 C 
BRANCH  25  26
ATOM     26  C   UNL     1      -4.719   3.812  -4.121  1.00  0.00     0.261 C 
BRANCH  26  27
ATOM     27  O   UNL     1      -5.890   4.561  -3.742  1.00  0.00    -0.460 OA
BRANCH  27  28
ATOM     28  C   UNL     1      -6.654   4.971  -4.784  1.00  0.00     0.338 C 
ATOM     29  O   UNL     1      -6.400   4.859  -5.976  1.00  0.00    -0.246 OA
BRANCH  28  30
ATOM     30  C   UNL     1      -7.966   5.457  -4.318  1.00  0.00     0.060 A 
ATOM     31  C   UNL     1      -9.107   4.864  -4.872  1.00  0.00     0.016 A 
ATOM     32  C   UNL     1      -8.087   6.545  -3.452  1.00  0.00     0.016 A 
ATOM     33  C   UNL     1     -10.369   5.396  -4.609  1.00  0.00     0.010 A 
ATOM     34  C   UNL     1      -9.354   7.075  -3.184  1.00  0.00     0.010 A 
ATOM     35  C   UNL     1     -10.497   6.532  -3.798  1.00  0.00    -0.014 A 
BRANCH  35  36
ATOM     36  C   UNL     1     -11.802   7.236  -3.732  1.00  0.00     0.031 A 
ATOM     37  C   UNL     1     -12.018   8.457  -4.587  1.00  0.00     0.074 A 
ATOM     38  C   UNL     1     -12.796   6.779  -2.950  1.00  0.00     0.049 A 
ATOM     39  N   UNL     1     -13.071   9.230  -4.682  1.00  0.00    -0.248 NA
ATOM     40  C   UNL     1     -10.898   8.863  -5.452  1.00  0.00     0.031 C 
ATOM     41  C   UNL     1     -12.720   5.598  -2.093  1.00  0.00     0.029 A 
ATOM     42  N   UNL     1     -14.064   7.263  -2.746  1.00  0.00    -0.354 N 
ATOM     43  C   UNL     1     -12.736  10.215  -5.602  1.00  0.00     0.074 A 
ATOM     44  C   UNL     1     -11.377   9.958  -6.025  1.00  0.00     0.031 C 
ATOM     45  C   UNL     1     -13.887   5.457  -1.441  1.00  0.00     0.029 A 
ATOM     46  C   UNL     1     -14.782   6.551  -1.817  1.00  0.00     0.049 A 
ATOM     47  H   UNL     1     -14.425   8.046  -3.221  1.00  0.00     0.167 HD
ATOM     48  C   UNL     1     -13.497  11.237  -6.059  1.00  0.00     0.037 A 
ATOM     49  C   UNL     1     -16.013   6.770  -1.314  1.00  0.00     0.037 A 
ATOM     50  C   UNL     1     -14.858  11.480  -5.662  1.00  0.00     0.049 A 
ATOM     51  C   UNL     1     -16.824   7.938  -1.817  1.00  0.00     0.074 A 
ATOM     52  C   UNL     1     -15.726  12.459  -6.115  1.00  0.00     0.029 A 
ATOM     53  N   UNL     1     -15.547  10.741  -4.714  1.00  0.00    -0.354 N 
ATOM     54  N   UNL     1     -16.517   8.829  -2.728  1.00  0.00    -0.248 NA
ATOM     55  C   UNL     1     -18.157   8.124  -1.225  1.00  0.00     0.031 C 
ATOM     56  C   UNL     1     -16.925  12.341  -5.407  1.00  0.00     0.029 A 
ATOM     57  C   UNL     1     -16.821  11.261  -4.547  1.00  0.00     0.049 A 
ATOM     58  H   UNL     1     -15.186   9.963  -4.231  1.00  0.00     0.167 HD
ATOM     59  C   UNL     1     -17.625   9.660  -2.837  1.00  0.00     0.074 A 
ATOM     60  C   UNL     1     -18.618   9.161  -1.911  1.00  0.00     0.031 C 
ATOM     61  C   UNL     1     -17.804  10.742  -3.634  1.00  0.00     0.037 A 
BRANCH  48  62
ATOM     62  C   UNL     1     -12.878  12.191  -7.035  1.00  0.00     0.064 A 
ATOM     63  C   UNL     1     -12.679  11.844  -8.379  1.00  0.00     0.173 A 
ATOM     64  C   UNL     1     -12.557  13.498  -6.637  1.00  0.00     0.173 A 
ATOM     65  F   UNL     1     -12.960  10.604  -8.804  1.00  0.00    -0.203 F 
ATOM     66  C   UNL     1     -12.172  12.770  -9.287  1.00  0.00     0.198 A 
ATOM     67  C   UNL     1     -12.072  14.427  -7.553  1.00  0.00     0.198 A 
ATOM     68  F   UNL     1     -12.734  13.879  -5.362  1.00  0.00    -0.203 F 
ATOM     69  F   UNL     1     -11.967  12.411 -10.562  1.00  0.00    -0.200 F 
ATOM     70  C   UNL     1     -11.879  14.062  -8.876  1.00  0.00     0.200 A 
ATOM     71  F   UNL     1     -11.800  15.678  -7.156  1.00  0.00    -0.200 F 
ATOM     72  F   UNL     1     -11.408  14.956  -9.757  1.00  0.00    -0.200 F 
ENDBRANCH  48  62
BRANCH  49  73
ATOM     73  C   UNL     1     -16.555   5.883  -0.252  1.00  0.00     0.064 A 
ATOM     74  C   UNL     1     -17.649   5.042  -0.495  1.00  0.00     0.173 A 
ATOM     75  C   UNL     1     -16.018   5.897   1.044  1.00  0.00     0.173 A 
ATOM     76  F   UNL     1     -18.215   5.015  -1.711  1.00  0.00    -0.203 F 
ATOM     77  C   UNL     1     -18.204   4.270   0.524  1.00  0.00     0.198 A 
ATOM     78  C   UNL     1     -16.555   5.104   2.055  1.00  0.00     0.198 A 
ATOM     79  F   UNL     1     -14.974   6.689   1.330  1.00  0.00    -0.203 F 
ATOM     80  F   UNL     1     -19.288   3.521   0.279  1.00  0.00    -0.200 F 
ATOM     81  C   UNL     1     -17.655   4.299   1.797  1.00  0.00     0.200 A 
ATOM     82  F   UNL     1     -16.017   5.130   3.282  1.00  0.00    -0.200 F 
ATOM     83  F   UNL     1     -18.195   3.564   2.779  1.00  0.00    -0.200 F 
ENDBRANCH  49  73
BRANCH  61  84
ATOM     84  C   UNL     1     -19.132  11.438  -3.570  1.00  0.00     0.064 A 
ATOM     85  C   UNL     1     -19.495  12.230  -2.472  1.00  0.00     0.173 A 
ATOM     86  C   UNL     1     -20.032  11.348  -4.643  1.00  0.00     0.173 A 
ATOM     87  F   UNL     1     -18.675  12.336  -1.416  1.00  0.00    -0.203 F 
ATOM     88  C   UNL     1     -20.721  12.889  -2.440  1.00  0.00     0.198 A 
ATOM     89  C   UNL     1     -21.244  12.031  -4.621  1.00  0.00     0.198 A 
ATOM     90  F   UNL     1     -19.727  10.610  -5.721  1.00  0.00    -0.203 F 
ATOM     91  F   UNL     1     -21.066  13.607  -1.363  1.00  0.00    -0.200 F 
ATOM     92  C   UNL     1     -21.591  12.796  -3.517  1.00  0.00     0.200 A 
ATOM     93  F   UNL     1     -22.077  11.951  -5.668  1.00  0.00    -0.200 F 
ATOM     94  F   UNL     1     -22.766  13.438  -3.488  1.00  0.00    -0.200 F 
ENDBRANCH  61  84
ENDBRANCH  35  36
ENDBRANCH  28  30
ENDBRANCH  27  28
ENDBRANCH  26  27
ENDBRANCH  25  26
ENDBRANCH  24  25
ENDBRANCH   1  24
TORSDOF 18
