REMARK SMILES C[NH2+][C@](C)(C(=O)OCCOCCOC(=O)c1ccc(-c2c3nc(c(-c4c(F)c(F)c(F)c(F)c4F)c4ccc([nH]4)c(-c4c(F)c(F)c(F)c(F)c4F)c4nc(c(-c5c(F)c(F)c(F)c(F)c5F)c5ccc2[nH]5)C=C4)C=C3)cc1)c1cccc(Cl)c1
REMARK SMILES IDX 11 1 10 2 9 3 8 4 7 5 5 6 6 7 3 8 4 9 2 10 1 11 79 14 80 15
REMARK SMILES IDX 85 16 81 17 83 18 82 19 84 20 12 21 13 22 14 23 15 24 16 25
REMARK SMILES IDX 17 26 78 27 18 28 77 29 19 30 20 31 21 32 71 33 22 34 76 35
REMARK SMILES IDX 70 36 72 37 23 38 75 39 69 40 68 41 24 43 56 44 36 45 55 46
REMARK SMILES IDX 37 47 40 48 54 49 73 50 38 51 39 52 53 54 74 55 41 56 25 57
REMARK SMILES IDX 26 58 34 59 27 60 28 61 32 62 35 63 29 64 30 65 33 66 31 67
REMARK SMILES IDX 57 68 58 69 66 70 59 71 60 72 64 73 67 74 61 75 62 76 65 77
REMARK SMILES IDX 63 78 42 79 43 80 51 81 44 82 45 83 49 84 52 85 46 86 47 87
REMARK SMILES IDX 50 88 48 89
REMARK H PARENT 2 12 2 13 72 42 40 53
REMARK Flexibility Score: inf
ROOT
ATOM      1  C   UNL     1      -0.665   4.805  -1.057  1.00  0.00     0.202 C 
ENDROOT
BRANCH   1   2
ATOM      2  O   UNL     1      -1.690   5.634  -0.507  1.00  0.00    -0.374 OA
BRANCH   2   3
ATOM      3  C   UNL     1      -1.754   5.747   0.913  1.00  0.00     0.202 C 
BRANCH   3   4
ATOM      4  C   UNL     1      -2.365   4.564   1.669  1.00  0.00     0.261 C 
BRANCH   4   5
ATOM      5  O   UNL     1      -1.654   3.339   1.425  1.00  0.00    -0.458 OA
BRANCH   5   6
ATOM      6  C   UNL     1      -2.391   2.325   0.877  1.00  0.00     0.372 C 
ATOM      7  O   UNL     1      -3.605   2.391   0.701  1.00  0.00    -0.244 OA
BRANCH   6   8
ATOM      8  C   UNL     1      -1.510   1.063   0.528  1.00  0.00     0.216 C 
ATOM      9  C   UNL     1       0.008   1.343   0.644  1.00  0.00     0.098 C 
BRANCH   8  10
ATOM     10  N   UNL     1      -1.822  -0.071   1.459  1.00  0.00    -0.331 N 
ATOM     11  C   UNL     1      -2.449   0.283   2.721  1.00  0.00     0.332 C 
ATOM     12  H   UNL     1      -2.448  -0.711   0.970  1.00  0.00     0.347 HD
ATOM     13  H   UNL     1      -0.919  -0.474   1.708  1.00  0.00     0.347 HD
ENDBRANCH   8  10
BRANCH   8  14
ATOM     14  C   UNL     1      -1.774   0.608  -0.936  1.00  0.00     0.025 A 
ATOM     15  C   UNL     1      -2.297   1.483  -1.910  1.00  0.00     0.011 A 
ATOM     16  C   UNL     1      -1.468  -0.705  -1.349  1.00  0.00     0.031 A 
ATOM     17  C   UNL     1      -2.539   1.059  -3.221  1.00  0.00     0.002 A 
ATOM     18  C   UNL     1      -1.710  -1.124  -2.659  1.00  0.00     0.041 A 
ATOM     19  C   UNL     1      -2.248  -0.248  -3.596  1.00  0.00     0.020 A 
ATOM     20  Cl  UNL     1      -1.339  -2.740  -3.120  1.00  0.00    -0.084 Cl
ENDBRANCH   8  14
ENDBRANCH   6   8
ENDBRANCH   5   6
ENDBRANCH   4   5
ENDBRANCH   3   4
ENDBRANCH   2   3
ENDBRANCH   1   2
BRANCH   1  21
ATOM     21  C   UNL     1       0.769   5.344  -0.991  1.00  0.00     0.261 C 
BRANCH  21  22
ATOM     22  O   UNL     1       1.253   5.422   0.361  1.00  0.00    -0.460 OA
BRANCH  22  23
ATOM     23  C   UNL     1       1.610   6.667   0.757  1.00  0.00     0.338 C 
ATOM     24  O   UNL     1       1.666   7.677   0.066  1.00  0.00    -0.246 OA
BRANCH  23  25
ATOM     25  C   UNL     1       1.773   6.724   2.219  1.00  0.00     0.060 A 
ATOM     26  C   UNL     1       1.015   7.681   2.906  1.00  0.00     0.016 A 
ATOM     27  C   UNL     1       2.732   5.963   2.888  1.00  0.00     0.016 A 
ATOM     28  C   UNL     1       1.268   7.936   4.250  1.00  0.00     0.010 A 
ATOM     29  C   UNL     1       2.992   6.226   4.239  1.00  0.00     0.010 A 
ATOM     30  C   UNL     1       2.297   7.250   4.908  1.00  0.00    -0.014 A 
BRANCH  30  31
ATOM     31  C   UNL     1       2.761   7.764   6.220  1.00  0.00     0.031 A 
ATOM     32  C   UNL     1       3.938   8.704   6.254  1.00  0.00     0.074 A 
ATOM     33  C   UNL     1       2.100   7.469   7.353  1.00  0.00     0.049 A 
ATOM     34  N   UNL     1       4.478   9.326   7.271  1.00  0.00    -0.248 NA
ATOM     35  C   UNL     1       4.591   8.982   4.964  1.00  0.00     0.031 C 
ATOM     36  C   UNL     1       0.931   6.598   7.445  1.00  0.00     0.029 A 
ATOM     37  N   UNL     1       2.318   7.881   8.644  1.00  0.00    -0.354 N 
ATOM     38  C   UNL     1       5.530  10.065   6.746  1.00  0.00     0.074 A 
ATOM     39  C   UNL     1       5.574   9.793   5.326  1.00  0.00     0.031 C 
ATOM     40  C   UNL     1       0.535   6.536   8.729  1.00  0.00     0.029 A 
ATOM     41  C   UNL     1       1.431   7.352   9.547  1.00  0.00     0.049 A 
ATOM     42  H   UNL     1       3.043   8.498   8.897  1.00  0.00     0.167 HD
ATOM     43  C   UNL     1       6.376  10.906   7.387  1.00  0.00     0.037 A 
ATOM     44  C   UNL     1       1.357   7.508  10.883  1.00  0.00     0.037 A 
ATOM     45  C   UNL     1       6.328  11.187   8.797  1.00  0.00     0.049 A 
ATOM     46  C   UNL     1       2.327   8.429  11.576  1.00  0.00     0.074 A 
ATOM     47  C   UNL     1       7.134  12.034   9.537  1.00  0.00     0.029 A 
ATOM     48  N   UNL     1       5.422  10.621   9.680  1.00  0.00    -0.354 N 
ATOM     49  N   UNL     1       3.297   9.148  11.065  1.00  0.00    -0.248 NA
ATOM     50  C   UNL     1       2.181   8.570  13.032  1.00  0.00     0.031 C 
ATOM     51  C   UNL     1       6.739  11.952  10.877  1.00  0.00     0.029 A 
ATOM     52  C   UNL     1       5.658  11.089  10.963  1.00  0.00     0.049 A 
ATOM     53  H   UNL     1       4.715   9.982   9.433  1.00  0.00     0.167 HD
ATOM     54  C   UNL     1       3.856   9.847  12.128  1.00  0.00     0.074 A 
ATOM     55  C   UNL     1       3.107   9.476  13.310  1.00  0.00     0.031 C 
ATOM     56  C   UNL     1       4.895  10.718  12.126  1.00  0.00     0.037 A 
BRANCH  43  57
ATOM     57  C   UNL     1       7.442  11.572   6.568  1.00  0.00     0.064 A 
ATOM     58  C   UNL     1       7.143  12.616   5.681  1.00  0.00     0.173 A 
ATOM     59  C   UNL     1       8.783  11.183   6.700  1.00  0.00     0.173 A 
ATOM     60  F   UNL     1       5.873  13.012   5.507  1.00  0.00    -0.203 F 
ATOM     61  C   UNL     1       8.148  13.236   4.941  1.00  0.00     0.198 A 
ATOM     62  C   UNL     1       9.788  11.821   5.978  1.00  0.00     0.198 A 
ATOM     63  F   UNL     1       9.120  10.190   7.537  1.00  0.00    -0.203 F 
ATOM     64  F   UNL     1       7.836  14.206   4.071  1.00  0.00    -0.200 F 
ATOM     65  C   UNL     1       9.469  12.842   5.096  1.00  0.00     0.200 A 
ATOM     66  F   UNL     1      11.065  11.445   6.134  1.00  0.00    -0.200 F 
ATOM     67  F   UNL     1      10.436  13.444   4.388  1.00  0.00    -0.200 F 
ENDBRANCH  43  57
BRANCH  44  68
ATOM     68  C   UNL     1       0.321   6.777  11.659  1.00  0.00     0.064 A 
ATOM     69  C   UNL     1      -0.746   7.453  12.265  1.00  0.00     0.173 A 
ATOM     70  C   UNL     1       0.396   5.387  11.830  1.00  0.00     0.173 A 
ATOM     71  F   UNL     1      -0.846   8.786  12.150  1.00  0.00    -0.203 F 
ATOM     72  C   UNL     1      -1.688   6.769  13.031  1.00  0.00     0.198 A 
ATOM     73  C   UNL     1      -0.561   4.701  12.573  1.00  0.00     0.198 A 
ATOM     74  F   UNL     1       1.399   4.694  11.270  1.00  0.00    -0.203 F 
ATOM     75  F   UNL     1      -2.671   7.446  13.640  1.00  0.00    -0.200 F 
ATOM     76  C   UNL     1      -1.598   5.394  13.181  1.00  0.00     0.200 A 
ATOM     77  F   UNL     1      -0.476   3.370  12.707  1.00  0.00    -0.200 F 
ATOM     78  F   UNL     1      -2.503   4.737  13.918  1.00  0.00    -0.200 F 
ENDBRANCH  44  68
BRANCH  56  79
ATOM     79  C   UNL     1       5.256  11.359  13.433  1.00  0.00     0.064 A 
ATOM     80  C   UNL     1       5.891  10.640  14.456  1.00  0.00     0.173 A 
ATOM     81  C   UNL     1       4.990  12.719  13.653  1.00  0.00     0.173 A 
ATOM     82  F   UNL     1       6.156   9.334  14.297  1.00  0.00    -0.203 F 
ATOM     83  C   UNL     1       6.218  11.251  15.663  1.00  0.00     0.198 A 
ATOM     84  C   UNL     1       5.343  13.334  14.851  1.00  0.00     0.198 A 
ATOM     85  F   UNL     1       4.392  13.454  12.703  1.00  0.00    -0.203 F 
ATOM     86  F   UNL     1       6.779  10.531  16.645  1.00  0.00    -0.200 F 
ATOM     87  C   UNL     1       5.949  12.597  15.858  1.00  0.00     0.200 A 
ATOM     88  F   UNL     1       5.093  14.638  15.034  1.00  0.00    -0.200 F 
ATOM     89  F   UNL     1       6.265  13.184  17.021  1.00  0.00    -0.200 F 
ENDBRANCH  56  79
ENDBRANCH  30  31
ENDBRANCH  23  25
ENDBRANCH  22  23
ENDBRANCH  21  22
ENDBRANCH   1  21
TORSDOF 16
