REMARK SMILES Cc1ccc(Nc2c(Cl)cc(Cl)cc2Cl)c(CC(=O)OCCOCCOC(=O)c2ccc(-c3c4nc(c(-c5c(F)c(F)c(F)c(F)c5F)c5ccc([nH]5)c(-c5c(F)c(F)c(F)c(F)c5F)c5nc(c(-c6c(F)c(F)c(F)c(F)c6F)c6ccc3[nH]6)C=C5)C=C4)cc2)c1
REMARK SMILES IDX 22 1 21 2 20 3 18 4 19 5 17 6 16 7 1 8 2 9 3 10 92 11 4 12
REMARK SMILES IDX 5 13 6 14 7 16 8 17 14 18 9 19 10 20 13 21 15 22 11 23 12 24
REMARK SMILES IDX 23 25 24 26 25 27 26 28 27 29 28 30 29 31 30 32 91 33 31 34
REMARK SMILES IDX 90 35 32 36 33 37 34 38 84 39 35 40 89 41 83 42 85 43 36 44
REMARK SMILES IDX 88 45 82 46 81 47 37 49 69 50 49 51 68 52 50 53 53 54 67 55
REMARK SMILES IDX 86 56 51 57 52 58 66 60 87 61 54 62 38 63 39 64 47 65 40 66
REMARK SMILES IDX 41 67 45 68 48 69 42 70 43 71 46 72 44 73 70 74 71 75 79 76
REMARK SMILES IDX 72 77 73 78 77 79 80 80 74 81 75 82 78 83 76 84 55 85 56 86
REMARK SMILES IDX 64 87 57 88 58 89 62 90 65 91 59 92 60 93 63 94 61 95
REMARK H PARENT 6 15 85 48 53 59
REMARK Flexibility Score: inf
ROOT
ATOM      1  C   UNL     1      -1.536   1.204  -3.147  1.00  0.00     0.202 C 
ENDROOT
BRANCH   1   2
ATOM      2  C   UNL     1      -1.114   2.357  -2.252  1.00  0.00     0.261 C 
BRANCH   2   3
ATOM      3  O   UNL     1      -1.117   2.006  -0.879  1.00  0.00    -0.463 OA
BRANCH   3   4
ATOM      4  C   UNL     1      -2.032   2.583  -0.041  1.00  0.00     0.310 C 
ATOM      5  O   UNL     1      -2.872   3.419  -0.341  1.00  0.00    -0.252 OA
BRANCH   4   6
ATOM      6  C   UNL     1      -1.844   2.055   1.374  1.00  0.00     0.160 C 
BRANCH   6   7
ATOM      7  C   UNL     1      -1.161   0.698   1.329  1.00  0.00    -0.013 A 
ATOM      8  C   UNL     1       2.361  -0.202   0.137  1.00  0.00     0.044 C 
ATOM      9  C   UNL     1       0.931  -0.339   0.570  1.00  0.00    -0.051 A 
ATOM     10  C   UNL     1       0.236  -1.526   0.378  1.00  0.00     0.005 A 
ATOM     11  C   UNL     1       0.245   0.743   1.116  1.00  0.00     0.009 A 
ATOM     12  C   UNL     1      -1.134  -1.605   0.668  1.00  0.00     0.026 A 
ATOM     13  C   UNL     1      -1.879  -0.498   1.123  1.00  0.00     0.042 A 
BRANCH  13  14
ATOM     14  N   UNL     1      -3.286  -0.582   1.320  1.00  0.00    -0.353 N 
ATOM     15  H   UNL     1      -3.745   0.274   1.484  1.00  0.00     0.167 HD
BRANCH  14  16
ATOM     16  C   UNL     1      -4.121  -1.736   1.312  1.00  0.00     0.076 A 
ATOM     17  C   UNL     1      -3.769  -2.929   1.972  1.00  0.00     0.067 A 
ATOM     18  C   UNL     1      -5.268  -1.790   0.489  1.00  0.00     0.067 A 
ATOM     19  Cl  UNL     1      -2.642  -2.939   3.289  1.00  0.00    -0.082 Cl
ATOM     20  C   UNL     1      -4.384  -4.144   1.657  1.00  0.00     0.043 A 
ATOM     21  C   UNL     1      -5.852  -3.008   0.125  1.00  0.00     0.043 A 
ATOM     22  Cl  UNL     1      -6.072  -0.349  -0.030  1.00  0.00    -0.082 Cl
ATOM     23  C   UNL     1      -5.377  -4.185   0.687  1.00  0.00     0.044 A 
ATOM     24  Cl  UNL     1      -6.062  -5.693   0.230  1.00  0.00    -0.084 Cl
ENDBRANCH  14  16
ENDBRANCH  13  14
ENDBRANCH   6   7
ENDBRANCH   4   6
ENDBRANCH   3   4
ENDBRANCH   2   3
ENDBRANCH   1   2
BRANCH   1  25
ATOM     25  O   UNL     1      -2.926   0.997  -3.001  1.00  0.00    -0.374 OA
BRANCH  25  26
ATOM     26  C   UNL     1      -3.279  -0.044  -2.107  1.00  0.00     0.202 C 
BRANCH  26  27
ATOM     27  C   UNL     1      -3.644  -1.305  -2.891  1.00  0.00     0.261 C 
BRANCH  27  28
ATOM     28  O   UNL     1      -4.878  -1.117  -3.619  1.00  0.00    -0.460 OA
BRANCH  28  29
ATOM     29  C   UNL     1      -4.712  -0.630  -4.879  1.00  0.00     0.338 C 
ATOM     30  O   UNL     1      -4.168  -1.238  -5.794  1.00  0.00    -0.246 OA
BRANCH  29  31
ATOM     31  C   UNL     1      -5.068   0.815  -4.924  1.00  0.00     0.060 A 
ATOM     32  C   UNL     1      -4.455   1.629  -5.893  1.00  0.00     0.016 A 
ATOM     33  C   UNL     1      -5.677   1.385  -3.808  1.00  0.00     0.016 A 
ATOM     34  C   UNL     1      -4.271   2.991  -5.639  1.00  0.00     0.010 A 
ATOM     35  C   UNL     1      -5.374   2.697  -3.504  1.00  0.00     0.010 A 
ATOM     36  C   UNL     1      -4.634   3.496  -4.394  1.00  0.00    -0.014 A 
BRANCH  36  37
ATOM     37  C   UNL     1      -4.200   4.780  -3.841  1.00  0.00     0.031 A 
ATOM     38  C   UNL     1      -5.211   5.719  -3.319  1.00  0.00     0.074 A 
ATOM     39  C   UNL     1      -2.896   5.009  -3.563  1.00  0.00     0.049 A 
ATOM     40  N   UNL     1      -4.915   6.865  -2.818  1.00  0.00    -0.248 NA
ATOM     41  C   UNL     1      -6.653   5.489  -3.371  1.00  0.00     0.031 C 
ATOM     42  C   UNL     1      -2.327   5.868  -2.518  1.00  0.00     0.029 A 
ATOM     43  N   UNL     1      -1.766   4.481  -4.155  1.00  0.00    -0.354 N 
ATOM     44  C   UNL     1      -6.025   7.343  -2.180  1.00  0.00     0.074 A 
ATOM     45  C   UNL     1      -7.110   6.531  -2.668  1.00  0.00     0.031 C 
ATOM     46  C   UNL     1      -0.997   5.962  -2.683  1.00  0.00     0.029 A 
ATOM     47  C   UNL     1      -0.671   5.315  -3.939  1.00  0.00     0.049 A 
ATOM     48  H   UNL     1      -1.738   3.636  -4.660  1.00  0.00     0.167 HD
ATOM     49  C   UNL     1      -5.840   8.303  -1.234  1.00  0.00     0.037 A 
ATOM     50  C   UNL     1       0.002   5.886  -4.980  1.00  0.00     0.037 A 
ATOM     51  C   UNL     1      -4.474   8.849  -1.304  1.00  0.00     0.049 A 
ATOM     52  C   UNL     1      -0.341   7.367  -5.073  1.00  0.00     0.074 A 
ATOM     53  C   UNL     1      -3.337   8.798  -0.518  1.00  0.00     0.029 A 
ATOM     54  N   UNL     1      -4.054   9.364  -2.524  1.00  0.00    -0.354 N 
ATOM     55  N   UNL     1      -1.077   7.983  -4.186  1.00  0.00    -0.248 NA
ATOM     56  C   UNL     1       0.043   8.258  -6.162  1.00  0.00     0.031 C 
ATOM     57  C   UNL     1      -2.226   9.235  -1.321  1.00  0.00     0.029 A 
ATOM     58  C   UNL     1      -2.695   9.598  -2.574  1.00  0.00     0.049 A 
ATOM     59  H   UNL     1      -4.663   9.542  -3.276  1.00  0.00     0.167 HD
ATOM     60  C   UNL     1      -1.327   9.262  -4.564  1.00  0.00     0.074 A 
ATOM     61  C   UNL     1      -0.613   9.387  -5.828  1.00  0.00     0.031 C 
ATOM     62  C   UNL     1      -2.112  10.101  -3.819  1.00  0.00     0.037 A 
BRANCH  49  63
ATOM     63  C   UNL     1      -6.854   8.693  -0.186  1.00  0.00     0.064 A 
ATOM     64  C   UNL     1      -6.621   9.819   0.630  1.00  0.00     0.173 A 
ATOM     65  C   UNL     1      -8.019   7.960   0.138  1.00  0.00     0.173 A 
ATOM     66  F   UNL     1      -5.544  10.597   0.444  1.00  0.00    -0.203 F 
ATOM     67  C   UNL     1      -7.479  10.179   1.675  1.00  0.00     0.198 A 
ATOM     68  C   UNL     1      -8.904   8.353   1.146  1.00  0.00     0.198 A 
ATOM     69  F   UNL     1      -8.326   6.804  -0.460  1.00  0.00    -0.203 F 
ATOM     70  F   UNL     1      -7.178  11.231   2.450  1.00  0.00    -0.200 F 
ATOM     71  C   UNL     1      -8.627   9.455   1.925  1.00  0.00     0.200 A 
ATOM     72  F   UNL     1     -10.013   7.634   1.373  1.00  0.00    -0.200 F 
ATOM     73  F   UNL     1      -9.453   9.803   2.921  1.00  0.00    -0.200 F 
ENDBRANCH  49  63
BRANCH  50  74
ATOM     74  C   UNL     1       0.184   4.885  -6.077  1.00  0.00     0.064 A 
ATOM     75  C   UNL     1       0.958   3.751  -5.726  1.00  0.00     0.173 A 
ATOM     76  C   UNL     1      -0.798   4.715  -7.061  1.00  0.00     0.173 A 
ATOM     77  F   UNL     1       1.906   3.856  -4.781  1.00  0.00    -0.203 F 
ATOM     78  C   UNL     1       0.599   2.474  -6.155  1.00  0.00     0.198 A 
ATOM     79  C   UNL     1      -1.130   3.432  -7.513  1.00  0.00     0.198 A 
ATOM     80  F   UNL     1      -1.579   5.744  -7.419  1.00  0.00    -0.203 F 
ATOM     81  F   UNL     1       1.182   1.399  -5.605  1.00  0.00    -0.200 F 
ATOM     82  C   UNL     1      -0.474   2.314  -7.013  1.00  0.00     0.200 A 
ATOM     83  F   UNL     1      -2.197   3.264  -8.308  1.00  0.00    -0.200 F 
ATOM     84  F   UNL     1      -0.941   1.085  -7.278  1.00  0.00    -0.200 F 
ENDBRANCH  50  74
BRANCH  62  85
ATOM     85  C   UNL     1      -2.411  11.500  -4.270  1.00  0.00     0.064 A 
ATOM     86  C   UNL     1      -1.414  12.335  -4.794  1.00  0.00     0.173 A 
ATOM     87  C   UNL     1      -3.696  12.070  -4.149  1.00  0.00     0.173 A 
ATOM     88  F   UNL     1      -0.134  11.934  -4.833  1.00  0.00    -0.203 F 
ATOM     89  C   UNL     1      -1.711  13.601  -5.293  1.00  0.00     0.198 A 
ATOM     90  C   UNL     1      -3.973  13.364  -4.575  1.00  0.00     0.198 A 
ATOM     91  F   UNL     1      -4.736  11.382  -3.657  1.00  0.00    -0.203 F 
ATOM     92  F   UNL     1      -0.752  14.317  -5.895  1.00  0.00    -0.200 F 
ATOM     93  C   UNL     1      -2.990  14.116  -5.184  1.00  0.00     0.200 A 
ATOM     94  F   UNL     1      -5.207  13.864  -4.417  1.00  0.00    -0.200 F 
ATOM     95  F   UNL     1      -3.277  15.329  -5.671  1.00  0.00    -0.200 F 
ENDBRANCH  62  85
ENDBRANCH  36  37
ENDBRANCH  29  31
ENDBRANCH  28  29
ENDBRANCH  27  28
ENDBRANCH  26  27
ENDBRANCH  25  26
ENDBRANCH   1  25
TORSDOF 17
