REMARK SMILES C[N@H+]1CCO[C@](C)(C(=O)OCCOCCOC(=O)c2ccc(-c3c4nc(c(-c5c(F)c(F)c(F)c(F)c5F)c5ccc([nH]5)c(-c5c(F)c(F)c(F)c(F)c5F)c5nc(c(-c6c(F)c(F)c(F)c(F)c6F)c6ccc3[nH]6)C=C5)C=C4)cc2)C1
REMARK SMILES IDX 14 1 13 2 12 3 11 4 10 5 8 6 9 7 6 8 1 9 2 10 3 11 82 12
REMARK SMILES IDX 4 14 5 15 7 16 15 17 16 18 17 19 18 20 19 21 20 22 81 23
REMARK SMILES IDX 21 24 80 25 22 26 23 27 24 28 74 29 25 30 79 31 73 32 75 33
REMARK SMILES IDX 26 34 78 35 72 36 71 37 27 39 59 40 39 41 58 42 40 43 43 44
REMARK SMILES IDX 57 45 76 46 41 47 42 48 56 50 77 51 44 52 28 53 29 54 37 55
REMARK SMILES IDX 30 56 31 57 35 58 38 59 32 60 33 61 36 62 34 63 60 64 61 65
REMARK SMILES IDX 69 66 62 67 63 68 67 69 70 70 64 71 65 72 68 73 66 74 45 75
REMARK SMILES IDX 46 76 54 77 47 78 48 79 52 80 55 81 49 82 50 83 53 84 51 85
REMARK H PARENT 2 13 75 38 43 49
REMARK Flexibility Score: inf
ROOT
ATOM      1  C   UNL     1      -4.173  -0.693   3.165  1.00  0.00     0.202 C 
ENDROOT
BRANCH   1   2
ATOM      2  O   UNL     1      -5.406  -1.103   2.575  1.00  0.00    -0.374 OA
BRANCH   2   3
ATOM      3  C   UNL     1      -5.359  -2.173   1.636  1.00  0.00     0.202 C 
BRANCH   3   4
ATOM      4  C   UNL     1      -4.886  -1.839   0.218  1.00  0.00     0.261 C 
BRANCH   4   5
ATOM      5  O   UNL     1      -3.517  -1.394   0.171  1.00  0.00    -0.461 OA
BRANCH   5   6
ATOM      6  C   UNL     1      -3.350  -0.067  -0.107  1.00  0.00     0.344 C 
ATOM      7  O   UNL     1      -4.280   0.695  -0.354  1.00  0.00    -0.249 OA
BRANCH   6   8
ATOM      8  C   UNL     1      -1.863   0.359  -0.139  1.00  0.00     0.211 C 
ATOM      9  C   UNL     1       1.379  -0.136   0.168  1.00  0.00     0.332 C 
ATOM     10  N   UNL     1       0.348   0.037   1.182  1.00  0.00    -0.333 N 
ATOM     11  C   UNL     1       0.193   1.445   1.588  1.00  0.00     0.290 C 
ATOM     12  C   UNL     1      -0.973  -0.507   0.798  1.00  0.00     0.310 C 
ATOM     13  H   UNL     1       0.685  -0.510   1.974  1.00  0.00     0.348 HD
ATOM     14  C   UNL     1      -0.595   2.291   0.580  1.00  0.00     0.223 C 
ATOM     15  O   UNL     1      -1.879   1.738   0.302  1.00  0.00    -0.353 OA
ATOM     16  C   UNL     1      -1.441   0.274  -1.610  1.00  0.00     0.061 C 
ENDBRANCH   6   8
ENDBRANCH   5   6
ENDBRANCH   4   5
ENDBRANCH   3   4
ENDBRANCH   2   3
ENDBRANCH   1   2
BRANCH   1  17
ATOM     17  C   UNL     1      -3.601  -1.607   4.258  1.00  0.00     0.261 C 
BRANCH  17  18
ATOM     18  O   UNL     1      -3.235  -2.905   3.749  1.00  0.00    -0.460 OA
BRANCH  18  19
ATOM     19  C   UNL     1      -3.955  -3.936   4.252  1.00  0.00     0.338 C 
ATOM     20  O   UNL     1      -4.792  -3.895   5.144  1.00  0.00    -0.246 OA
BRANCH  19  21
ATOM     21  C   UNL     1      -3.735  -5.152   3.448  1.00  0.00     0.060 A 
ATOM     22  C   UNL     1      -4.863  -5.777   2.901  1.00  0.00     0.016 A 
ATOM     23  C   UNL     1      -2.468  -5.720   3.300  1.00  0.00     0.016 A 
ATOM     24  C   UNL     1      -4.736  -6.998   2.241  1.00  0.00     0.010 A 
ATOM     25  C   UNL     1      -2.344  -6.953   2.648  1.00  0.00     0.010 A 
ATOM     26  C   UNL     1      -3.481  -7.613   2.145  1.00  0.00    -0.014 A 
BRANCH  26  27
ATOM     27  C   UNL     1      -3.385  -9.005   1.643  1.00  0.00     0.031 A 
ATOM     28  C   UNL     1      -3.319 -10.136   2.631  1.00  0.00     0.074 A 
ATOM     29  C   UNL     1      -3.389  -9.264   0.323  1.00  0.00     0.049 A 
ATOM     30  N   UNL     1      -3.198 -11.422   2.417  1.00  0.00    -0.248 NA
ATOM     31  C   UNL     1      -3.404  -9.768   4.053  1.00  0.00     0.031 C 
ATOM     32  C   UNL     1      -3.495  -8.260  -0.732  1.00  0.00     0.029 A 
ATOM     33  N   UNL     1      -3.295 -10.456  -0.351  1.00  0.00    -0.354 N 
ATOM     34  C   UNL     1      -3.191 -12.014   3.673  1.00  0.00     0.074 A 
ATOM     35  C   UNL     1      -3.292 -10.947   4.646  1.00  0.00     0.031 C 
ATOM     36  C   UNL     1      -3.447  -8.877  -1.926  1.00  0.00     0.029 A 
ATOM     37  C   UNL     1      -3.275 -10.314  -1.716  1.00  0.00     0.049 A 
ATOM     38  H   UNL     1      -3.247 -11.329   0.101  1.00  0.00     0.167 HD
ATOM     39  C   UNL     1      -3.117 -13.330   3.987  1.00  0.00     0.037 A 
ATOM     40  C   UNL     1      -3.111 -11.237  -2.684  1.00  0.00     0.037 A 
ATOM     41  C   UNL     1      -3.016 -14.392   3.021  1.00  0.00     0.049 A 
ATOM     42  C   UNL     1      -2.942 -12.686  -2.306  1.00  0.00     0.074 A 
ATOM     43  C   UNL     1      -2.960 -15.757   3.240  1.00  0.00     0.029 A 
ATOM     44  N   UNL     1      -2.948 -14.204   1.648  1.00  0.00    -0.354 N 
ATOM     45  N   UNL     1      -2.959 -13.239  -1.118  1.00  0.00    -0.248 NA
ATOM     46  C   UNL     1      -2.728 -13.637  -3.406  1.00  0.00     0.031 C 
ATOM     47  C   UNL     1      -2.808 -16.393   2.003  1.00  0.00     0.029 A 
ATOM     48  C   UNL     1      -2.816 -15.427   1.010  1.00  0.00     0.049 A 
ATOM     49  H   UNL     1      -2.986 -13.331   1.195  1.00  0.00     0.167 HD
ATOM     50  C   UNL     1      -2.777 -14.600  -1.327  1.00  0.00     0.074 A 
ATOM     51  C   UNL     1      -2.669 -14.792  -2.758  1.00  0.00     0.031 C 
ATOM     52  C   UNL     1      -2.705 -15.601  -0.416  1.00  0.00     0.037 A 
BRANCH  39  53
ATOM     53  C   UNL     1      -3.116 -13.695   5.442  1.00  0.00     0.064 A 
ATOM     54  C   UNL     1      -4.277 -13.605   6.223  1.00  0.00     0.173 A 
ATOM     55  C   UNL     1      -1.948 -14.175   6.052  1.00  0.00     0.173 A 
ATOM     56  F   UNL     1      -5.417 -13.139   5.689  1.00  0.00    -0.203 F 
ATOM     57  C   UNL     1      -4.263 -13.961   7.570  1.00  0.00     0.198 A 
ATOM     58  C   UNL     1      -1.943 -14.553   7.392  1.00  0.00     0.198 A 
ATOM     59  F   UNL     1      -0.812 -14.283   5.347  1.00  0.00    -0.203 F 
ATOM     60  F   UNL     1      -5.373 -13.828   8.309  1.00  0.00    -0.200 F 
ATOM     61  C   UNL     1      -3.098 -14.440   8.151  1.00  0.00     0.200 A 
ATOM     62  F   UNL     1      -0.820 -15.026   7.949  1.00  0.00    -0.200 F 
ATOM     63  F   UNL     1      -3.087 -14.788   9.445  1.00  0.00    -0.200 F 
ENDBRANCH  39  53
BRANCH  40  64
ATOM     64  C   UNL     1      -3.072 -10.818  -4.109  1.00  0.00     0.064 A 
ATOM     65  C   UNL     1      -4.101 -11.164  -4.995  1.00  0.00     0.173 A 
ATOM     66  C   UNL     1      -1.994 -10.078  -4.617  1.00  0.00     0.173 A 
ATOM     67  F   UNL     1      -5.139 -11.895  -4.562  1.00  0.00    -0.203 F 
ATOM     68  C   UNL     1      -4.047 -10.799  -6.338  1.00  0.00     0.198 A 
ATOM     69  C   UNL     1      -1.954  -9.690  -5.954  1.00  0.00     0.198 A 
ATOM     70  F   UNL     1      -0.981  -9.726  -3.811  1.00  0.00    -0.203 F 
ATOM     71  F   UNL     1      -5.022 -11.180  -7.174  1.00  0.00    -0.200 F 
ATOM     72  C   UNL     1      -2.977 -10.057  -6.815  1.00  0.00     0.200 A 
ATOM     73  F   UNL     1      -0.922  -8.966  -6.408  1.00  0.00    -0.200 F 
ATOM     74  F   UNL     1      -2.926  -9.703  -8.107  1.00  0.00    -0.200 F 
ENDBRANCH  40  64
BRANCH  52  75
ATOM     75  C   UNL     1      -2.514 -16.996  -0.938  1.00  0.00     0.064 A 
ATOM     76  C   UNL     1      -1.284 -17.420  -1.460  1.00  0.00     0.173 A 
ATOM     77  C   UNL     1      -3.560 -17.929  -0.878  1.00  0.00     0.173 A 
ATOM     78  F   UNL     1      -0.258 -16.561  -1.553  1.00  0.00    -0.203 F 
ATOM     79  C   UNL     1      -1.114 -18.723  -1.923  1.00  0.00     0.198 A 
ATOM     80  C   UNL     1      -3.378 -19.238  -1.316  1.00  0.00     0.198 A 
ATOM     81  F   UNL     1      -4.755 -17.575  -0.381  1.00  0.00    -0.203 F 
ATOM     82  F   UNL     1       0.058 -19.094  -2.457  1.00  0.00    -0.200 F 
ATOM     83  C   UNL     1      -2.158 -19.632  -1.844  1.00  0.00     0.200 A 
ATOM     84  F   UNL     1      -4.385 -20.119  -1.228  1.00  0.00    -0.200 F 
ATOM     85  F   UNL     1      -1.991 -20.886  -2.284  1.00  0.00    -0.200 F 
ENDBRANCH  52  75
ENDBRANCH  26  27
ENDBRANCH  19  21
ENDBRANCH  18  19
ENDBRANCH  17  18
ENDBRANCH   1  17
TORSDOF 14
