REMARK SMILES O=C(OCCOCCOC(=O)[C@@H](Cc1c[nH]c2ccccc12)Nc1ncnc2ccccc12)c1ccc(-c2c3nc(c(-c4c(F)c(F)c(F)c(F)c4F)c4ccc([nH]4)c(-c4c(F)c(F)c(F)c(F)c4F)c4nc(c(-c5c(F)c(F)c(F)c(F)c5F)c5ccc2[nH]5)C=C4)C=C3)cc1
REMARK SMILES IDX 6 1 5 2 4 3 3 4 2 5 1 6 34 7 35 8 96 9 36 10 95 11 37 12
REMARK SMILES IDX 38 13 39 14 89 15 40 16 94 17 88 18 90 19 41 20 93 21 87 22
REMARK SMILES IDX 86 23 42 25 74 26 54 27 73 28 55 29 58 30 72 31 91 32 56 33
REMARK SMILES IDX 57 34 71 36 92 37 59 38 43 39 44 40 52 41 45 42 46 43 50 44
REMARK SMILES IDX 53 45 47 46 48 47 51 48 49 49 75 50 76 51 84 52 77 53 78 54
REMARK SMILES IDX 82 55 85 56 79 57 80 58 83 59 81 60 60 61 61 62 69 63 62 64
REMARK SMILES IDX 63 65 67 66 70 67 64 68 65 69 68 70 66 71 7 72 8 73 9 74
REMARK SMILES IDX 10 75 11 76 12 77 13 78 14 79 15 80 22 81 16 82 17 83 21 84
REMARK SMILES IDX 18 86 20 87 19 88 23 89 24 91 25 92 33 93 26 94 28 95 32 96
REMARK SMILES IDX 27 97 29 98 31 99 30 100
REMARK H PARENT 90 24 58 35 16 85 23 90
REMARK Flexibility Score: inf
ROOT
ATOM      1  O   UNL     1       4.214   0.866   1.578  1.00  0.00    -0.374 OA
ENDROOT
BRANCH   1   2
ATOM      2  C   UNL     1       4.689   1.230   0.278  1.00  0.00     0.202 C 
BRANCH   2   3
ATOM      3  C   UNL     1       4.355   0.332  -0.933  1.00  0.00     0.261 C 
BRANCH   3   4
ATOM      4  O   UNL     1       2.946   0.034  -1.024  1.00  0.00    -0.460 OA
BRANCH   4   5
ATOM      5  C   UNL     1       2.293  -1.086  -0.616  1.00  0.00     0.338 C 
ATOM      6  O   UNL     1       1.092  -1.202  -0.828  1.00  0.00    -0.246 OA
BRANCH   5   7
ATOM      7  C   UNL     1       3.009  -2.181   0.090  1.00  0.00     0.060 A 
ATOM      8  C   UNL     1       4.160  -1.950   0.823  1.00  0.00     0.016 A 
ATOM      9  C   UNL     1       2.502  -3.486   0.071  1.00  0.00     0.016 A 
ATOM     10  C   UNL     1       4.877  -2.940   1.421  1.00  0.00     0.010 A 
ATOM     11  C   UNL     1       3.172  -4.509   0.760  1.00  0.00     0.010 A 
ATOM     12  C   UNL     1       4.366  -4.221   1.431  1.00  0.00    -0.014 A 
BRANCH  12  13
ATOM     13  C   UNL     1       5.254  -5.184   2.082  1.00  0.00     0.031 A 
ATOM     14  C   UNL     1       6.101  -6.037   1.201  1.00  0.00     0.074 A 
ATOM     15  C   UNL     1       5.512  -5.008   3.393  1.00  0.00     0.049 A 
ATOM     16  N   UNL     1       6.991  -6.927   1.530  1.00  0.00    -0.248 NA
ATOM     17  C   UNL     1       5.951  -5.839  -0.254  1.00  0.00     0.031 C 
ATOM     18  C   UNL     1       4.876  -3.992   4.250  1.00  0.00     0.029 A 
ATOM     19  N   UNL     1       6.432  -5.593   4.214  1.00  0.00    -0.354 N 
ATOM     20  C   UNL     1       7.468  -7.432   0.331  1.00  0.00     0.074 A 
ATOM     21  C   UNL     1       6.793  -6.738  -0.739  1.00  0.00     0.031 C 
ATOM     22  C   UNL     1       5.461  -4.001   5.456  1.00  0.00     0.029 A 
ATOM     23  C   UNL     1       6.419  -5.094   5.494  1.00  0.00     0.049 A 
ATOM     24  H   UNL     1       7.045  -6.304   3.917  1.00  0.00     0.167 HD
ATOM     25  C   UNL     1       8.381  -8.413   0.168  1.00  0.00     0.037 A 
ATOM     26  C   UNL     1       7.073  -5.531   6.584  1.00  0.00     0.037 A 
ATOM     27  C   UNL     1       9.024  -9.056   1.280  1.00  0.00     0.049 A 
ATOM     28  C   UNL     1       7.978  -6.716   6.389  1.00  0.00     0.074 A 
ATOM     29  C   UNL     1       9.864 -10.150   1.288  1.00  0.00     0.029 A 
ATOM     30  N   UNL     1       8.890  -8.636   2.600  1.00  0.00    -0.354 N 
ATOM     31  N   UNL     1       8.314  -7.321   5.272  1.00  0.00    -0.248 NA
ATOM     32  C   UNL     1       8.568  -7.301   7.594  1.00  0.00     0.031 C 
ATOM     33  C   UNL     1      10.206 -10.417   2.619  1.00  0.00     0.029 A 
ATOM     34  C   UNL     1       9.623  -9.457   3.435  1.00  0.00     0.049 A 
ATOM     35  H   UNL     1       8.352  -7.866   2.896  1.00  0.00     0.167 HD
ATOM     36  C   UNL     1       9.156  -8.357   5.636  1.00  0.00     0.074 A 
ATOM     37  C   UNL     1       9.310  -8.269   7.077  1.00  0.00     0.031 C 
ATOM     38  C   UNL     1       9.739  -9.309   4.865  1.00  0.00     0.037 A 
BRANCH  25  39
ATOM     39  C   UNL     1       8.627  -8.892  -1.229  1.00  0.00     0.064 A 
ATOM     40  C   UNL     1       9.338  -8.131  -2.169  1.00  0.00     0.173 A 
ATOM     41  C   UNL     1       8.093 -10.120  -1.648  1.00  0.00     0.173 A 
ATOM     42  F   UNL     1       9.828  -6.929  -1.832  1.00  0.00    -0.203 F 
ATOM     43  C   UNL     1       9.490  -8.576  -3.481  1.00  0.00     0.198 A 
ATOM     44  C   UNL     1       8.269 -10.573  -2.953  1.00  0.00     0.198 A 
ATOM     45  F   UNL     1       7.383 -10.874  -0.795  1.00  0.00    -0.203 F 
ATOM     46  F   UNL     1      10.124  -7.808  -4.378  1.00  0.00    -0.200 F 
ATOM     47  C   UNL     1       8.962  -9.798  -3.869  1.00  0.00     0.200 A 
ATOM     48  F   UNL     1       7.751 -11.751  -3.326  1.00  0.00    -0.200 F 
ATOM     49  F   UNL     1       9.104 -10.221  -5.133  1.00  0.00    -0.200 F 
ENDBRANCH  25  39
BRANCH  26  50
ATOM     50  C   UNL     1       6.802  -4.948   7.928  1.00  0.00     0.064 A 
ATOM     51  C   UNL     1       7.821  -4.381   8.705  1.00  0.00     0.173 A 
ATOM     52  C   UNL     1       5.513  -4.991   8.489  1.00  0.00     0.173 A 
ATOM     53  F   UNL     1       9.075  -4.329   8.232  1.00  0.00    -0.203 F 
ATOM     54  C   UNL     1       7.569  -3.911   9.995  1.00  0.00     0.198 A 
ATOM     55  C   UNL     1       5.255  -4.485   9.761  1.00  0.00     0.198 A 
ATOM     56  F   UNL     1       4.495  -5.529   7.801  1.00  0.00    -0.203 F 
ATOM     57  F   UNL     1       8.577  -3.436  10.740  1.00  0.00    -0.200 F 
ATOM     58  C   UNL     1       6.287  -3.959  10.520  1.00  0.00     0.200 A 
ATOM     59  F   UNL     1       4.009  -4.522  10.254  1.00  0.00    -0.200 F 
ATOM     60  F   UNL     1       6.048  -3.516  11.762  1.00  0.00    -0.200 F 
ENDBRANCH  26  50
BRANCH  38  61
ATOM     61  C   UNL     1      10.610 -10.293   5.581  1.00  0.00     0.064 A 
ATOM     62  C   UNL     1      10.066 -11.284   6.409  1.00  0.00     0.173 A 
ATOM     63  C   UNL     1      12.001 -10.252   5.413  1.00  0.00     0.173 A 
ATOM     64  F   UNL     1       8.741 -11.346   6.611  1.00  0.00    -0.203 F 
ATOM     65  C   UNL     1      10.893 -12.183   7.074  1.00  0.00     0.198 A 
ATOM     66  C   UNL     1      12.820 -11.175   6.050  1.00  0.00     0.198 A 
ATOM     67  F   UNL     1      12.561  -9.323   4.623  1.00  0.00    -0.203 F 
ATOM     68  F   UNL     1      10.361 -13.085   7.909  1.00  0.00    -0.200 F 
ATOM     69  C   UNL     1      12.267 -12.133   6.888  1.00  0.00     0.200 A 
ATOM     70  F   UNL     1      14.145 -11.136   5.857  1.00  0.00    -0.200 F 
ATOM     71  F   UNL     1      13.060 -13.004   7.525  1.00  0.00    -0.200 F 
ENDBRANCH  38  61
ENDBRANCH  12  13
ENDBRANCH   5   7
ENDBRANCH   4   5
ENDBRANCH   3   4
ENDBRANCH   2   3
ENDBRANCH   1   2
BRANCH   1  72
ATOM     72  C   UNL     1       2.830   1.096   1.860  1.00  0.00     0.202 C 
BRANCH  72  73
ATOM     73  C   UNL     1       2.632   2.266   2.824  1.00  0.00     0.261 C 
BRANCH  73  74
ATOM     74  O   UNL     1       2.964   3.486   2.144  1.00  0.00    -0.462 OA
BRANCH  74  75
ATOM     75  C   UNL     1       4.288   3.774   2.106  1.00  0.00     0.329 C 
ATOM     76  O   UNL     1       5.123   3.301   2.873  1.00  0.00    -0.250 OA
BRANCH  75  77
ATOM     77  C   UNL     1       4.653   4.769   0.992  1.00  0.00     0.195 C 
BRANCH  77  78
ATOM     78  C   UNL     1       4.037   4.615  -0.420  1.00  0.00     0.074 C 
BRANCH  78  79
ATOM     79  C   UNL     1       2.552   4.514  -0.535  1.00  0.00    -0.020 A 
ATOM     80  C   UNL     1       1.788   3.395  -0.805  1.00  0.00     0.087 A 
ATOM     81  C   UNL     1       1.650   5.615  -0.490  1.00  0.00     0.003 A 
ATOM     82  N   UNL     1       0.466   3.753  -0.779  1.00  0.00    -0.361 N 
ATOM     83  C   UNL     1       0.357   5.114  -0.624  1.00  0.00     0.046 A 
ATOM     84  C   UNL     1       1.833   7.004  -0.367  1.00  0.00     0.010 A 
ATOM     85  H   UNL     1      -0.292   3.130  -0.859  1.00  0.00     0.166 HD
ATOM     86  C   UNL     1      -0.772   5.937  -0.610  1.00  0.00     0.026 A 
ATOM     87  C   UNL     1       0.721   7.844  -0.377  1.00  0.00     0.001 A 
ATOM     88  C   UNL     1      -0.562   7.315  -0.489  1.00  0.00     0.002 A 
ENDBRANCH  78  79
ENDBRANCH  77  78
BRANCH  77  89
ATOM     89  N   UNL     1       4.482   6.145   1.475  1.00  0.00    -0.356 N 
ATOM     90  H   UNL     1       3.625   6.618   1.378  1.00  0.00     0.163 HD
BRANCH  89  91
ATOM     91  C   UNL     1       5.577   6.751   2.074  1.00  0.00     0.137 A 
ATOM     92  N   UNL     1       5.354   7.120   3.342  1.00  0.00    -0.219 NA
ATOM     93  C   UNL     1       6.805   6.965   1.416  1.00  0.00     0.043 A 
ATOM     94  C   UNL     1       6.387   7.672   3.983  1.00  0.00     0.224 A 
ATOM     95  C   UNL     1       7.794   7.575   2.195  1.00  0.00     0.076 A 
ATOM     96  C   UNL     1       7.096   6.651   0.059  1.00  0.00     0.014 A 
ATOM     97  N   UNL     1       7.598   7.920   3.471  1.00  0.00    -0.236 NA
ATOM     98  C   UNL     1       9.027   7.844   1.609  1.00  0.00     0.029 A 
ATOM     99  C   UNL     1       8.345   6.903  -0.498  1.00  0.00     0.001 A 
ATOM    100  C   UNL     1       9.313   7.512   0.281  1.00  0.00     0.002 A 
ENDBRANCH  89  91
ENDBRANCH  77  89
ENDBRANCH  75  77
ENDBRANCH  74  75
ENDBRANCH  73  74
ENDBRANCH  72  73
ENDBRANCH   1  72
TORSDOF 18
