REMARK SMILES COc1cc([C@H]2CC(c3ccc(S(C)(=O)=O)cc3)=NN2c2ccc(C(=O)OCCOCCOC(=O)c3ccc(-c4c5nc(c(-c6c(F)c(F)c(F)c(F)c6F)c6ccc([nH]6)c(-c6c(F)c(F)c(F)c(F)c6F)c6nc(c(-c7c(F)c(F)c(F)c(F)c7F)c7ccc4[nH]7)C=C6)C=C5)cc3)cc2)cc(OC)c1OC
REMARK SMILES IDX 29 1 28 2 27 3 25 4 26 5 24 6 21 7 22 8 100 9 23 10 99 11
REMARK SMILES IDX 20 12 6 13 7 14 8 15 19 16 5 17 3 18 4 19 105 20 102 21
REMARK SMILES IDX 101 22 2 23 1 24 106 25 107 26 103 27 104 28 9 29 10 30
REMARK SMILES IDX 18 31 11 32 17 33 12 34 13 35 14 36 15 37 16 38 30 39 31 40
REMARK SMILES IDX 32 41 33 42 34 43 35 44 36 45 37 46 98 47 38 48 97 49 39 50
REMARK SMILES IDX 40 51 41 52 91 53 42 54 96 55 90 56 92 57 43 58 95 59 89 60
REMARK SMILES IDX 88 61 44 63 76 64 56 65 75 66 57 67 60 68 74 69 93 70 58 71
REMARK SMILES IDX 59 72 73 74 94 75 61 76 45 77 46 78 54 79 47 80 48 81 52 82
REMARK SMILES IDX 55 83 49 84 50 85 53 86 51 87 77 88 78 89 86 90 79 91 80 92
REMARK SMILES IDX 84 93 87 94 81 95 82 96 85 97 83 98 62 99 63 100 71 101
REMARK SMILES IDX 64 102 65 103 69 104 72 105 66 106 67 107 70 108 68 109
REMARK H PARENT 92 62 60 73
REMARK Flexibility Score: inf
ROOT
ATOM      1  C   UNL     1       2.003  -3.745   9.925  1.00  0.00     0.202 C 
ENDROOT
BRANCH   1   2
ATOM      2  C   UNL     1       2.353  -2.851   8.732  1.00  0.00     0.261 C 
BRANCH   2   3
ATOM      3  O   UNL     1       1.647  -3.265   7.550  1.00  0.00    -0.460 OA
BRANCH   3   4
ATOM      4  C   UNL     1       2.421  -3.821   6.587  1.00  0.00     0.338 C 
ATOM      5  O   UNL     1       3.642  -3.877   6.573  1.00  0.00    -0.246 OA
BRANCH   4   6
ATOM      6  C   UNL     1       1.576  -4.511   5.588  1.00  0.00     0.060 A 
ATOM      7  C   UNL     1       0.130  -5.842   3.572  1.00  0.00     0.060 A 
ATOM      8  C   UNL     1       1.335  -6.368   4.057  1.00  0.00     0.029 A 
ATOM      9  C   UNL     1      -0.376  -4.680   4.176  1.00  0.00     0.029 A 
ATOM     10  C   UNL     1       2.067  -5.697   5.036  1.00  0.00     0.018 A 
ATOM     11  C   UNL     1       0.331  -4.020   5.188  1.00  0.00     0.018 A 
BRANCH   7  12
ATOM     12  N   UNL     1      -0.492  -6.418   2.470  1.00  0.00    -0.257 N 
ATOM     13  C   UNL     1      -0.861  -5.672   1.258  1.00  0.00     0.144 C 
ATOM     14  C   UNL     1      -1.067  -6.795   0.228  1.00  0.00     0.091 C 
ATOM     15  C   UNL     1      -0.934  -8.002   1.117  1.00  0.00     0.071 C 
ATOM     16  N   UNL     1      -0.573  -7.770   2.340  1.00  0.00    -0.176 NA
BRANCH  13  17
ATOM     17  C   UNL     1       0.183  -4.633   0.864  1.00  0.00    -0.015 A 
ATOM     18  C   UNL     1       0.918  -2.300   0.787  1.00  0.00     0.164 A 
ATOM     19  C   UNL     1      -0.084  -3.265   1.005  1.00  0.00     0.056 A 
ATOM     20  C   UNL     1       2.227  -2.674   0.428  1.00  0.00     0.203 A 
ATOM     21  C   UNL     1       2.493  -4.049   0.258  1.00  0.00     0.164 A 
ATOM     22  C   UNL     1       1.478  -5.000   0.476  1.00  0.00     0.056 A 
BRANCH  18  23
ATOM     23  O   UNL     1       0.591  -0.998   1.073  1.00  0.00    -0.493 OA
ATOM     24  C   UNL     1      -0.185  -0.405   0.031  1.00  0.00     0.278 C 
ENDBRANCH  18  23
BRANCH  20  25
ATOM     25  O   UNL     1       3.283  -1.825   0.246  1.00  0.00    -0.490 OA
ATOM     26  C   UNL     1       3.112  -0.419   0.262  1.00  0.00     0.278 C 
ENDBRANCH  20  25
BRANCH  21  27
ATOM     27  O   UNL     1       3.671  -4.655  -0.108  1.00  0.00    -0.493 OA
ATOM     28  C   UNL     1       4.859  -3.881  -0.178  1.00  0.00     0.278 C 
ENDBRANCH  21  27
ENDBRANCH  13  17
BRANCH  15  29
ATOM     29  C   UNL     1      -1.241  -9.352   0.619  1.00  0.00    -0.002 A 
ATOM     30  C   UNL     1      -2.169 -10.128   1.325  1.00  0.00     0.011 A 
ATOM     31  C   UNL     1      -0.643  -9.844  -0.544  1.00  0.00     0.011 A 
ATOM     32  C   UNL     1      -2.529 -11.391   0.849  1.00  0.00     0.021 A 
ATOM     33  C   UNL     1      -0.981 -11.120  -1.008  1.00  0.00     0.021 A 
ATOM     34  C   UNL     1      -1.927 -11.884  -0.313  1.00  0.00     0.067 A 
BRANCH  34  35
ATOM     35  S   UNL     1      -2.427 -13.471  -0.945  1.00  0.00     0.175 S 
ATOM     36  C   UNL     1      -1.979 -14.623   0.326  1.00  0.00     0.163 C 
ATOM     37  O   UNL     1      -3.874 -13.440  -1.044  1.00  0.00    -0.224 OA
ATOM     38  O   UNL     1      -1.606 -13.759  -2.105  1.00  0.00    -0.224 OA
ENDBRANCH  34  35
ENDBRANCH  15  29
ENDBRANCH   7  12
ENDBRANCH   4   6
ENDBRANCH   3   4
ENDBRANCH   2   3
ENDBRANCH   1   2
BRANCH   1  39
ATOM     39  O   UNL     1       2.428  -5.104   9.827  1.00  0.00    -0.374 OA
BRANCH  39  40
ATOM     40  C   UNL     1       1.581  -5.988   9.089  1.00  0.00     0.202 C 
BRANCH  40  41
ATOM     41  C   UNL     1       0.386  -6.556   9.864  1.00  0.00     0.261 C 
BRANCH  41  42
ATOM     42  O   UNL     1      -0.565  -5.527  10.195  1.00  0.00    -0.460 OA
BRANCH  42  43
ATOM     43  C   UNL     1      -0.644  -5.224  11.510  1.00  0.00     0.338 C 
ATOM     44  O   UNL     1      -0.093  -5.797  12.441  1.00  0.00    -0.246 OA
BRANCH  43  45
ATOM     45  C   UNL     1      -1.378  -3.958  11.691  1.00  0.00     0.060 A 
ATOM     46  C   UNL     1      -0.772  -2.973  12.481  1.00  0.00     0.016 A 
ATOM     47  C   UNL     1      -2.651  -3.752  11.153  1.00  0.00     0.016 A 
ATOM     48  C   UNL     1      -1.458  -1.797  12.776  1.00  0.00     0.010 A 
ATOM     49  C   UNL     1      -3.340  -2.572  11.456  1.00  0.00     0.010 A 
ATOM     50  C   UNL     1      -2.759  -1.604  12.295  1.00  0.00    -0.014 A 
BRANCH  50  51
ATOM     51  C   UNL     1      -3.541  -0.436  12.767  1.00  0.00     0.031 A 
ATOM     52  C   UNL     1      -4.543  -0.614  13.871  1.00  0.00     0.074 A 
ATOM     53  C   UNL     1      -3.334   0.781  12.236  1.00  0.00     0.049 A 
ATOM     54  N   UNL     1      -5.307   0.277  14.452  1.00  0.00    -0.248 NA
ATOM     55  C   UNL     1      -4.712  -1.980  14.386  1.00  0.00     0.031 C 
ATOM     56  C   UNL     1      -2.386   1.081  11.166  1.00  0.00     0.029 A 
ATOM     57  N   UNL     1      -3.916   1.990  12.524  1.00  0.00    -0.354 N 
ATOM     58  C   UNL     1      -6.048  -0.419  15.397  1.00  0.00     0.074 A 
ATOM     59  C   UNL     1      -5.668  -1.812  15.288  1.00  0.00     0.031 C 
ATOM     60  C   UNL     1      -2.459   2.391  10.877  1.00  0.00     0.029 A 
ATOM     61  C   UNL     1      -3.470   3.015  11.729  1.00  0.00     0.049 A 
ATOM     62  H   UNL     1      -4.588   2.110  13.233  1.00  0.00     0.167 HD
ATOM     63  C   UNL     1      -6.955   0.061  16.281  1.00  0.00     0.037 A 
ATOM     64  C   UNL     1      -3.846   4.307  11.684  1.00  0.00     0.037 A 
ATOM     65  C   UNL     1      -7.330   1.447  16.390  1.00  0.00     0.049 A 
ATOM     66  C   UNL     1      -4.878   4.814  12.655  1.00  0.00     0.074 A 
ATOM     67  C   UNL     1      -8.194   2.041  17.294  1.00  0.00     0.029 A 
ATOM     68  N   UNL     1      -6.874   2.456  15.553  1.00  0.00    -0.354 N 
ATOM     69  N   UNL     1      -5.528   4.162  13.588  1.00  0.00    -0.248 NA
ATOM     70  C   UNL     1      -5.221   6.241  12.572  1.00  0.00     0.031 C 
ATOM     71  C   UNL     1      -8.304   3.398  16.968  1.00  0.00     0.029 A 
ATOM     72  C   UNL     1      -7.468   3.661  15.895  1.00  0.00     0.049 A 
ATOM     73  H   UNL     1      -6.224   2.333  14.824  1.00  0.00     0.167 HD
ATOM     74  C   UNL     1      -6.346   5.095  14.210  1.00  0.00     0.074 A 
ATOM     75  C   UNL     1      -6.094   6.366  13.562  1.00  0.00     0.031 C 
ATOM     76  C   UNL     1      -7.226   4.916  15.227  1.00  0.00     0.037 A 
BRANCH  63  77
ATOM     77  C   UNL     1      -7.629  -0.933  17.182  1.00  0.00     0.064 A 
ATOM     78  C   UNL     1      -6.941  -1.577  18.222  1.00  0.00     0.173 A 
ATOM     79  C   UNL     1      -8.988  -1.239  17.008  1.00  0.00     0.173 A 
ATOM     80  F   UNL     1      -5.638  -1.330  18.423  1.00  0.00    -0.203 F 
ATOM     81  C   UNL     1      -7.578  -2.517  19.029  1.00  0.00     0.198 A 
ATOM     82  C   UNL     1      -9.629  -2.156  17.835  1.00  0.00     0.198 A 
ATOM     83  F   UNL     1      -9.694  -0.648  16.032  1.00  0.00    -0.203 F 
ATOM     84  F   UNL     1      -6.887  -3.160  19.980  1.00  0.00    -0.200 F 
ATOM     85  C   UNL     1      -8.922  -2.802  18.838  1.00  0.00     0.200 A 
ATOM     86  F   UNL     1     -10.930  -2.423  17.656  1.00  0.00    -0.200 F 
ATOM     87  F   UNL     1      -9.534  -3.707  19.615  1.00  0.00    -0.200 F 
ENDBRANCH  63  77
BRANCH  64  88
ATOM     88  C   UNL     1      -3.236   5.207  10.674  1.00  0.00     0.064 A 
ATOM     89  C   UNL     1      -2.324   6.204  11.044  1.00  0.00     0.173 A 
ATOM     90  C   UNL     1      -3.536   5.068   9.310  1.00  0.00     0.173 A 
ATOM     91  F   UNL     1      -2.024   6.389  12.338  1.00  0.00    -0.203 F 
ATOM     92  C   UNL     1      -1.738   7.031  10.088  1.00  0.00     0.198 A 
ATOM     93  C   UNL     1      -2.931   5.879   8.354  1.00  0.00     0.198 A 
ATOM     94  F   UNL     1      -4.404   4.128   8.907  1.00  0.00    -0.203 F 
ATOM     95  F   UNL     1      -0.890   7.996  10.470  1.00  0.00    -0.200 F 
ATOM     96  C   UNL     1      -2.035   6.862   8.744  1.00  0.00     0.200 A 
ATOM     97  F   UNL     1      -3.212   5.704   7.056  1.00  0.00    -0.200 F 
ATOM     98  F   UNL     1      -1.460   7.649   7.824  1.00  0.00    -0.200 F 
ENDBRANCH  64  88
BRANCH  76  99
ATOM     99  C   UNL     1      -7.982   6.124  15.700  1.00  0.00     0.064 A 
ATOM    100  C   UNL     1      -8.995   6.707  14.923  1.00  0.00     0.173 A 
ATOM    101  C   UNL     1      -7.710   6.692  16.954  1.00  0.00     0.173 A 
ATOM    102  F   UNL     1      -9.284   6.211  13.710  1.00  0.00    -0.203 F 
ATOM    103  C   UNL     1      -9.687   7.829  15.371  1.00  0.00     0.198 A 
ATOM    104  C   UNL     1      -8.424   7.796  17.412  1.00  0.00     0.198 A 
ATOM    105  F   UNL     1      -6.756   6.171  17.741  1.00  0.00    -0.203 F 
ATOM    106  F   UNL     1     -10.615   8.399  14.589  1.00  0.00    -0.200 F 
ATOM    107  C   UNL     1      -9.405   8.369  16.617  1.00  0.00     0.200 A 
ATOM    108  F   UNL     1      -8.160   8.310  18.622  1.00  0.00    -0.200 F 
ATOM    109  F   UNL     1     -10.074   9.448  17.048  1.00  0.00    -0.200 F 
ENDBRANCH  76  99
ENDBRANCH  50  51
ENDBRANCH  43  45
ENDBRANCH  42  43
ENDBRANCH  41  42
ENDBRANCH  40  41
ENDBRANCH  39  40
ENDBRANCH   1  39
TORSDOF 21
