REMARK SMILES CC1(C)CCCC[C@@H]1NC(=O)NC1(C(=O)OCCOCCOC(=O)c2ccc(-c3c4nc(c(-c5c(F)c(F)c(F)c(F)c5F)c5ccc([nH]5)c(-c5c(F)c(F)c(F)c(F)c5F)c5nc(c(-c6c(F)c(F)c(F)c(F)c6F)c6ccc3[nH]6)C=C5)C=C4)cc2)CCCCC1
REMARK SMILES IDX 19 1 18 2 17 3 16 4 14 5 15 6 13 7 88 8 92 9 89 10 91 11
REMARK SMILES IDX 90 12 12 13 9 14 10 15 11 17 8 19 1 20 2 21 3 22 4 23 5 24
REMARK SMILES IDX 7 25 6 26 20 27 21 28 22 29 23 30 24 31 25 32 26 33 87 34
REMARK SMILES IDX 27 35 86 36 28 37 29 38 30 39 80 40 31 41 85 42 79 43 81 44
REMARK SMILES IDX 32 45 84 46 78 47 77 48 33 50 65 51 45 52 64 53 46 54 49 55
REMARK SMILES IDX 63 56 82 57 47 58 48 59 62 61 83 62 50 63 34 64 35 65 43 66
REMARK SMILES IDX 36 67 37 68 41 69 44 70 38 71 39 72 42 73 40 74 66 75 67 76
REMARK SMILES IDX 75 77 68 78 69 79 73 80 76 81 70 82 71 83 74 84 72 85 51 86
REMARK SMILES IDX 52 87 60 88 53 89 54 90 58 91 61 92 55 93 56 94 59 95 57 96
REMARK H PARENT 9 16 12 18 81 49 49 60
REMARK Flexibility Score: inf
ROOT
ATOM      1  O   UNL     1      -1.735   1.556  -3.720  1.00  0.00    -0.374 OA
ENDROOT
BRANCH   1   2
ATOM      2  C   UNL     1      -0.376   1.304  -3.985  1.00  0.00     0.202 C 
BRANCH   2   3
ATOM      3  C   UNL     1       0.800   1.565  -2.945  1.00  0.00     0.261 C 
BRANCH   3   4
ATOM      4  O   UNL     1       0.843   2.251  -1.288  1.00  0.00    -0.461 OA
BRANCH   4   5
ATOM      5  C   UNL     1       0.919   3.471  -0.085  1.00  0.00     0.331 C 
ATOM      6  O   UNL     1       0.835   4.692  -0.361  1.00  0.00    -0.249 OA
BRANCH   5   7
ATOM      7  C   UNL     1       1.127   3.237   1.641  1.00  0.00     0.139 C 
ATOM      8  C   UNL     1       2.514   3.967   1.806  1.00  0.00     0.040 C 
ATOM      9  C   UNL     1       0.842   2.394   2.999  1.00  0.00     0.040 C 
ATOM     10  C   UNL     1       3.174   4.226   3.154  1.00  0.00     0.003 C 
ATOM     11  C   UNL     1       1.481   2.911   4.294  1.00  0.00     0.003 C 
ATOM     12  C   UNL     1       2.962   3.112   4.152  1.00  0.00     0.000 C 
BRANCH   7  13
ATOM     13  N   UNL     1      -0.130   3.977   1.736  1.00  0.00    -0.322 N 
ATOM     14  N   UNL     1      -1.063   1.880   1.215  1.00  0.00    -0.335 N 
ATOM     15  C   UNL     1      -1.281   3.232   1.550  1.00  0.00     0.315 C 
ATOM     16  H   UNL     1      -1.434   1.194   1.816  1.00  0.00     0.165 HD
ATOM     17  O   UNL     1      -2.401   3.685   1.736  1.00  0.00    -0.249 OA
ATOM     18  H   UNL     1      -0.156   4.944   1.921  1.00  0.00     0.166 HD
BRANCH  14  19
ATOM     19  C   UNL     1      -0.309   1.414   0.009  1.00  0.00     0.089 C 
ATOM     20  C   UNL     1       1.812  -0.415  -0.701  1.00  0.00     0.013 C 
ATOM     21  C   UNL     1       1.628   1.004  -0.036  1.00  0.00    -0.015 C 
ATOM     22  C   UNL     1       2.322   0.581   1.288  1.00  0.00     0.013 C 
ATOM     23  C   UNL     1       2.768   2.200  -1.079  1.00  0.00     0.008 C 
ATOM     24  C   UNL     1       2.016   3.629  -2.160  1.00  0.00     0.001 C 
ATOM     25  C   UNL     1      -1.046   2.662  -1.257  1.00  0.00     0.025 C 
ATOM     26  C   UNL     1       0.081   3.785  -2.339  1.00  0.00     0.002 C 
ENDBRANCH  14  19
ENDBRANCH   7  13
ENDBRANCH   5   7
ENDBRANCH   4   5
ENDBRANCH   3   4
ENDBRANCH   2   3
ENDBRANCH   1   2
BRANCH   1  27
ATOM     27  C   UNL     1      -2.631   0.444  -3.659  1.00  0.00     0.202 C 
BRANCH  27  28
ATOM     28  C   UNL     1      -2.367  -0.595  -2.552  1.00  0.00     0.261 C 
BRANCH  28  29
ATOM     29  O   UNL     1      -1.056  -1.186  -2.597  1.00  0.00    -0.460 OA
BRANCH  29  30
ATOM     30  C   UNL     1      -0.844  -2.009  -3.644  1.00  0.00     0.338 C 
ATOM     31  O   UNL     1      -1.654  -2.318  -4.514  1.00  0.00    -0.246 OA
BRANCH  30  32
ATOM     32  C   UNL     1       0.581  -2.354  -3.724  1.00  0.00     0.060 A 
ATOM     33  C   UNL     1       1.277  -2.009  -4.889  1.00  0.00     0.016 A 
ATOM     34  C   UNL     1       1.205  -3.084  -2.709  1.00  0.00     0.016 A 
ATOM     35  C   UNL     1       2.574  -2.470  -5.086  1.00  0.00     0.010 A 
ATOM     36  C   UNL     1       2.507  -3.549  -2.907  1.00  0.00     0.010 A 
ATOM     37  C   UNL     1       3.163  -3.306  -4.129  1.00  0.00    -0.014 A 
BRANCH  37  38
ATOM     38  C   UNL     1       4.284  -4.181  -4.551  1.00  0.00     0.031 A 
ATOM     39  C   UNL     1       3.944  -5.587  -4.976  1.00  0.00     0.074 A 
ATOM     40  C   UNL     1       5.548  -3.735  -4.639  1.00  0.00     0.049 A 
ATOM     41  N   UNL     1       4.732  -6.564  -5.345  1.00  0.00    -0.248 NA
ATOM     42  C   UNL     1       2.513  -5.936  -4.989  1.00  0.00     0.031 C 
ATOM     43  C   UNL     1       5.989  -2.375  -4.342  1.00  0.00     0.029 A 
ATOM     44  N   UNL     1       6.694  -4.391  -5.010  1.00  0.00    -0.354 N 
ATOM     45  C   UNL     1       3.894  -7.639  -5.616  1.00  0.00     0.074 A 
ATOM     46  C   UNL     1       2.543  -7.211  -5.341  1.00  0.00     0.031 C 
ATOM     47  C   UNL     1       7.318  -2.300  -4.531  1.00  0.00     0.029 A 
ATOM     48  C   UNL     1       7.824  -3.616  -4.922  1.00  0.00     0.049 A 
ATOM     49  H   UNL     1       6.706  -5.329  -5.310  1.00  0.00     0.167 HD
ATOM     50  C   UNL     1       4.221  -8.873  -6.065  1.00  0.00     0.037 A 
ATOM     51  C   UNL     1       9.117  -3.947  -5.108  1.00  0.00     0.037 A 
ATOM     52  C   UNL     1       5.566  -9.294  -6.348  1.00  0.00     0.049 A 
ATOM     53  C   UNL     1       9.468  -5.359  -5.512  1.00  0.00     0.074 A 
ATOM     54  C   UNL     1       6.007 -10.523  -6.803  1.00  0.00     0.029 A 
ATOM     55  N   UNL     1       6.689  -8.495  -6.195  1.00  0.00    -0.354 N 
ATOM     56  N   UNL     1       8.675  -6.374  -5.759  1.00  0.00    -0.248 NA
ATOM     57  C   UNL     1      10.897  -5.670  -5.665  1.00  0.00     0.031 C 
ATOM     58  C   UNL     1       7.402 -10.488  -6.866  1.00  0.00     0.029 A 
ATOM     59  C   UNL     1       7.826  -9.214  -6.522  1.00  0.00     0.049 A 
ATOM     60  H   UNL     1       6.679  -7.556  -5.899  1.00  0.00     0.167 HD
ATOM     61  C   UNL     1       9.502  -7.426  -6.135  1.00  0.00     0.074 A 
ATOM     62  C   UNL     1      10.859  -6.926  -6.088  1.00  0.00     0.031 C 
ATOM     63  C   UNL     1       9.169  -8.692  -6.491  1.00  0.00     0.037 A 
BRANCH  50  64
ATOM     64  C   UNL     1       3.109  -9.867  -6.236  1.00  0.00     0.064 A 
ATOM     65  C   UNL     1       2.143  -9.739  -7.245  1.00  0.00     0.173 A 
ATOM     66  C   UNL     1       3.021 -10.978  -5.383  1.00  0.00     0.173 A 
ATOM     67  F   UNL     1       2.168  -8.684  -8.074  1.00  0.00    -0.203 F 
ATOM     68  C   UNL     1       1.115 -10.670  -7.376  1.00  0.00     0.198 A 
ATOM     69  C   UNL     1       2.014 -11.926  -5.539  1.00  0.00     0.198 A 
ATOM     70  F   UNL     1       3.918 -11.149  -4.400  1.00  0.00    -0.203 F 
ATOM     71  F   UNL     1       0.172 -10.497  -8.312  1.00  0.00    -0.200 F 
ATOM     72  C   UNL     1       1.057 -11.767  -6.529  1.00  0.00     0.200 A 
ATOM     73  F   UNL     1       1.968 -12.991  -4.728  1.00  0.00    -0.200 F 
ATOM     74  F   UNL     1       0.073 -12.666  -6.662  1.00  0.00    -0.200 F 
ENDBRANCH  50  64
BRANCH  51  75
ATOM     75  C   UNL     1      10.185  -2.935  -4.888  1.00  0.00     0.064 A 
ATOM     76  C   UNL     1      10.988  -2.481  -5.944  1.00  0.00     0.173 A 
ATOM     77  C   UNL     1      10.449  -2.426  -3.607  1.00  0.00     0.173 A 
ATOM     78  F   UNL     1      10.795  -2.957  -7.184  1.00  0.00    -0.203 F 
ATOM     79  C   UNL     1      12.025  -1.577  -5.724  1.00  0.00     0.198 A 
ATOM     80  C   UNL     1      11.465  -1.497  -3.394  1.00  0.00     0.198 A 
ATOM     81  F   UNL     1       9.714  -2.829  -2.559  1.00  0.00    -0.203 F 
ATOM     82  F   UNL     1      12.812  -1.204  -6.743  1.00  0.00    -0.200 F 
ATOM     83  C   UNL     1      12.259  -1.081  -4.451  1.00  0.00     0.200 A 
ATOM     84  F   UNL     1      11.677  -1.011  -2.163  1.00  0.00    -0.200 F 
ATOM     85  F   UNL     1      13.256  -0.211  -4.240  1.00  0.00    -0.200 F 
ENDBRANCH  51  75
BRANCH  63  86
ATOM     86  C   UNL     1      10.276  -9.612  -6.924  1.00  0.00     0.064 A 
ATOM     87  C   UNL     1      11.214 -10.125  -6.017  1.00  0.00     0.173 A 
ATOM     88  C   UNL     1      10.356 -10.035  -8.261  1.00  0.00     0.173 A 
ATOM     89  F   UNL     1      11.188  -9.746  -4.731  1.00  0.00    -0.203 F 
ATOM     90  C   UNL     1      12.206 -11.008  -6.437  1.00  0.00     0.198 A 
ATOM     91  C   UNL     1      11.327 -10.944  -8.669  1.00  0.00     0.198 A 
ATOM     92  F   UNL     1       9.476  -9.584  -9.168  1.00  0.00    -0.203 F 
ATOM     93  F   UNL     1      13.121 -11.449  -5.563  1.00  0.00    -0.200 F 
ATOM     94  C   UNL     1      12.256 -11.424  -7.760  1.00  0.00     0.200 A 
ATOM     95  F   UNL     1      11.360 -11.360  -9.943  1.00  0.00    -0.200 F 
ATOM     96  F   UNL     1      13.204 -12.284  -8.158  1.00  0.00    -0.200 F 
ENDBRANCH  63  86
ENDBRANCH  37  38
ENDBRANCH  30  32
ENDBRANCH  29  30
ENDBRANCH  28  29
ENDBRANCH  27  28
ENDBRANCH   1  27
TORSDOF 16
