REMARK SMILES C[C@H]1C[NH+](CC[C@@H]2CCC[C@]2([NH3+])C(=O)OCCOCCOC(=O)c2ccc(-c3c4nc(c(-c5c(F)c(F)c(F)c(F)c5F)c5ccc([nH]5)c(-c5c(F)c(F)c(F)c(F)c5F)c5nc(c(-c6c(F)c(F)c(F)c(F)c6F)c6ccc3[nH]6)C=C5)C=C4)cc2)C[C@H](C)O1
REMARK SMILES IDX 17 1 16 2 15 3 13 4 14 5 11 6 7 7 8 8 9 9 10 10 6 11 5 12
REMARK SMILES IDX 4 13 1 14 2 15 3 16 90 17 88 18 87 19 89 21 12 22 18 26
REMARK SMILES IDX 19 27 20 28 21 29 22 30 23 31 24 32 25 33 86 34 26 35 85 36
REMARK SMILES IDX 27 37 28 38 29 39 79 40 30 41 84 42 78 43 80 44 31 45 83 46
REMARK SMILES IDX 77 47 76 48 32 50 64 51 44 52 63 53 45 54 48 55 62 56 81 57
REMARK SMILES IDX 46 58 47 59 61 61 82 62 49 63 33 64 34 65 42 66 35 67 36 68
REMARK SMILES IDX 40 69 43 70 37 71 38 72 41 73 39 74 65 75 66 76 74 77 67 78
REMARK SMILES IDX 68 79 72 80 75 81 69 82 70 83 73 84 71 85 50 86 51 87 59 88
REMARK SMILES IDX 52 89 53 90 57 91 60 92 54 93 55 94 58 95 56 96
REMARK H PARENT 4 20 12 23 12 24 12 25 80 49 48 60
REMARK Flexibility Score: inf
ROOT
ATOM      1  C   UNL     1      -7.715   3.391   0.502  1.00  0.00     0.202 C 
ENDROOT
BRANCH   1   2
ATOM      2  C   UNL     1      -6.662   3.827  -0.520  1.00  0.00     0.261 C 
BRANCH   2   3
ATOM      3  O   UNL     1      -5.324   3.685  -0.010  1.00  0.00    -0.459 OA
BRANCH   3   4
ATOM      4  C   UNL     1      -4.737   4.843   0.397  1.00  0.00     0.368 C 
ATOM      5  O   UNL     1      -5.268   5.946   0.304  1.00  0.00    -0.245 OA
BRANCH   4   6
ATOM      6  C   UNL     1      -3.263   4.652   0.865  1.00  0.00     0.195 C 
ATOM      7  C   UNL     1      -2.919   3.487   1.842  1.00  0.00     0.068 C 
ATOM      8  C   UNL     1      -3.343   3.974   3.239  1.00  0.00     0.011 C 
ATOM      9  C   UNL     1      -3.445   5.494   3.136  1.00  0.00     0.008 C 
ATOM     10  C   UNL     1      -2.885   5.854   1.762  1.00  0.00     0.081 C 
BRANCH   7  11
ATOM     11  C   UNL     1      -3.341   2.040   1.549  1.00  0.00     0.072 C 
BRANCH  11  12
ATOM     12  C   UNL     1      -2.734   1.350   0.303  1.00  0.00     0.262 C 
BRANCH  12  13
ATOM     13  N   UNL     1      -1.288   1.066   0.235  1.00  0.00    -0.331 N 
ATOM     14  C   UNL     1       1.308  -0.652   2.463  1.00  0.00     0.045 C 
ATOM     15  C   UNL     1       0.748   0.073   1.242  1.00  0.00     0.170 C 
ATOM     16  C   UNL     1      -0.757   0.371   1.413  1.00  0.00     0.294 C 
ATOM     17  O   UNL     1       1.492   1.292   1.095  1.00  0.00    -0.364 OA
ATOM     18  C   UNL     1       1.059   2.082  -0.019  1.00  0.00     0.170 C 
ATOM     19  C   UNL     1      -0.473   2.242  -0.090  1.00  0.00     0.294 C 
ATOM     20  H   UNL     1      -1.209   0.417  -0.548  1.00  0.00     0.348 HD
ATOM     21  C   UNL     1       1.669   1.596  -1.322  1.00  0.00     0.045 C 
ENDBRANCH  12  13
ENDBRANCH  11  12
ENDBRANCH   7  11
BRANCH   6  22
ATOM     22  N   UNL     1      -2.437   4.671  -0.360  1.00  0.00    -0.343 N 
ATOM     23  H   UNL     1      -1.455   4.549  -0.110  1.00  0.00     0.345 HD
ATOM     24  H   UNL     1      -2.557   5.564  -0.838  1.00  0.00     0.345 HD
ATOM     25  H   UNL     1      -2.727   3.913  -0.978  1.00  0.00     0.345 HD
ENDBRANCH   6  22
ENDBRANCH   4   6
ENDBRANCH   3   4
ENDBRANCH   2   3
ENDBRANCH   1   2
BRANCH   1  26
ATOM     26  O   UNL     1      -7.835   4.182   1.684  1.00  0.00    -0.374 OA
BRANCH  26  27
ATOM     27  C   UNL     1      -6.870   3.951   2.708  1.00  0.00     0.202 C 
BRANCH  27  28
ATOM     28  C   UNL     1      -7.142   2.783   3.659  1.00  0.00     0.261 C 
BRANCH  28  29
ATOM     29  O   UNL     1      -7.030   1.522   2.979  1.00  0.00    -0.460 OA
BRANCH  29  30
ATOM     30  C   UNL     1      -8.215   0.944   2.682  1.00  0.00     0.338 C 
ATOM     31  O   UNL     1      -9.329   1.316   3.026  1.00  0.00    -0.246 OA
BRANCH  30  32
ATOM     32  C   UNL     1      -8.014  -0.135   1.698  1.00  0.00     0.060 A 
ATOM     33  C   UNL     1      -8.902  -0.184   0.614  1.00  0.00     0.016 A 
ATOM     34  C   UNL     1      -7.023  -1.106   1.854  1.00  0.00     0.016 A 
ATOM     35  C   UNL     1      -8.856  -1.252  -0.275  1.00  0.00     0.010 A 
ATOM     36  C   UNL     1      -6.980  -2.179   0.962  1.00  0.00     0.010 A 
ATOM     37  C   UNL     1      -7.929  -2.280  -0.072  1.00  0.00    -0.014 A 
BRANCH  37  38
ATOM     38  C   UNL     1      -8.075  -3.551  -0.817  1.00  0.00     0.031 A 
ATOM     39  C   UNL     1      -8.710  -4.720  -0.120  1.00  0.00     0.074 A 
ATOM     40  C   UNL     1      -7.660  -3.656  -2.089  1.00  0.00     0.049 A 
ATOM     41  N   UNL     1      -8.871  -5.951  -0.532  1.00  0.00    -0.248 NA
ATOM     42  C   UNL     1      -9.227  -4.467   1.235  1.00  0.00     0.031 C 
ATOM     43  C   UNL     1      -7.070  -2.576  -2.875  1.00  0.00     0.029 A 
ATOM     44  N   UNL     1      -7.658  -4.735  -2.936  1.00  0.00    -0.354 N 
ATOM     45  C   UNL     1      -9.485  -6.621   0.517  1.00  0.00     0.074 A 
ATOM     46  C   UNL     1      -9.642  -5.671   1.596  1.00  0.00     0.031 C 
ATOM     47  C   UNL     1      -6.741  -3.052  -4.088  1.00  0.00     0.029 A 
ATOM     48  C   UNL     1      -7.063  -4.477  -4.145  1.00  0.00     0.049 A 
ATOM     49  H   UNL     1      -8.045  -5.608  -2.699  1.00  0.00     0.167 HD
ATOM     50  C   UNL     1      -9.885  -7.914   0.571  1.00  0.00     0.037 A 
ATOM     51  C   UNL     1      -6.783  -5.309  -5.166  1.00  0.00     0.037 A 
ATOM     52  C   UNL     1      -9.726  -8.848  -0.512  1.00  0.00     0.049 A 
ATOM     53  C   UNL     1      -7.183  -6.758  -5.064  1.00  0.00     0.074 A 
ATOM     54  C   UNL     1     -10.122 -10.171  -0.578  1.00  0.00     0.029 A 
ATOM     55  N   UNL     1      -9.106  -8.555  -1.720  1.00  0.00    -0.354 N 
ATOM     56  N   UNL     1      -7.785  -7.384  -4.082  1.00  0.00    -0.248 NA
ATOM     57  C   UNL     1      -6.869  -7.614  -6.215  1.00  0.00     0.031 C 
ATOM     58  C   UNL     1      -9.685 -10.697  -1.798  1.00  0.00     0.029 A 
ATOM     59  C   UNL     1      -9.080  -9.682  -2.524  1.00  0.00     0.049 A 
ATOM     60  H   UNL     1      -8.739  -7.676  -1.968  1.00  0.00     0.167 HD
ATOM     61  C   UNL     1      -7.951  -8.696  -4.505  1.00  0.00     0.074 A 
ATOM     62  C   UNL     1      -7.389  -8.774  -5.839  1.00  0.00     0.031 C 
ATOM     63  C   UNL     1      -8.522  -9.739  -3.853  1.00  0.00     0.037 A 
BRANCH  50  64
ATOM     64  C   UNL     1     -10.490  -8.398   1.859  1.00  0.00     0.064 A 
ATOM     65  C   UNL     1     -11.739  -7.948   2.312  1.00  0.00     0.173 A 
ATOM     66  C   UNL     1      -9.806  -9.333   2.651  1.00  0.00     0.173 A 
ATOM     67  F   UNL     1     -12.430  -7.043   1.602  1.00  0.00    -0.203 F 
ATOM     68  C   UNL     1     -12.261  -8.383   3.528  1.00  0.00     0.198 A 
ATOM     69  C   UNL     1     -10.347  -9.794   3.849  1.00  0.00     0.198 A 
ATOM     70  F   UNL     1      -8.609  -9.801   2.265  1.00  0.00    -0.203 F 
ATOM     71  F   UNL     1     -13.425  -7.889   3.972  1.00  0.00    -0.200 F 
ATOM     72  C   UNL     1     -11.567  -9.310   4.292  1.00  0.00     0.200 A 
ATOM     73  F   UNL     1      -9.681 -10.700   4.578  1.00  0.00    -0.200 F 
ATOM     74  F   UNL     1     -12.071  -9.729   5.462  1.00  0.00    -0.200 F 
ENDBRANCH  50  64
BRANCH  51  75
ATOM     75  C   UNL     1      -6.080  -4.784  -6.364  1.00  0.00     0.064 A 
ATOM     76  C   UNL     1      -6.737  -4.663  -7.596  1.00  0.00     0.173 A 
ATOM     77  C   UNL     1      -4.741  -4.369  -6.295  1.00  0.00     0.173 A 
ATOM     78  F   UNL     1      -8.010  -5.067  -7.717  1.00  0.00    -0.203 F 
ATOM     79  C   UNL     1      -6.080  -4.155  -8.715  1.00  0.00     0.198 A 
ATOM     80  C   UNL     1      -4.094  -3.834  -7.407  1.00  0.00     0.198 A 
ATOM     81  F   UNL     1      -4.067  -4.464  -5.140  1.00  0.00    -0.203 F 
ATOM     82  F   UNL     1      -6.722  -4.081  -9.889  1.00  0.00    -0.200 F 
ATOM     83  C   UNL     1      -4.763  -3.732  -8.617  1.00  0.00     0.200 A 
ATOM     84  F   UNL     1      -2.826  -3.413  -7.304  1.00  0.00    -0.200 F 
ATOM     85  F   UNL     1      -4.137  -3.230  -9.690  1.00  0.00    -0.200 F 
ENDBRANCH  51  75
BRANCH  63  86
ATOM     86  C   UNL     1      -8.615 -11.048  -4.586  1.00  0.00     0.064 A 
ATOM     87  C   UNL     1      -7.485 -11.839  -4.838  1.00  0.00     0.173 A 
ATOM     88  C   UNL     1      -9.866 -11.542  -4.990  1.00  0.00     0.173 A 
ATOM     89  F   UNL     1      -6.265 -11.408  -4.484  1.00  0.00    -0.203 F 
ATOM     90  C   UNL     1      -7.601 -13.066  -5.488  1.00  0.00     0.198 A 
ATOM     91  C   UNL     1      -9.982 -12.783  -5.609  1.00  0.00     0.198 A 
ATOM     92  F   UNL     1     -10.979 -10.829  -4.765  1.00  0.00    -0.203 F 
ATOM     93  F   UNL     1      -6.503 -13.784  -5.760  1.00  0.00    -0.200 F 
ATOM     94  C   UNL     1      -8.849 -13.540  -5.864  1.00  0.00     0.200 A 
ATOM     95  F   UNL     1     -11.190 -13.247  -5.955  1.00  0.00    -0.200 F 
ATOM     96  F   UNL     1      -8.960 -14.727  -6.477  1.00  0.00    -0.200 F 
ENDBRANCH  63  86
ENDBRANCH  37  38
ENDBRANCH  30  32
ENDBRANCH  29  30
ENDBRANCH  28  29
ENDBRANCH  27  28
ENDBRANCH  26  27
ENDBRANCH   1  26
TORSDOF 18
