REMARK SMILES O=C(OCCOCCOC(=O)[C@H](c1c[nH]c2cc(F)ccc12)[NH+]1CC[NH+](CC(=O)N2CCOCC2)CC1)c1ccc(-c2c3nc(c(-c4c(F)c(F)c(F)c(F)c4F)c4ccc([nH]4)c(-c4c(F)c(F)c(F)c(F)c4F)c4nc(c(-c5c(F)c(F)c(F)c(F)c5F)c5ccc2[nH]5)C=C4)C=C3)cc1
REMARK SMILES IDX 7 1 6 2 5 3 4 4 3 5 2 6 1 7 38 8 39 9 100 10 40 11 99 12
REMARK SMILES IDX 41 13 42 14 43 15 93 16 44 17 98 18 92 19 94 20 45 21 97 22
REMARK SMILES IDX 91 23 90 24 46 26 78 27 58 28 77 29 59 30 62 31 76 32 95 33
REMARK SMILES IDX 60 34 61 35 75 37 96 38 63 39 47 40 48 41 56 42 49 43 50 44
REMARK SMILES IDX 54 45 57 46 51 47 52 48 55 49 53 50 79 51 80 52 88 53 81 54
REMARK SMILES IDX 82 55 86 56 89 57 83 58 84 59 87 60 85 61 64 62 65 63 73 64
REMARK SMILES IDX 66 65 67 66 71 67 74 68 68 69 69 70 72 71 70 72 8 73 9 74
REMARK SMILES IDX 10 75 11 76 12 77 23 78 24 79 37 80 25 82 36 83 26 84 27 86
REMARK SMILES IDX 28 87 29 88 30 89 31 90 35 91 32 92 34 93 33 94 13 95 14 96
REMARK SMILES IDX 22 97 15 98 16 99 21 100 17 102 20 103 18 104 19 105
REMARK H PARENT 94 25 62 36 23 81 26 85 15 101
REMARK Flexibility Score: inf
ROOT
ATOM      1  C   UNL     1       5.061   3.393   2.668  1.00  0.00     0.202 C 
ENDROOT
BRANCH   1   2
ATOM      2  O   UNL     1       4.241   2.458   1.973  1.00  0.00    -0.374 OA
BRANCH   2   3
ATOM      3  C   UNL     1       4.817   1.701   0.922  1.00  0.00     0.202 C 
BRANCH   3   4
ATOM      4  C   UNL     1       4.381   2.118  -0.472  1.00  0.00     0.261 C 
BRANCH   4   5
ATOM      5  O   UNL     1       4.760   3.479  -0.701  1.00  0.00    -0.460 OA
BRANCH   5   6
ATOM      6  C   UNL     1       3.917   4.533  -0.617  1.00  0.00     0.338 C 
ATOM      7  O   UNL     1       4.338   5.680  -0.722  1.00  0.00    -0.246 OA
BRANCH   6   8
ATOM      8  C   UNL     1       2.456   4.326  -0.485  1.00  0.00     0.060 A 
ATOM      9  C   UNL     1       1.890   3.644   0.592  1.00  0.00     0.016 A 
ATOM     10  C   UNL     1       1.617   4.961  -1.403  1.00  0.00     0.016 A 
ATOM     11  C   UNL     1       0.523   3.527   0.736  1.00  0.00     0.010 A 
ATOM     12  C   UNL     1       0.235   4.947  -1.201  1.00  0.00     0.010 A 
ATOM     13  C   UNL     1      -0.307   4.250  -0.110  1.00  0.00    -0.014 A 
BRANCH  13  14
ATOM     14  C   UNL     1      -1.739   4.314   0.225  1.00  0.00     0.031 A 
ATOM     15  C   UNL     1      -2.721   3.666  -0.686  1.00  0.00     0.074 A 
ATOM     16  C   UNL     1      -2.108   4.913   1.374  1.00  0.00     0.049 A 
ATOM     17  N   UNL     1      -4.020   3.764  -0.697  1.00  0.00    -0.248 NA
ATOM     18  C   UNL     1      -2.167   2.788  -1.732  1.00  0.00     0.031 C 
ATOM     19  C   UNL     1      -1.187   5.468   2.375  1.00  0.00     0.029 A 
ATOM     20  N   UNL     1      -3.346   5.147   1.909  1.00  0.00    -0.354 N 
ATOM     21  C   UNL     1      -4.438   3.014  -1.784  1.00  0.00     0.074 A 
ATOM     22  C   UNL     1      -3.260   2.441  -2.396  1.00  0.00     0.031 C 
ATOM     23  C   UNL     1      -1.891   5.955   3.407  1.00  0.00     0.029 A 
ATOM     24  C   UNL     1      -3.306   5.854   3.088  1.00  0.00     0.049 A 
ATOM     25  H   UNL     1      -4.183   4.839   1.492  1.00  0.00     0.167 HD
ATOM     26  C   UNL     1      -5.703   2.859  -2.231  1.00  0.00     0.037 A 
ATOM     27  C   UNL     1      -4.306   6.423   3.786  1.00  0.00     0.037 A 
ATOM     28  C   UNL     1      -6.842   3.433  -1.566  1.00  0.00     0.049 A 
ATOM     29  C   UNL     1      -5.694   6.294   3.221  1.00  0.00     0.074 A 
ATOM     30  C   UNL     1      -8.175   3.365  -1.917  1.00  0.00     0.029 A 
ATOM     31  N   UNL     1      -6.766   4.185  -0.399  1.00  0.00    -0.354 N 
ATOM     32  N   UNL     1      -6.093   5.634   2.158  1.00  0.00    -0.248 NA
ATOM     33  C   UNL     1      -6.763   7.013   3.920  1.00  0.00     0.031 C 
ATOM     34  C   UNL     1      -8.902   4.120  -0.990  1.00  0.00     0.029 A 
ATOM     35  C   UNL     1      -8.027   4.618  -0.034  1.00  0.00     0.049 A 
ATOM     36  H   UNL     1      -5.937   4.381   0.095  1.00  0.00     0.167 HD
ATOM     37  C   UNL     1      -7.456   5.858   2.059  1.00  0.00     0.074 A 
ATOM     38  C   UNL     1      -7.822   6.686   3.193  1.00  0.00     0.031 C 
ATOM     39  C   UNL     1      -8.331   5.437   1.113  1.00  0.00     0.037 A 
BRANCH  26  40
ATOM     40  C   UNL     1      -5.898   2.128  -3.522  1.00  0.00     0.064 A 
ATOM     41  C   UNL     1      -5.749   0.738  -3.629  1.00  0.00     0.173 A 
ATOM     42  C   UNL     1      -6.238   2.844  -4.681  1.00  0.00     0.173 A 
ATOM     43  F   UNL     1      -5.394   0.013  -2.558  1.00  0.00    -0.203 F 
ATOM     44  C   UNL     1      -5.919   0.094  -4.852  1.00  0.00     0.198 A 
ATOM     45  C   UNL     1      -6.429   2.194  -5.896  1.00  0.00     0.198 A 
ATOM     46  F   UNL     1      -6.378   4.177  -4.635  1.00  0.00    -0.203 F 
ATOM     47  F   UNL     1      -5.727  -1.230  -4.943  1.00  0.00    -0.200 F 
ATOM     48  C   UNL     1      -6.265   0.820  -5.982  1.00  0.00     0.200 A 
ATOM     49  F   UNL     1      -6.764   2.899  -6.986  1.00  0.00    -0.200 F 
ATOM     50  F   UNL     1      -6.428   0.198  -7.158  1.00  0.00    -0.200 F 
ENDBRANCH  26  40
BRANCH  27  51
ATOM     51  C   UNL     1      -4.026   7.244   4.997  1.00  0.00     0.064 A 
ATOM     52  C   UNL     1      -4.545   6.894   6.251  1.00  0.00     0.173 A 
ATOM     53  C   UNL     1      -3.263   8.423   4.921  1.00  0.00     0.173 A 
ATOM     54  F   UNL     1      -5.298   5.793   6.379  1.00  0.00    -0.203 F 
ATOM     55  C   UNL     1      -4.337   7.701   7.370  1.00  0.00     0.198 A 
ATOM     56  C   UNL     1      -3.024   9.207   6.047  1.00  0.00     0.198 A 
ATOM     57  F   UNL     1      -2.743   8.815   3.748  1.00  0.00    -0.203 F 
ATOM     58  F   UNL     1      -4.899   7.375   8.542  1.00  0.00    -0.200 F 
ATOM     59  C   UNL     1      -3.573   8.854   7.269  1.00  0.00     0.200 A 
ATOM     60  F   UNL     1      -2.271  10.311   5.944  1.00  0.00    -0.200 F 
ATOM     61  F   UNL     1      -3.379   9.631   8.343  1.00  0.00    -0.200 F 
ENDBRANCH  27  51
BRANCH  39  62
ATOM     62  C   UNL     1      -9.755   5.863   1.283  1.00  0.00     0.064 A 
ATOM     63  C   UNL     1     -10.157   7.179   1.015  1.00  0.00     0.173 A 
ATOM     64  C   UNL     1     -10.733   4.929   1.654  1.00  0.00     0.173 A 
ATOM     65  F   UNL     1      -9.249   8.107   0.678  1.00  0.00    -0.203 F 
ATOM     66  C   UNL     1     -11.492   7.549   1.126  1.00  0.00     0.198 A 
ATOM     67  C   UNL     1     -12.071   5.296   1.733  1.00  0.00     0.198 A 
ATOM     68  F   UNL     1     -10.391   3.659   1.915  1.00  0.00    -0.203 F 
ATOM     69  F   UNL     1     -11.853   8.820   0.903  1.00  0.00    -0.200 F 
ATOM     70  C   UNL     1     -12.449   6.606   1.473  1.00  0.00     0.200 A 
ATOM     71  F   UNL     1     -12.996   4.381   2.053  1.00  0.00    -0.200 F 
ATOM     72  F   UNL     1     -13.738   6.960   1.560  1.00  0.00    -0.200 F 
ENDBRANCH  39  62
ENDBRANCH  13  14
ENDBRANCH   6   8
ENDBRANCH   5   6
ENDBRANCH   4   5
ENDBRANCH   3   4
ENDBRANCH   2   3
ENDBRANCH   1   2
BRANCH   1  73
ATOM     73  C   UNL     1       4.678   3.304   4.157  1.00  0.00     0.261 C 
BRANCH  73  74
ATOM     74  O   UNL     1       4.983   1.978   4.644  1.00  0.00    -0.459 OA
BRANCH  74  75
ATOM     75  C   UNL     1       4.085   0.989   4.276  1.00  0.00     0.370 C 
ATOM     76  O   UNL     1       2.868   1.132   4.279  1.00  0.00    -0.245 OA
BRANCH  75  77
ATOM     77  C   UNL     1       4.894  -0.198   3.749  1.00  0.00     0.328 C 
BRANCH  77  78
ATOM     78  N   UNL     1       5.422  -1.114   4.745  1.00  0.00    -0.310 N 
ATOM     79  C   UNL     1       4.497  -1.975   5.470  1.00  0.00     0.325 C 
ATOM     80  C   UNL     1       6.647  -0.721   5.405  1.00  0.00     0.325 C 
ATOM     81  H   UNL     1       5.773  -1.838   4.120  1.00  0.00     0.349 HD
ATOM     82  C   UNL     1       5.258  -3.152   6.125  1.00  0.00     0.325 C 
ATOM     83  C   UNL     1       7.325  -1.914   6.092  1.00  0.00     0.325 C 
ATOM     84  N   UNL     1       6.439  -2.753   6.904  1.00  0.00    -0.318 N 
ATOM     85  H   UNL     1       6.939  -3.615   7.118  1.00  0.00     0.348 HD
BRANCH  84  86
ATOM     86  C   UNL     1       6.188  -2.259   8.271  1.00  0.00     0.364 C 
BRANCH  86  87
ATOM     87  C   UNL     1       4.802  -1.668   8.580  1.00  0.00     0.277 C 
ATOM     88  O   UNL     1       3.824  -2.422   8.662  1.00  0.00    -0.268 OA
ATOM     89  N   UNL     1       4.659  -0.308   8.823  1.00  0.00    -0.333 N 
ATOM     90  C   UNL     1       5.575   0.745   8.384  1.00  0.00     0.148 C 
ATOM     91  C   UNL     1       3.332   0.185   9.204  1.00  0.00     0.148 C 
ATOM     92  C   UNL     1       5.551   1.984   9.283  1.00  0.00     0.181 C 
ATOM     93  C   UNL     1       3.432   1.406  10.120  1.00  0.00     0.181 C 
ATOM     94  O   UNL     1       4.213   2.443   9.509  1.00  0.00    -0.378 OA
ENDBRANCH  86  87
ENDBRANCH  84  86
ENDBRANCH  77  78
BRANCH  77  95
ATOM     95  C   UNL     1       4.349  -1.070   2.651  1.00  0.00     0.046 A 
ATOM     96  C   UNL     1       3.060  -1.424   2.304  1.00  0.00     0.094 A 
ATOM     97  C   UNL     1       5.227  -1.782   1.762  1.00  0.00     0.009 A 
ATOM     98  N   UNL     1       3.130  -2.333   1.275  1.00  0.00    -0.361 N 
ATOM     99  C   UNL     1       4.441  -2.567   0.926  1.00  0.00     0.049 A 
ATOM    100  C   UNL     1       6.634  -1.825   1.634  1.00  0.00     0.014 A 
ATOM    101  H   UNL     1       2.351  -2.757   0.848  1.00  0.00     0.166 HD
ATOM    102  C   UNL     1       5.006  -3.414  -0.035  1.00  0.00     0.065 A 
ATOM    103  C   UNL     1       7.213  -2.657   0.680  1.00  0.00     0.040 A 
ATOM    104  C   UNL     1       6.401  -3.436  -0.131  1.00  0.00     0.125 A 
ATOM    105  F   UNL     1       6.979  -4.239  -1.034  1.00  0.00    -0.207 F 
ENDBRANCH  77  95
ENDBRANCH  75  77
ENDBRANCH  74  75
ENDBRANCH  73  74
ENDBRANCH   1  73
TORSDOF 18
