REMARK SMILES CCc1c(C)nc(Nc2cc(Cl)ccc2C)nc1OCC(=O)OCCOCCOC(=O)c1ccc(-c2c3nc(c(-c4c(F)c(F)c(F)c(F)c4F)c4ccc([nH]4)c(-c4c(F)c(F)c(F)c(F)c4F)c4nc(c(-c5c(F)c(F)c(F)c(F)c5F)c5ccc2[nH]5)C=C4)C=C3)cc1
REMARK SMILES IDX 25 1 24 2 23 3 21 4 22 5 20 6 19 7 18 8 3 9 4 10 5 11 6 12
REMARK SMILES IDX 17 13 7 14 2 15 1 16 8 17 9 19 10 20 15 21 11 22 14 23 16 24
REMARK SMILES IDX 12 25 13 26 26 27 27 28 28 29 29 30 30 31 31 32 32 33 33 34
REMARK SMILES IDX 94 35 34 36 93 37 35 38 36 39 37 40 87 41 38 42 92 43 86 44
REMARK SMILES IDX 88 45 39 46 91 47 85 48 84 49 40 51 72 52 52 53 71 54 53 55
REMARK SMILES IDX 56 56 70 57 89 58 54 59 55 60 69 62 90 63 57 64 41 65 42 66
REMARK SMILES IDX 50 67 43 68 44 69 48 70 51 71 45 72 46 73 49 74 47 75 73 76
REMARK SMILES IDX 74 77 82 78 75 79 76 80 80 81 83 82 77 83 78 84 81 85 79 86
REMARK SMILES IDX 58 87 59 88 67 89 60 90 61 91 65 92 68 93 62 94 63 95 66 96
REMARK SMILES IDX 64 97
REMARK H PARENT 8 18 88 50 56 61
REMARK Flexibility Score: inf
ROOT
ATOM      1  C   UNL     1      -3.598  -0.915   0.444  1.00  0.00     0.202 C 
ENDROOT
BRANCH   1   2
ATOM      2  C   UNL     1      -3.269  -1.786  -0.774  1.00  0.00     0.261 C 
BRANCH   2   3
ATOM      3  O   UNL     1      -2.172  -2.693  -0.512  1.00  0.00    -0.461 OA
BRANCH   3   4
ATOM      4  C   UNL     1      -1.253  -2.803  -1.512  1.00  0.00     0.344 C 
ATOM      5  O   UNL     1      -1.320  -2.212  -2.585  1.00  0.00    -0.248 OA
BRANCH   4   6
ATOM      6  C   UNL     1      -0.104  -3.768  -1.190  1.00  0.00     0.353 C 
BRANCH   6   7
ATOM      7  O   UNL     1       0.298  -4.026   0.128  1.00  0.00    -0.465 OA
BRANCH   7   8
ATOM      8  C   UNL     1       1.153  -3.325   0.912  1.00  0.00     0.222 A 
ATOM      9  C   UNL     1       1.728  -2.053   0.718  1.00  0.00     0.035 A 
ATOM     10  C   UNL     1       2.322  -1.531   1.875  1.00  0.00     0.050 A 
ATOM     11  C   UNL     1       2.731  -0.118   2.162  1.00  0.00     0.067 C 
ATOM     12  N   UNL     1       2.396  -2.236   3.024  1.00  0.00    -0.218 NA
ATOM     13  N   UNL     1       1.284  -4.029   2.064  1.00  0.00    -0.177 NA
ATOM     14  C   UNL     1       1.897  -3.463   3.093  1.00  0.00     0.230 A 
BRANCH   9  15
ATOM     15  C   UNL     1       1.707  -1.367  -0.626  1.00  0.00     0.040 C 
ATOM     16  C   UNL     1       2.004   0.111  -0.822  1.00  0.00     0.009 C 
ENDBRANCH   9  15
BRANCH  14  17
ATOM     17  N   UNL     1       1.982  -4.160   4.299  1.00  0.00    -0.324 N 
ATOM     18  H   UNL     1       1.627  -5.078   4.320  1.00  0.00     0.170 HD
BRANCH  17  19
ATOM     19  C   UNL     1       2.535  -3.649   5.484  1.00  0.00     0.045 A 
ATOM     20  C   UNL     1       3.831  -4.033   5.854  1.00  0.00     0.047 A 
ATOM     21  C   UNL     1       1.869  -2.658   6.241  1.00  0.00    -0.027 A 
ATOM     22  C   UNL     1       4.475  -3.404   6.919  1.00  0.00     0.043 A 
ATOM     23  C   UNL     1       2.532  -2.038   7.312  1.00  0.00     0.007 A 
ATOM     24  C   UNL     1       0.450  -2.258   5.933  1.00  0.00     0.046 C 
ATOM     25  Cl  UNL     1       6.091  -3.843   7.320  1.00  0.00    -0.084 Cl
ATOM     26  C   UNL     1       3.837  -2.402   7.643  1.00  0.00     0.021 A 
ENDBRANCH  17  19
ENDBRANCH  14  17
ENDBRANCH   7   8
ENDBRANCH   6   7
ENDBRANCH   4   6
ENDBRANCH   3   4
ENDBRANCH   2   3
ENDBRANCH   1   2
BRANCH   1  27
ATOM     27  O   UNL     1      -2.682   0.137   0.762  1.00  0.00    -0.374 OA
BRANCH  27  28
ATOM     28  C   UNL     1      -1.340  -0.233   1.046  1.00  0.00     0.202 C 
BRANCH  28  29
ATOM     29  C   UNL     1      -1.046  -0.836   2.421  1.00  0.00     0.261 C 
BRANCH  29  30
ATOM     30  O   UNL     1      -2.065  -1.690   2.902  1.00  0.00    -0.460 OA
BRANCH  30  31
ATOM     31  C   UNL     1      -2.833  -1.111   3.846  1.00  0.00     0.338 C 
ATOM     32  O   UNL     1      -2.708  -0.027   4.378  1.00  0.00    -0.246 OA
BRANCH  31  33
ATOM     33  C   UNL     1      -4.000  -1.971   4.002  1.00  0.00     0.060 A 
ATOM     34  C   UNL     1      -5.244  -1.393   3.742  1.00  0.00     0.016 A 
ATOM     35  C   UNL     1      -3.862  -3.309   4.381  1.00  0.00     0.016 A 
ATOM     36  C   UNL     1      -6.384  -2.145   3.940  1.00  0.00     0.010 A 
ATOM     37  C   UNL     1      -5.009  -4.065   4.578  1.00  0.00     0.010 A 
ATOM     38  C   UNL     1      -6.265  -3.460   4.410  1.00  0.00    -0.014 A 
BRANCH  38  39
ATOM     39  C   UNL     1      -7.474  -4.114   4.930  1.00  0.00     0.031 A 
ATOM     40  C   UNL     1      -7.704  -4.085   6.410  1.00  0.00     0.074 A 
ATOM     41  C   UNL     1      -8.366  -4.635   4.076  1.00  0.00     0.049 A 
ATOM     42  N   UNL     1      -8.712  -4.542   7.102  1.00  0.00    -0.248 NA
ATOM     43  C   UNL     1      -6.650  -3.453   7.224  1.00  0.00     0.031 C 
ATOM     44  C   UNL     1      -8.221  -4.661   2.621  1.00  0.00     0.029 A 
ATOM     45  N   UNL     1      -9.573  -5.231   4.311  1.00  0.00    -0.354 N 
ATOM     46  C   UNL     1      -8.411  -4.258   8.428  1.00  0.00     0.074 A 
ATOM     47  C   UNL     1      -7.111  -3.630   8.451  1.00  0.00     0.031 C 
ATOM     48  C   UNL     1      -9.308  -5.242   2.089  1.00  0.00     0.029 A 
ATOM     49  C   UNL     1     -10.200  -5.654   3.169  1.00  0.00     0.049 A 
ATOM     50  H   UNL     1      -9.954  -5.344   5.212  1.00  0.00     0.167 HD
ATOM     51  C   UNL     1      -9.170  -4.494   9.522  1.00  0.00     0.037 A 
ATOM     52  C   UNL     1     -11.363  -6.314   3.029  1.00  0.00     0.037 A 
ATOM     53  C   UNL     1     -10.459  -5.128   9.462  1.00  0.00     0.049 A 
ATOM     54  C   UNL     1     -12.162  -6.618   4.268  1.00  0.00     0.074 A 
ATOM     55  C   UNL     1     -11.331  -5.416  10.494  1.00  0.00     0.029 A 
ATOM     56  N   UNL     1     -11.054  -5.584   8.291  1.00  0.00    -0.354 N 
ATOM     57  N   UNL     1     -11.893  -6.327   5.519  1.00  0.00    -0.248 NA
ATOM     58  C   UNL     1     -13.429  -7.331   4.076  1.00  0.00     0.031 C 
ATOM     59  C   UNL     1     -12.423  -6.105   9.955  1.00  0.00     0.029 A 
ATOM     60  C   UNL     1     -12.269  -6.181   8.578  1.00  0.00     0.049 A 
ATOM     61  H   UNL     1     -10.667  -5.495   7.390  1.00  0.00     0.167 HD
ATOM     62  C   UNL     1     -12.965  -6.797   6.263  1.00  0.00     0.074 A 
ATOM     63  C   UNL     1     -13.897  -7.378   5.315  1.00  0.00     0.031 C 
ATOM     64  C   UNL     1     -13.168  -6.752   7.605  1.00  0.00     0.037 A 
BRANCH  51  65
ATOM     65  C   UNL     1      -8.596  -4.110  10.856  1.00  0.00     0.064 A 
ATOM     66  C   UNL     1      -8.383  -2.771  11.221  1.00  0.00     0.173 A 
ATOM     67  C   UNL     1      -8.235  -5.102  11.781  1.00  0.00     0.173 A 
ATOM     68  F   UNL     1      -8.690  -1.781  10.368  1.00  0.00    -0.203 F 
ATOM     69  C   UNL     1      -7.796  -2.442  12.441  1.00  0.00     0.198 A 
ATOM     70  C   UNL     1      -7.681  -4.769  13.014  1.00  0.00     0.198 A 
ATOM     71  F   UNL     1      -8.412  -6.399  11.486  1.00  0.00    -0.203 F 
ATOM     72  F   UNL     1      -7.540  -1.160  12.737  1.00  0.00    -0.200 F 
ATOM     73  C   UNL     1      -7.451  -3.441  13.339  1.00  0.00     0.200 A 
ATOM     74  F   UNL     1      -7.359  -5.736  13.885  1.00  0.00    -0.200 F 
ATOM     75  F   UNL     1      -6.886  -3.124  14.512  1.00  0.00    -0.200 F 
ENDBRANCH  51  65
BRANCH  52  76
ATOM     76  C   UNL     1     -11.821  -6.717   1.676  1.00  0.00     0.064 A 
ATOM     77  C   UNL     1     -12.947  -6.130   1.084  1.00  0.00     0.173 A 
ATOM     78  C   UNL     1     -11.119  -7.677   0.931  1.00  0.00     0.173 A 
ATOM     79  F   UNL     1     -13.659  -5.217   1.759  1.00  0.00    -0.203 F 
ATOM     80  C   UNL     1     -13.361  -6.498  -0.196  1.00  0.00     0.198 A 
ATOM     81  C   UNL     1     -11.515  -8.022  -0.358  1.00  0.00     0.198 A 
ATOM     82  F   UNL     1     -10.028  -8.263   1.448  1.00  0.00    -0.203 F 
ATOM     83  F   UNL     1     -14.461  -5.947  -0.725  1.00  0.00    -0.200 F 
ATOM     84  C   UNL     1     -12.640  -7.437  -0.919  1.00  0.00     0.200 A 
ATOM     85  F   UNL     1     -10.803  -8.914  -1.060  1.00  0.00    -0.200 F 
ATOM     86  F   UNL     1     -13.030  -7.780  -2.154  1.00  0.00    -0.200 F 
ENDBRANCH  52  76
BRANCH  64  87
ATOM     87  C   UNL     1     -14.462  -7.317   8.115  1.00  0.00     0.064 A 
ATOM     88  C   UNL     1     -14.724  -8.694   8.103  1.00  0.00     0.173 A 
ATOM     89  C   UNL     1     -15.436  -6.466   8.662  1.00  0.00     0.173 A 
ATOM     90  F   UNL     1     -13.830  -9.547   7.579  1.00  0.00    -0.203 F 
ATOM     91  C   UNL     1     -15.927  -9.197   8.588  1.00  0.00     0.198 A 
ATOM     92  C   UNL     1     -16.621  -6.976   9.181  1.00  0.00     0.198 A 
ATOM     93  F   UNL     1     -15.229  -5.141   8.707  1.00  0.00    -0.203 F 
ATOM     94  F   UNL     1     -16.181 -10.510   8.513  1.00  0.00    -0.200 F 
ATOM     95  C   UNL     1     -16.870  -8.339   9.135  1.00  0.00     0.200 A 
ATOM     96  F   UNL     1     -17.522  -6.147   9.727  1.00  0.00    -0.200 F 
ATOM     97  F   UNL     1     -18.025  -8.825   9.610  1.00  0.00    -0.200 F 
ENDBRANCH  64  87
ENDBRANCH  38  39
ENDBRANCH  31  33
ENDBRANCH  30  31
ENDBRANCH  29  30
ENDBRANCH  28  29
ENDBRANCH  27  28
ENDBRANCH   1  27
TORSDOF 19
