REMARK SMILES COc1ccc(/C=C/c2ncc(C(=O)OCCOCCOC(=O)c3ccc(-c4c5nc(c(-c6c(F)c(F)c(F)c(F)c6F)c6ccc([nH]6)c(-c6c(F)c(F)c(F)c(F)c6F)c6nc(c(-c7c(F)c(F)c(F)c(F)c7F)c7ccc4[nH]7)C=C6)C=C5)cc3)s2)cc1O
REMARK SMILES IDX 17 1 16 2 15 3 13 4 14 5 12 6 9 7 10 8 87 9 11 10 8 11 7 12
REMARK SMILES IDX 6 13 3 14 4 15 89 16 5 17 88 18 2 19 1 20 90 21 18 23 19 24
REMARK SMILES IDX 20 25 21 26 22 27 23 28 24 29 25 30 86 31 26 32 85 33 27 34
REMARK SMILES IDX 28 35 29 36 79 37 30 38 84 39 78 40 80 41 31 42 83 43 77 44
REMARK SMILES IDX 76 45 32 47 64 48 44 49 63 50 45 51 48 52 62 53 81 54 46 55
REMARK SMILES IDX 47 56 61 58 82 59 49 60 33 61 34 62 42 63 35 64 36 65 40 66
REMARK SMILES IDX 43 67 37 68 38 69 41 70 39 71 65 72 66 73 74 74 67 75 68 76
REMARK SMILES IDX 72 77 75 78 69 79 70 80 73 81 71 82 50 83 51 84 59 85 52 86
REMARK SMILES IDX 53 87 57 88 60 89 54 90 55 91 58 92 56 93
REMARK H PARENT 90 22 80 46 48 57
REMARK Flexibility Score: inf
ROOT
ATOM      1  C   UNL     1      -3.768  -5.590 -13.348  1.00  0.00     0.202 C 
ENDROOT
BRANCH   1   2
ATOM      2  C   UNL     1      -2.771  -6.529 -12.664  1.00  0.00     0.261 C 
BRANCH   2   3
ATOM      3  O   UNL     1      -2.741  -6.267 -11.250  1.00  0.00    -0.459 OA
BRANCH   3   4
ATOM      4  C   UNL     1      -1.591  -5.701 -10.783  1.00  0.00     0.350 C 
ATOM      5  O   UNL     1      -0.548  -5.620 -11.423  1.00  0.00    -0.245 OA
BRANCH   4   6
ATOM      6  C   UNL     1      -1.821  -5.135  -9.478  1.00  0.00     0.132 A 
ATOM      7  C   UNL     1      -1.712  -3.766  -7.457  1.00  0.00     0.116 A 
ATOM      8  N   UNL     1      -2.730  -4.604  -7.388  1.00  0.00    -0.244 NA
ATOM      9  S   UNL     1      -0.791  -3.892  -8.915  1.00  0.00    -0.107 S 
ATOM     10  C   UNL     1      -2.807  -5.367  -8.543  1.00  0.00     0.139 A 
BRANCH   7  11
ATOM     11  C   UNL     1      -1.291  -2.814  -6.487  1.00  0.00     0.040 C 
ATOM     12  C   UNL     1      -1.450  -3.034  -5.172  1.00  0.00     0.011 C 
BRANCH  12  13
ATOM     13  C   UNL     1      -0.909  -2.145  -4.130  1.00  0.00    -0.022 A 
ATOM     14  C   UNL     1       0.240  -0.537  -2.093  1.00  0.00     0.160 A 
ATOM     15  C   UNL     1      -0.166   0.020  -3.310  1.00  0.00     0.051 A 
ATOM     16  C   UNL     1       0.057  -1.908  -1.906  1.00  0.00     0.158 A 
ATOM     17  C   UNL     1      -0.737  -0.769  -4.316  1.00  0.00     0.012 A 
ATOM     18  C   UNL     1      -0.533  -2.698  -2.899  1.00  0.00     0.058 A 
BRANCH  14  19
ATOM     19  O   UNL     1       0.805   0.372  -1.245  1.00  0.00    -0.493 OA
ATOM     20  C   UNL     1       0.887   0.065   0.138  1.00  0.00     0.278 C 
ENDBRANCH  14  19
BRANCH  16  21
ATOM     21  O   UNL     1       0.487  -2.585  -0.800  1.00  0.00    -0.504 OA
ATOM     22  H   UNL     1       0.892  -2.121  -0.094  1.00  0.00     0.293 HD
ENDBRANCH  16  21
ENDBRANCH  12  13
ENDBRANCH   7  11
ENDBRANCH   4   6
ENDBRANCH   3   4
ENDBRANCH   2   3
ENDBRANCH   1   2
BRANCH   1  23
ATOM     23  O   UNL     1      -3.368  -4.218 -13.343  1.00  0.00    -0.374 OA
BRANCH  23  24
ATOM     24  C   UNL     1      -3.785  -3.444 -12.214  1.00  0.00     0.202 C 
BRANCH  24  25
ATOM     25  C   UNL     1      -5.199  -2.865 -12.329  1.00  0.00     0.261 C 
BRANCH  25  26
ATOM     26  O   UNL     1      -6.186  -3.905 -12.192  1.00  0.00    -0.460 OA
BRANCH  26  27
ATOM     27  C   UNL     1      -6.870  -4.201 -13.321  1.00  0.00     0.338 C 
ATOM     28  O   UNL     1      -6.827  -3.614 -14.389  1.00  0.00    -0.246 OA
BRANCH  27  29
ATOM     29  C   UNL     1      -7.585  -5.483 -13.149  1.00  0.00     0.060 A 
ATOM     30  C   UNL     1      -7.499  -6.410 -14.195  1.00  0.00     0.016 A 
ATOM     31  C   UNL     1      -8.358  -5.762 -12.018  1.00  0.00     0.016 A 
ATOM     32  C   UNL     1      -8.225  -7.598 -14.138  1.00  0.00     0.010 A 
ATOM     33  C   UNL     1      -9.092  -6.952 -11.965  1.00  0.00     0.010 A 
ATOM     34  C   UNL     1      -9.055  -7.859 -13.039  1.00  0.00    -0.014 A 
BRANCH  34  35
ATOM     35  C   UNL     1      -9.988  -9.011 -13.088  1.00  0.00     0.031 A 
ATOM     36  C   UNL     1     -11.413  -8.777 -13.505  1.00  0.00     0.074 A 
ATOM     37  C   UNL     1      -9.563 -10.254 -12.804  1.00  0.00     0.049 A 
ATOM     38  N   UNL     1     -12.399  -9.631 -13.611  1.00  0.00    -0.248 NA
ATOM     39  C   UNL     1     -11.774  -7.394 -13.854  1.00  0.00     0.031 C 
ATOM     40  C   UNL     1      -8.198 -10.615 -12.426  1.00  0.00     0.029 A 
ATOM     41  N   UNL     1     -10.244 -11.446 -12.789  1.00  0.00    -0.354 N 
ATOM     42  C   UNL     1     -13.493  -8.892 -14.040  1.00  0.00     0.074 A 
ATOM     43  C   UNL     1     -13.061  -7.515 -14.144  1.00  0.00     0.031 C 
ATOM     44  C   UNL     1      -8.143 -11.940 -12.209  1.00  0.00     0.029 A 
ATOM     45  C   UNL     1      -9.473 -12.515 -12.407  1.00  0.00     0.049 A 
ATOM     46  H   UNL     1     -11.196 -11.526 -13.029  1.00  0.00     0.167 HD
ATOM     47  C   UNL     1     -14.743  -9.324 -14.331  1.00  0.00     0.037 A 
ATOM     48  C   UNL     1      -9.809 -13.806 -12.225  1.00  0.00     0.037 A 
ATOM     49  C   UNL     1     -15.177 -10.692 -14.224  1.00  0.00     0.049 A 
ATOM     50  C   UNL     1     -11.227 -14.247 -12.481  1.00  0.00     0.074 A 
ATOM     51  C   UNL     1     -16.422 -11.228 -14.505  1.00  0.00     0.029 A 
ATOM     52  N   UNL     1     -14.377 -11.740 -13.796  1.00  0.00    -0.354 N 
ATOM     53  N   UNL     1     -12.249 -13.546 -12.907  1.00  0.00    -0.248 NA
ATOM     54  C   UNL     1     -11.536 -15.663 -12.231  1.00  0.00     0.031 C 
ATOM     55  C   UNL     1     -16.386 -12.595 -14.207  1.00  0.00     0.029 A 
ATOM     56  C   UNL     1     -15.107 -12.917 -13.784  1.00  0.00     0.049 A 
ATOM     57  H   UNL     1     -13.430 -11.660 -13.540  1.00  0.00     0.167 HD
ATOM     58  C   UNL     1     -13.311 -14.436 -13.002  1.00  0.00     0.074 A 
ATOM     59  C   UNL     1     -12.807 -15.732 -12.600  1.00  0.00     0.031 C 
ATOM     60  C   UNL     1     -14.588 -14.201 -13.390  1.00  0.00     0.037 A 
BRANCH  47  61
ATOM     61  C   UNL     1     -15.740  -8.298 -14.781  1.00  0.00     0.064 A 
ATOM     62  C   UNL     1     -15.677  -7.727 -16.060  1.00  0.00     0.173 A 
ATOM     63  C   UNL     1     -16.788  -7.907 -13.936  1.00  0.00     0.173 A 
ATOM     64  F   UNL     1     -14.683  -8.058 -16.899  1.00  0.00    -0.203 F 
ATOM     65  C   UNL     1     -16.617  -6.785 -16.470  1.00  0.00     0.198 A 
ATOM     66  C   UNL     1     -17.740  -6.983 -14.357  1.00  0.00     0.198 A 
ATOM     67  F   UNL     1     -16.893  -8.426 -12.703  1.00  0.00    -0.203 F 
ATOM     68  F   UNL     1     -16.515  -6.223 -17.682  1.00  0.00    -0.200 F 
ATOM     69  C   UNL     1     -17.651  -6.419 -15.621  1.00  0.00     0.200 A 
ATOM     70  F   UNL     1     -18.744  -6.636 -13.540  1.00  0.00    -0.200 F 
ATOM     71  F   UNL     1     -18.558  -5.516 -16.019  1.00  0.00    -0.200 F 
ENDBRANCH  47  61
BRANCH  48  72
ATOM     72  C   UNL     1      -8.788 -14.783 -11.766  1.00  0.00     0.064 A 
ATOM     73  C   UNL     1      -8.321 -15.793 -12.617  1.00  0.00     0.173 A 
ATOM     74  C   UNL     1      -8.278 -14.740 -10.460  1.00  0.00     0.173 A 
ATOM     75  F   UNL     1      -8.800 -15.890 -13.866  1.00  0.00    -0.203 F 
ATOM     76  C   UNL     1      -7.394 -16.735 -12.174  1.00  0.00     0.198 A 
ATOM     77  C   UNL     1      -7.333 -15.667 -10.026  1.00  0.00     0.198 A 
ATOM     78  F   UNL     1      -8.697 -13.795  -9.606  1.00  0.00    -0.203 F 
ATOM     79  F   UNL     1      -6.998 -17.718 -12.994  1.00  0.00    -0.200 F 
ATOM     80  C   UNL     1      -6.898 -16.668 -10.881  1.00  0.00     0.200 A 
ATOM     81  F   UNL     1      -6.850 -15.594  -8.779  1.00  0.00    -0.200 F 
ATOM     82  F   UNL     1      -6.007 -17.575 -10.456  1.00  0.00    -0.200 F 
ENDBRANCH  48  72
BRANCH  60  83
ATOM     83  C   UNL     1     -15.523 -15.374 -13.431  1.00  0.00     0.064 A 
ATOM     84  C   UNL     1     -16.031 -15.951 -12.258  1.00  0.00     0.173 A 
ATOM     85  C   UNL     1     -15.948 -15.899 -14.661  1.00  0.00     0.173 A 
ATOM     86  F   UNL     1     -15.642 -15.493 -11.059  1.00  0.00    -0.203 F 
ATOM     87  C   UNL     1     -16.915 -17.025 -12.315  1.00  0.00     0.198 A 
ATOM     88  C   UNL     1     -16.852 -16.957 -14.714  1.00  0.00     0.198 A 
ATOM     89  F   UNL     1     -15.496 -15.378 -15.812  1.00  0.00    -0.203 F 
ATOM     90  F   UNL     1     -17.355 -17.588 -11.181  1.00  0.00    -0.200 F 
ATOM     91  C   UNL     1     -17.329 -17.523 -13.542  1.00  0.00     0.200 A 
ATOM     92  F   UNL     1     -17.260 -17.429 -15.900  1.00  0.00    -0.200 F 
ATOM     93  F   UNL     1     -18.184 -18.553 -13.594  1.00  0.00    -0.200 F 
ENDBRANCH  60  83
ENDBRANCH  34  35
ENDBRANCH  27  29
ENDBRANCH  26  27
ENDBRANCH  25  26
ENDBRANCH  24  25
ENDBRANCH  23  24
ENDBRANCH   1  23
TORSDOF 18
