REMARK SMILES O=C(OCCOCCOC(=O)c1cc(SCC(=O)N2CCOCC2)ccn1)c1ccc(-c2c3nc(c(-c4c(F)c(F)c(F)c(F)c4F)c4ccc([nH]4)c(-c4c(F)c(F)c(F)c(F)c4F)c4nc(c(-c5c(F)c(F)c(F)c(F)c5F)c5ccc2[nH]5)C=C4)C=C3)cc1
REMARK SMILES IDX 7 1 6 2 5 3 4 4 3 5 2 6 1 7 28 8 29 9 90 10 30 11 89 12
REMARK SMILES IDX 31 13 32 14 33 15 83 16 34 17 88 18 82 19 84 20 35 21 87 22
REMARK SMILES IDX 81 23 80 24 36 26 68 27 48 28 67 29 49 30 52 31 66 32 85 33
REMARK SMILES IDX 50 34 51 35 65 37 86 38 53 39 37 40 38 41 46 42 39 43 40 44
REMARK SMILES IDX 44 45 47 46 41 47 42 48 45 49 43 50 69 51 70 52 78 53 71 54
REMARK SMILES IDX 72 55 76 56 79 57 73 58 74 59 77 60 75 61 54 62 55 63 63 64
REMARK SMILES IDX 56 65 57 66 61 67 64 68 58 69 59 70 62 71 60 72 8 73 9 74
REMARK SMILES IDX 10 75 11 76 12 77 13 78 27 79 14 80 26 81 25 82 15 83 16 84
REMARK SMILES IDX 17 85 18 86 19 87 20 88 24 89 21 90 23 91 22 92
REMARK H PARENT 84 25 52 36
REMARK Flexibility Score: inf
ROOT
ATOM      1  C   UNL     1       2.667  -1.626  -1.667  1.00  0.00     0.202 C 
ENDROOT
BRANCH   1   2
ATOM      2  O   UNL     1       3.981  -1.274  -1.223  1.00  0.00    -0.374 OA
BRANCH   2   3
ATOM      3  C   UNL     1       4.342  -1.727   0.082  1.00  0.00     0.202 C 
BRANCH   3   4
ATOM      4  C   UNL     1       4.133  -0.659   1.158  1.00  0.00     0.261 C 
BRANCH   4   5
ATOM      5  O   UNL     1       2.757  -0.249   1.199  1.00  0.00    -0.460 OA
BRANCH   5   6
ATOM      6  C   UNL     1       2.160   0.785   0.567  1.00  0.00     0.338 C 
ATOM      7  O   UNL     1       0.941   0.911   0.693  1.00  0.00    -0.246 OA
BRANCH   6   8
ATOM      8  C   UNL     1       2.874   1.817  -0.254  1.00  0.00     0.060 A 
ATOM      9  C   UNL     1       4.099   1.652  -0.907  1.00  0.00     0.016 A 
ATOM     10  C   UNL     1       2.197   3.037  -0.442  1.00  0.00     0.016 A 
ATOM     11  C   UNL     1       4.653   2.659  -1.691  1.00  0.00     0.010 A 
ATOM     12  C   UNL     1       2.737   4.052  -1.234  1.00  0.00     0.010 A 
ATOM     13  C   UNL     1       3.979   3.865  -1.847  1.00  0.00    -0.014 A 
BRANCH  13  14
ATOM     14  C   UNL     1       4.662   4.969  -2.537  1.00  0.00     0.031 A 
ATOM     15  C   UNL     1       5.352   5.996  -1.700  1.00  0.00     0.074 A 
ATOM     16  C   UNL     1       4.721   4.990  -3.878  1.00  0.00     0.049 A 
ATOM     17  N   UNL     1       5.944   7.102  -2.061  1.00  0.00    -0.248 NA
ATOM     18  C   UNL     1       5.389   5.733  -0.252  1.00  0.00     0.031 C 
ATOM     19  C   UNL     1       4.175   3.958  -4.760  1.00  0.00     0.029 A 
ATOM     20  N   UNL     1       5.274   5.907  -4.730  1.00  0.00    -0.354 N 
ATOM     21  C   UNL     1       6.398   7.680  -0.885  1.00  0.00     0.074 A 
ATOM     22  C   UNL     1       6.018   6.805   0.202  1.00  0.00     0.031 C 
ATOM     23  C   UNL     1       4.415   4.306  -6.035  1.00  0.00     0.029 A 
ATOM     24  C   UNL     1       5.079   5.606  -6.054  1.00  0.00     0.049 A 
ATOM     25  H   UNL     1       5.764   6.703  -4.423  1.00  0.00     0.167 HD
ATOM     26  C   UNL     1       7.060   8.849  -0.736  1.00  0.00     0.037 A 
ATOM     27  C   UNL     1       5.374   6.330  -7.149  1.00  0.00     0.037 A 
ATOM     28  C   UNL     1       7.406   9.702  -1.839  1.00  0.00     0.049 A 
ATOM     29  C   UNL     1       6.039   7.667  -6.957  1.00  0.00     0.074 A 
ATOM     30  C   UNL     1       8.012  10.943  -1.822  1.00  0.00     0.029 A 
ATOM     31  N   UNL     1       7.162   9.388  -3.171  1.00  0.00    -0.354 N 
ATOM     32  N   UNL     1       6.413   8.250  -5.841  1.00  0.00    -0.248 NA
ATOM     33  C   UNL     1       6.314   8.453  -8.166  1.00  0.00     0.031 C 
ATOM     34  C   UNL     1       8.099  11.398  -3.143  1.00  0.00     0.029 A 
ATOM     35  C   UNL     1       7.592  10.419  -3.987  1.00  0.00     0.049 A 
ATOM     36  H   UNL     1       6.744   8.555  -3.488  1.00  0.00     0.167 HD
ATOM     37  C   UNL     1       6.983   9.459  -6.210  1.00  0.00     0.074 A 
ATOM     38  C   UNL     1       6.913   9.523  -7.657  1.00  0.00     0.031 C 
ATOM     39  C   UNL     1       7.515  10.430  -5.427  1.00  0.00     0.037 A 
BRANCH  26  40
ATOM     40  C   UNL     1       7.356   9.284   0.668  1.00  0.00     0.064 A 
ATOM     41  C   UNL     1       8.313   8.634   1.462  1.00  0.00     0.173 A 
ATOM     42  C   UNL     1       6.617  10.324   1.252  1.00  0.00     0.173 A 
ATOM     43  F   UNL     1       9.024   7.612   0.962  1.00  0.00    -0.203 F 
ATOM     44  C   UNL     1       8.491   8.982   2.800  1.00  0.00     0.198 A 
ATOM     45  C   UNL     1       6.817  10.688   2.581  1.00  0.00     0.198 A 
ATOM     46  F   UNL     1       5.684  10.973   0.540  1.00  0.00    -0.203 F 
ATOM     47  F   UNL     1       9.358   8.299   3.559  1.00  0.00    -0.200 F 
ATOM     48  C   UNL     1       7.743  10.009   3.357  1.00  0.00     0.200 A 
ATOM     49  F   UNL     1       6.094  11.681   3.117  1.00  0.00    -0.200 F 
ATOM     50  F   UNL     1       7.901  10.331   4.649  1.00  0.00    -0.200 F 
ENDBRANCH  26  40
BRANCH  27  51
ATOM     51  C   UNL     1       5.007   5.818  -8.495  1.00  0.00     0.064 A 
ATOM     52  C   UNL     1       5.985   5.424  -9.417  1.00  0.00     0.173 A 
ATOM     53  C   UNL     1       3.662   5.680  -8.875  1.00  0.00     0.173 A 
ATOM     54  F   UNL     1       7.284   5.556  -9.112  1.00  0.00    -0.203 F 
ATOM     55  C   UNL     1       5.633   4.914 -10.667  1.00  0.00     0.198 A 
ATOM     56  C   UNL     1       3.311   5.146 -10.114  1.00  0.00     0.198 A 
ATOM     57  F   UNL     1       2.684   6.045  -8.032  1.00  0.00    -0.203 F 
ATOM     58  F   UNL     1       6.589   4.572 -11.541  1.00  0.00    -0.200 F 
ATOM     59  C   UNL     1       4.298   4.766 -11.010  1.00  0.00     0.200 A 
ATOM     60  F   UNL     1       2.019   4.994 -10.434  1.00  0.00    -0.200 F 
ATOM     61  F   UNL     1       3.961   4.264 -12.206  1.00  0.00    -0.200 F 
ENDBRANCH  27  51
BRANCH  39  62
ATOM     62  C   UNL     1       8.098  11.622  -6.122  1.00  0.00     0.064 A 
ATOM     63  C   UNL     1       7.284  12.625  -6.665  1.00  0.00     0.173 A 
ATOM     64  C   UNL     1       9.489  11.799  -6.167  1.00  0.00     0.173 A 
ATOM     65  F   UNL     1       5.949  12.491  -6.655  1.00  0.00    -0.203 F 
ATOM     66  C   UNL     1       7.844  13.762  -7.239  1.00  0.00     0.198 A 
ATOM     67  C   UNL     1      10.044  12.948  -6.718  1.00  0.00     0.198 A 
ATOM     68  F   UNL     1      10.305  10.867  -5.651  1.00  0.00    -0.203 F 
ATOM     69  F   UNL     1       7.051  14.699  -7.777  1.00  0.00    -0.200 F 
ATOM     70  C   UNL     1       9.222  13.927  -7.256  1.00  0.00     0.200 A 
ATOM     71  F   UNL     1      11.374  13.112  -6.722  1.00  0.00    -0.200 F 
ATOM     72  F   UNL     1       9.758  15.031  -7.792  1.00  0.00    -0.200 F 
ENDBRANCH  39  62
ENDBRANCH  13  14
ENDBRANCH   6   8
ENDBRANCH   5   6
ENDBRANCH   4   5
ENDBRANCH   3   4
ENDBRANCH   2   3
ENDBRANCH   1   2
BRANCH   1  73
ATOM     73  C   UNL     1       2.773  -2.446  -2.954  1.00  0.00     0.261 C 
BRANCH  73  74
ATOM     74  O   UNL     1       3.441  -3.681  -2.657  1.00  0.00    -0.459 OA
BRANCH  74  75
ATOM     75  C   UNL     1       4.799  -3.641  -2.735  1.00  0.00     0.357 C 
ATOM     76  O   UNL     1       5.479  -2.834  -3.346  1.00  0.00    -0.244 OA
BRANCH  75  77
ATOM     77  C   UNL     1       5.310  -4.658  -1.776  1.00  0.00     0.149 A 
ATOM     78  C   UNL     1       4.702  -5.905  -1.698  1.00  0.00     0.051 A 
ATOM     79  N   UNL     1       6.303  -4.247  -0.944  1.00  0.00    -0.249 NA
ATOM     80  C   UNL     1       5.109  -6.767  -0.689  1.00  0.00     0.012 A 
ATOM     81  C   UNL     1       6.683  -5.104   0.018  1.00  0.00     0.113 A 
ATOM     82  C   UNL     1       6.119  -6.354   0.186  1.00  0.00     0.035 A 
BRANCH  80  83
ATOM     83  S   UNL     1       4.465  -8.406  -0.446  1.00  0.00    -0.116 SA
BRANCH  83  84
ATOM     84  C   UNL     1       2.813  -8.372  -1.187  1.00  0.00     0.175 C 
BRANCH  84  85
ATOM     85  C   UNL     1       1.832  -7.306  -0.718  1.00  0.00     0.233 C 
ATOM     86  O   UNL     1       1.375  -6.514  -1.550  1.00  0.00    -0.274 OA
ATOM     87  N   UNL     1       1.294  -7.382   0.551  1.00  0.00    -0.337 N 
ATOM     88  C   UNL     1       1.927  -7.895   1.764  1.00  0.00     0.148 C 
ATOM     89  C   UNL     1      -0.128  -7.090   0.744  1.00  0.00     0.148 C 
ATOM     90  C   UNL     1       1.199  -9.150   2.237  1.00  0.00     0.181 C 
ATOM     91  C   UNL     1      -0.823  -8.367   1.254  1.00  0.00     0.181 C 
ATOM     92  O   UNL     1      -0.196  -8.871   2.449  1.00  0.00    -0.378 OA
ENDBRANCH  84  85
ENDBRANCH  83  84
ENDBRANCH  80  83
ENDBRANCH  75  77
ENDBRANCH  74  75
ENDBRANCH  73  74
ENDBRANCH   1  73
TORSDOF 17
