REMARK SMILES CC(C)Cn1c([C@@H](O)[C@@H](O)C(=O)OCCOCCOC(=O)c2ccc(-c3c4nc(c(-c5c(F)c(F)c(F)c(F)c5F)c5ccc([nH]5)c(-c5c(F)c(F)c(F)c(F)c5F)c5nc(c(-c6c(F)c(F)c(F)c(F)c6F)c6ccc3[nH]6)C=C5)C=C4)cc2)nc2cc(Cl)ccc21
REMARK SMILES IDX 15 1 14 2 13 3 11 4 12 5 9 6 7 7 6 8 5 9 92 10 85 11 86 12
REMARK SMILES IDX 91 13 87 14 90 15 88 16 89 17 4 18 2 19 1 20 3 21 8 22 10 24
REMARK SMILES IDX 16 26 17 27 18 28 19 29 20 30 21 31 22 32 23 33 84 34 24 35
REMARK SMILES IDX 83 36 25 37 26 38 27 39 77 40 28 41 82 42 76 43 78 44 29 45
REMARK SMILES IDX 81 46 75 47 74 48 30 50 62 51 42 52 61 53 43 54 46 55 60 56
REMARK SMILES IDX 79 57 44 58 45 59 59 61 80 62 47 63 31 64 32 65 40 66 33 67
REMARK SMILES IDX 34 68 38 69 41 70 35 71 36 72 39 73 37 74 63 75 64 76 72 77
REMARK SMILES IDX 65 78 66 79 70 80 73 81 67 82 68 83 71 84 69 85 48 86 49 87
REMARK SMILES IDX 57 88 50 89 51 90 55 91 58 92 52 93 53 94 56 95 54 96
REMARK H PARENT 8 23 10 25 78 49 46 60
REMARK Flexibility Score: inf
ROOT
ATOM      1  C   UNL     1       2.724  -5.307   5.055  1.00  0.00     0.202 C 
ENDROOT
BRANCH   1   2
ATOM      2  C   UNL     1       3.204  -4.248   4.051  1.00  0.00     0.261 C 
BRANCH   2   3
ATOM      3  O   UNL     1       2.178  -3.710   3.207  1.00  0.00    -0.461 OA
BRANCH   3   4
ATOM      4  C   UNL     1       2.167  -4.231   1.948  1.00  0.00     0.338 C 
ATOM      5  O   UNL     1       2.989  -5.042   1.526  1.00  0.00    -0.249 OA
BRANCH   4   6
ATOM      6  C   UNL     1       1.074  -3.665   1.054  1.00  0.00     0.260 C 
BRANCH   6   7
ATOM      7  C   UNL     1      -0.160  -3.043   1.739  1.00  0.00     0.220 C 
BRANCH   7   8
ATOM      8  C   UNL     1      -1.034  -2.466   0.659  1.00  0.00     0.142 A 
ATOM      9  N   UNL     1      -1.296  -1.130   0.456  1.00  0.00    -0.325 N 
ATOM     10  C   UNL     1      -2.068  -1.027  -0.685  1.00  0.00     0.068 A 
ATOM     11  N   UNL     1      -1.612  -3.212  -0.265  1.00  0.00    -0.230 NA
ATOM     12  C   UNL     1      -2.208  -2.340  -1.128  1.00  0.00     0.090 A 
ATOM     13  C   UNL     1      -2.636   0.051  -1.374  1.00  0.00     0.030 A 
ATOM     14  C   UNL     1      -2.888  -2.619  -2.320  1.00  0.00     0.051 A 
ATOM     15  C   UNL     1      -3.328  -0.241  -2.558  1.00  0.00     0.023 A 
ATOM     16  C   UNL     1      -3.437  -1.551  -3.027  1.00  0.00     0.043 A 
ATOM     17  Cl  UNL     1      -4.265  -1.858  -4.506  1.00  0.00    -0.084 Cl
BRANCH   9  18
ATOM     18  C   UNL     1      -0.854  -0.028   1.295  1.00  0.00     0.127 C 
BRANCH  18  19
ATOM     19  C   UNL     1       0.666   0.224   1.301  1.00  0.00     0.003 C 
ATOM     20  C   UNL     1       1.211   0.548  -0.089  1.00  0.00     0.009 C 
ATOM     21  C   UNL     1       1.012   1.343   2.284  1.00  0.00     0.009 C 
ENDBRANCH  18  19
ENDBRANCH   9  18
ENDBRANCH   7   8
BRANCH   7  22
ATOM     22  O   UNL     1      -0.979  -4.018   2.397  1.00  0.00    -0.382 OA
ATOM     23  H   UNL     1      -1.301  -4.662   1.747  1.00  0.00     0.211 HD
ENDBRANCH   7  22
ENDBRANCH   6   7
BRANCH   6  24
ATOM     24  O   UNL     1       1.710  -2.699   0.194  1.00  0.00    -0.379 OA
ATOM     25  H   UNL     1       2.072  -1.976   0.731  1.00  0.00     0.211 HD
ENDBRANCH   6  24
ENDBRANCH   4   6
ENDBRANCH   3   4
ENDBRANCH   2   3
ENDBRANCH   1   2
BRANCH   1  26
ATOM     26  O   UNL     1       1.807  -6.317   4.654  1.00  0.00    -0.374 OA
BRANCH  26  27
ATOM     27  C   UNL     1       0.471  -5.921   4.331  1.00  0.00     0.202 C 
BRANCH  27  28
ATOM     28  C   UNL     1      -0.397  -5.265   5.420  1.00  0.00     0.261 C 
BRANCH  28  29
ATOM     29  O   UNL     1       0.151  -4.011   5.851  1.00  0.00    -0.460 OA
BRANCH  29  30
ATOM     30  C   UNL     1       0.017  -3.780   7.183  1.00  0.00     0.338 C 
ATOM     31  O   UNL     1      -0.853  -4.191   7.931  1.00  0.00    -0.246 OA
BRANCH  30  32
ATOM     32  C   UNL     1       1.341  -3.309   7.620  1.00  0.00     0.060 A 
ATOM     33  C   UNL     1       1.946  -2.211   7.007  1.00  0.00     0.016 A 
ATOM     34  C   UNL     1       2.075  -4.189   8.433  1.00  0.00     0.016 A 
ATOM     35  C   UNL     1       3.313  -2.026   7.176  1.00  0.00     0.010 A 
ATOM     36  C   UNL     1       3.447  -4.018   8.573  1.00  0.00     0.010 A 
ATOM     37  C   UNL     1       4.068  -2.945   7.933  1.00  0.00    -0.014 A 
BRANCH  37  38
ATOM     38  C   UNL     1       5.452  -2.580   8.241  1.00  0.00     0.031 A 
ATOM     39  C   UNL     1       5.533  -1.377   9.111  1.00  0.00     0.074 A 
ATOM     40  C   UNL     1       6.573  -3.280   7.966  1.00  0.00     0.049 A 
ATOM     41  N   UNL     1       6.080  -0.239   8.843  1.00  0.00    -0.248 NA
ATOM     42  C   UNL     1       4.818  -1.416  10.398  1.00  0.00     0.031 C 
ATOM     43  C   UNL     1       6.671  -4.646   7.453  1.00  0.00     0.029 A 
ATOM     44  N   UNL     1       7.882  -2.937   8.196  1.00  0.00    -0.354 N 
ATOM     45  C   UNL     1       5.929   0.530   9.993  1.00  0.00     0.074 A 
ATOM     46  C   UNL     1       5.029  -0.183  10.859  1.00  0.00     0.031 C 
ATOM     47  C   UNL     1       7.939  -5.091   7.620  1.00  0.00     0.029 A 
ATOM     48  C   UNL     1       8.769  -4.002   8.113  1.00  0.00     0.049 A 
ATOM     49  H   UNL     1       8.167  -2.017   8.401  1.00  0.00     0.167 HD
ATOM     50  C   UNL     1       6.759   1.575  10.250  1.00  0.00     0.037 A 
ATOM     51  C   UNL     1      10.076  -4.001   8.475  1.00  0.00     0.037 A 
ATOM     52  C   UNL     1       7.510   1.962   9.090  1.00  0.00     0.049 A 
ATOM     53  C   UNL     1      10.583  -2.609   8.437  1.00  0.00     0.074 A 
ATOM     54  C   UNL     1       7.343   2.781   7.997  1.00  0.00     0.029 A 
ATOM     55  N   UNL     1       8.579   1.154   8.832  1.00  0.00    -0.354 N 
ATOM     56  N   UNL     1      10.713  -1.909   7.346  1.00  0.00    -0.248 NA
ATOM     57  C   UNL     1      10.749  -1.865   9.684  1.00  0.00     0.031 C 
ATOM     58  C   UNL     1       8.304   2.366   7.025  1.00  0.00     0.029 A 
ATOM     59  C   UNL     1       9.039   1.311   7.553  1.00  0.00     0.049 A 
ATOM     60  H   UNL     1       8.971   0.533   9.487  1.00  0.00     0.167 HD
ATOM     61  C   UNL     1      10.556  -0.607   7.764  1.00  0.00     0.074 A 
ATOM     62  C   UNL     1      10.778  -0.621   9.201  1.00  0.00     0.031 C 
ATOM     63  C   UNL     1       9.897   0.297   6.989  1.00  0.00     0.037 A 
BRANCH  50  64
ATOM     64  C   UNL     1       7.241   1.945  11.632  1.00  0.00     0.064 A 
ATOM     65  C   UNL     1       7.918   3.165  11.826  1.00  0.00     0.173 A 
ATOM     66  C   UNL     1       7.340   1.016  12.690  1.00  0.00     0.173 A 
ATOM     67  F   UNL     1       7.926   4.101  10.865  1.00  0.00    -0.203 F 
ATOM     68  C   UNL     1       8.665   3.417  12.980  1.00  0.00     0.198 A 
ATOM     69  C   UNL     1       8.041   1.292  13.862  1.00  0.00     0.198 A 
ATOM     70  F   UNL     1       6.867  -0.232  12.581  1.00  0.00    -0.203 F 
ATOM     71  F   UNL     1       9.379   4.548  13.078  1.00  0.00    -0.200 F 
ATOM     72  C   UNL     1       8.724   2.483  13.998  1.00  0.00     0.200 A 
ATOM     73  F   UNL     1       8.112   0.361  14.824  1.00  0.00    -0.200 F 
ATOM     74  F   UNL     1       9.475   2.704  15.085  1.00  0.00    -0.200 F 
ENDBRANCH  50  64
BRANCH  51  75
ATOM     75  C   UNL     1      10.878  -5.080   9.109  1.00  0.00     0.064 A 
ATOM     76  C   UNL     1      12.280  -4.979   9.184  1.00  0.00     0.173 A 
ATOM     77  C   UNL     1      10.276  -6.044   9.936  1.00  0.00     0.173 A 
ATOM     78  F   UNL     1      12.933  -4.067   8.448  1.00  0.00    -0.203 F 
ATOM     79  C   UNL     1      13.025  -5.743  10.086  1.00  0.00     0.198 A 
ATOM     80  C   UNL     1      11.023  -6.816  10.829  1.00  0.00     0.198 A 
ATOM     81  F   UNL     1       8.943  -6.181   9.975  1.00  0.00    -0.203 F 
ATOM     82  F   UNL     1      14.347  -5.547  10.197  1.00  0.00    -0.200 F 
ATOM     83  C   UNL     1      12.393  -6.648  10.922  1.00  0.00     0.200 A 
ATOM     84  F   UNL     1      10.397  -7.667  11.654  1.00  0.00    -0.200 F 
ATOM     85  F   UNL     1      13.093  -7.320  11.845  1.00  0.00    -0.200 F 
ENDBRANCH  51  75
BRANCH  63  86
ATOM     86  C   UNL     1       9.914   0.091   5.512  1.00  0.00     0.064 A 
ATOM     87  C   UNL     1       9.297  -0.983   4.853  1.00  0.00     0.173 A 
ATOM     88  C   UNL     1      10.553   1.059   4.726  1.00  0.00     0.173 A 
ATOM     89  F   UNL     1       8.606  -1.906   5.535  1.00  0.00    -0.203 F 
ATOM     90  C   UNL     1       9.355  -1.098   3.465  1.00  0.00     0.198 A 
ATOM     91  C   UNL     1      10.579   0.961   3.340  1.00  0.00     0.198 A 
ATOM     92  F   UNL     1      11.132   2.122   5.307  1.00  0.00    -0.203 F 
ATOM     93  F   UNL     1       8.777  -2.142   2.852  1.00  0.00    -0.200 F 
ATOM     94  C   UNL     1       9.989  -0.123   2.710  1.00  0.00     0.200 A 
ATOM     95  F   UNL     1      11.161   1.926   2.615  1.00  0.00    -0.200 F 
ATOM     96  F   UNL     1      10.016  -0.216   1.373  1.00  0.00    -0.200 F 
ENDBRANCH  63  86
ENDBRANCH  37  38
ENDBRANCH  30  32
ENDBRANCH  29  30
ENDBRANCH  28  29
ENDBRANCH  27  28
ENDBRANCH  26  27
ENDBRANCH   1  26
TORSDOF 20
