REMARK SMILES Cc1ccccc1NC(=O)CSc1nc(C(=O)OCCOCCOC(=O)c2ccc(-c3c4nc(c(-c5c(F)c(F)c(F)c(F)c5F)c5ccc([nH]5)c(-c5c(F)c(F)c(F)c(F)c5F)c5nc(c(-c6c(F)c(F)c(F)c(F)c6F)c6ccc3[nH]6)C=C5)C=C4)cc2)c2ccccc2n1
REMARK SMILES IDX 20 1 19 2 18 3 16 4 17 5 15 6 13 7 14 8 96 9 95 10 90 11
REMARK SMILES IDX 94 12 91 13 93 14 92 15 12 16 11 17 9 18 8 19 10 21 7 22
REMARK SMILES IDX 1 23 2 24 3 25 4 26 6 27 5 28 21 29 22 30 23 31 24 32 25 33
REMARK SMILES IDX 26 34 27 35 28 36 89 37 29 38 88 39 30 40 31 41 32 42 82 43
REMARK SMILES IDX 33 44 87 45 81 46 83 47 34 48 86 49 80 50 79 51 35 53 67 54
REMARK SMILES IDX 47 55 66 56 48 57 51 58 65 59 84 60 49 61 50 62 64 64 85 65
REMARK SMILES IDX 52 66 36 67 37 68 45 69 38 70 39 71 43 72 46 73 40 74 41 75
REMARK SMILES IDX 44 76 42 77 68 78 69 79 77 80 70 81 71 82 75 83 78 84 72 85
REMARK SMILES IDX 73 86 76 87 74 88 53 89 54 90 62 91 55 92 56 93 60 94 63 95
REMARK SMILES IDX 57 96 58 97 61 98 59 99
REMARK H PARENT 8 20 83 52 51 63
REMARK Flexibility Score: inf
ROOT
ATOM      1  C   UNL     1      -3.137   7.258  -6.306  1.00  0.00     0.202 C 
ENDROOT
BRANCH   1   2
ATOM      2  C   UNL     1      -1.738   7.791  -6.392  1.00  0.00     0.261 C 
BRANCH   2   3
ATOM      3  O   UNL     1      -0.803   6.955  -5.690  1.00  0.00    -0.458 OA
BRANCH   3   4
ATOM      4  C   UNL     1      -0.966   6.587  -4.396  1.00  0.00     0.357 C 
ATOM      5  O   UNL     1      -1.338   7.279  -3.478  1.00  0.00    -0.244 OA
BRANCH   4   6
ATOM      6  C   UNL     1      -0.702   5.122  -4.298  1.00  0.00     0.160 A 
ATOM      7  C   UNL     1      -1.155   3.335  -2.983  1.00  0.00     0.189 A 
ATOM      8  N   UNL     1      -1.134   4.646  -3.114  1.00  0.00    -0.215 NA
ATOM      9  N   UNL     1      -0.735   2.469  -3.912  1.00  0.00    -0.222 NA
ATOM     10  C   UNL     1      -0.280   2.958  -5.074  1.00  0.00     0.076 A 
ATOM     11  C   UNL     1      -0.244   4.321  -5.367  1.00  0.00     0.034 A 
ATOM     12  C   UNL     1       0.131   2.060  -6.055  1.00  0.00     0.029 A 
ATOM     13  C   UNL     1       0.198   4.720  -6.673  1.00  0.00     0.013 A 
ATOM     14  C   UNL     1       0.531   2.464  -7.334  1.00  0.00     0.002 A 
ATOM     15  C   UNL     1       0.548   3.805  -7.653  1.00  0.00     0.001 A 
BRANCH   7  16
ATOM     16  S   UNL     1      -2.083   2.722  -1.620  1.00  0.00    -0.076 SA
BRANCH  16  17
ATOM     17  C   UNL     1      -1.369   3.727  -0.277  1.00  0.00     0.178 C 
BRANCH  17  18
ATOM     18  C   UNL     1       0.115   3.500  -0.065  1.00  0.00     0.234 C 
ATOM     19  N   UNL     1       0.682   2.286   0.203  1.00  0.00    -0.325 N 
ATOM     20  H   UNL     1       1.656   2.336   0.339  1.00  0.00     0.169 HD
ATOM     21  O   UNL     1       0.893   4.463  -0.115  1.00  0.00    -0.274 OA
BRANCH  19  22
ATOM     22  C   UNL     1       0.172   0.978   0.326  1.00  0.00     0.044 A 
ATOM     23  C   UNL     1       2.518  -0.037  -0.082  1.00  0.00     0.046 C 
ATOM     24  C   UNL     1       1.023  -0.121   0.087  1.00  0.00    -0.027 A 
ATOM     25  C   UNL     1       0.463  -1.413  -0.008  1.00  0.00     0.005 A 
ATOM     26  C   UNL     1      -0.902  -1.624   0.164  1.00  0.00     0.000 A 
ATOM     27  C   UNL     1      -1.167   0.719   0.639  1.00  0.00     0.026 A 
ATOM     28  C   UNL     1      -1.713  -0.560   0.518  1.00  0.00     0.002 A 
ENDBRANCH  19  22
ENDBRANCH  17  18
ENDBRANCH  16  17
ENDBRANCH   7  16
ENDBRANCH   4   6
ENDBRANCH   3   4
ENDBRANCH   2   3
ENDBRANCH   1   2
BRANCH   1  29
ATOM     29  O   UNL     1      -3.524   7.411  -4.957  1.00  0.00    -0.374 OA
BRANCH  29  30
ATOM     30  C   UNL     1      -4.775   6.869  -4.595  1.00  0.00     0.202 C 
BRANCH  30  31
ATOM     31  C   UNL     1      -5.917   7.560  -5.346  1.00  0.00     0.261 C 
BRANCH  31  32
ATOM     32  O   UNL     1      -5.958   8.966  -4.998  1.00  0.00    -0.460 OA
BRANCH  32  33
ATOM     33  C   UNL     1      -5.300   9.821  -5.835  1.00  0.00     0.338 C 
ATOM     34  O   UNL     1      -5.467   9.889  -7.042  1.00  0.00    -0.246 OA
BRANCH  33  35
ATOM     35  C   UNL     1      -4.152  10.463  -5.121  1.00  0.00     0.060 A 
ATOM     36  C   UNL     1      -3.155  11.155  -5.841  1.00  0.00     0.016 A 
ATOM     37  C   UNL     1      -3.897  10.053  -3.819  1.00  0.00     0.016 A 
ATOM     38  C   UNL     1      -1.849  11.266  -5.325  1.00  0.00     0.010 A 
ATOM     39  C   UNL     1      -2.589  10.030  -3.392  1.00  0.00     0.010 A 
ATOM     40  C   UNL     1      -1.543  10.604  -4.142  1.00  0.00    -0.014 A 
BRANCH  40  41
ATOM     41  C   UNL     1      -0.213  10.369  -3.559  1.00  0.00     0.031 A 
ATOM     42  C   UNL     1      -0.026  10.815  -2.156  1.00  0.00     0.074 A 
ATOM     43  C   UNL     1       0.644   9.450  -4.076  1.00  0.00     0.049 A 
ATOM     44  N   UNL     1       1.025  10.582  -1.458  1.00  0.00    -0.248 NA
ATOM     45  C   UNL     1      -1.012  11.604  -1.417  1.00  0.00     0.031 C 
ATOM     46  C   UNL     1       1.522   8.537  -3.328  1.00  0.00     0.029 A 
ATOM     47  N   UNL     1       0.866   9.059  -5.403  1.00  0.00    -0.354 N 
ATOM     48  C   UNL     1       0.724  10.829  -0.142  1.00  0.00     0.074 A 
ATOM     49  C   UNL     1      -0.493  11.593  -0.186  1.00  0.00     0.031 C 
ATOM     50  C   UNL     1       2.353   7.899  -4.169  1.00  0.00     0.029 A 
ATOM     51  C   UNL     1       2.149   8.479  -5.478  1.00  0.00     0.049 A 
ATOM     52  H   UNL     1       0.237   9.171  -6.152  1.00  0.00     0.167 HD
ATOM     53  C   UNL     1       1.509  10.237   0.802  1.00  0.00     0.037 A 
ATOM     54  C   UNL     1       3.101   9.005  -6.294  1.00  0.00     0.037 A 
ATOM     55  C   UNL     1       2.681   9.617   0.158  1.00  0.00     0.049 A 
ATOM     56  C   UNL     1       4.215   9.543  -5.446  1.00  0.00     0.074 A 
ATOM     57  C   UNL     1       3.080   8.313  -0.083  1.00  0.00     0.029 A 
ATOM     58  N   UNL     1       3.491  10.420  -0.648  1.00  0.00    -0.354 N 
ATOM     59  N   UNL     1       4.039   9.873  -4.194  1.00  0.00    -0.248 NA
ATOM     60  C   UNL     1       5.609   9.625  -5.858  1.00  0.00     0.031 C 
ATOM     61  C   UNL     1       4.114   8.349  -1.070  1.00  0.00     0.029 A 
ATOM     62  C   UNL     1       4.366   9.672  -1.408  1.00  0.00     0.049 A 
ATOM     63  H   UNL     1       3.444  11.403  -0.670  1.00  0.00     0.167 HD
ATOM     64  C   UNL     1       5.246  10.089  -3.604  1.00  0.00     0.074 A 
ATOM     65  C   UNL     1       6.197   9.964  -4.696  1.00  0.00     0.031 C 
ATOM     66  C   UNL     1       5.360  10.324  -2.264  1.00  0.00     0.037 A 
BRANCH  53  67
ATOM     67  C   UNL     1       1.191  10.088   2.281  1.00  0.00     0.064 A 
ATOM     68  C   UNL     1       2.100   9.422   3.136  1.00  0.00     0.173 A 
ATOM     69  C   UNL     1       0.004  10.508   2.921  1.00  0.00     0.173 A 
ATOM     70  F   UNL     1       3.269   8.953   2.680  1.00  0.00    -0.203 F 
ATOM     71  C   UNL     1       1.842   9.204   4.496  1.00  0.00     0.198 A 
ATOM     72  C   UNL     1      -0.236  10.322   4.288  1.00  0.00     0.198 A 
ATOM     73  F   UNL     1      -1.004  11.083   2.266  1.00  0.00    -0.203 F 
ATOM     74  F   UNL     1       2.733   8.537   5.244  1.00  0.00    -0.200 F 
ATOM     75  C   UNL     1       0.679   9.664   5.075  1.00  0.00     0.200 A 
ATOM     76  F   UNL     1      -1.377  10.779   4.827  1.00  0.00    -0.200 F 
ATOM     77  F   UNL     1       0.436   9.469   6.378  1.00  0.00    -0.200 F 
ENDBRANCH  53  67
BRANCH  54  78
ATOM     78  C   UNL     1       2.492   9.514  -7.560  1.00  0.00     0.064 A 
ATOM     79  C   UNL     1       2.025   8.512  -8.443  1.00  0.00     0.173 A 
ATOM     80  C   UNL     1       1.817  10.747  -7.577  1.00  0.00     0.173 A 
ATOM     81  F   UNL     1       2.622   7.309  -8.464  1.00  0.00    -0.203 F 
ATOM     82  C   UNL     1       0.829   8.662  -9.143  1.00  0.00     0.198 A 
ATOM     83  C   UNL     1       0.614  10.888  -8.282  1.00  0.00     0.198 A 
ATOM     84  F   UNL     1       2.198  11.735  -6.757  1.00  0.00    -0.203 F 
ATOM     85  F   UNL     1       0.312   7.620  -9.813  1.00  0.00    -0.200 F 
ATOM     86  C   UNL     1       0.099   9.831  -9.021  1.00  0.00     0.200 A 
ATOM     87  F   UNL     1      -0.116  12.005  -8.145  1.00  0.00    -0.200 F 
ATOM     88  F   UNL     1      -1.135   9.906  -9.542  1.00  0.00    -0.200 F 
ENDBRANCH  54  78
BRANCH  66  89
ATOM     89  C   UNL     1       6.460  11.148  -1.631  1.00  0.00     0.064 A 
ATOM     90  C   UNL     1       7.372  11.933  -2.359  1.00  0.00     0.173 A 
ATOM     91  C   UNL     1       6.517  11.322  -0.225  1.00  0.00     0.173 A 
ATOM     92  F   UNL     1       7.351  11.996  -3.695  1.00  0.00    -0.203 F 
ATOM     93  C   UNL     1       8.312  12.754  -1.735  1.00  0.00     0.198 A 
ATOM     94  C   UNL     1       7.398  12.208   0.389  1.00  0.00     0.198 A 
ATOM     95  F   UNL     1       5.693  10.675   0.611  1.00  0.00    -0.203 F 
ATOM     96  F   UNL     1       9.195  13.429  -2.483  1.00  0.00    -0.200 F 
ATOM     97  C   UNL     1       8.315  12.905  -0.364  1.00  0.00     0.200 A 
ATOM     98  F   UNL     1       7.330  12.399   1.714  1.00  0.00    -0.200 F 
ATOM     99  F   UNL     1       9.181  13.737   0.226  1.00  0.00    -0.200 F 
ENDBRANCH  66  89
ENDBRANCH  40  41
ENDBRANCH  33  35
ENDBRANCH  32  33
ENDBRANCH  31  32
ENDBRANCH  30  31
ENDBRANCH  29  30
ENDBRANCH   1  29
TORSDOF 18
