REMARK SMILES O=C(OCCOCCOC(=O)c1cc(Br)ccc1N1CC2(CCCCC2)C1)c1ccc(-c2c3nc(c(-c4c(F)c(F)c(F)c(F)c4F)c4ccc([nH]4)c(-c4c(F)c(F)c(F)c(F)c4F)c4nc(c(-c5c(F)c(F)c(F)c(F)c5F)c5ccc2[nH]5)C=C4)C=C3)cc1
REMARK SMILES IDX 5 1 4 2 3 3 2 4 1 5 28 6 29 7 90 8 30 9 89 10 31 11 32 12
REMARK SMILES IDX 33 13 83 14 34 15 88 16 82 17 84 18 35 19 87 20 81 21 80 22
REMARK SMILES IDX 36 24 68 25 48 26 67 27 49 28 52 29 66 30 85 31 50 32 51 33
REMARK SMILES IDX 65 35 86 36 53 37 37 38 38 39 46 40 39 41 40 42 44 43 47 44
REMARK SMILES IDX 41 45 42 46 45 47 43 48 69 49 70 50 78 51 71 52 72 53 76 54
REMARK SMILES IDX 79 55 73 56 74 57 77 58 75 59 54 60 55 61 63 62 56 63 57 64
REMARK SMILES IDX 61 65 64 66 58 67 59 68 62 69 60 70 6 71 7 72 8 73 9 74
REMARK SMILES IDX 10 75 11 76 12 77 13 78 18 79 14 80 17 81 15 82 16 83 19 84
REMARK SMILES IDX 20 85 27 86 21 87 22 88 26 89 23 90 25 91 24 92
REMARK H PARENT 84 23 52 34
REMARK Flexibility Score: inf
ROOT
ATOM      1  C   UNL     1       2.916  -0.001  -1.587  1.00  0.00     0.202 C 
ENDROOT
BRANCH   1   2
ATOM      2  C   UNL     1       3.067  -1.134  -0.567  1.00  0.00     0.261 C 
BRANCH   2   3
ATOM      3  O   UNL     1       1.840  -1.292   0.181  1.00  0.00    -0.460 OA
BRANCH   3   4
ATOM      4  C   UNL     1       1.427  -0.474   1.180  1.00  0.00     0.338 C 
ATOM      5  O   UNL     1       0.235  -0.233   1.343  1.00  0.00    -0.246 OA
BRANCH   4   6
ATOM      6  C   UNL     1       2.381  -0.083   2.248  1.00  0.00     0.060 A 
ATOM      7  C   UNL     1       3.495   0.714   2.015  1.00  0.00     0.016 A 
ATOM      8  C   UNL     1       2.056  -0.411   3.573  1.00  0.00     0.016 A 
ATOM      9  C   UNL     1       4.298   1.135   3.064  1.00  0.00     0.010 A 
ATOM     10  C   UNL     1       2.854   0.037   4.637  1.00  0.00     0.010 A 
ATOM     11  C   UNL     1       3.994   0.810   4.383  1.00  0.00    -0.014 A 
BRANCH  11  12
ATOM     12  C   UNL     1       4.949   1.228   5.437  1.00  0.00     0.031 A 
ATOM     13  C   UNL     1       5.746   0.180   6.154  1.00  0.00     0.074 A 
ATOM     14  C   UNL     1       5.220   2.534   5.633  1.00  0.00     0.049 A 
ATOM     15  N   UNL     1       6.567   0.306   7.163  1.00  0.00    -0.248 NA
ATOM     16  C   UNL     1       5.608  -1.198   5.658  1.00  0.00     0.031 C 
ATOM     17  C   UNL     1       4.620   3.642   4.886  1.00  0.00     0.029 A 
ATOM     18  N   UNL     1       6.109   3.151   6.476  1.00  0.00    -0.354 N 
ATOM     19  C   UNL     1       6.988  -0.981   7.467  1.00  0.00     0.074 A 
ATOM     20  C   UNL     1       6.354  -1.872   6.520  1.00  0.00     0.031 C 
ATOM     21  C   UNL     1       5.209   4.790   5.251  1.00  0.00     0.029 A 
ATOM     22  C   UNL     1       6.147   4.518   6.333  1.00  0.00     0.049 A 
ATOM     23  H   UNL     1       6.667   2.661   7.122  1.00  0.00     0.167 HD
ATOM     24  C   UNL     1       7.814  -1.376   8.464  1.00  0.00     0.037 A 
ATOM     25  C   UNL     1       6.834   5.445   7.028  1.00  0.00     0.037 A 
ATOM     26  C   UNL     1       8.467  -0.466   9.367  1.00  0.00     0.049 A 
ATOM     27  C   UNL     1       7.690   4.983   8.177  1.00  0.00     0.074 A 
ATOM     28  C   UNL     1       9.268  -0.750  10.458  1.00  0.00     0.029 A 
ATOM     29  N   UNL     1       8.407   0.918   9.264  1.00  0.00    -0.354 N 
ATOM     30  N   UNL     1       7.977   3.761   8.557  1.00  0.00    -0.248 NA
ATOM     31  C   UNL     1       8.286   6.029   9.018  1.00  0.00     0.031 C 
ATOM     32  C   UNL     1       9.661   0.463  11.037  1.00  0.00     0.029 A 
ATOM     33  C   UNL     1       9.146   1.502  10.277  1.00  0.00     0.049 A 
ATOM     34  H   UNL     1       7.910   1.411   8.571  1.00  0.00     0.167 HD
ATOM     35  C   UNL     1       8.788   3.889   9.676  1.00  0.00     0.074 A 
ATOM     36  C   UNL     1       8.973   5.309   9.894  1.00  0.00     0.031 C 
ATOM     37  C   UNL     1       9.318   2.921  10.463  1.00  0.00     0.037 A 
BRANCH  24  38
ATOM     38  C   UNL     1       7.968  -2.853   8.677  1.00  0.00     0.064 A 
ATOM     39  C   UNL     1       8.688  -3.670   7.794  1.00  0.00     0.173 A 
ATOM     40  C   UNL     1       7.345  -3.465   9.776  1.00  0.00     0.173 A 
ATOM     41  F   UNL     1       9.278  -3.139   6.712  1.00  0.00    -0.203 F 
ATOM     42  C   UNL     1       8.749  -5.049   7.984  1.00  0.00     0.198 A 
ATOM     43  C   UNL     1       7.432  -4.839   9.979  1.00  0.00     0.198 A 
ATOM     44  F   UNL     1       6.639  -2.730  10.649  1.00  0.00    -0.203 F 
ATOM     45  F   UNL     1       9.386  -5.819   7.091  1.00  0.00    -0.200 F 
ATOM     46  C   UNL     1       8.124  -5.631   9.077  1.00  0.00     0.200 A 
ATOM     47  F   UNL     1       6.832  -5.397  11.040  1.00  0.00    -0.200 F 
ATOM     48  F   UNL     1       8.176  -6.959   9.253  1.00  0.00    -0.200 F 
ENDBRANCH  24  38
BRANCH  25  49
ATOM     49  C   UNL     1       6.693   6.893   6.707  1.00  0.00     0.064 A 
ATOM     50  C   UNL     1       7.791   7.649   6.273  1.00  0.00     0.173 A 
ATOM     51  C   UNL     1       5.466   7.559   6.850  1.00  0.00     0.173 A 
ATOM     52  F   UNL     1       8.996   7.073   6.151  1.00  0.00    -0.203 F 
ATOM     53  C   UNL     1       7.669   9.013   6.005  1.00  0.00     0.198 A 
ATOM     54  C   UNL     1       5.336   8.913   6.547  1.00  0.00     0.198 A 
ATOM     55  F   UNL     1       4.383   6.892   7.276  1.00  0.00    -0.203 F 
ATOM     56  F   UNL     1       8.747   9.722   5.643  1.00  0.00    -0.200 F 
ATOM     57  C   UNL     1       6.440   9.641   6.133  1.00  0.00     0.200 A 
ATOM     58  F   UNL     1       4.142   9.511   6.661  1.00  0.00    -0.200 F 
ATOM     59  F   UNL     1       6.321  10.950   5.872  1.00  0.00    -0.200 F 
ENDBRANCH  25  49
BRANCH  37  60
ATOM     60  C   UNL     1      10.170   3.372  11.612  1.00  0.00     0.064 A 
ATOM     61  C   UNL     1       9.610   3.963  12.753  1.00  0.00     0.173 A 
ATOM     62  C   UNL     1      11.559   3.178  11.583  1.00  0.00     0.173 A 
ATOM     63  F   UNL     1       8.288   4.184  12.820  1.00  0.00    -0.203 F 
ATOM     64  C   UNL     1      10.414   4.368  13.815  1.00  0.00     0.198 A 
ATOM     65  C   UNL     1      12.356   3.558  12.658  1.00  0.00     0.198 A 
ATOM     66  F   UNL     1      12.140   2.611  10.515  1.00  0.00    -0.203 F 
ATOM     67  F   UNL     1       9.864   4.975  14.876  1.00  0.00    -0.200 F 
ATOM     68  C   UNL     1      11.784   4.159  13.770  1.00  0.00     0.200 A 
ATOM     69  F   UNL     1      13.678   3.343  12.618  1.00  0.00    -0.200 F 
ATOM     70  F   UNL     1      12.556   4.544  14.795  1.00  0.00    -0.200 F 
ENDBRANCH  37  60
ENDBRANCH  11  12
ENDBRANCH   4   6
ENDBRANCH   3   4
ENDBRANCH   2   3
ENDBRANCH   1   2
BRANCH   1  71
ATOM     71  O   UNL     1       3.013   1.240  -0.896  1.00  0.00    -0.374 OA
BRANCH  71  72
ATOM     72  C   UNL     1       2.113   2.266  -1.298  1.00  0.00     0.202 C 
BRANCH  72  73
ATOM     73  C   UNL     1       2.882   3.418  -1.939  1.00  0.00     0.261 C 
BRANCH  73  74
ATOM     74  O   UNL     1       3.631   2.904  -3.051  1.00  0.00    -0.460 OA
BRANCH  74  75
ATOM     75  C   UNL     1       4.949   2.645  -2.822  1.00  0.00     0.340 C 
ATOM     76  O   UNL     1       5.589   3.015  -1.853  1.00  0.00    -0.246 OA
BRANCH  75  77
ATOM     77  C   UNL     1       5.433   1.758  -3.921  1.00  0.00     0.084 A 
ATOM     78  C   UNL     1       4.843   1.912  -5.191  1.00  0.00     0.033 A 
ATOM     79  C   UNL     1       6.442   0.786  -3.721  1.00  0.00     0.051 A 
ATOM     80  C   UNL     1       5.211   1.080  -6.241  1.00  0.00     0.018 A 
ATOM     81  C   UNL     1       6.797  -0.031  -4.807  1.00  0.00     0.028 A 
ATOM     82  Br  UNL     1       4.383   1.282  -7.927  1.00  0.00    -0.051 Br
ATOM     83  C   UNL     1       6.176   0.100  -6.052  1.00  0.00     0.018 A 
BRANCH  79  84
ATOM     84  N   UNL     1       7.101   0.613  -2.495  1.00  0.00    -0.370 N 
ATOM     85  C   UNL     1       6.621  -0.009  -1.300  1.00  0.00     0.125 C 
ATOM     86  C   UNL     1       8.472   0.329  -2.189  1.00  0.00     0.125 C 
ATOM     87  C   UNL     1       8.032   0.246  -0.702  1.00  0.00     0.005 C 
ATOM     88  C   UNL     1       8.636  -0.888   0.129  1.00  0.00     0.011 C 
ATOM     89  C   UNL     1       8.179   1.587   0.039  1.00  0.00     0.011 C 
ATOM     90  C   UNL     1       7.942  -0.971   1.491  1.00  0.00     0.001 C 
ATOM     91  C   UNL     1       7.441   1.506   1.366  1.00  0.00     0.001 C 
ATOM     92  C   UNL     1       7.967   0.366   2.234  1.00  0.00     0.000 C 
ENDBRANCH  79  84
ENDBRANCH  75  77
ENDBRANCH  74  75
ENDBRANCH  73  74
ENDBRANCH  72  73
ENDBRANCH  71  72
ENDBRANCH   1  71
TORSDOF 15
