REMARK SMILES O=C(OCCOCCOC(=O)[C@@H]1C=C[C@@H](NS(=O)(=O)c2ccc(F)c(F)c2F)C1)c1ccc(-c2c3nc(c(-c4c(F)c(F)c(F)c(F)c4F)c4ccc([nH]4)c(-c4c(F)c(F)c(F)c(F)c4F)c4nc(c(-c5c(F)c(F)c(F)c(F)c5F)c5ccc2[nH]5)C=C4)C=C3)cc1
REMARK SMILES IDX 7 1 6 2 5 3 4 4 3 5 2 6 1 7 30 8 31 9 92 10 32 11 91 12
REMARK SMILES IDX 33 13 34 14 35 15 85 16 36 17 90 18 84 19 86 20 37 21 89 22
REMARK SMILES IDX 83 23 82 24 38 26 70 27 50 28 69 29 51 30 54 31 68 32 87 33
REMARK SMILES IDX 52 34 53 35 67 37 88 38 55 39 39 40 40 41 48 42 41 43 42 44
REMARK SMILES IDX 46 45 49 46 43 47 44 48 47 49 45 50 71 51 72 52 80 53 73 54
REMARK SMILES IDX 74 55 78 56 81 57 75 58 76 59 79 60 77 61 56 62 57 63 65 64
REMARK SMILES IDX 58 65 59 66 63 67 66 68 60 69 61 70 64 71 62 72 8 73 9 74
REMARK SMILES IDX 10 75 11 76 12 77 13 78 29 79 14 80 15 81 16 82 17 84 18 85
REMARK SMILES IDX 19 86 20 87 21 88 27 89 22 90 25 91 28 92 23 93 26 94 24 95
REMARK H PARENT 86 25 54 36 16 83
REMARK Flexibility Score: inf
ROOT
ATOM      1  C   UNL     1       7.442  -1.364   2.793  1.00  0.00     0.202 C 
ENDROOT
BRANCH   1   2
ATOM      2  O   UNL     1       7.509  -2.787   2.893  1.00  0.00    -0.374 OA
BRANCH   2   3
ATOM      3  C   UNL     1       6.675  -3.373   3.883  1.00  0.00     0.202 C 
BRANCH   3   4
ATOM      4  C   UNL     1       7.322  -3.566   5.254  1.00  0.00     0.261 C 
BRANCH   4   5
ATOM      5  O   UNL     1       7.868  -2.325   5.728  1.00  0.00    -0.460 OA
BRANCH   5   6
ATOM      6  C   UNL     1       9.181  -1.996   5.787  1.00  0.00     0.338 C 
ATOM      7  O   UNL     1       9.524  -0.931   6.290  1.00  0.00    -0.246 OA
BRANCH   6   8
ATOM      8  C   UNL     1      10.235  -2.925   5.302  1.00  0.00     0.060 A 
ATOM      9  C   UNL     1      10.101  -3.681   4.140  1.00  0.00     0.016 A 
ATOM     10  C   UNL     1      11.446  -2.984   6.000  1.00  0.00     0.016 A 
ATOM     11  C   UNL     1      11.075  -4.561   3.726  1.00  0.00     0.010 A 
ATOM     12  C   UNL     1      12.481  -3.800   5.537  1.00  0.00     0.010 A 
ATOM     13  C   UNL     1      12.287  -4.593   4.398  1.00  0.00    -0.014 A 
BRANCH  13  14
ATOM     14  C   UNL     1      13.318  -5.495   3.871  1.00  0.00     0.031 A 
ATOM     15  C   UNL     1      13.640  -6.733   4.632  1.00  0.00     0.074 A 
ATOM     16  C   UNL     1      13.839  -5.240   2.657  1.00  0.00     0.049 A 
ATOM     17  N   UNL     1      14.578  -7.611   4.414  1.00  0.00    -0.248 NA
ATOM     18  C   UNL     1      12.785  -7.032   5.793  1.00  0.00     0.031 C 
ATOM     19  C   UNL     1      13.449  -4.121   1.792  1.00  0.00     0.029 A 
ATOM     20  N   UNL     1      14.772  -5.916   1.922  1.00  0.00    -0.354 N 
ATOM     21  C   UNL     1      14.466  -8.533   5.442  1.00  0.00     0.074 A 
ATOM     22  C   UNL     1      13.355  -8.128   6.272  1.00  0.00     0.031 C 
ATOM     23  C   UNL     1      14.111  -4.211   0.630  1.00  0.00     0.029 A 
ATOM     24  C   UNL     1      15.043  -5.327   0.712  1.00  0.00     0.049 A 
ATOM     25  H   UNL     1      15.207  -6.744   2.229  1.00  0.00     0.167 HD
ATOM     26  C   UNL     1      15.255  -9.607   5.666  1.00  0.00     0.037 A 
ATOM     27  C   UNL     1      15.985  -5.630  -0.200  1.00  0.00     0.037 A 
ATOM     28  C   UNL     1      16.335  -9.975   4.792  1.00  0.00     0.049 A 
ATOM     29  C   UNL     1      16.899  -6.780   0.109  1.00  0.00     0.074 A 
ATOM     30  C   UNL     1      17.242 -11.007   4.924  1.00  0.00     0.029 A 
ATOM     31  N   UNL     1      16.644  -9.310   3.609  1.00  0.00    -0.354 N 
ATOM     32  N   UNL     1      16.869  -7.599   1.135  1.00  0.00    -0.248 NA
ATOM     33  C   UNL     1      17.995  -7.032  -0.833  1.00  0.00     0.031 C 
ATOM     34  C   UNL     1      18.130 -10.937   3.846  1.00  0.00     0.029 A 
ATOM     35  C   UNL     1      17.745  -9.895   3.012  1.00  0.00     0.049 A 
ATOM     36  H   UNL     1      16.152  -8.537   3.251  1.00  0.00     0.167 HD
ATOM     37  C   UNL     1      17.937  -8.464   0.969  1.00  0.00     0.074 A 
ATOM     38  C   UNL     1      18.586  -8.081  -0.272  1.00  0.00     0.031 C 
ATOM     39  C   UNL     1      18.351  -9.476   1.770  1.00  0.00     0.037 A 
BRANCH  26  40
ATOM     40  C   UNL     1      15.030 -10.375   6.932  1.00  0.00     0.064 A 
ATOM     41  C   UNL     1      15.950 -10.264   7.986  1.00  0.00     0.173 A 
ATOM     42  C   UNL     1      13.908 -11.194   7.125  1.00  0.00     0.173 A 
ATOM     43  F   UNL     1      17.034  -9.483   7.858  1.00  0.00    -0.203 F 
ATOM     44  C   UNL     1      15.757 -10.947   9.184  1.00  0.00     0.198 A 
ATOM     45  C   UNL     1      13.705 -11.855   8.335  1.00  0.00     0.198 A 
ATOM     46  F   UNL     1      12.982 -11.308   6.161  1.00  0.00    -0.203 F 
ATOM     47  F   UNL     1      16.655 -10.829  10.172  1.00  0.00    -0.200 F 
ATOM     48  C   UNL     1      14.631 -11.735   9.360  1.00  0.00     0.200 A 
ATOM     49  F   UNL     1      12.598 -12.588   8.518  1.00  0.00    -0.200 F 
ATOM     50  F   UNL     1      14.431 -12.368  10.525  1.00  0.00    -0.200 F 
ENDBRANCH  26  40
BRANCH  27  51
ATOM     51  C   UNL     1      16.118  -4.796  -1.423  1.00  0.00     0.064 A 
ATOM     52  C   UNL     1      16.492  -3.444  -1.343  1.00  0.00     0.173 A 
ATOM     53  C   UNL     1      15.797  -5.305  -2.687  1.00  0.00     0.173 A 
ATOM     54  F   UNL     1      16.808  -2.902  -0.157  1.00  0.00    -0.203 F 
ATOM     55  C   UNL     1      16.497  -2.626  -2.471  1.00  0.00     0.198 A 
ATOM     56  C   UNL     1      15.831  -4.493  -3.820  1.00  0.00     0.198 A 
ATOM     57  F   UNL     1      15.451  -6.594  -2.821  1.00  0.00    -0.203 F 
ATOM     58  F   UNL     1      16.801  -1.326  -2.353  1.00  0.00    -0.200 F 
ATOM     59  C   UNL     1      16.167  -3.151  -3.710  1.00  0.00     0.200 A 
ATOM     60  F   UNL     1      15.529  -5.008  -5.020  1.00  0.00    -0.200 F 
ATOM     61  F   UNL     1      16.169  -2.365  -4.795  1.00  0.00    -0.200 F 
ENDBRANCH  27  51
BRANCH  39  62
ATOM     62  C   UNL     1      19.555 -10.246   1.329  1.00  0.00     0.064 A 
ATOM     63  C   UNL     1      19.418 -11.564   0.870  1.00  0.00     0.173 A 
ATOM     64  C   UNL     1      20.846  -9.725   1.484  1.00  0.00     0.173 A 
ATOM     65  F   UNL     1      18.199 -12.104   0.717  1.00  0.00    -0.203 F 
ATOM     66  C   UNL     1      20.538 -12.346   0.612  1.00  0.00     0.198 A 
ATOM     67  C   UNL     1      21.963 -10.502   1.199  1.00  0.00     0.198 A 
ATOM     68  F   UNL     1      21.019  -8.464   1.908  1.00  0.00    -0.203 F 
ATOM     69  F   UNL     1      20.387 -13.620   0.223  1.00  0.00    -0.200 F 
ATOM     70  C   UNL     1      21.808 -11.816   0.778  1.00  0.00     0.200 A 
ATOM     71  F   UNL     1      23.191  -9.985   1.342  1.00  0.00    -0.200 F 
ATOM     72  F   UNL     1      22.887 -12.573   0.536  1.00  0.00    -0.200 F 
ENDBRANCH  39  62
ENDBRANCH  13  14
ENDBRANCH   6   8
ENDBRANCH   5   6
ENDBRANCH   4   5
ENDBRANCH   3   4
ENDBRANCH   2   3
ENDBRANCH   1   2
BRANCH   1  73
ATOM     73  C   UNL     1       6.782  -0.992   1.467  1.00  0.00     0.261 C 
BRANCH  73  74
ATOM     74  O   UNL     1       5.422  -1.466   1.481  1.00  0.00    -0.463 OA
BRANCH  74  75
ATOM     75  C   UNL     1       5.216  -2.720   0.985  1.00  0.00     0.312 C 
ATOM     76  O   UNL     1       6.018  -3.347   0.303  1.00  0.00    -0.252 OA
BRANCH  75  77
ATOM     77  C   UNL     1       3.846  -3.276   1.388  1.00  0.00     0.123 C 
ATOM     78  C   UNL     1       3.205  -2.582   2.550  1.00  0.00    -0.015 C 
ATOM     79  C   UNL     1       3.932  -4.739   1.885  1.00  0.00     0.043 C 
ATOM     80  C   UNL     1       3.066  -3.376   3.615  1.00  0.00    -0.011 C 
ATOM     81  C   UNL     1       3.601  -4.744   3.394  1.00  0.00     0.093 C 
BRANCH  81  82
ATOM     82  N   UNL     1       2.651  -5.783   3.728  1.00  0.00    -0.204 NA
ATOM     83  H   UNL     1       3.089  -6.659   3.444  1.00  0.00     0.142 HD
BRANCH  82  84
ATOM     84  S   UNL     1       2.053  -6.056   5.263  1.00  0.00     0.244 S 
ATOM     85  O   UNL     1       1.572  -4.807   5.806  1.00  0.00    -0.207 OA
ATOM     86  O   UNL     1       1.166  -7.191   5.145  1.00  0.00    -0.207 OA
BRANCH  84  87
ATOM     87  C   UNL     1       3.454  -6.526   6.238  1.00  0.00     0.121 A 
ATOM     88  C   UNL     1       4.152  -5.532   6.949  1.00  0.00     0.028 A 
ATOM     89  C   UNL     1       3.750  -7.867   6.453  1.00  0.00     0.181 A 
ATOM     90  C   UNL     1       5.149  -5.892   7.860  1.00  0.00     0.044 A 
ATOM     91  C   UNL     1       4.736  -8.220   7.372  1.00  0.00     0.195 A 
ATOM     92  F   UNL     1       3.113  -8.841   5.790  1.00  0.00    -0.202 F 
ATOM     93  C   UNL     1       5.428  -7.238   8.071  1.00  0.00     0.161 A 
ATOM     94  F   UNL     1       5.012  -9.513   7.595  1.00  0.00    -0.200 F 
ATOM     95  F   UNL     1       6.369  -7.578   8.963  1.00  0.00    -0.204 F 
ENDBRANCH  84  87
ENDBRANCH  82  84
ENDBRANCH  81  82
ENDBRANCH  75  77
ENDBRANCH  74  75
ENDBRANCH  73  74
ENDBRANCH   1  73
TORSDOF 17
