REMARK SMILES COC(=O)c1c(NC(=O)[C@@H]2C[C@@H]2C(=O)OCCOCCOC(=O)c2ccc(-c3c4nc(c(-c5c(F)c(F)c(F)c(F)c5F)c5ccc([nH]5)c(-c5c(F)c(F)c(F)c(F)c5F)c5nc(c(-c6c(F)c(F)c(F)c(F)c6F)c6ccc3[nH]6)C=C5)C=C4)cc2)sc2c1CC[N@@H+](Cc1ccccc1)C2
REMARK SMILES IDX 17 1 16 2 15 3 13 4 14 5 12 6 10 7 11 8 8 9 7 10 9 12 6 13
REMARK SMILES IDX 5 14 89 15 87 16 88 17 90 18 100 19 91 20 92 21 3 23 4 24
REMARK SMILES IDX 2 25 1 26 93 27 94 28 95 29 99 30 96 31 98 32 97 33 18 34
REMARK SMILES IDX 19 35 20 36 21 37 22 38 23 39 24 40 25 41 86 42 26 43 85 44
REMARK SMILES IDX 27 45 28 46 29 47 79 48 30 49 84 50 78 51 80 52 31 53 83 54
REMARK SMILES IDX 77 55 76 56 32 58 64 59 44 60 63 61 45 62 48 63 62 64 81 65
REMARK SMILES IDX 46 66 47 67 61 69 82 70 49 71 33 72 34 73 42 74 35 75 36 76
REMARK SMILES IDX 40 77 43 78 37 79 38 80 41 81 39 82 65 83 66 84 74 85 67 86
REMARK SMILES IDX 68 87 72 88 75 89 69 90 70 91 73 92 71 93 50 94 51 95 59 96
REMARK SMILES IDX 52 97 53 98 57 99 60 100 54 101 55 102 58 103 56 104
REMARK H PARENT 7 11 92 22 80 57 48 68
REMARK Flexibility Score: inf
ROOT
ATOM      1  C   UNL     1      -4.748  -3.971  -1.035  1.00  0.00     0.202 C 
ENDROOT
BRANCH   1   2
ATOM      2  C   UNL     1      -3.264  -3.891  -1.407  1.00  0.00     0.261 C 
BRANCH   2   3
ATOM      3  O   UNL     1      -2.464  -2.992  -0.615  1.00  0.00    -0.463 OA
BRANCH   3   4
ATOM      4  C   UNL     1      -2.065  -1.889  -1.307  1.00  0.00     0.309 C 
ATOM      5  O   UNL     1      -2.401  -1.603  -2.448  1.00  0.00    -0.252 OA
BRANCH   4   6
ATOM      6  C   UNL     1      -1.051  -1.054  -0.618  1.00  0.00     0.112 C 
ATOM      7  C   UNL     1      -1.123  -0.188   0.621  1.00  0.00     0.094 C 
ATOM      8  C   UNL     1      -1.356   0.431  -0.725  1.00  0.00     0.030 C 
BRANCH   7   9
ATOM      9  C   UNL     1      -2.180  -0.249   1.633  1.00  0.00     0.229 C 
ATOM     10  N   UNL     1      -1.980  -0.849   2.844  1.00  0.00    -0.317 N 
ATOM     11  H   UNL     1      -2.755  -0.755   3.443  1.00  0.00     0.170 HD
ATOM     12  O   UNL     1      -3.242   0.339   1.434  1.00  0.00    -0.274 OA
BRANCH  10  13
ATOM     13  C   UNL     1      -0.950  -1.555   3.424  1.00  0.00     0.110 A 
ATOM     14  C   UNL     1       0.316  -2.040   3.141  1.00  0.00     0.098 A 
ATOM     15  C   UNL     1       0.870  -2.738   4.288  1.00  0.00    -0.006 A 
ATOM     16  S   UNL     1      -1.430  -1.926   5.037  1.00  0.00    -0.116 S 
ATOM     17  C   UNL     1       0.033  -2.693   5.381  1.00  0.00     0.065 A 
ATOM     18  C   UNL     1       2.257  -3.309   4.416  1.00  0.00     0.099 C 
ATOM     19  C   UNL     1       0.405  -3.162   6.755  1.00  0.00     0.310 C 
ATOM     20  C   UNL     1       2.604  -3.735   5.869  1.00  0.00     0.267 C 
ATOM     21  N   UNL     1       1.860  -3.097   6.970  1.00  0.00    -0.326 N 
ATOM     22  H   UNL     1       2.054  -3.671   7.791  1.00  0.00     0.348 HD
BRANCH  14  23
ATOM     23  C   UNL     1       1.082  -1.882   1.913  1.00  0.00     0.341 C 
ATOM     24  O   UNL     1       1.236  -2.769   1.105  1.00  0.00    -0.246 OA
BRANCH  23  25
ATOM     25  O   UNL     1       1.658  -0.643   1.846  1.00  0.00    -0.465 OA
ATOM     26  C   UNL     1       2.391  -0.338   0.655  1.00  0.00     0.282 C 
ENDBRANCH  23  25
ENDBRANCH  14  23
BRANCH  21  27
ATOM     27  C   UNL     1       2.366  -1.787   7.417  1.00  0.00     0.299 C 
BRANCH  27  28
ATOM     28  C   UNL     1       2.379  -0.648   6.418  1.00  0.00     0.006 A 
ATOM     29  C   UNL     1       3.521  -0.385   5.647  1.00  0.00     0.009 A 
ATOM     30  C   UNL     1       1.239   0.142   6.212  1.00  0.00     0.009 A 
ATOM     31  C   UNL     1       3.492   0.583   4.640  1.00  0.00     0.001 A 
ATOM     32  C   UNL     1       1.201   1.091   5.189  1.00  0.00     0.001 A 
ATOM     33  C   UNL     1       2.325   1.304   4.396  1.00  0.00     0.000 A 
ENDBRANCH  27  28
ENDBRANCH  21  27
ENDBRANCH  10  13
ENDBRANCH   7   9
ENDBRANCH   4   6
ENDBRANCH   3   4
ENDBRANCH   2   3
ENDBRANCH   1   2
BRANCH   1  34
ATOM     34  O   UNL     1      -5.506  -2.773  -0.921  1.00  0.00    -0.374 OA
BRANCH  34  35
ATOM     35  C   UNL     1      -5.139  -1.811   0.060  1.00  0.00     0.202 C 
BRANCH  35  36
ATOM     36  C   UNL     1      -5.234  -2.208   1.525  1.00  0.00     0.261 C 
BRANCH  36  37
ATOM     37  O   UNL     1      -4.525  -3.395   1.850  1.00  0.00    -0.460 OA
BRANCH  37  38
ATOM     38  C   UNL     1      -5.350  -4.430   2.135  1.00  0.00     0.338 C 
ATOM     39  O   UNL     1      -6.461  -4.637   1.679  1.00  0.00    -0.246 OA
BRANCH  38  40
ATOM     40  C   UNL     1      -4.810  -5.138   3.298  1.00  0.00     0.060 A 
ATOM     41  C   UNL     1      -5.651  -6.076   3.898  1.00  0.00     0.016 A 
ATOM     42  C   UNL     1      -3.631  -4.699   3.914  1.00  0.00     0.016 A 
ATOM     43  C   UNL     1      -5.380  -6.472   5.188  1.00  0.00     0.010 A 
ATOM     44  C   UNL     1      -3.378  -5.070   5.214  1.00  0.00     0.010 A 
ATOM     45  C   UNL     1      -4.278  -5.920   5.848  1.00  0.00    -0.014 A 
BRANCH  45  46
ATOM     46  C   UNL     1      -3.962  -6.440   7.160  1.00  0.00     0.031 A 
ATOM     47  C   UNL     1      -3.347  -7.782   7.090  1.00  0.00     0.074 A 
ATOM     48  C   UNL     1      -4.115  -5.731   8.292  1.00  0.00     0.049 A 
ATOM     49  N   UNL     1      -3.824  -8.890   7.545  1.00  0.00    -0.248 NA
ATOM     50  C   UNL     1      -2.134  -7.940   6.268  1.00  0.00     0.031 C 
ATOM     51  C   UNL     1      -4.399  -4.299   8.398  1.00  0.00     0.029 A 
ATOM     52  N   UNL     1      -3.937  -6.119   9.587  1.00  0.00    -0.354 N 
ATOM     53  C   UNL     1      -2.867  -9.855   7.243  1.00  0.00     0.074 A 
ATOM     54  C   UNL     1      -1.971  -9.262   6.294  1.00  0.00     0.031 C 
ATOM     55  C   UNL     1      -4.162  -3.898   9.666  1.00  0.00     0.029 A 
ATOM     56  C   UNL     1      -3.828  -5.061  10.476  1.00  0.00     0.049 A 
ATOM     57  H   UNL     1      -3.890  -7.062   9.865  1.00  0.00     0.167 HD
ATOM     58  C   UNL     1      -2.716 -10.929   8.062  1.00  0.00     0.037 A 
ATOM     59  C   UNL     1      -3.417  -5.132  11.765  1.00  0.00     0.037 A 
ATOM     60  C   UNL     1      -3.898 -11.112   8.869  1.00  0.00     0.049 A 
ATOM     61  C   UNL     1      -3.572  -6.533  12.226  1.00  0.00     0.074 A 
ATOM     62  C   UNL     1      -5.169 -11.610   8.693  1.00  0.00     0.029 A 
ATOM     63  N   UNL     1      -3.905 -10.373  10.020  1.00  0.00    -0.354 N 
ATOM     64  N   UNL     1      -4.724  -7.115  12.416  1.00  0.00    -0.248 NA
ATOM     65  C   UNL     1      -2.421  -7.432  12.194  1.00  0.00     0.031 C 
ATOM     66  C   UNL     1      -5.971 -11.043   9.729  1.00  0.00     0.029 A 
ATOM     67  C   UNL     1      -5.169 -10.223  10.519  1.00  0.00     0.049 A 
ATOM     68  H   UNL     1      -3.098  -9.995  10.439  1.00  0.00     0.167 HD
ATOM     69  C   UNL     1      -4.495  -8.439  12.100  1.00  0.00     0.074 A 
ATOM     70  C   UNL     1      -3.051  -8.608  12.162  1.00  0.00     0.031 C 
ATOM     71  C   UNL     1      -5.455  -9.184  11.483  1.00  0.00     0.037 A 
BRANCH  58  72
ATOM     72  C   UNL     1      -1.364 -11.431   8.556  1.00  0.00     0.064 A 
ATOM     73  C   UNL     1      -1.361 -12.458   9.527  1.00  0.00     0.173 A 
ATOM     74  C   UNL     1      -0.137 -10.747   8.409  1.00  0.00     0.173 A 
ATOM     75  F   UNL     1      -2.455 -13.205   9.738  1.00  0.00    -0.203 F 
ATOM     76  C   UNL     1      -0.273 -12.675  10.375  1.00  0.00     0.198 A 
ATOM     77  C   UNL     1       0.961 -10.993   9.234  1.00  0.00     0.198 A 
ATOM     78  F   UNL     1       0.044  -9.751   7.538  1.00  0.00    -0.203 F 
ATOM     79  F   UNL     1      -0.375 -13.562  11.374  1.00  0.00    -0.200 F 
ATOM     80  C   UNL     1       0.880 -11.926  10.243  1.00  0.00     0.200 A 
ATOM     81  F   UNL     1       2.069 -10.252   9.090  1.00  0.00    -0.200 F 
ATOM     82  F   UNL     1       1.894 -12.073  11.104  1.00  0.00    -0.200 F 
ENDBRANCH  58  72
BRANCH  59  83
ATOM     83  C   UNL     1      -2.699  -4.113  12.566  1.00  0.00     0.064 A 
ATOM     84  C   UNL     1      -2.632  -4.213  13.965  1.00  0.00     0.173 A 
ATOM     85  C   UNL     1      -1.845  -3.169  11.964  1.00  0.00     0.173 A 
ATOM     86  F   UNL     1      -3.382  -5.115  14.615  1.00  0.00    -0.203 F 
ATOM     87  C   UNL     1      -1.741  -3.439  14.714  1.00  0.00     0.198 A 
ATOM     88  C   UNL     1      -0.967  -2.386  12.714  1.00  0.00     0.198 A 
ATOM     89  F   UNL     1      -1.773  -3.051  10.630  1.00  0.00    -0.203 F 
ATOM     90  F   UNL     1      -1.655  -3.615  16.040  1.00  0.00    -0.200 F 
ATOM     91  C   UNL     1      -0.903  -2.533  14.087  1.00  0.00     0.200 A 
ATOM     92  F   UNL     1      -0.140  -1.534  12.091  1.00  0.00    -0.200 F 
ATOM     93  F   UNL     1      -0.006  -1.835  14.797  1.00  0.00    -0.200 F 
ENDBRANCH  59  83
BRANCH  71  94
ATOM     94  C   UNL     1      -6.878  -8.783  11.697  1.00  0.00     0.064 A 
ATOM     95  C   UNL     1      -7.439  -7.573  11.259  1.00  0.00     0.173 A 
ATOM     96  C   UNL     1      -7.725  -9.702  12.334  1.00  0.00     0.173 A 
ATOM     97  F   UNL     1      -6.710  -6.683  10.571  1.00  0.00    -0.203 F 
ATOM     98  C   UNL     1      -8.781  -7.282  11.497  1.00  0.00     0.198 A 
ATOM     99  C   UNL     1      -9.072  -9.425  12.532  1.00  0.00     0.198 A 
ATOM    100  F   UNL     1      -7.246 -10.889  12.738  1.00  0.00    -0.203 F 
ATOM    101  F   UNL     1      -9.293  -6.107  11.099  1.00  0.00    -0.200 F 
ATOM    102  C   UNL     1      -9.597  -8.210  12.126  1.00  0.00     0.200 A 
ATOM    103  F   UNL     1      -9.864 -10.344  13.102  1.00  0.00    -0.200 F 
ATOM    104  F   UNL     1     -10.894  -7.941  12.327  1.00  0.00    -0.200 F 
ENDBRANCH  71  94
ENDBRANCH  45  46
ENDBRANCH  38  40
ENDBRANCH  37  38
ENDBRANCH  36  37
ENDBRANCH  35  36
ENDBRANCH  34  35
ENDBRANCH   1  34
TORSDOF 20
