REMARK SMILES O=C(Cc1c(F)cc(Cl)cc1F)OCCOCCOC(=O)c1ccc(-c2c3nc(c(-c4c(F)c(F)c(F)c(F)c4F)c4ccc([nH]4)c(-c4c(F)c(F)c(F)c(F)c4F)c4nc(c(-c5c(F)c(F)c(F)c(F)c5F)c5ccc2[nH]5)C=C4)C=C3)cc1
REMARK SMILES IDX 17 1 16 2 15 3 14 4 13 5 2 6 1 7 3 8 4 9 5 10 11 11 6 12
REMARK SMILES IDX 7 13 10 14 12 15 8 16 9 17 18 18 19 19 20 20 21 21 22 22
REMARK SMILES IDX 23 23 84 24 24 25 83 26 25 27 26 28 27 29 77 30 28 31 82 32
REMARK SMILES IDX 76 33 78 34 29 35 81 36 75 37 74 38 30 40 62 41 42 42 61 43
REMARK SMILES IDX 43 44 46 45 60 46 79 47 44 48 45 49 59 51 80 52 47 53 31 54
REMARK SMILES IDX 32 55 40 56 33 57 34 58 38 59 41 60 35 61 36 62 39 63 37 64
REMARK SMILES IDX 63 65 64 66 72 67 65 68 66 69 70 70 73 71 67 72 68 73 71 74
REMARK SMILES IDX 69 75 48 76 49 77 57 78 50 79 51 80 55 81 58 82 52 83 53 84
REMARK SMILES IDX 56 85 54 86
REMARK H PARENT 78 39 46 50
REMARK Flexibility Score: inf
ROOT
ATOM      1  C   UNL     1       2.865   2.286   0.628  1.00  0.00     0.202 C 
ENDROOT
BRANCH   1   2
ATOM      2  O   UNL     1       4.109   1.575   0.682  1.00  0.00    -0.374 OA
BRANCH   2   3
ATOM      3  C   UNL     1       4.551   1.042  -0.562  1.00  0.00     0.202 C 
BRANCH   3   4
ATOM      4  C   UNL     1       4.175  -0.410  -0.825  1.00  0.00     0.261 C 
BRANCH   4   5
ATOM      5  O   UNL     1       2.771  -0.674  -0.674  1.00  0.00    -0.463 OA
BRANCH   5   6
ATOM      6  C   UNL     1       2.121  -0.903   0.490  1.00  0.00     0.310 C 
ATOM      7  O   UNL     1       0.890  -0.884   0.494  1.00  0.00    -0.252 OA
BRANCH   6   8
ATOM      8  C   UNL     1       2.884  -1.115   1.782  1.00  0.00     0.164 C 
BRANCH   8   9
ATOM      9  C   UNL     1       3.906  -2.214   1.767  1.00  0.00     0.035 A 
ATOM     10  C   UNL     1       5.260  -1.943   1.983  1.00  0.00     0.131 A 
ATOM     11  C   UNL     1       3.539  -3.526   1.474  1.00  0.00     0.131 A 
ATOM     12  F   UNL     1       5.656  -0.689   2.241  1.00  0.00    -0.207 F 
ATOM     13  C   UNL     1       6.231  -2.926   1.830  1.00  0.00     0.060 A 
ATOM     14  C   UNL     1       4.490  -4.530   1.340  1.00  0.00     0.060 A 
ATOM     15  F   UNL     1       2.248  -3.826   1.285  1.00  0.00    -0.207 F 
ATOM     16  C   UNL     1       5.838  -4.219   1.500  1.00  0.00     0.046 A 
ATOM     17  Cl  UNL     1       7.029  -5.434   1.261  1.00  0.00    -0.084 Cl
ENDBRANCH   8   9
ENDBRANCH   6   8
ENDBRANCH   5   6
ENDBRANCH   4   5
ENDBRANCH   3   4
ENDBRANCH   2   3
ENDBRANCH   1   2
BRANCH   1  18
ATOM     18  C   UNL     1       2.986   3.759   0.217  1.00  0.00     0.261 C 
BRANCH  18  19
ATOM     19  O   UNL     1       3.379   3.880  -1.160  1.00  0.00    -0.460 OA
BRANCH  19  20
ATOM     20  C   UNL     1       4.696   4.122  -1.365  1.00  0.00     0.338 C 
ATOM     21  O   UNL     1       5.540   4.401  -0.530  1.00  0.00    -0.246 OA
BRANCH  20  22
ATOM     22  C   UNL     1       5.029   3.767  -2.760  1.00  0.00     0.060 A 
ATOM     23  C   UNL     1       6.200   3.027  -2.981  1.00  0.00     0.016 A 
ATOM     24  C   UNL     1       4.208   4.132  -3.830  1.00  0.00     0.016 A 
ATOM     25  C   UNL     1       6.583   2.696  -4.277  1.00  0.00     0.010 A 
ATOM     26  C   UNL     1       4.599   3.812  -5.131  1.00  0.00     0.010 A 
ATOM     27  C   UNL     1       5.808   3.132  -5.359  1.00  0.00    -0.014 A 
BRANCH  27  28
ATOM     28  C   UNL     1       6.373   3.079  -6.725  1.00  0.00     0.031 A 
ATOM     29  C   UNL     1       7.024   4.321  -7.264  1.00  0.00     0.074 A 
ATOM     30  C   UNL     1       6.340   1.949  -7.450  1.00  0.00     0.049 A 
ATOM     31  N   UNL     1       7.545   4.544  -8.442  1.00  0.00    -0.248 NA
ATOM     32  C   UNL     1       7.095   5.472  -6.347  1.00  0.00     0.031 C 
ATOM     33  C   UNL     1       5.787   0.673  -7.002  1.00  0.00     0.029 A 
ATOM     34  N   UNL     1       6.786   1.697  -8.723  1.00  0.00    -0.354 N 
ATOM     35  C   UNL     1       8.007   5.853  -8.404  1.00  0.00     0.074 A 
ATOM     36  C   UNL     1       7.667   6.392  -7.107  1.00  0.00     0.031 C 
ATOM     37  C   UNL     1       5.927  -0.231  -7.988  1.00  0.00     0.029 A 
ATOM     38  C   UNL     1       6.546   0.413  -9.146  1.00  0.00     0.049 A 
ATOM     39  H   UNL     1       7.236   2.373  -9.280  1.00  0.00     0.167 HD
ATOM     40  C   UNL     1       8.673   6.536  -9.362  1.00  0.00     0.037 A 
ATOM     41  C   UNL     1       6.787  -0.163 -10.340  1.00  0.00     0.037 A 
ATOM     42  C   UNL     1       9.003   5.992 -10.651  1.00  0.00     0.049 A 
ATOM     43  C   UNL     1       7.436   0.654 -11.429  1.00  0.00     0.074 A 
ATOM     44  C   UNL     1       9.665   6.603 -11.700  1.00  0.00     0.029 A 
ATOM     45  N   UNL     1       8.691   4.705 -11.065  1.00  0.00    -0.354 N 
ATOM     46  N   UNL     1       7.872   1.891 -11.389  1.00  0.00    -0.248 NA
ATOM     47  C   UNL     1       7.623  -0.003 -12.730  1.00  0.00     0.031 C 
ATOM     48  C   UNL     1       9.710   5.702 -12.768  1.00  0.00     0.029 A 
ATOM     49  C   UNL     1       9.127   4.510 -12.364  1.00  0.00     0.049 A 
ATOM     50  H   UNL     1       8.228   4.031 -10.517  1.00  0.00     0.167 HD
ATOM     51  C   UNL     1       8.409   2.149 -12.644  1.00  0.00     0.074 A 
ATOM     52  C   UNL     1       8.257   0.936 -13.419  1.00  0.00     0.031 C 
ATOM     53  C   UNL     1       8.975   3.289 -13.114  1.00  0.00     0.037 A 
BRANCH  40  54
ATOM     54  C   UNL     1       9.083   7.947  -9.057  1.00  0.00     0.064 A 
ATOM     55  C   UNL     1      10.108   8.229  -8.142  1.00  0.00     0.173 A 
ATOM     56  C   UNL     1       8.484   9.024  -9.726  1.00  0.00     0.173 A 
ATOM     57  F   UNL     1      10.700   7.235  -7.462  1.00  0.00    -0.203 F 
ATOM     58  C   UNL     1      10.510   9.540  -7.899  1.00  0.00     0.198 A 
ATOM     59  C   UNL     1       8.909  10.331  -9.503  1.00  0.00     0.198 A 
ATOM     60  F   UNL     1       7.498   8.809 -10.609  1.00  0.00    -0.203 F 
ATOM     61  F   UNL     1      11.467   9.789  -6.994  1.00  0.00    -0.200 F 
ATOM     62  C   UNL     1       9.919  10.588  -8.588  1.00  0.00     0.200 A 
ATOM     63  F   UNL     1       8.345  11.342 -10.178  1.00  0.00    -0.200 F 
ATOM     64  F   UNL     1      10.319  11.848  -8.367  1.00  0.00    -0.200 F 
ENDBRANCH  40  54
BRANCH  41  65
ATOM     65  C   UNL     1       6.425  -1.587 -10.565  1.00  0.00     0.064 A 
ATOM     66  C   UNL     1       7.417  -2.560 -10.747  1.00  0.00     0.173 A 
ATOM     67  C   UNL     1       5.087  -2.007 -10.598  1.00  0.00     0.173 A 
ATOM     68  F   UNL     1       8.710  -2.205 -10.748  1.00  0.00    -0.203 F 
ATOM     69  C   UNL     1       7.085  -3.897 -10.962  1.00  0.00     0.198 A 
ATOM     70  C   UNL     1       4.757  -3.349 -10.786  1.00  0.00     0.198 A 
ATOM     71  F   UNL     1       4.098  -1.117 -10.434  1.00  0.00    -0.203 F 
ATOM     72  F   UNL     1       8.054  -4.799 -11.171  1.00  0.00    -0.200 F 
ATOM     73  C   UNL     1       5.756  -4.291 -10.973  1.00  0.00     0.200 A 
ATOM     74  F   UNL     1       3.472  -3.727 -10.782  1.00  0.00    -0.200 F 
ATOM     75  F   UNL     1       5.439  -5.578 -11.169  1.00  0.00    -0.200 F 
ENDBRANCH  41  65
BRANCH  53  76
ATOM     76  C   UNL     1       9.499   3.280 -14.521  1.00  0.00     0.064 A 
ATOM     77  C   UNL     1       8.634   3.281 -15.625  1.00  0.00     0.173 A 
ATOM     78  C   UNL     1      10.879   3.362 -14.766  1.00  0.00     0.173 A 
ATOM     79  F   UNL     1       7.308   3.194 -15.444  1.00  0.00    -0.203 F 
ATOM     80  C   UNL     1       9.133   3.349 -16.923  1.00  0.00     0.198 A 
ATOM     81  C   UNL     1      11.372   3.463 -16.063  1.00  0.00     0.198 A 
ATOM     82  F   UNL     1      11.748   3.377 -13.743  1.00  0.00    -0.203 F 
ATOM     83  F   UNL     1       8.290   3.313 -17.964  1.00  0.00    -0.200 F 
ATOM     84  C   UNL     1      10.499   3.452 -17.140  1.00  0.00     0.200 A 
ATOM     85  F   UNL     1      12.690   3.583 -16.270  1.00  0.00    -0.200 F 
ATOM     86  F   UNL     1      10.975   3.539 -18.390  1.00  0.00    -0.200 F 
ENDBRANCH  53  76
ENDBRANCH  27  28
ENDBRANCH  20  22
ENDBRANCH  19  20
ENDBRANCH  18  19
ENDBRANCH   1  18
TORSDOF 15
