REMARK SMILES CCN(CC)c1ccc([C@@H]2c3[nH]c4ccccc4c3C[C@@H](C(=O)OCCOCCOC(=O)c3ccc(-c4c5nc(c(-c6c(F)c(F)c(F)c(F)c6F)c6ccc([nH]6)c(-c6c(F)c(F)c(F)c(F)c6F)c6nc(c(-c7c(F)c(F)c(F)c(F)c7F)c7ccc4[nH]7)C=C6)C=C5)cc3)N2C(C)=O)cc1
REMARK SMILES IDX 26 1 25 2 24 3 22 4 23 5 21 6 10 7 11 8 96 9 12 10 19 11
REMARK SMILES IDX 13 12 18 14 20 15 14 16 17 17 15 18 16 19 9 20 6 21 7 22
REMARK SMILES IDX 101 23 8 24 100 25 3 26 2 27 1 28 4 29 5 30 97 31 98 32
REMARK SMILES IDX 99 33 27 34 28 35 29 36 30 37 31 38 32 39 33 40 34 41 95 42
REMARK SMILES IDX 35 43 94 44 36 45 37 46 38 47 88 48 39 49 93 50 87 51 89 52
REMARK SMILES IDX 40 53 92 54 86 55 85 56 41 58 73 59 53 60 72 61 54 62 57 63
REMARK SMILES IDX 71 64 90 65 55 66 56 67 70 69 91 70 58 71 42 72 43 73 51 74
REMARK SMILES IDX 44 75 45 76 49 77 52 78 46 79 47 80 50 81 48 82 74 83 75 84
REMARK SMILES IDX 83 85 76 86 77 87 81 88 84 89 78 90 79 91 82 92 80 93 59 94
REMARK SMILES IDX 60 95 68 96 61 97 62 98 66 99 69 100 63 101 64 102 67 103
REMARK SMILES IDX 65 104
REMARK H PARENT 12 13 89 57 57 68
REMARK Flexibility Score: inf
ROOT
ATOM      1  C   UNL     1       6.963  -2.795  -4.216  1.00  0.00     0.202 C 
ENDROOT
BRANCH   1   2
ATOM      2  C   UNL     1       8.387  -2.616  -3.637  1.00  0.00     0.261 C 
BRANCH   2   3
ATOM      3  O   UNL     1       8.543  -3.170  -2.300  1.00  0.00    -0.462 OA
BRANCH   3   4
ATOM      4  C   UNL     1       8.713  -2.464  -1.132  1.00  0.00     0.329 C 
ATOM      5  O   UNL     1       8.697  -1.243  -1.072  1.00  0.00    -0.250 OA
BRANCH   4   6
ATOM      6  C   UNL     1       8.686  -3.456   0.154  1.00  0.00     0.200 C 
ATOM      7  C   UNL     1       6.297  -3.692  -0.220  1.00  0.00     0.163 C 
ATOM      8  C   UNL     1       6.678  -4.941  -0.998  1.00  0.00     0.047 A 
ATOM      9  N   UNL     1       7.317  -3.648   0.811  1.00  0.00    -0.316 N 
ATOM     10  N   UNL     1       5.840  -5.854  -1.559  1.00  0.00    -0.356 N 
ATOM     11  C   UNL     1       7.954  -5.526  -0.980  1.00  0.00    -0.014 A 
ATOM     12  C   UNL     1       6.384  -7.098  -1.314  1.00  0.00     0.046 A 
ATOM     13  H   UNL     1       5.006  -5.664  -2.046  1.00  0.00     0.166 HD
ATOM     14  C   UNL     1       7.748  -6.916  -1.091  1.00  0.00     0.003 A 
ATOM     15  C   UNL     1       9.153  -4.838  -0.366  1.00  0.00     0.075 C 
ATOM     16  C   UNL     1       5.758  -8.329  -1.136  1.00  0.00     0.026 A 
ATOM     17  C   UNL     1       8.556  -8.011  -0.749  1.00  0.00     0.010 A 
ATOM     18  C   UNL     1       6.553  -9.373  -0.654  1.00  0.00     0.002 A 
ATOM     19  C   UNL     1       7.929  -9.225  -0.480  1.00  0.00     0.001 A 
BRANCH   7  20
ATOM     20  C   UNL     1       4.899  -3.370   0.267  1.00  0.00    -0.019 A 
ATOM     21  C   UNL     1       2.199  -2.582   0.713  1.00  0.00     0.037 A 
ATOM     22  C   UNL     1       2.571  -3.921   0.587  1.00  0.00     0.026 A 
ATOM     23  C   UNL     1       3.244  -1.659   0.812  1.00  0.00     0.026 A 
ATOM     24  C   UNL     1       3.891  -4.314   0.382  1.00  0.00     0.008 A 
ATOM     25  C   UNL     1       4.576  -2.041   0.599  1.00  0.00     0.008 A 
BRANCH  21  26
ATOM     26  N   UNL     1       0.873  -2.172   0.668  1.00  0.00    -0.372 N 
BRANCH  26  27
ATOM     27  C   UNL     1       0.474  -1.272  -0.429  1.00  0.00     0.113 C 
ATOM     28  C   UNL     1       0.639   0.200  -0.078  1.00  0.00     0.027 C 
ENDBRANCH  26  27
BRANCH  26  29
ATOM     29  C   UNL     1      -0.194  -2.905   1.363  1.00  0.00     0.113 C 
ATOM     30  C   UNL     1      -0.568  -4.234   0.715  1.00  0.00     0.027 C 
ENDBRANCH  26  29
ENDBRANCH  21  26
ENDBRANCH   7  20
BRANCH   9  31
ATOM     31  C   UNL     1       7.062  -4.614   1.821  1.00  0.00     0.221 C 
ATOM     32  C   UNL     1       7.822  -4.609   3.103  1.00  0.00     0.114 C 
ATOM     33  O   UNL     1       6.199  -5.496   1.720  1.00  0.00    -0.275 OA
ENDBRANCH   9  31
ENDBRANCH   4   6
ENDBRANCH   3   4
ENDBRANCH   2   3
ENDBRANCH   1   2
BRANCH   1  34
ATOM     34  O   UNL     1       6.192  -1.588  -4.226  1.00  0.00    -0.374 OA
BRANCH  34  35
ATOM     35  C   UNL     1       5.548  -1.289  -2.991  1.00  0.00     0.202 C 
BRANCH  35  36
ATOM     36  C   UNL     1       4.126  -1.852  -2.899  1.00  0.00     0.261 C 
BRANCH  36  37
ATOM     37  O   UNL     1       4.095  -3.288  -3.025  1.00  0.00    -0.460 OA
BRANCH  37  38
ATOM     38  C   UNL     1       3.221  -3.745  -3.946  1.00  0.00     0.338 C 
ATOM     39  O   UNL     1       2.434  -3.089  -4.624  1.00  0.00    -0.246 OA
BRANCH  38  40
ATOM     40  C   UNL     1       3.375  -5.191  -4.151  1.00  0.00     0.060 A 
ATOM     41  C   UNL     1       3.790  -5.623  -5.414  1.00  0.00     0.016 A 
ATOM     42  C   UNL     1       2.971  -6.115  -3.184  1.00  0.00     0.016 A 
ATOM     43  C   UNL     1       3.752  -6.980  -5.734  1.00  0.00     0.010 A 
ATOM     44  C   UNL     1       2.979  -7.480  -3.493  1.00  0.00     0.010 A 
ATOM     45  C   UNL     1       3.316  -7.918  -4.787  1.00  0.00    -0.014 A 
BRANCH  45  46
ATOM     46  C   UNL     1       3.031  -9.319  -5.204  1.00  0.00     0.031 A 
ATOM     47  C   UNL     1       1.596  -9.773  -5.296  1.00  0.00     0.074 A 
ATOM     48  C   UNL     1       4.021 -10.168  -5.536  1.00  0.00     0.049 A 
ATOM     49  N   UNL     1       1.109 -10.957  -5.572  1.00  0.00    -0.248 NA
ATOM     50  C   UNL     1       0.569  -8.752  -5.034  1.00  0.00     0.031 C 
ATOM     51  C   UNL     1       5.446  -9.847  -5.533  1.00  0.00     0.029 A 
ATOM     52  N   UNL     1       3.972 -11.482  -5.937  1.00  0.00    -0.354 N 
ATOM     53  C   UNL     1      -0.272 -10.826  -5.494  1.00  0.00     0.074 A 
ATOM     54  C   UNL     1      -0.547  -9.460  -5.109  1.00  0.00     0.031 C 
ATOM     55  C   UNL     1       6.138 -10.934  -5.915  1.00  0.00     0.029 A 
ATOM     56  C   UNL     1       5.210 -12.040  -6.142  1.00  0.00     0.049 A 
ATOM     57  H   UNL     1       3.130 -11.976  -6.065  1.00  0.00     0.167 HD
ATOM     58  C   UNL     1      -1.228 -11.756  -5.734  1.00  0.00     0.037 A 
ATOM     59  C   UNL     1       5.555 -13.307  -6.448  1.00  0.00     0.037 A 
ATOM     60  C   UNL     1      -0.956 -13.110  -6.136  1.00  0.00     0.049 A 
ATOM     61  C   UNL     1       4.477 -14.344  -6.641  1.00  0.00     0.074 A 
ATOM     62  C   UNL     1      -1.855 -14.123  -6.421  1.00  0.00     0.029 A 
ATOM     63  N   UNL     1       0.314 -13.643  -6.306  1.00  0.00    -0.354 N 
ATOM     64  N   UNL     1       3.174 -14.209  -6.576  1.00  0.00    -0.248 NA
ATOM     65  C   UNL     1       4.918 -15.713  -6.950  1.00  0.00     0.031 C 
ATOM     66  C   UNL     1      -1.131 -15.284  -6.704  1.00  0.00     0.029 A 
ATOM     67  C   UNL     1       0.220 -14.978  -6.667  1.00  0.00     0.049 A 
ATOM     68  H   UNL     1       1.156 -13.147  -6.189  1.00  0.00     0.167 HD
ATOM     69  C   UNL     1       2.643 -15.459  -6.874  1.00  0.00     0.074 A 
ATOM     70  C   UNL     1       3.763 -16.339  -7.126  1.00  0.00     0.031 C 
ATOM     71  C   UNL     1       1.343 -15.839  -6.938  1.00  0.00     0.037 A 
BRANCH  58  72
ATOM     72  C   UNL     1      -2.661 -11.349  -5.539  1.00  0.00     0.064 A 
ATOM     73  C   UNL     1      -3.300 -10.442  -6.399  1.00  0.00     0.173 A 
ATOM     74  C   UNL     1      -3.417 -11.902  -4.493  1.00  0.00     0.173 A 
ATOM     75  F   UNL     1      -2.621  -9.874  -7.406  1.00  0.00    -0.203 F 
ATOM     76  C   UNL     1      -4.631 -10.082  -6.200  1.00  0.00     0.198 A 
ATOM     77  C   UNL     1      -4.756 -11.567  -4.319  1.00  0.00     0.198 A 
ATOM     78  F   UNL     1      -2.858 -12.778  -3.644  1.00  0.00    -0.203 F 
ATOM     79  F   UNL     1      -5.205  -9.174  -7.002  1.00  0.00    -0.200 F 
ATOM     80  C   UNL     1      -5.360 -10.651  -5.166  1.00  0.00     0.200 A 
ATOM     81  F   UNL     1      -5.463 -12.130  -3.329  1.00  0.00    -0.200 F 
ATOM     82  F   UNL     1      -6.643 -10.310  -4.982  1.00  0.00    -0.200 F 
ENDBRANCH  58  72
BRANCH  59  83
ATOM     83  C   UNL     1       6.991 -13.678  -6.576  1.00  0.00     0.064 A 
ATOM     84  C   UNL     1       7.534 -14.067  -7.809  1.00  0.00     0.173 A 
ATOM     85  C   UNL     1       7.844 -13.678  -5.462  1.00  0.00     0.173 A 
ATOM     86  F   UNL     1       6.754 -14.113  -8.899  1.00  0.00    -0.203 F 
ATOM     87  C   UNL     1       8.866 -14.460  -7.918  1.00  0.00     0.198 A 
ATOM     88  C   UNL     1       9.184 -14.039  -5.579  1.00  0.00     0.198 A 
ATOM     89  F   UNL     1       7.375 -13.322  -4.257  1.00  0.00    -0.203 F 
ATOM     90  F   UNL     1       9.344 -14.880  -9.098  1.00  0.00    -0.200 F 
ATOM     91  C   UNL     1       9.692 -14.439  -6.805  1.00  0.00     0.200 A 
ATOM     92  F   UNL     1       9.981 -14.007  -4.502  1.00  0.00    -0.200 F 
ATOM     93  F   UNL     1      10.974 -14.816  -6.911  1.00  0.00    -0.200 F 
ENDBRANCH  59  83
BRANCH  71  94
ATOM     94  C   UNL     1       1.047 -17.252  -7.359  1.00  0.00     0.064 A 
ATOM     95  C   UNL     1       1.315 -18.348  -6.526  1.00  0.00     0.173 A 
ATOM     96  C   UNL     1       0.430 -17.503  -8.595  1.00  0.00     0.173 A 
ATOM     97  F   UNL     1       1.914 -18.166  -5.340  1.00  0.00    -0.203 F 
ATOM     98  C   UNL     1       0.997 -19.645  -6.926  1.00  0.00     0.198 A 
ATOM     99  C   UNL     1       0.083 -18.796  -8.976  1.00  0.00     0.198 A 
ATOM    100  F   UNL     1       0.143 -16.489  -9.426  1.00  0.00    -0.203 F 
ATOM    101  F   UNL     1       1.303 -20.681  -6.133  1.00  0.00    -0.200 F 
ATOM    102  C   UNL     1       0.373 -19.866  -8.144  1.00  0.00     0.200 A 
ATOM    103  F   UNL     1      -0.537 -19.005 -10.146  1.00  0.00    -0.200 F 
ATOM    104  F   UNL     1       0.055 -21.113  -8.520  1.00  0.00    -0.200 F 
ENDBRANCH  71  94
ENDBRANCH  45  46
ENDBRANCH  38  40
ENDBRANCH  37  38
ENDBRANCH  36  37
ENDBRANCH  35  36
ENDBRANCH  34  35
ENDBRANCH   1  34
TORSDOF 19
