REMARK SMILES Cc1c(Cl)ccc2c1C=C(C(=O)OCCOCCOC(=O)c1ccc(-c3c4nc(c(-c5c(F)c(F)c(F)c(F)c5F)c5ccc([nH]5)c(-c5c(F)c(F)c(F)c(F)c5F)c5nc(c(-c6c(F)c(F)c(F)c(F)c6F)c6ccc3[nH]6)C=C5)C=C4)cc1)[C@@H](C(F)(F)F)O2
REMARK SMILES IDX 17 1 16 2 15 3 14 4 13 5 11 6 12 7 10 8 1 9 2 10 3 11 8 12
REMARK SMILES IDX 4 13 5 14 7 15 9 16 6 17 90 18 85 19 86 20 87 21 88 22 89 23
REMARK SMILES IDX 18 24 19 25 20 26 21 27 22 28 23 29 84 30 24 31 83 32 25 33
REMARK SMILES IDX 26 34 27 35 77 36 28 37 82 38 76 39 78 40 29 41 81 42 75 43
REMARK SMILES IDX 74 44 30 46 62 47 42 48 61 49 43 50 46 51 60 52 79 53 44 54
REMARK SMILES IDX 45 55 59 57 80 58 47 59 31 60 32 61 40 62 33 63 34 64 38 65
REMARK SMILES IDX 41 66 35 67 36 68 39 69 37 70 63 71 64 72 72 73 65 74 66 75
REMARK SMILES IDX 70 76 73 77 67 78 68 79 71 80 69 81 48 82 49 83 57 84 50 85
REMARK SMILES IDX 51 86 55 87 58 88 52 89 53 90 56 91 54 92
REMARK H PARENT 78 45 46 56
REMARK Flexibility Score: inf
ROOT
ATOM      1  C   UNL     1       4.532   3.694  -1.880  1.00  0.00     0.202 C 
ENDROOT
BRANCH   1   2
ATOM      2  O   UNL     1       4.363   4.091  -3.243  1.00  0.00    -0.374 OA
BRANCH   2   3
ATOM      3  C   UNL     1       4.054   5.457  -3.501  1.00  0.00     0.202 C 
BRANCH   3   4
ATOM      4  C   UNL     1       2.591   5.867  -3.315  1.00  0.00     0.261 C 
BRANCH   4   5
ATOM      5  O   UNL     1       2.124   5.572  -1.989  1.00  0.00    -0.460 OA
BRANCH   5   6
ATOM      6  C   UNL     1       1.161   4.623  -1.932  1.00  0.00     0.338 C 
ATOM      7  O   UNL     1       0.575   4.115  -2.876  1.00  0.00    -0.246 OA
BRANCH   6   8
ATOM      8  C   UNL     1       0.980   4.174  -0.540  1.00  0.00     0.087 C 
ATOM      9  C   UNL     1       0.757  -0.065   0.107  1.00  0.00     0.047 C 
ATOM     10  C   UNL     1       0.456   0.933   1.200  1.00  0.00    -0.021 A 
ATOM     11  C   UNL     1       0.038   0.522   2.481  1.00  0.00     0.044 A 
ATOM     12  C   UNL     1       0.611   2.323   0.959  1.00  0.00     0.022 A 
ATOM     13  Cl  UNL     1      -0.236  -1.138   2.883  1.00  0.00    -0.084 Cl
ATOM     14  C   UNL     1      -0.189   1.456   3.495  1.00  0.00     0.024 A 
ATOM     15  C   UNL     1       0.418   3.245   1.998  1.00  0.00     0.128 A 
ATOM     16  C   UNL     1       0.910   2.848  -0.369  1.00  0.00     0.027 C 
ATOM     17  C   UNL     1       0.020   2.811   3.260  1.00  0.00     0.048 A 
ATOM     18  O   UNL     1       0.601   4.594   1.879  1.00  0.00    -0.475 OA
ATOM     19  C   UNL     1       0.858   5.172   0.572  1.00  0.00     0.316 C 
BRANCH  19  20
ATOM     20  C   UNL     1      -0.213   6.239   0.302  1.00  0.00     0.430 C 
ATOM     21  F   UNL     1      -0.319   7.100   1.344  1.00  0.00    -0.167 F 
ATOM     22  F   UNL     1       0.086   6.989  -0.785  1.00  0.00    -0.167 F 
ATOM     23  F   UNL     1      -1.434   5.697   0.098  1.00  0.00    -0.167 F 
ENDBRANCH  19  20
ENDBRANCH   6   8
ENDBRANCH   5   6
ENDBRANCH   4   5
ENDBRANCH   3   4
ENDBRANCH   2   3
ENDBRANCH   1   2
BRANCH   1  24
ATOM     24  C   UNL     1       5.797   4.192  -1.171  1.00  0.00     0.261 C 
BRANCH  24  25
ATOM     25  O   UNL     1       5.717   5.599  -0.869  1.00  0.00    -0.460 OA
BRANCH  25  26
ATOM     26  C   UNL     1       6.683   6.359  -1.432  1.00  0.00     0.338 C 
ATOM     27  O   UNL     1       7.635   5.983  -2.104  1.00  0.00    -0.246 OA
BRANCH  26  28
ATOM     28  C   UNL     1       6.358   7.784  -1.273  1.00  0.00     0.060 A 
ATOM     29  C   UNL     1       6.118   8.536  -2.430  1.00  0.00     0.016 A 
ATOM     30  C   UNL     1       6.427   8.399  -0.022  1.00  0.00     0.016 A 
ATOM     31  C   UNL     1       5.993   9.920  -2.346  1.00  0.00     0.010 A 
ATOM     32  C   UNL     1       6.322   9.791   0.058  1.00  0.00     0.010 A 
ATOM     33  C   UNL     1       6.147  10.557  -1.108  1.00  0.00    -0.014 A 
BRANCH  33  34
ATOM     34  C   UNL     1       6.320  12.027  -1.068  1.00  0.00     0.031 A 
ATOM     35  C   UNL     1       7.713  12.590  -1.129  1.00  0.00     0.074 A 
ATOM     36  C   UNL     1       5.257  12.847  -1.017  1.00  0.00     0.049 A 
ATOM     37  N   UNL     1       8.107  13.837  -1.096  1.00  0.00    -0.248 NA
ATOM     38  C   UNL     1       8.809  11.614  -1.250  1.00  0.00     0.031 C 
ATOM     39  C   UNL     1       3.861  12.418  -1.010  1.00  0.00     0.029 A 
ATOM     40  N   UNL     1       5.193  14.216  -0.961  1.00  0.00    -0.354 N 
ATOM     41  C   UNL     1       9.491  13.796  -1.206  1.00  0.00     0.074 A 
ATOM     42  C   UNL     1       9.873  12.402  -1.271  1.00  0.00     0.031 C 
ATOM     43  C   UNL     1       3.074  13.506  -0.946  1.00  0.00     0.029 A 
ATOM     44  C   UNL     1       3.912  14.702  -0.880  1.00  0.00     0.049 A 
ATOM     45  H   UNL     1       5.989  14.795  -0.978  1.00  0.00     0.167 HD
ATOM     46  C   UNL     1      10.362  14.830  -1.259  1.00  0.00     0.037 A 
ATOM     47  C   UNL     1       3.473  15.969  -0.750  1.00  0.00     0.037 A 
ATOM     48  C   UNL     1       9.981  16.214  -1.178  1.00  0.00     0.049 A 
ATOM     49  C   UNL     1       4.471  17.097  -0.703  1.00  0.00     0.074 A 
ATOM     50  C   UNL     1      10.791  17.335  -1.220  1.00  0.00     0.029 A 
ATOM     51  N   UNL     1       8.678  16.664  -1.028  1.00  0.00    -0.354 N 
ATOM     52  N   UNL     1       5.776  17.052  -0.818  1.00  0.00    -0.248 NA
ATOM     53  C   UNL     1       3.934  18.451  -0.503  1.00  0.00     0.031 C 
ATOM     54  C   UNL     1       9.982  18.463  -1.050  1.00  0.00     0.029 A 
ATOM     55  C   UNL     1       8.664  18.047  -0.948  1.00  0.00     0.049 A 
ATOM     56  H   UNL     1       7.882  16.087  -0.984  1.00  0.00     0.167 HD
ATOM     57  C   UNL     1       6.214  18.367  -0.727  1.00  0.00     0.074 A 
ATOM     58  C   UNL     1       5.034  19.190  -0.557  1.00  0.00     0.031 C 
ATOM     59  C   UNL     1       7.479  18.849  -0.780  1.00  0.00     0.037 A 
BRANCH  46  60
ATOM     60  C   UNL     1      11.818  14.504  -1.401  1.00  0.00     0.064 A 
ATOM     61  C   UNL     1      12.349  14.051  -2.618  1.00  0.00     0.173 A 
ATOM     62  C   UNL     1      12.699  14.694  -0.327  1.00  0.00     0.173 A 
ATOM     63  F   UNL     1      11.544  13.839  -3.669  1.00  0.00    -0.203 F 
ATOM     64  C   UNL     1      13.710  13.789  -2.749  1.00  0.00     0.198 A 
ATOM     65  C   UNL     1      14.063  14.453  -0.469  1.00  0.00     0.198 A 
ATOM     66  F   UNL     1      12.239  15.127   0.856  1.00  0.00    -0.203 F 
ATOM     67  F   UNL     1      14.193  13.327  -3.912  1.00  0.00    -0.200 F 
ATOM     68  C   UNL     1      14.567  13.998  -1.679  1.00  0.00     0.200 A 
ATOM     69  F   UNL     1      14.890  14.665   0.563  1.00  0.00    -0.200 F 
ATOM     70  F   UNL     1      15.878  13.756  -1.811  1.00  0.00    -0.200 F 
ENDBRANCH  46  60
BRANCH  47  71
ATOM     71  C   UNL     1       2.016  16.238  -0.655  1.00  0.00     0.064 A 
ATOM     72  C   UNL     1       1.330  16.868  -1.702  1.00  0.00     0.173 A 
ATOM     73  C   UNL     1       1.280  15.868   0.481  1.00  0.00     0.173 A 
ATOM     74  F   UNL     1       1.996  17.263  -2.796  1.00  0.00    -0.203 F 
ATOM     75  C   UNL     1      -0.037  17.124  -1.614  1.00  0.00     0.198 A 
ATOM     76  C   UNL     1      -0.091  16.104   0.558  1.00  0.00     0.198 A 
ATOM     77  F   UNL     1       1.893  15.268   1.512  1.00  0.00    -0.203 F 
ATOM     78  F   UNL     1      -0.664  17.757  -2.615  1.00  0.00    -0.200 F 
ATOM     79  C   UNL     1      -0.748  16.735  -0.487  1.00  0.00     0.200 A 
ATOM     80  F   UNL     1      -0.774  15.720   1.645  1.00  0.00    -0.200 F 
ATOM     81  F   UNL     1      -2.063  16.976  -0.406  1.00  0.00    -0.200 F 
ENDBRANCH  47  71
BRANCH  59  82
ATOM     82  C   UNL     1       7.665  20.334  -0.670  1.00  0.00     0.064 A 
ATOM     83  C   UNL     1       7.527  20.997   0.557  1.00  0.00     0.173 A 
ATOM     84  C   UNL     1       8.066  21.086  -1.785  1.00  0.00     0.173 A 
ATOM     85  F   UNL     1       7.134  20.323   1.649  1.00  0.00    -0.203 F 
ATOM     86  C   UNL     1       7.773  22.364   0.662  1.00  0.00     0.198 A 
ATOM     87  C   UNL     1       8.336  22.446  -1.671  1.00  0.00     0.198 A 
ATOM     88  F   UNL     1       8.220  20.495  -2.979  1.00  0.00    -0.203 F 
ATOM     89  F   UNL     1       7.608  22.984   1.839  1.00  0.00    -0.200 F 
ATOM     90  C   UNL     1       8.188  23.084  -0.449  1.00  0.00     0.200 A 
ATOM     91  F   UNL     1       8.751  23.138  -2.741  1.00  0.00    -0.200 F 
ATOM     92  F   UNL     1       8.442  24.396  -0.341  1.00  0.00    -0.200 F 
ENDBRANCH  59  82
ENDBRANCH  33  34
ENDBRANCH  26  28
ENDBRANCH  25  26
ENDBRANCH  24  25
ENDBRANCH   1  24
TORSDOF 15
