REMARK SMILES COC(=O)c1c(NC(=O)CCC(=O)OCCOCCOC(=O)c2ccc(-c3c4nc(c(-c5c(F)c(F)c(F)c(F)c5F)c5ccc([nH]5)c(-c5c(F)c(F)c(F)c(F)c5F)c5nc(c(-c6c(F)c(F)c(F)c(F)c6F)c6ccc3[nH]6)C=C5)C=C4)cc2)sc2c1CCCCCC2
REMARK SMILES IDX 15 1 14 2 12 3 13 4 11 5 10 6 8 7 7 8 9 10 6 11 5 12 88 13
REMARK SMILES IDX 86 14 87 15 3 16 4 17 2 18 1 19 89 20 90 21 91 22 94 24
REMARK SMILES IDX 93 25 92 26 16 28 17 29 18 30 19 31 20 32 21 33 22 34 23 35
REMARK SMILES IDX 24 36 85 37 25 38 84 39 26 40 27 41 28 42 78 43 29 44 83 45
REMARK SMILES IDX 77 46 79 47 30 48 82 49 76 50 75 51 31 53 63 54 43 55 62 56
REMARK SMILES IDX 44 57 47 58 61 59 80 60 45 61 46 62 60 64 81 65 48 66 32 67
REMARK SMILES IDX 33 68 41 69 34 70 35 71 39 72 42 73 36 74 37 75 40 76 38 77
REMARK SMILES IDX 64 78 65 79 73 80 66 81 67 82 71 83 74 84 68 85 69 86 72 87
REMARK SMILES IDX 70 88 49 89 50 90 58 91 51 92 52 93 56 94 59 95 53 96 54 97
REMARK SMILES IDX 57 98 55 99
REMARK H PARENT 7 9 79 52 47 63
REMARK Flexibility Score: 100.00
ROOT
ATOM      1  C   UNL     1       0.444   0.589  -5.095  1.00  0.00     0.261 C 
ENDROOT
BRANCH   1   2
ATOM      2  O   UNL     1      -0.410  -0.281  -4.334  1.00  0.00    -0.463 OA
BRANCH   2   3
ATOM      3  C   UNL     1       0.211  -1.001  -3.374  1.00  0.00     0.306 C 
ATOM      4  O   UNL     1       1.423  -1.155  -3.296  1.00  0.00    -0.252 OA
BRANCH   3   5
ATOM      5  C   UNL     1      -0.756  -1.566  -2.372  1.00  0.00     0.132 C 
BRANCH   5   6
ATOM      6  C   UNL     1      -1.668  -0.600  -1.629  1.00  0.00     0.112 C 
BRANCH   6   7
ATOM      7  C   UNL     1      -2.633   0.200  -2.445  1.00  0.00     0.225 C 
ATOM      8  N   UNL     1      -2.308   1.377  -3.029  1.00  0.00    -0.317 N 
ATOM      9  H   UNL     1      -3.092   1.895  -3.324  1.00  0.00     0.170 HD
ATOM     10  O   UNL     1      -3.801  -0.194  -2.552  1.00  0.00    -0.275 OA
BRANCH   8  11
ATOM     11  C   UNL     1      -1.108   2.006  -3.299  1.00  0.00     0.110 A 
ATOM     12  C   UNL     1       0.666   1.989  -3.046  1.00  0.00     0.098 A 
ATOM     13  C   UNL     1       1.573   3.266  -4.213  1.00  0.00    -0.017 A 
ATOM     14  S   UNL     1      -1.738   3.675  -4.790  1.00  0.00    -0.122 S 
ATOM     15  C   UNL     1       0.451   4.270  -5.142  1.00  0.00     0.011 A 
BRANCH  12  16
ATOM     16  C   UNL     1       1.460   1.413  -1.943  1.00  0.00     0.341 C 
ATOM     17  O   UNL     1       2.673   1.553  -1.869  1.00  0.00    -0.246 OA
BRANCH  16  18
ATOM     18  O   UNL     1       0.725   0.846  -0.964  1.00  0.00    -0.465 OA
ATOM     19  C   UNL     1       1.427   0.294   0.159  1.00  0.00     0.282 C 
ENDBRANCH  16  18
ENDBRANCH  12  16
BRANCH  13  20
ATOM     20  C   UNL     1       3.031   3.611  -4.117  1.00  0.00     0.037 C 
BRANCH  20  21
ATOM     21  C   UNL     1       3.817   3.181  -5.333  1.00  0.00     0.005 C 
BRANCH  21  22
ATOM     22  C   UNL     1       3.270   3.646  -6.684  1.00  0.00     0.000 CG0
ATOM     23  G   UNL     1       3.114   5.153  -6.906  1.00  0.00     0.000 G0
ENDBRANCH  21  22
ENDBRANCH  20  21
ENDBRANCH  13  20
BRANCH  15  24
ATOM     24  C   UNL     1       0.620   5.383  -6.125  1.00  0.00     0.047 C 
BRANCH  24  25
ATOM     25  C   UNL     1       2.035   5.957  -6.155  1.00  0.00     0.006 C 
BRANCH  25  26
ATOM     26  C   UNL     1       3.114   5.153  -6.906  1.00  0.00     0.000 CG0
ATOM     27  G   UNL     1       3.270   3.646  -6.684  1.00  0.00     0.000 G0
ENDBRANCH  25  26
ENDBRANCH  24  25
ENDBRANCH  15  24
ENDBRANCH   8  11
ENDBRANCH   6   7
ENDBRANCH   5   6
ENDBRANCH   3   5
ENDBRANCH   2   3
ENDBRANCH   1   2
BRANCH   1  28
ATOM     28  C   UNL     1       0.049   2.190  -5.049  1.00  0.00     0.202 C 
BRANCH  28  29
ATOM     29  O   UNL     1      -0.179   3.555  -3.526  1.00  0.00    -0.374 OA
BRANCH  29  30
ATOM     30  C   UNL     1       0.570   4.447  -2.478  1.00  0.00     0.202 C 
BRANCH  30  31
ATOM     31  C   UNL     1      -0.289   4.667  -1.236  1.00  0.00     0.261 C 
BRANCH  31  32
ATOM     32  O   UNL     1      -1.603   5.083  -1.521  1.00  0.00    -0.460 OA
BRANCH  32  33
ATOM     33  C   UNL     1      -1.826   5.900  -2.569  1.00  0.00     0.338 C 
ATOM     34  O   UNL     1      -1.083   6.717  -3.075  1.00  0.00    -0.246 OA
BRANCH  33  35
ATOM     35  C   UNL     1      -3.246   5.694  -2.880  1.00  0.00     0.060 A 
ATOM     36  C   UNL     1      -3.894   6.765  -3.470  1.00  0.00     0.016 A 
ATOM     37  C   UNL     1      -3.922   4.667  -2.196  1.00  0.00     0.016 A 
ATOM     38  C   UNL     1      -5.131   7.050  -2.967  1.00  0.00     0.010 A 
ATOM     39  C   UNL     1      -5.125   4.974  -1.653  1.00  0.00     0.010 A 
ATOM     40  C   UNL     1      -5.636   6.227  -1.947  1.00  0.00    -0.014 A 
BRANCH  40  41
ATOM     41  C   UNL     1      -6.866   6.599  -1.309  1.00  0.00     0.031 A 
ATOM     42  C   UNL     1      -7.960   6.264  -2.233  1.00  0.00     0.074 A 
ATOM     43  C   UNL     1      -6.898   7.149  -0.080  1.00  0.00     0.049 A 
ATOM     44  N   UNL     1      -8.473   7.077  -3.093  1.00  0.00    -0.248 NA
ATOM     45  C   UNL     1      -8.245   4.845  -2.519  1.00  0.00     0.031 C 
ATOM     46  C   UNL     1      -5.811   7.274   0.898  1.00  0.00     0.029 A 
ATOM     47  N   UNL     1      -7.966   7.683   0.580  1.00  0.00    -0.354 N 
ATOM     48  C   UNL     1      -9.398   6.314  -3.788  1.00  0.00     0.074 A 
ATOM     49  C   UNL     1      -8.977   4.955  -3.631  1.00  0.00     0.031 C 
ATOM     50  C   UNL     1      -6.322   7.630   2.102  1.00  0.00     0.029 A 
ATOM     51  C   UNL     1      -7.738   7.904   1.945  1.00  0.00     0.049 A 
ATOM     52  H   UNL     1      -8.820   7.894   0.138  1.00  0.00     0.167 HD
ATOM     53  C   UNL     1     -10.633   6.847  -3.994  1.00  0.00     0.037 A 
ATOM     54  C   UNL     1      -8.698   8.253   2.842  1.00  0.00     0.037 A 
ATOM     55  C   UNL     1     -10.567   8.284  -3.813  1.00  0.00     0.049 A 
ATOM     56  C   UNL     1      -9.810   8.841   2.054  1.00  0.00     0.074 A 
ATOM     57  C   UNL     1     -10.005   9.340  -4.499  1.00  0.00     0.029 A 
ATOM     58  N   UNL     1     -10.695   8.673  -2.501  1.00  0.00    -0.354 N 
ATOM     59  N   UNL     1      -9.701   9.978   1.421  1.00  0.00    -0.248 NA
ATOM     60  C   UNL     1     -10.865   7.956   1.576  1.00  0.00     0.031 C 
ATOM     61  C   UNL     1      -9.665  10.318  -3.515  1.00  0.00     0.029 A 
ATOM     62  C   UNL     1     -10.113   9.887  -2.268  1.00  0.00     0.049 A 
ATOM     63  H   UNL     1     -11.152   8.140  -1.810  1.00  0.00     0.167 HD
ATOM     64  C   UNL     1     -10.347   9.761   0.215  1.00  0.00     0.074 A 
ATOM     65  C   UNL     1     -11.165   8.568   0.425  1.00  0.00     0.031 C 
ATOM     66  C   UNL     1      -9.894  10.368  -0.921  1.00  0.00     0.037 A 
BRANCH  53  67
ATOM     67  C   UNL     1     -11.928   6.087  -3.751  1.00  0.00     0.064 A 
ATOM     68  C   UNL     1     -13.141   6.784  -3.926  1.00  0.00     0.173 A 
ATOM     69  C   UNL     1     -12.048   4.846  -3.082  1.00  0.00     0.173 A 
ATOM     70  F   UNL     1     -13.162   7.973  -4.547  1.00  0.00    -0.203 F 
ATOM     71  C   UNL     1     -14.349   6.320  -3.395  1.00  0.00     0.198 A 
ATOM     72  C   UNL     1     -13.259   4.371  -2.584  1.00  0.00     0.198 A 
ATOM     73  F   UNL     1     -11.006   4.064  -2.789  1.00  0.00    -0.203 F 
ATOM     74  F   UNL     1     -15.450   7.076  -3.491  1.00  0.00    -0.200 F 
ATOM     75  C   UNL     1     -14.404   5.120  -2.714  1.00  0.00     0.200 A 
ATOM     76  F   UNL     1     -13.280   3.212  -1.909  1.00  0.00    -0.200 F 
ATOM     77  F   UNL     1     -15.545   4.701  -2.153  1.00  0.00    -0.200 F 
ENDBRANCH  53  67
BRANCH  54  78
ATOM     78  C   UNL     1      -8.866   7.863   4.263  1.00  0.00     0.064 A 
ATOM     79  C   UNL     1      -9.720   8.568   5.131  1.00  0.00     0.173 A 
ATOM     80  C   UNL     1      -8.430   6.601   4.708  1.00  0.00     0.173 A 
ATOM     81  F   UNL     1     -10.226   9.754   4.764  1.00  0.00    -0.203 F 
ATOM     82  C   UNL     1     -10.129   8.031   6.360  1.00  0.00     0.198 A 
ATOM     83  C   UNL     1      -8.842   6.065   5.930  1.00  0.00     0.198 A 
ATOM     84  F   UNL     1      -7.681   5.822   3.915  1.00  0.00    -0.203 F 
ATOM     85  F   UNL     1     -10.990   8.706   7.135  1.00  0.00    -0.200 F 
ATOM     86  C   UNL     1      -9.699   6.774   6.752  1.00  0.00     0.200 A 
ATOM     87  F   UNL     1      -8.458   4.828   6.275  1.00  0.00    -0.200 F 
ATOM     88  F   UNL     1     -10.143   6.229   7.894  1.00  0.00    -0.200 F 
ENDBRANCH  54  78
BRANCH  66  89
ATOM     89  C   UNL     1      -9.017  11.573  -0.753  1.00  0.00     0.064 A 
ATOM     90  C   UNL     1      -7.710  11.555  -0.239  1.00  0.00     0.173 A 
ATOM     91  C   UNL     1      -9.509  12.794  -1.233  1.00  0.00     0.173 A 
ATOM     92  F   UNL     1      -7.144  10.411   0.167  1.00  0.00    -0.203 F 
ATOM     93  C   UNL     1      -6.947  12.723  -0.180  1.00  0.00     0.198 A 
ATOM     94  C   UNL     1      -8.734  13.946  -1.208  1.00  0.00     0.198 A 
ATOM     95  F   UNL     1     -10.736  12.854  -1.774  1.00  0.00    -0.203 F 
ATOM     96  F   UNL     1      -5.704  12.691   0.326  1.00  0.00    -0.200 F 
ATOM     97  C   UNL     1      -7.458  13.914  -0.671  1.00  0.00     0.200 A 
ATOM     98  F   UNL     1      -9.218  15.082  -1.728  1.00  0.00    -0.200 F 
ATOM     99  F   UNL     1      -6.714  15.029  -0.648  1.00  0.00    -0.200 F 
ENDBRANCH  66  89
ENDBRANCH  40  41
ENDBRANCH  33  35
ENDBRANCH  32  33
ENDBRANCH  31  32
ENDBRANCH  30  31
ENDBRANCH  29  30
ENDBRANCH  28  29
ENDBRANCH   1  28
TORSDOF 19
