REMARK SMILES CC[N@@H+]1CCO[C@H](c2nc(C)c(C(=O)OCCOCCOC(=O)c3ccc(-c4c5nc(c(-c6c(F)c(F)c(F)c(F)c6F)c6ccc([nH]6)c(-c6c(F)c(F)c(F)c(F)c6F)c6nc(c(-c7c(F)c(F)c(F)c(F)c7F)c7ccc4[nH]7)C=C6)C=C5)cc3)s2)C1
REMARK SMILES IDX 18 1 17 2 16 3 15 4 13 5 14 6 12 7 8 8 9 9 87 10 10 11 11 12
REMARK SMILES IDX 7 13 3 14 4 15 88 16 5 18 6 19 2 20 1 21 19 22 20 23 21 24
REMARK SMILES IDX 22 25 23 26 24 27 25 28 86 29 26 30 85 31 27 32 28 33 29 34
REMARK SMILES IDX 79 35 30 36 84 37 78 38 80 39 31 40 83 41 77 42 76 43 32 45
REMARK SMILES IDX 64 46 44 47 63 48 45 49 48 50 62 51 81 52 46 53 47 54 61 56
REMARK SMILES IDX 82 57 49 58 33 59 34 60 42 61 35 62 36 63 40 64 43 65 37 66
REMARK SMILES IDX 38 67 41 68 39 69 65 70 66 71 74 72 67 73 68 74 72 75 75 76
REMARK SMILES IDX 69 77 70 78 73 79 71 80 50 81 51 82 59 83 52 84 53 85 57 86
REMARK SMILES IDX 60 87 54 88 55 89 58 90 56 91
REMARK H PARENT 3 17 80 44 48 55
REMARK Flexibility Score: inf
ROOT
ATOM      1  O   UNL     1      -3.702   1.804  -3.320  1.00  0.00    -0.374 OA
ENDROOT
BRANCH   1   2
ATOM      2  C   UNL     1      -3.056   2.026  -4.574  1.00  0.00     0.202 C 
BRANCH   2   3
ATOM      3  C   UNL     1      -1.537   1.835  -4.590  1.00  0.00     0.261 C 
BRANCH   3   4
ATOM      4  O   UNL     1      -1.200   0.433  -4.606  1.00  0.00    -0.459 OA
BRANCH   4   5
ATOM      5  C   UNL     1      -0.570  -0.001  -3.482  1.00  0.00     0.350 C 
ATOM      6  O   UNL     1      -0.172   0.728  -2.580  1.00  0.00    -0.245 OA
BRANCH   5   7
ATOM      7  C   UNL     1      -0.523  -1.433  -3.423  1.00  0.00     0.135 A 
ATOM      8  C   UNL     1       0.041  -3.432  -2.273  1.00  0.00     0.128 A 
ATOM      9  N   UNL     1       0.298  -3.585  -3.564  1.00  0.00    -0.243 NA
ATOM     10  S   UNL     1      -1.123  -2.198  -2.004  1.00  0.00    -0.108 S 
ATOM     11  C   UNL     1      -0.074  -2.432  -4.264  1.00  0.00     0.063 A 
ATOM     12  C   UNL     1       0.235  -2.368  -5.713  1.00  0.00     0.068 C 
BRANCH   8  13
ATOM     13  C   UNL     1       0.659  -4.207  -1.126  1.00  0.00     0.232 C 
ATOM     14  N   UNL     1       1.443  -2.484   0.701  1.00  0.00    -0.331 N 
ATOM     15  C   UNL     1       2.805  -2.820   0.243  1.00  0.00     0.291 C 
ATOM     16  C   UNL     1       0.527  -3.592   0.305  1.00  0.00     0.302 C 
ATOM     17  H   UNL     1       1.440  -2.404   1.718  1.00  0.00     0.348 HD
ATOM     18  C   UNL     1       2.872  -3.298  -1.216  1.00  0.00     0.222 C 
ATOM     19  O   UNL     1       2.052  -4.455  -1.430  1.00  0.00    -0.359 OA
BRANCH  14  20
ATOM     20  C   UNL     1       0.994  -1.162   0.247  1.00  0.00     0.258 C 
ATOM     21  C   UNL     1       1.648   0.003   0.981  1.00  0.00     0.071 C 
ENDBRANCH  14  20
ENDBRANCH   8  13
ENDBRANCH   5   7
ENDBRANCH   4   5
ENDBRANCH   3   4
ENDBRANCH   2   3
ENDBRANCH   1   2
BRANCH   1  22
ATOM     22  C   UNL     1      -3.886   0.453  -2.901  1.00  0.00     0.202 C 
BRANCH  22  23
ATOM     23  C   UNL     1      -5.088  -0.286  -3.498  1.00  0.00     0.261 C 
BRANCH  23  24
ATOM     24  O   UNL     1      -4.965  -0.421  -4.924  1.00  0.00    -0.460 OA
BRANCH  24  25
ATOM     25  C   UNL     1      -5.832   0.338  -5.636  1.00  0.00     0.338 C 
ATOM     26  O   UNL     1      -6.757   1.008  -5.209  1.00  0.00    -0.246 OA
BRANCH  25  27
ATOM     27  C   UNL     1      -5.391   0.407  -7.043  1.00  0.00     0.060 A 
ATOM     28  C   UNL     1      -5.317   1.679  -7.627  1.00  0.00     0.016 A 
ATOM     29  C   UNL     1      -5.091  -0.736  -7.788  1.00  0.00     0.016 A 
ATOM     30  C   UNL     1      -4.988   1.810  -8.972  1.00  0.00     0.010 A 
ATOM     31  C   UNL     1      -4.775  -0.603  -9.145  1.00  0.00     0.010 A 
ATOM     32  C   UNL     1      -4.753   0.667  -9.747  1.00  0.00    -0.014 A 
BRANCH  32  33
ATOM     33  C   UNL     1      -4.621   0.805 -11.215  1.00  0.00     0.031 A 
ATOM     34  C   UNL     1      -5.841   0.637 -12.075  1.00  0.00     0.074 A 
ATOM     35  C   UNL     1      -3.438   1.115 -11.771  1.00  0.00     0.049 A 
ATOM     36  N   UNL     1      -5.959   0.725 -13.375  1.00  0.00    -0.248 NA
ATOM     37  C   UNL     1      -7.098   0.331 -11.374  1.00  0.00     0.031 C 
ATOM     38  C   UNL     1      -2.193   1.333 -11.037  1.00  0.00     0.029 A 
ATOM     39  N   UNL     1      -3.093   1.296 -13.086  1.00  0.00    -0.354 N 
ATOM     40  C   UNL     1      -7.300   0.497 -13.647  1.00  0.00     0.074 A 
ATOM     41  C   UNL     1      -7.952   0.233 -12.382  1.00  0.00     0.031 C 
ATOM     42  C   UNL     1      -1.213   1.605 -11.917  1.00  0.00     0.029 A 
ATOM     43  C   UNL     1      -1.760   1.560 -13.272  1.00  0.00     0.049 A 
ATOM     44  H   UNL     1      -3.741   1.241 -13.826  1.00  0.00     0.167 HD
ATOM     45  C   UNL     1      -7.934   0.517 -14.843  1.00  0.00     0.037 A 
ATOM     46  C   UNL     1      -1.060   1.728 -14.410  1.00  0.00     0.037 A 
ATOM     47  C   UNL     1      -7.286   0.768 -16.102  1.00  0.00     0.049 A 
ATOM     48  C   UNL     1      -1.773   1.668 -15.735  1.00  0.00     0.074 A 
ATOM     49  C   UNL     1      -7.846   0.834 -17.366  1.00  0.00     0.029 A 
ATOM     50  N   UNL     1      -5.925   0.984 -16.256  1.00  0.00    -0.354 N 
ATOM     51  N   UNL     1      -3.047   1.486 -15.981  1.00  0.00    -0.248 NA
ATOM     52  C   UNL     1      -0.948   1.838 -16.940  1.00  0.00     0.031 C 
ATOM     53  C   UNL     1      -6.817   1.048 -18.289  1.00  0.00     0.029 A 
ATOM     54  C   UNL     1      -5.621   1.153 -17.597  1.00  0.00     0.049 A 
ATOM     55  H   UNL     1      -5.270   1.013 -15.521  1.00  0.00     0.167 HD
ATOM     56  C   UNL     1      -3.181   1.530 -17.362  1.00  0.00     0.074 A 
ATOM     57  C   UNL     1      -1.859   1.774 -17.902  1.00  0.00     0.031 C 
ATOM     58  C   UNL     1      -4.298   1.382 -18.116  1.00  0.00     0.037 A 
BRANCH  45  59
ATOM     59  C   UNL     1      -9.407   0.241 -14.844  1.00  0.00     0.064 A 
ATOM     60  C   UNL     1     -10.329   1.195 -14.391  1.00  0.00     0.173 A 
ATOM     61  C   UNL     1      -9.902  -0.980 -15.322  1.00  0.00     0.173 A 
ATOM     62  F   UNL     1      -9.902   2.372 -13.909  1.00  0.00    -0.203 F 
ATOM     63  C   UNL     1     -11.696   0.927 -14.397  1.00  0.00     0.198 A 
ATOM     64  C   UNL     1     -11.270  -1.237 -15.347  1.00  0.00     0.198 A 
ATOM     65  F   UNL     1      -9.058  -1.924 -15.765  1.00  0.00    -0.203 F 
ATOM     66  F   UNL     1     -12.558   1.838 -13.924  1.00  0.00    -0.200 F 
ATOM     67  C   UNL     1     -12.165  -0.285 -14.880  1.00  0.00     0.200 A 
ATOM     68  F   UNL     1     -11.722  -2.407 -15.818  1.00  0.00    -0.200 F 
ATOM     69  F   UNL     1     -13.480  -0.541 -14.886  1.00  0.00    -0.200 F 
ENDBRANCH  45  59
BRANCH  46  70
ATOM     70  C   UNL     1       0.406   1.952 -14.346  1.00  0.00     0.064 A 
ATOM     71  C   UNL     1       0.962   3.201 -14.650  1.00  0.00     0.173 A 
ATOM     72  C   UNL     1       1.278   0.916 -13.982  1.00  0.00     0.173 A 
ATOM     73  F   UNL     1       0.168   4.213 -15.027  1.00  0.00    -0.203 F 
ATOM     74  C   UNL     1       2.340   3.404 -14.600  1.00  0.00     0.198 A 
ATOM     75  C   UNL     1       2.653   1.126 -13.911  1.00  0.00     0.198 A 
ATOM     76  F   UNL     1       0.792  -0.298 -13.685  1.00  0.00    -0.203 F 
ATOM     77  F   UNL     1       2.851   4.598 -14.927  1.00  0.00    -0.200 F 
ATOM     78  C   UNL     1       3.183   2.368 -14.225  1.00  0.00     0.200 A 
ATOM     79  F   UNL     1       3.463   0.125 -13.540  1.00  0.00    -0.200 F 
ATOM     80  F   UNL     1       4.508   2.566 -14.172  1.00  0.00    -0.200 F 
ENDBRANCH  46  70
BRANCH  58  81
ATOM     81  C   UNL     1      -4.139   1.481 -19.604  1.00  0.00     0.064 A 
ATOM     82  C   UNL     1      -3.568   0.438 -20.346  1.00  0.00     0.173 A 
ATOM     83  C   UNL     1      -4.598   2.610 -20.297  1.00  0.00     0.173 A 
ATOM     84  F   UNL     1      -3.100  -0.655 -19.725  1.00  0.00    -0.203 F 
ATOM     85  C   UNL     1      -3.447   0.529 -21.730  1.00  0.00     0.198 A 
ATOM     86  C   UNL     1      -4.497   2.688 -21.684  1.00  0.00     0.198 A 
ATOM     87  F   UNL     1      -5.155   3.633 -19.631  1.00  0.00    -0.203 F 
ATOM     88  F   UNL     1      -2.865  -0.464 -22.417  1.00  0.00    -0.200 F 
ATOM     89  C   UNL     1      -3.917   1.650 -22.398  1.00  0.00     0.200 A 
ATOM     90  F   UNL     1      -4.959   3.768 -22.328  1.00  0.00    -0.200 F 
ATOM     91  F   UNL     1      -3.805   1.734 -23.731  1.00  0.00    -0.200 F 
ENDBRANCH  58  81
ENDBRANCH  32  33
ENDBRANCH  25  27
ENDBRANCH  24  25
ENDBRANCH  23  24
ENDBRANCH  22  23
ENDBRANCH   1  22
TORSDOF 16
