REMARK SMILES Cc1cc(NC(=O)c2ccc(Br)cc2N)ccc1C(=O)OCCOCCOC(=O)c1ccc(-c2c3nc(c(-c4c(F)c(F)c(F)c(F)c4F)c4ccc([nH]4)c(-c4c(F)c(F)c(F)c(F)c4F)c4nc(c(-c5c(F)c(F)c(F)c(F)c5F)c5ccc2[nH]5)C=C4)C=C3)cc1
REMARK SMILES IDX 23 1 22 2 21 3 19 4 20 5 18 6 1 7 2 8 3 9 4 10 17 11 16 12
REMARK SMILES IDX 5 13 6 14 7 16 8 17 9 18 14 19 10 20 13 21 11 22 12 23 15 24
REMARK SMILES IDX 24 27 25 28 26 29 27 30 28 31 29 32 30 33 31 34 92 35 32 36
REMARK SMILES IDX 91 37 33 38 34 39 35 40 85 41 36 42 90 43 84 44 86 45 37 46
REMARK SMILES IDX 89 47 83 48 82 49 38 51 70 52 50 53 69 54 51 55 54 56 68 57
REMARK SMILES IDX 87 58 52 59 53 60 67 62 88 63 55 64 39 65 40 66 48 67 41 68
REMARK SMILES IDX 42 69 46 70 49 71 43 72 44 73 47 74 45 75 71 76 72 77 80 78
REMARK SMILES IDX 73 79 74 80 78 81 81 82 75 83 76 84 79 85 77 86 56 87 57 88
REMARK SMILES IDX 65 89 58 90 59 91 63 92 66 93 60 94 61 95 64 96 62 97
REMARK H PARENT 5 15 15 25 15 26 86 50 54 61
REMARK Flexibility Score: inf
ROOT
ATOM      1  C   UNL     1       2.084   2.321  -2.361  1.00  0.00     0.202 C 
ENDROOT
BRANCH   1   2
ATOM      2  C   UNL     1       2.655   2.395  -0.980  1.00  0.00     0.261 C 
BRANCH   2   3
ATOM      3  O   UNL     1       1.986   1.539  -0.047  1.00  0.00    -0.460 OA
BRANCH   3   4
ATOM      4  C   UNL     1       0.663   1.738   0.135  1.00  0.00     0.338 C 
ATOM      5  O   UNL     1       0.129   2.775   0.465  1.00  0.00    -0.246 OA
BRANCH   4   6
ATOM      6  C   UNL     1      -0.029   0.458  -0.159  1.00  0.00     0.063 A 
ATOM      7  C   UNL     1       2.118  -0.995  -0.553  1.00  0.00     0.045 C 
ATOM      8  C   UNL     1       0.630  -0.742  -0.513  1.00  0.00    -0.035 A 
ATOM      9  C   UNL     1      -0.153  -1.878  -0.689  1.00  0.00     0.030 A 
ATOM     10  C   UNL     1      -1.512  -1.867  -0.400  1.00  0.00     0.041 A 
ATOM     11  C   UNL     1      -1.436   0.500  -0.074  1.00  0.00     0.018 A 
ATOM     12  C   UNL     1      -2.187  -0.666  -0.211  1.00  0.00     0.027 A 
BRANCH  10  13
ATOM     13  N   UNL     1      -2.165  -3.069  -0.123  1.00  0.00    -0.322 N 
ATOM     14  C   UNL     1      -1.614  -4.208   0.449  1.00  0.00     0.257 C 
ATOM     15  H   UNL     1      -3.120  -3.114  -0.357  1.00  0.00     0.170 HD
ATOM     16  O   UNL     1      -2.214  -5.277   0.344  1.00  0.00    -0.269 OA
BRANCH  14  17
ATOM     17  C   UNL     1      -0.324  -4.178   1.228  1.00  0.00     0.063 A 
ATOM     18  C   UNL     1       0.554  -5.252   0.984  1.00  0.00     0.017 A 
ATOM     19  C   UNL     1       0.037  -3.190   2.179  1.00  0.00     0.045 A 
ATOM     20  C   UNL     1       1.765  -5.365   1.673  1.00  0.00     0.016 A 
ATOM     21  C   UNL     1       1.259  -3.328   2.864  1.00  0.00     0.042 A 
ATOM     22  C   UNL     1       2.110  -4.403   2.613  1.00  0.00     0.020 A 
ATOM     23  Br  UNL     1       3.718  -4.572   3.594  1.00  0.00    -0.051 Br
BRANCH  19  24
ATOM     24  N   UNL     1      -0.803  -2.160   2.601  1.00  0.00    -0.398 N 
ATOM     25  H   UNL     1      -1.670  -2.019   2.156  1.00  0.00     0.156 HD
ATOM     26  H   UNL     1      -0.529  -1.575   3.343  1.00  0.00     0.156 HD
ENDBRANCH  19  24
ENDBRANCH  14  17
ENDBRANCH  10  13
ENDBRANCH   4   6
ENDBRANCH   3   4
ENDBRANCH   2   3
ENDBRANCH   1   2
BRANCH   1  27
ATOM     27  O   UNL     1       0.906   3.110  -2.323  1.00  0.00    -0.374 OA
BRANCH  27  28
ATOM     28  C   UNL     1       0.267   3.299  -3.570  1.00  0.00     0.202 C 
BRANCH  28  29
ATOM     29  C   UNL     1       1.175   3.976  -4.606  1.00  0.00     0.261 C 
BRANCH  29  30
ATOM     30  O   UNL     1       1.593   5.265  -4.103  1.00  0.00    -0.460 OA
BRANCH  30  31
ATOM     31  C   UNL     1       2.881   5.366  -3.670  1.00  0.00     0.338 C 
ATOM     32  O   UNL     1       3.861   4.932  -4.253  1.00  0.00    -0.246 OA
BRANCH  31  33
ATOM     33  C   UNL     1       2.897   5.805  -2.240  1.00  0.00     0.060 A 
ATOM     34  C   UNL     1       4.082   5.704  -1.480  1.00  0.00     0.016 A 
ATOM     35  C   UNL     1       1.677   5.976  -1.591  1.00  0.00     0.016 A 
ATOM     36  C   UNL     1       4.022   5.613  -0.076  1.00  0.00     0.010 A 
ATOM     37  C   UNL     1       1.615   5.782  -0.227  1.00  0.00     0.010 A 
ATOM     38  C   UNL     1       2.775   5.561   0.541  1.00  0.00    -0.014 A 
BRANCH  38  39
ATOM     39  C   UNL     1       2.493   5.130   1.919  1.00  0.00     0.031 A 
ATOM     40  C   UNL     1       1.697   6.042   2.775  1.00  0.00     0.074 A 
ATOM     41  C   UNL     1       2.621   3.825   2.282  1.00  0.00     0.049 A 
ATOM     42  N   UNL     1       1.389   5.779   3.994  1.00  0.00    -0.248 NA
ATOM     43  C   UNL     1       1.200   7.352   2.353  1.00  0.00     0.031 C 
ATOM     44  C   UNL     1       1.849   3.085   3.288  1.00  0.00     0.029 A 
ATOM     45  N   UNL     1       3.475   2.834   1.776  1.00  0.00    -0.354 N 
ATOM     46  C   UNL     1       0.409   6.653   4.386  1.00  0.00     0.074 A 
ATOM     47  C   UNL     1       0.426   7.692   3.390  1.00  0.00     0.031 C 
ATOM     48  C   UNL     1       2.430   1.897   3.531  1.00  0.00     0.029 A 
ATOM     49  C   UNL     1       3.668   1.865   2.776  1.00  0.00     0.049 A 
ATOM     50  H   UNL     1       3.870   2.819   0.875  1.00  0.00     0.167 HD
ATOM     51  C   UNL     1      -0.360   6.298   5.453  1.00  0.00     0.037 A 
ATOM     52  C   UNL     1       4.914   1.567   3.227  1.00  0.00     0.037 A 
ATOM     53  C   UNL     1       0.207   5.109   6.111  1.00  0.00     0.049 A 
ATOM     54  C   UNL     1       4.978   2.009   4.655  1.00  0.00     0.074 A 
ATOM     55  C   UNL     1      -0.184   3.785   6.215  1.00  0.00     0.029 A 
ATOM     56  N   UNL     1       1.542   5.150   6.528  1.00  0.00    -0.354 N 
ATOM     57  N   UNL     1       4.188   2.942   5.119  1.00  0.00    -0.248 NA
ATOM     58  C   UNL     1       5.768   1.364   5.695  1.00  0.00     0.031 C 
ATOM     59  C   UNL     1       0.964   3.024   6.600  1.00  0.00     0.029 A 
ATOM     60  C   UNL     1       2.040   3.885   6.774  1.00  0.00     0.049 A 
ATOM     61  H   UNL     1       2.063   5.979   6.633  1.00  0.00     0.167 HD
ATOM     62  C   UNL     1       4.242   2.935   6.473  1.00  0.00     0.074 A 
ATOM     63  C   UNL     1       5.291   1.981   6.793  1.00  0.00     0.031 C 
ATOM     64  C   UNL     1       3.413   3.692   7.241  1.00  0.00     0.037 A 
BRANCH  51  65
ATOM     65  C   UNL     1      -1.685   6.925   5.844  1.00  0.00     0.064 A 
ATOM     66  C   UNL     1      -2.331   6.524   7.035  1.00  0.00     0.173 A 
ATOM     67  C   UNL     1      -2.416   7.859   5.074  1.00  0.00     0.173 A 
ATOM     68  F   UNL     1      -1.776   5.618   7.852  1.00  0.00    -0.203 F 
ATOM     69  C   UNL     1      -3.579   7.027   7.426  1.00  0.00     0.198 A 
ATOM     70  C   UNL     1      -3.638   8.400   5.492  1.00  0.00     0.198 A 
ATOM     71  F   UNL     1      -2.021   8.249   3.860  1.00  0.00    -0.203 F 
ATOM     72  F   UNL     1      -4.158   6.575   8.547  1.00  0.00    -0.200 F 
ATOM     73  C   UNL     1      -4.224   7.979   6.664  1.00  0.00     0.200 A 
ATOM     74  F   UNL     1      -4.251   9.318   4.729  1.00  0.00    -0.200 F 
ATOM     75  F   UNL     1      -5.409   8.474   7.045  1.00  0.00    -0.200 F 
ENDBRANCH  51  65
BRANCH  52  76
ATOM     76  C   UNL     1       5.916   1.633   2.123  1.00  0.00     0.064 A 
ATOM     77  C   UNL     1       5.816   0.607   1.152  1.00  0.00     0.173 A 
ATOM     78  C   UNL     1       6.483   2.847   1.707  1.00  0.00     0.173 A 
ATOM     79  F   UNL     1       5.258  -0.570   1.480  1.00  0.00    -0.203 F 
ATOM     80  C   UNL     1       6.107   0.840  -0.193  1.00  0.00     0.198 A 
ATOM     81  C   UNL     1       6.776   3.074   0.355  1.00  0.00     0.198 A 
ATOM     82  F   UNL     1       6.592   3.871   2.566  1.00  0.00    -0.203 F 
ATOM     83  F   UNL     1       5.822  -0.097  -1.111  1.00  0.00    -0.200 F 
ATOM     84  C   UNL     1       6.548   2.088  -0.596  1.00  0.00     0.200 A 
ATOM     85  F   UNL     1       7.166   4.292  -0.051  1.00  0.00    -0.200 F 
ATOM     86  F   UNL     1       6.668   2.364  -1.903  1.00  0.00    -0.200 F 
ENDBRANCH  52  76
BRANCH  64  87
ATOM     87  C   UNL     1       3.870   4.268   8.548  1.00  0.00     0.064 A 
ATOM     88  C   UNL     1       5.232   4.438   8.866  1.00  0.00     0.173 A 
ATOM     89  C   UNL     1       2.952   4.854   9.443  1.00  0.00     0.173 A 
ATOM     90  F   UNL     1       6.206   4.062   8.026  1.00  0.00    -0.203 F 
ATOM     91  C   UNL     1       5.641   5.060  10.041  1.00  0.00     0.198 A 
ATOM     92  C   UNL     1       3.369   5.544  10.577  1.00  0.00     0.198 A 
ATOM     93  F   UNL     1       1.630   4.816   9.224  1.00  0.00    -0.203 F 
ATOM     94  F   UNL     1       6.948   5.139  10.325  1.00  0.00    -0.200 F 
ATOM     95  C   UNL     1       4.710   5.622  10.891  1.00  0.00     0.200 A 
ATOM     96  F   UNL     1       2.461   6.153  11.352  1.00  0.00    -0.200 F 
ATOM     97  F   UNL     1       5.109   6.261  11.998  1.00  0.00    -0.200 F 
ENDBRANCH  64  87
ENDBRANCH  38  39
ENDBRANCH  31  33
ENDBRANCH  30  31
ENDBRANCH  29  30
ENDBRANCH  28  29
ENDBRANCH  27  28
ENDBRANCH   1  27
TORSDOF 17
