REMARK SMILES COc1cc(C(=O)OCCOCCOC(=O)c2ccc(-c3c4nc(c(-c5c(F)c(F)c(F)c(F)c5F)c5ccc([nH]5)c(-c5c(F)c(F)c(F)c(F)c5F)c5nc(c(-c6c(F)c(F)c(F)c(F)c6F)c6ccc3[nH]6)C=C5)C=C4)cc2)c([N+](=O)[O-])cc1O[C@H](C)[C@@H](C)O
REMARK SMILES IDX 10 1 9 2 8 3 6 4 7 5 5 6 3 7 4 8 85 9 84 10 80 11 2 12 1 13
REMARK SMILES IDX 86 14 87 15 88 16 89 17 90 18 91 19 81 21 82 22 83 23 11 24
REMARK SMILES IDX 12 25 13 26 14 27 15 28 16 29 17 30 18 31 79 32 19 33 78 34
REMARK SMILES IDX 20 35 21 36 22 37 72 38 23 39 77 40 71 41 73 42 24 43 76 44
REMARK SMILES IDX 70 45 69 46 25 48 57 49 37 50 56 51 38 52 41 53 55 54 74 55
REMARK SMILES IDX 39 56 40 57 54 59 75 60 42 61 26 62 27 63 35 64 28 65 29 66
REMARK SMILES IDX 33 67 36 68 30 69 31 70 34 71 32 72 58 73 59 74 67 75 60 76
REMARK SMILES IDX 61 77 65 78 68 79 62 80 63 81 66 82 64 83 43 84 44 85 52 86
REMARK SMILES IDX 45 87 46 88 50 89 53 90 47 91 48 92 51 93 49 94
REMARK H PARENT 91 20 73 47 41 58
REMARK Flexibility Score: inf
ROOT
ATOM      1  C   UNL     1      -3.127  -3.613   6.485  1.00  0.00     0.202 C 
ENDROOT
BRANCH   1   2
ATOM      2  C   UNL     1      -1.844  -4.414   6.259  1.00  0.00     0.261 C 
BRANCH   2   3
ATOM      3  O   UNL     1      -0.940  -3.647   5.444  1.00  0.00    -0.459 OA
BRANCH   3   4
ATOM      4  C   UNL     1      -0.329  -4.332   4.454  1.00  0.00     0.345 C 
ATOM      5  O   UNL     1      -0.333  -5.538   4.272  1.00  0.00    -0.246 OA
BRANCH   4   6
ATOM      6  C   UNL     1       0.152  -3.367   3.447  1.00  0.00     0.141 A 
ATOM      7  C   UNL     1       0.159  -2.746   1.087  1.00  0.00     0.162 A 
ATOM      8  C   UNL     1      -0.228  -3.607   2.124  1.00  0.00     0.073 A 
ATOM      9  C   UNL     1       0.947  -1.613   1.371  1.00  0.00     0.168 A 
ATOM     10  C   UNL     1       1.224  -1.310   2.708  1.00  0.00     0.137 A 
ATOM     11  C   UNL     1       0.864  -2.207   3.729  1.00  0.00     0.287 A 
BRANCH   7  12
ATOM     12  O   UNL     1      -0.362  -3.138  -0.117  1.00  0.00    -0.493 OA
ATOM     13  C   UNL     1       0.258  -2.686  -1.311  1.00  0.00     0.278 C 
ENDBRANCH   7  12
BRANCH   9  14
ATOM     14  O   UNL     1       1.338  -0.829   0.335  1.00  0.00    -0.484 OA
BRANCH  14  15
ATOM     15  C   UNL     1       2.552  -0.049   0.277  1.00  0.00     0.198 C 
ATOM     16  C   UNL     1       3.684  -0.390   1.248  1.00  0.00     0.056 C 
BRANCH  15  17
ATOM     17  C   UNL     1       2.158   1.448   0.230  1.00  0.00     0.151 C 
ATOM     18  C   UNL     1       3.326   2.420   0.316  1.00  0.00     0.042 C 
BRANCH  17  19
ATOM     19  O   UNL     1       1.459   1.721  -0.995  1.00  0.00    -0.390 OA
ATOM     20  H   UNL     1       2.052   1.564  -1.747  1.00  0.00     0.211 HD
ENDBRANCH  17  19
ENDBRANCH  15  17
ENDBRANCH  14  15
ENDBRANCH   9  14
BRANCH  11  21
ATOM     21  N   UNL     1       1.312  -1.918   5.079  1.00  0.00     0.063 N 
ATOM     22  O   UNL     1       1.876  -2.829   5.697  1.00  0.00    -0.258 OA
ATOM     23  O   UNL     1       1.153  -0.760   5.490  1.00  0.00    -0.258 OA
ENDBRANCH  11  21
ENDBRANCH   4   6
ENDBRANCH   3   4
ENDBRANCH   2   3
ENDBRANCH   1   2
BRANCH   1  24
ATOM     24  O   UNL     1      -3.967  -3.466   5.337  1.00  0.00    -0.374 OA
BRANCH  24  25
ATOM     25  C   UNL     1      -3.543  -2.562   4.317  1.00  0.00     0.202 C 
BRANCH  25  26
ATOM     26  C   UNL     1      -3.801  -1.073   4.581  1.00  0.00     0.261 C 
BRANCH  26  27
ATOM     27  O   UNL     1      -3.060  -0.577   5.710  1.00  0.00    -0.460 OA
BRANCH  27  28
ATOM     28  C   UNL     1      -3.818  -0.279   6.793  1.00  0.00     0.338 C 
ATOM     29  O   UNL     1      -5.032  -0.344   6.890  1.00  0.00    -0.246 OA
BRANCH  28  30
ATOM     30  C   UNL     1      -2.958   0.011   7.955  1.00  0.00     0.060 A 
ATOM     31  C   UNL     1      -3.178  -0.729   9.123  1.00  0.00     0.016 A 
ATOM     32  C   UNL     1      -2.031   1.055   7.939  1.00  0.00     0.016 A 
ATOM     33  C   UNL     1      -2.502  -0.399  10.296  1.00  0.00     0.010 A 
ATOM     34  C   UNL     1      -1.360   1.392   9.120  1.00  0.00     0.010 A 
ATOM     35  C   UNL     1      -1.617   0.688  10.310  1.00  0.00    -0.014 A 
BRANCH  35  36
ATOM     36  C   UNL     1      -1.067   1.165  11.602  1.00  0.00     0.031 A 
ATOM     37  C   UNL     1      -1.718   2.330  12.293  1.00  0.00     0.074 A 
ATOM     38  C   UNL     1      -0.020   0.542  12.172  1.00  0.00     0.049 A 
ATOM     39  N   UNL     1      -1.391   2.922  13.415  1.00  0.00    -0.248 NA
ATOM     40  C   UNL     1      -2.901   2.904  11.633  1.00  0.00     0.031 C 
ATOM     41  C   UNL     1       0.670  -0.622  11.621  1.00  0.00     0.029 A 
ATOM     42  N   UNL     1       0.646   0.808  13.342  1.00  0.00    -0.354 N 
ATOM     43  C   UNL     1      -2.323   3.935  13.593  1.00  0.00     0.074 A 
ATOM     44  C   UNL     1      -3.212   3.899  12.451  1.00  0.00     0.031 C 
ATOM     45  C   UNL     1       1.667  -0.970  12.453  1.00  0.00     0.029 A 
ATOM     46  C   UNL     1       1.704  -0.034  13.575  1.00  0.00     0.049 A 
ATOM     47  H   UNL     1       0.389   1.534  13.956  1.00  0.00     0.167 HD
ATOM     48  C   UNL     1      -2.434   4.809  14.622  1.00  0.00     0.037 A 
ATOM     49  C   UNL     1       2.608  -0.036  14.573  1.00  0.00     0.037 A 
ATOM     50  C   UNL     1      -1.548   4.848  15.755  1.00  0.00     0.049 A 
ATOM     51  C   UNL     1       2.509   0.997  15.665  1.00  0.00     0.074 A 
ATOM     52  C   UNL     1      -1.581   5.694  16.850  1.00  0.00     0.029 A 
ATOM     53  N   UNL     1      -0.463   4.003  15.937  1.00  0.00    -0.354 N 
ATOM     54  N   UNL     1       1.618   1.943  15.834  1.00  0.00    -0.248 NA
ATOM     55  C   UNL     1       3.546   0.959  16.708  1.00  0.00     0.031 C 
ATOM     56  C   UNL     1      -0.491   5.391  17.672  1.00  0.00     0.029 A 
ATOM     57  C   UNL     1       0.193   4.323  17.115  1.00  0.00     0.049 A 
ATOM     58  H   UNL     1      -0.198   3.283  15.319  1.00  0.00     0.167 HD
ATOM     59  C   UNL     1       1.966   2.592  17.011  1.00  0.00     0.074 A 
ATOM     60  C   UNL     1       3.146   1.926  17.522  1.00  0.00     0.031 C 
ATOM     61  C   UNL     1       1.362   3.645  17.615  1.00  0.00     0.037 A 
BRANCH  48  62
ATOM     62  C   UNL     1      -3.547   5.814  14.558  1.00  0.00     0.064 A 
ATOM     63  C   UNL     1      -4.884   5.442  14.761  1.00  0.00     0.173 A 
ATOM     64  C   UNL     1      -3.269   7.169  14.329  1.00  0.00     0.173 A 
ATOM     65  F   UNL     1      -5.203   4.156  14.970  1.00  0.00    -0.203 F 
ATOM     66  C   UNL     1      -5.905   6.388  14.714  1.00  0.00     0.198 A 
ATOM     67  C   UNL     1      -4.289   8.117  14.309  1.00  0.00     0.198 A 
ATOM     68  F   UNL     1      -2.006   7.577  14.134  1.00  0.00    -0.203 F 
ATOM     69  F   UNL     1      -7.179   6.005  14.870  1.00  0.00    -0.200 F 
ATOM     70  C   UNL     1      -5.606   7.725  14.495  1.00  0.00     0.200 A 
ATOM     71  F   UNL     1      -3.998   9.409  14.108  1.00  0.00    -0.200 F 
ATOM     72  F   UNL     1      -6.589   8.635  14.458  1.00  0.00    -0.200 F 
ENDBRANCH  48  62
BRANCH  49  73
ATOM     73  C   UNL     1       3.695  -1.049  14.586  1.00  0.00     0.064 A 
ATOM     74  C   UNL     1       3.722  -2.065  15.550  1.00  0.00     0.173 A 
ATOM     75  C   UNL     1       4.735  -1.011  13.646  1.00  0.00     0.173 A 
ATOM     76  F   UNL     1       2.765  -2.124  16.488  1.00  0.00    -0.203 F 
ATOM     77  C   UNL     1       4.757  -2.998  15.583  1.00  0.00     0.198 A 
ATOM     78  C   UNL     1       5.755  -1.960  13.663  1.00  0.00     0.198 A 
ATOM     79  F   UNL     1       4.757  -0.054  12.707  1.00  0.00    -0.203 F 
ATOM     80  F   UNL     1       4.784  -3.932  16.543  1.00  0.00    -0.200 F 
ATOM     81  C   UNL     1       5.769  -2.948  14.636  1.00  0.00     0.200 A 
ATOM     82  F   UNL     1       6.727  -1.912  12.742  1.00  0.00    -0.200 F 
ATOM     83  F   UNL     1       6.763  -3.845  14.667  1.00  0.00    -0.200 F 
ENDBRANCH  49  73
BRANCH  61  84
ATOM     84  C   UNL     1       1.941   4.120  18.916  1.00  0.00     0.064 A 
ATOM     85  C   UNL     1       3.152   4.825  18.968  1.00  0.00     0.173 A 
ATOM     86  C   UNL     1       1.253   3.904  20.120  1.00  0.00     0.173 A 
ATOM     87  F   UNL     1       3.855   5.045  17.847  1.00  0.00    -0.203 F 
ATOM     88  C   UNL     1       3.665   5.276  20.182  1.00  0.00     0.198 A 
ATOM     89  C   UNL     1       1.755   4.380  21.328  1.00  0.00     0.198 A 
ATOM     90  F   UNL     1       0.087   3.241  20.123  1.00  0.00    -0.203 F 
ATOM     91  F   UNL     1       4.846   5.909  20.215  1.00  0.00    -0.200 F 
ATOM     92  C   UNL     1       2.963   5.059  21.359  1.00  0.00     0.200 A 
ATOM     93  F   UNL     1       1.069   4.181  22.462  1.00  0.00    -0.200 F 
ATOM     94  F   UNL     1       3.456   5.500  22.525  1.00  0.00    -0.200 F 
ENDBRANCH  61  84
ENDBRANCH  35  36
ENDBRANCH  28  30
ENDBRANCH  27  28
ENDBRANCH  26  27
ENDBRANCH  25  26
ENDBRANCH  24  25
ENDBRANCH   1  24
TORSDOF 20
