REMARK SMILES Cc1ccc(-c2c(C)sc(NC(=O)[C@H]3CC=CC[C@H]3C(=O)OCCOCCOC(=O)c3ccc(-c4c5nc(c(-c6c(F)c(F)c(F)c(F)c6F)c6ccc([nH]6)c(-c6c(F)c(F)c(F)c(F)c6F)c6nc(c(-c7c(F)c(F)c(F)c(F)c7F)c7ccc4[nH]7)C=C6)C=C5)cc3)c2C(N)=O)cc1
REMARK SMILES IDX 24 1 23 2 22 3 20 4 21 5 19 6 14 7 15 8 16 9 18 10 17 11
REMARK SMILES IDX 12 12 11 13 13 15 10 16 6 17 7 18 94 19 8 20 9 21 5 22 1 23
REMARK SMILES IDX 2 24 3 25 99 26 4 27 98 28 95 29 96 30 97 31 25 34 26 35
REMARK SMILES IDX 27 36 28 37 29 38 30 39 31 40 32 41 93 42 33 43 92 44 34 45
REMARK SMILES IDX 35 46 36 47 86 48 37 49 91 50 85 51 87 52 38 53 90 54 84 55
REMARK SMILES IDX 83 56 39 58 71 59 51 60 70 61 52 62 55 63 69 64 88 65 53 66
REMARK SMILES IDX 54 67 68 69 89 70 56 71 40 72 41 73 49 74 42 75 43 76 47 77
REMARK SMILES IDX 50 78 44 79 45 80 48 81 46 82 72 83 73 84 81 85 74 86 75 87
REMARK SMILES IDX 79 88 82 89 76 90 77 91 80 92 78 93 57 94 58 95 66 96 59 97
REMARK SMILES IDX 60 98 64 99 67 100 61 101 62 102 65 103 63 104
REMARK H PARENT 11 14 96 32 96 33 87 57 55 68
REMARK Flexibility Score: inf
ROOT
ATOM      1  C   UNL     1     -10.465  -1.615   1.225  1.00  0.00     0.202 C 
ENDROOT
BRANCH   1   2
ATOM      2  C   UNL     1      -9.301  -2.545   1.030  1.00  0.00     0.261 C 
BRANCH   2   3
ATOM      3  O   UNL     1      -8.227  -1.952   0.287  1.00  0.00    -0.463 OA
BRANCH   3   4
ATOM      4  C   UNL     1      -8.447  -1.704  -1.029  1.00  0.00     0.310 C 
ATOM      5  O   UNL     1      -9.059  -2.421  -1.799  1.00  0.00    -0.252 OA
BRANCH   4   6
ATOM      6  C   UNL     1      -7.851  -0.395  -1.434  1.00  0.00     0.116 C 
ATOM      7  C   UNL     1      -7.893   0.700  -0.350  1.00  0.00     0.097 C 
ATOM      8  C   UNL     1      -7.527   2.050  -0.979  1.00  0.00     0.041 C 
ATOM      9  C   UNL     1      -6.562   1.960  -2.143  1.00  0.00    -0.030 C 
ATOM     10  C   UNL     1      -6.505  -0.540  -2.121  1.00  0.00     0.043 C 
ATOM     11  C   UNL     1      -6.079   0.806  -2.635  1.00  0.00    -0.030 C 
BRANCH   7  12
ATOM     12  C   UNL     1      -7.401   0.380   1.107  1.00  0.00     0.229 C 
ATOM     13  N   UNL     1      -6.213  -0.213   1.443  1.00  0.00    -0.317 N 
ATOM     14  H   UNL     1      -6.282  -1.000   2.030  1.00  0.00     0.170 HD
ATOM     15  O   UNL     1      -8.211   0.506   2.039  1.00  0.00    -0.274 OA
BRANCH  13  16
ATOM     16  C   UNL     1      -4.938   0.144   1.072  1.00  0.00     0.109 A 
ATOM     17  C   UNL     1      -2.727   0.190   0.403  1.00  0.00     0.010 A 
ATOM     18  C   UNL     1      -3.337   1.141  -0.405  1.00  0.00     0.012 A 
ATOM     19  C   UNL     1      -3.683  -0.401   1.342  1.00  0.00     0.082 A 
ATOM     20  C   UNL     1      -2.917   1.805  -1.671  1.00  0.00     0.057 C 
ATOM     21  S   UNL     1      -4.717   1.687   0.411  1.00  0.00    -0.122 S 
BRANCH  17  22
ATOM     22  C   UNL     1      -1.287   0.015   0.291  1.00  0.00    -0.016 A 
ATOM     23  C   UNL     1       2.989  -0.206  -0.104  1.00  0.00     0.044 C 
ATOM     24  C   UNL     1       1.498  -0.128   0.005  1.00  0.00    -0.051 A 
ATOM     25  C   UNL     1       0.707  -1.283  -0.105  1.00  0.00     0.004 A 
ATOM     26  C   UNL     1       0.888   1.098   0.266  1.00  0.00     0.004 A 
ATOM     27  C   UNL     1      -0.685  -1.212   0.022  1.00  0.00     0.009 A 
ATOM     28  C   UNL     1      -0.488   1.161   0.430  1.00  0.00     0.009 A 
ENDBRANCH  17  22
BRANCH  19  29
ATOM     29  C   UNL     1      -3.364  -1.422   2.342  1.00  0.00     0.252 C 
ATOM     30  N   UNL     1      -4.148  -1.449   3.465  1.00  0.00    -0.365 N 
ATOM     31  O   UNL     1      -2.426  -2.200   2.264  1.00  0.00    -0.269 OA
ATOM     32  H   UNL     1      -4.910  -0.830   3.549  1.00  0.00     0.159 HD
ATOM     33  H   UNL     1      -3.951  -2.087   4.189  1.00  0.00     0.159 HD
ENDBRANCH  19  29
ENDBRANCH  13  16
ENDBRANCH   7  12
ENDBRANCH   4   6
ENDBRANCH   3   4
ENDBRANCH   2   3
ENDBRANCH   1   2
BRANCH   1  34
ATOM     34  O   UNL     1     -11.093  -1.466  -0.040  1.00  0.00    -0.374 OA
BRANCH  34  35
ATOM     35  C   UNL     1     -12.178  -0.554  -0.071  1.00  0.00     0.202 C 
BRANCH  35  36
ATOM     36  C   UNL     1     -13.262  -0.850   0.977  1.00  0.00     0.261 C 
BRANCH  36  37
ATOM     37  O   UNL     1     -13.873  -2.131   0.700  1.00  0.00    -0.460 OA
BRANCH  37  38
ATOM     38  C   UNL     1     -13.479  -3.173   1.482  1.00  0.00     0.338 C 
ATOM     39  O   UNL     1     -13.498  -3.182   2.706  1.00  0.00    -0.246 OA
BRANCH  38  40
ATOM     40  C   UNL     1     -12.755  -4.183   0.656  1.00  0.00     0.060 A 
ATOM     41  C   UNL     1     -11.988  -5.194   1.270  1.00  0.00     0.016 A 
ATOM     42  C   UNL     1     -12.580  -3.915  -0.699  1.00  0.00     0.016 A 
ATOM     43  C   UNL     1     -10.945  -5.819   0.566  1.00  0.00     0.010 A 
ATOM     44  C   UNL     1     -11.473  -4.431  -1.337  1.00  0.00     0.010 A 
ATOM     45  C   UNL     1     -10.627  -5.362  -0.709  1.00  0.00    -0.014 A 
BRANCH  45  46
ATOM     46  C   UNL     1      -9.434  -5.704  -1.496  1.00  0.00     0.031 A 
ATOM     47  C   UNL     1      -9.664  -6.349  -2.809  1.00  0.00     0.074 A 
ATOM     48  C   UNL     1      -8.209  -5.192  -1.211  1.00  0.00     0.049 A 
ATOM     49  N   UNL     1      -8.730  -6.751  -3.592  1.00  0.00    -0.248 NA
ATOM     50  C   UNL     1     -10.994  -6.642  -3.335  1.00  0.00     0.031 C 
ATOM     51  C   UNL     1      -7.097  -4.933  -2.135  1.00  0.00     0.029 A 
ATOM     52  N   UNL     1      -7.680  -4.760   0.015  1.00  0.00    -0.354 N 
ATOM     53  C   UNL     1      -9.288  -7.045  -4.814  1.00  0.00     0.074 A 
ATOM     54  C   UNL     1     -10.704  -7.071  -4.565  1.00  0.00     0.031 C 
ATOM     55  C   UNL     1      -5.971  -4.702  -1.436  1.00  0.00     0.029 A 
ATOM     56  C   UNL     1      -6.288  -4.949  -0.043  1.00  0.00     0.049 A 
ATOM     57  H   UNL     1      -8.189  -4.393   0.774  1.00  0.00     0.167 HD
ATOM     58  C   UNL     1      -8.451  -7.110  -5.888  1.00  0.00     0.037 A 
ATOM     59  C   UNL     1      -5.671  -5.806   0.814  1.00  0.00     0.037 A 
ATOM     60  C   UNL     1      -7.052  -7.045  -5.431  1.00  0.00     0.049 A 
ATOM     61  C   UNL     1      -5.027  -6.898   0.017  1.00  0.00     0.074 A 
ATOM     62  C   UNL     1      -6.083  -6.054  -5.448  1.00  0.00     0.029 A 
ATOM     63  N   UNL     1      -6.596  -8.013  -4.533  1.00  0.00    -0.354 N 
ATOM     64  N   UNL     1      -5.449  -7.235  -1.172  1.00  0.00    -0.248 NA
ATOM     65  C   UNL     1      -3.823  -7.612   0.415  1.00  0.00     0.031 C 
ATOM     66  C   UNL     1      -5.071  -6.414  -4.509  1.00  0.00     0.029 A 
ATOM     67  C   UNL     1      -5.405  -7.636  -3.943  1.00  0.00     0.049 A 
ATOM     68  H   UNL     1      -7.064  -8.858  -4.345  1.00  0.00     0.167 HD
ATOM     69  C   UNL     1      -4.564  -8.098  -1.737  1.00  0.00     0.074 A 
ATOM     70  C   UNL     1      -3.583  -8.338  -0.692  1.00  0.00     0.031 C 
ATOM     71  C   UNL     1      -4.708  -8.533  -3.022  1.00  0.00     0.037 A 
BRANCH  58  72
ATOM     72  C   UNL     1      -8.857  -7.052  -7.355  1.00  0.00     0.064 A 
ATOM     73  C   UNL     1      -7.870  -6.901  -8.358  1.00  0.00     0.173 A 
ATOM     74  C   UNL     1     -10.176  -7.074  -7.858  1.00  0.00     0.173 A 
ATOM     75  F   UNL     1      -6.565  -6.883  -8.056  1.00  0.00    -0.203 F 
ATOM     76  C   UNL     1      -8.181  -6.754  -9.717  1.00  0.00     0.198 A 
ATOM     77  C   UNL     1     -10.487  -6.931  -9.215  1.00  0.00     0.198 A 
ATOM     78  F   UNL     1     -11.242  -7.241  -7.079  1.00  0.00    -0.203 F 
ATOM     79  F   UNL     1      -7.195  -6.593 -10.611  1.00  0.00    -0.200 F 
ATOM     80  C   UNL     1      -9.490  -6.765 -10.146  1.00  0.00     0.200 A 
ATOM     81  F   UNL     1     -11.771  -6.954  -9.603  1.00  0.00    -0.200 F 
ATOM     82  F   UNL     1      -9.792  -6.622 -11.443  1.00  0.00    -0.200 F 
ENDBRANCH  58  72
BRANCH  59  83
ATOM     83  C   UNL     1      -6.390  -5.880   2.121  1.00  0.00     0.064 A 
ATOM     84  C   UNL     1      -6.421  -4.691   2.883  1.00  0.00     0.173 A 
ATOM     85  C   UNL     1      -7.415  -6.807   2.350  1.00  0.00     0.173 A 
ATOM     86  F   UNL     1      -5.496  -3.743   2.674  1.00  0.00    -0.203 F 
ATOM     87  C   UNL     1      -7.500  -4.372   3.706  1.00  0.00     0.198 A 
ATOM     88  C   UNL     1      -8.495  -6.486   3.184  1.00  0.00     0.198 A 
ATOM     89  F   UNL     1      -7.459  -7.952   1.656  1.00  0.00    -0.203 F 
ATOM     90  F   UNL     1      -7.576  -3.152   4.260  1.00  0.00    -0.200 F 
ATOM     91  C   UNL     1      -8.560  -5.252   3.818  1.00  0.00     0.200 A 
ATOM     92  F   UNL     1      -9.536  -7.326   3.283  1.00  0.00    -0.200 F 
ATOM     93  F   UNL     1      -9.674  -4.881   4.466  1.00  0.00    -0.200 F 
ENDBRANCH  59  83
BRANCH  71  94
ATOM     94  C   UNL     1      -4.154  -9.835  -3.538  1.00  0.00     0.064 A 
ATOM     95  C   UNL     1      -3.776 -10.900  -2.703  1.00  0.00     0.173 A 
ATOM     96  C   UNL     1      -4.184 -10.128  -4.922  1.00  0.00     0.173 A 
ATOM     97  F   UNL     1      -3.830 -10.808  -1.368  1.00  0.00    -0.203 F 
ATOM     98  C   UNL     1      -3.395 -12.140  -3.214  1.00  0.00     0.198 A 
ATOM     99  C   UNL     1      -3.885 -11.392  -5.421  1.00  0.00     0.198 A 
ATOM    100  F   UNL     1      -4.548  -9.215  -5.833  1.00  0.00    -0.203 F 
ATOM    101  F   UNL     1      -2.994 -13.104  -2.374  1.00  0.00    -0.200 F 
ATOM    102  C   UNL     1      -3.469 -12.392  -4.569  1.00  0.00     0.200 A 
ATOM    103  F   UNL     1      -4.034 -11.640  -6.729  1.00  0.00    -0.200 F 
ATOM    104  F   UNL     1      -3.166 -13.604  -5.048  1.00  0.00    -0.200 F 
ENDBRANCH  71  94
ENDBRANCH  45  46
ENDBRANCH  38  40
ENDBRANCH  37  38
ENDBRANCH  36  37
ENDBRANCH  35  36
ENDBRANCH  34  35
ENDBRANCH   1  34
TORSDOF 18
