REMARK SMILES CC(C)C[C@H](C(=O)OCCOCCOC(=O)c1ccc(-c2c3nc(c(-c4c(F)c(F)c(F)c(F)c4F)c4ccc([nH]4)c(-c4c(F)c(F)c(F)c(F)c4F)c4nc(c(-c5c(F)c(F)c(F)c(F)c5F)c5ccc2[nH]5)C=C4)C=C3)cc1)N1C(=O)/C(=C2\C(=O)Nc3ccc(Br)cc32)SC1=S
REMARK SMILES IDX 11 1 10 2 9 3 8 4 6 5 7 6 5 7 4 8 2 9 1 10 3 11 80 12 81 13
REMARK SMILES IDX 96 14 82 15 83 16 95 17 97 18 84 19 85 20 94 21 86 22 87 23
REMARK SMILES IDX 88 24 93 25 89 27 91 28 90 29 92 30 12 31 13 32 14 33 15 34
REMARK SMILES IDX 16 35 17 36 18 37 79 38 19 39 78 40 20 41 21 42 22 43 72 44
REMARK SMILES IDX 23 45 77 46 71 47 73 48 24 49 76 50 70 51 69 52 25 54 57 55
REMARK SMILES IDX 37 56 56 57 38 58 41 59 55 60 74 61 39 62 40 63 54 65 75 66
REMARK SMILES IDX 42 67 26 68 27 69 35 70 28 71 29 72 33 73 36 74 30 75 31 76
REMARK SMILES IDX 34 77 32 78 58 79 59 80 67 81 60 82 61 83 65 84 68 85 62 86
REMARK SMILES IDX 63 87 66 88 64 89 43 90 44 91 52 92 45 93 46 94 50 95 53 96
REMARK SMILES IDX 47 97 48 98 51 99 49 100
REMARK H PARENT 87 26 73 53 41 64
REMARK Flexibility Score: inf
ROOT
ATOM      1  O   UNL     1       0.084  -1.248  -3.880  1.00  0.00    -0.374 OA
ENDROOT
BRANCH   1   2
ATOM      2  C   UNL     1      -0.605  -2.111  -2.968  1.00  0.00     0.202 C 
BRANCH   2   3
ATOM      3  C   UNL     1      -0.691  -1.639  -1.516  1.00  0.00     0.261 C 
BRANCH   3   4
ATOM      4  O   UNL     1      -1.648  -0.565  -1.412  1.00  0.00    -0.462 OA
BRANCH   4   5
ATOM      5  C   UNL     1      -1.549   0.207  -0.291  1.00  0.00     0.329 C 
ATOM      6  O   UNL     1      -0.677   0.068   0.560  1.00  0.00    -0.250 OA
BRANCH   5   7
ATOM      7  C   UNL     1      -2.481   1.454  -0.348  1.00  0.00     0.202 C 
BRANCH   7   8
ATOM      8  C   UNL     1      -1.559   2.498  -1.079  1.00  0.00     0.040 C 
BRANCH   8   9
ATOM      9  C   UNL     1      -1.890   3.996  -1.021  1.00  0.00    -0.015 C 
ATOM     10  C   UNL     1      -1.787   4.559   0.395  1.00  0.00     0.007 C 
ATOM     11  C   UNL     1      -0.977   4.793  -1.961  1.00  0.00     0.007 C 
ENDBRANCH   8   9
ENDBRANCH   7   8
BRANCH   7  12
ATOM     12  N   UNL     1      -3.763   1.246  -1.082  1.00  0.00    -0.278 N 
ATOM     13  C   UNL     1      -4.360  -0.005  -1.104  1.00  0.00     0.267 C 
ATOM     14  C   UNL     1      -4.759   2.171  -1.232  1.00  0.00     0.149 C 
ATOM     15  O   UNL     1      -4.112  -0.886  -0.297  1.00  0.00    -0.268 OA
ATOM     16  C   UNL     1      -5.497  -0.024  -2.090  1.00  0.00     0.093 C 
ATOM     17  S   UNL     1      -5.788   1.625  -2.541  1.00  0.00    -0.053 SA
ATOM     18  S   UNL     1      -5.205   3.433  -0.238  1.00  0.00    -0.052 S 
ATOM     19  C   UNL     1      -6.260  -1.061  -2.465  1.00  0.00     0.069 C 
ATOM     20  C   UNL     1      -6.123  -2.461  -1.925  1.00  0.00     0.257 C 
ATOM     21  C   UNL     1      -7.448  -1.083  -3.349  1.00  0.00     0.013 A 
ATOM     22  O   UNL     1      -5.162  -2.993  -1.399  1.00  0.00    -0.269 OA
ATOM     23  N   UNL     1      -7.306  -3.093  -2.261  1.00  0.00    -0.321 N 
ATOM     24  C   UNL     1      -8.066  -2.319  -3.129  1.00  0.00     0.049 A 
ATOM     25  C   UNL     1      -7.917  -0.262  -4.364  1.00  0.00     0.026 A 
ATOM     26  H   UNL     1      -7.576  -3.979  -1.928  1.00  0.00     0.170 HD
ATOM     27  C   UNL     1      -9.172  -2.753  -3.836  1.00  0.00     0.028 A 
ATOM     28  C   UNL     1      -9.018  -0.696  -5.114  1.00  0.00     0.018 A 
ATOM     29  C   UNL     1      -9.650  -1.922  -4.848  1.00  0.00     0.018 A 
ATOM     30  Br  UNL     1      -9.613   0.352  -6.574  1.00  0.00    -0.051 Br
ENDBRANCH   7  12
ENDBRANCH   5   7
ENDBRANCH   4   5
ENDBRANCH   3   4
ENDBRANCH   2   3
ENDBRANCH   1   2
BRANCH   1  31
ATOM     31  C   UNL     1      -0.381   0.090  -3.997  1.00  0.00     0.202 C 
BRANCH  31  32
ATOM     32  C   UNL     1      -1.649   0.331  -4.832  1.00  0.00     0.261 C 
BRANCH  32  33
ATOM     33  O   UNL     1      -2.644  -0.694  -4.728  1.00  0.00    -0.460 OA
BRANCH  33  34
ATOM     34  C   UNL     1      -2.551  -1.655  -5.687  1.00  0.00     0.338 C 
ATOM     35  O   UNL     1      -1.767  -1.716  -6.613  1.00  0.00    -0.246 OA
BRANCH  34  36
ATOM     36  C   UNL     1      -3.558  -2.692  -5.412  1.00  0.00     0.060 A 
ATOM     37  C   UNL     1      -3.155  -3.981  -5.049  1.00  0.00     0.016 A 
ATOM     38  C   UNL     1      -4.905  -2.396  -5.573  1.00  0.00     0.016 A 
ATOM     39  C   UNL     1      -4.111  -4.978  -4.815  1.00  0.00     0.010 A 
ATOM     40  C   UNL     1      -5.848  -3.397  -5.341  1.00  0.00     0.010 A 
ATOM     41  C   UNL     1      -5.478  -4.699  -4.949  1.00  0.00    -0.014 A 
BRANCH  41  42
ATOM     42  C   UNL     1      -6.532  -5.747  -4.768  1.00  0.00     0.031 A 
ATOM     43  C   UNL     1      -7.489  -6.036  -5.899  1.00  0.00     0.074 A 
ATOM     44  C   UNL     1      -6.708  -6.389  -3.593  1.00  0.00     0.049 A 
ATOM     45  N   UNL     1      -8.576  -6.769  -5.909  1.00  0.00    -0.248 NA
ATOM     46  C   UNL     1      -7.211  -5.368  -7.179  1.00  0.00     0.031 C 
ATOM     47  C   UNL     1      -5.907  -6.200  -2.385  1.00  0.00     0.029 A 
ATOM     48  N   UNL     1      -7.651  -7.321  -3.217  1.00  0.00    -0.354 N 
ATOM     49  C   UNL     1      -9.122  -6.615  -7.178  1.00  0.00     0.074 A 
ATOM     50  C   UNL     1      -8.299  -5.652  -7.876  1.00  0.00     0.031 C 
ATOM     51  C   UNL     1      -6.386  -6.989  -1.407  1.00  0.00     0.029 A 
ATOM     52  C   UNL     1      -7.535  -7.737  -1.911  1.00  0.00     0.049 A 
ATOM     53  H   UNL     1      -8.345  -7.659  -3.828  1.00  0.00     0.167 HD
ATOM     54  C   UNL     1     -10.180  -7.249  -7.740  1.00  0.00     0.037 A 
ATOM     55  C   UNL     1      -8.266  -8.621  -1.200  1.00  0.00     0.037 A 
ATOM     56  C   UNL     1     -10.950  -8.279  -7.097  1.00  0.00     0.049 A 
ATOM     57  C   UNL     1      -9.415  -9.347  -1.855  1.00  0.00     0.074 A 
ATOM     58  C   UNL     1     -11.984  -9.036  -7.621  1.00  0.00     0.029 A 
ATOM     59  N   UNL     1     -10.752  -8.717  -5.798  1.00  0.00    -0.354 N 
ATOM     60  N   UNL     1      -9.883  -9.229  -3.073  1.00  0.00    -0.248 NA
ATOM     61  C   UNL     1     -10.127 -10.343  -1.038  1.00  0.00     0.031 C 
ATOM     62  C   UNL     1     -12.431  -9.915  -6.628  1.00  0.00     0.029 A 
ATOM     63  C   UNL     1     -11.648  -9.731  -5.501  1.00  0.00     0.049 A 
ATOM     64  H   UNL     1     -10.075  -8.362  -5.178  1.00  0.00     0.167 HD
ATOM     65  C   UNL     1     -10.910 -10.160  -3.180  1.00  0.00     0.074 A 
ATOM     66  C   UNL     1     -10.996 -10.840  -1.907  1.00  0.00     0.031 C 
ATOM     67  C   UNL     1     -11.709 -10.427  -4.242  1.00  0.00     0.037 A 
BRANCH  54  68
ATOM     68  C   UNL     1     -10.546  -6.864  -9.145  1.00  0.00     0.064 A 
ATOM     69  C   UNL     1      -9.714  -7.174 -10.233  1.00  0.00     0.173 A 
ATOM     70  C   UNL     1     -11.748  -6.191  -9.410  1.00  0.00     0.173 A 
ATOM     71  F   UNL     1      -8.549  -7.808 -10.031  1.00  0.00    -0.203 F 
ATOM     72  C   UNL     1     -10.048  -6.781 -11.525  1.00  0.00     0.198 A 
ATOM     73  C   UNL     1     -12.097  -5.834 -10.710  1.00  0.00     0.198 A 
ATOM     74  F   UNL     1     -12.584  -5.880  -8.408  1.00  0.00    -0.203 F 
ATOM     75  F   UNL     1      -9.202  -7.025 -12.536  1.00  0.00    -0.200 F 
ATOM     76  C   UNL     1     -11.241  -6.117 -11.764  1.00  0.00     0.200 A 
ATOM     77  F   UNL     1     -13.258  -5.206 -10.941  1.00  0.00    -0.200 F 
ATOM     78  F   UNL     1     -11.561  -5.740 -13.009  1.00  0.00    -0.200 F 
ENDBRANCH  54  68
BRANCH  55  79
ATOM     79  C   UNL     1      -7.920  -8.914   0.218  1.00  0.00     0.064 A 
ATOM     80  C   UNL     1      -7.374 -10.154   0.582  1.00  0.00     0.173 A 
ATOM     81  C   UNL     1      -8.174  -7.988   1.239  1.00  0.00     0.173 A 
ATOM     82  F   UNL     1      -7.143 -11.084  -0.356  1.00  0.00    -0.203 F 
ATOM     83  C   UNL     1      -7.124 -10.468   1.917  1.00  0.00     0.198 A 
ATOM     84  C   UNL     1      -7.898  -8.293   2.571  1.00  0.00     0.198 A 
ATOM     85  F   UNL     1      -8.700  -6.790   0.942  1.00  0.00    -0.203 F 
ATOM     86  F   UNL     1      -6.662 -11.683   2.241  1.00  0.00    -0.200 F 
ATOM     87  C   UNL     1      -7.384  -9.536   2.910  1.00  0.00     0.200 A 
ATOM     88  F   UNL     1      -8.149  -7.390   3.529  1.00  0.00    -0.200 F 
ATOM     89  F   UNL     1      -7.155  -9.843   4.194  1.00  0.00    -0.200 F 
ENDBRANCH  55  79
BRANCH  67  90
ATOM     90  C   UNL     1     -12.712 -11.536  -4.105  1.00  0.00     0.064 A 
ATOM     91  C   UNL     1     -13.864 -11.397  -3.318  1.00  0.00     0.173 A 
ATOM     92  C   UNL     1     -12.548 -12.731  -4.822  1.00  0.00     0.173 A 
ATOM     93  F   UNL     1     -14.062 -10.279  -2.603  1.00  0.00    -0.203 F 
ATOM     94  C   UNL     1     -14.805 -12.421  -3.239  1.00  0.00     0.198 A 
ATOM     95  C   UNL     1     -13.504 -13.742  -4.763  1.00  0.00     0.198 A 
ATOM     96  F   UNL     1     -11.467 -12.912  -5.596  1.00  0.00    -0.203 F 
ATOM     97  F   UNL     1     -15.880 -12.281  -2.451  1.00  0.00    -0.200 F 
ATOM     98  C   UNL     1     -14.629 -13.588  -3.968  1.00  0.00     0.200 A 
ATOM     99  F   UNL     1     -13.339 -14.862  -5.480  1.00  0.00    -0.200 F 
ATOM    100  F   UNL     1     -15.543 -14.566  -3.901  1.00  0.00    -0.200 F 
ENDBRANCH  67  90
ENDBRANCH  41  42
ENDBRANCH  34  36
ENDBRANCH  33  34
ENDBRANCH  32  33
ENDBRANCH  31  32
ENDBRANCH   1  31
TORSDOF 17
