REMARK SMILES CC[NH+]1CC[NH+]([C@@H]2CC(=O)N(c3ccc(C(=O)OCCOCCOC(=O)c4ccc(-c5c6nc(c(-c7c(F)c(F)c(F)c(F)c7F)c7ccc([nH]7)c(-c7c(F)c(F)c(F)c(F)c7F)c7nc(c(-c8c(F)c(F)c(F)c(F)c8F)c8ccc5[nH]8)C=C7)C=C6)cc4)cc3)C2=O)CC1
REMARK SMILES IDX 20 1 19 2 18 3 16 4 17 5 15 6 12 7 13 8 91 9 14 10 90 11
REMARK SMILES IDX 11 12 7 13 8 14 92 15 9 16 93 17 10 18 6 19 3 20 4 21 95 22
REMARK SMILES IDX 5 24 94 25 2 27 1 28 21 29 22 30 23 31 24 32 25 33 26 34
REMARK SMILES IDX 27 35 28 36 89 37 29 38 88 39 30 40 31 41 32 42 82 43 33 44
REMARK SMILES IDX 87 45 81 46 83 47 34 48 86 49 80 50 79 51 35 53 67 54 47 55
REMARK SMILES IDX 66 56 48 57 51 58 65 59 84 60 49 61 50 62 64 64 85 65 52 66
REMARK SMILES IDX 36 67 37 68 45 69 38 70 39 71 43 72 46 73 40 74 41 75 44 76
REMARK SMILES IDX 42 77 68 78 69 79 77 80 70 81 71 82 75 83 78 84 72 85 73 86
REMARK SMILES IDX 76 87 74 88 53 89 54 90 62 91 55 92 56 93 60 94 63 95 57 96
REMARK SMILES IDX 58 97 61 98 59 99
REMARK H PARENT 3 23 6 26 83 52 51 63
REMARK Flexibility Score: inf
ROOT
ATOM      1  C   UNL     1       0.433 -11.764   8.768  1.00  0.00     0.202 C 
ENDROOT
BRANCH   1   2
ATOM      2  C   UNL     1       1.713 -11.267   8.089  1.00  0.00     0.261 C 
BRANCH   2   3
ATOM      3  O   UNL     1       1.666  -9.851   7.862  1.00  0.00    -0.460 OA
BRANCH   3   4
ATOM      4  C   UNL     1       1.516  -9.489   6.566  1.00  0.00     0.338 C 
ATOM      5  O   UNL     1       1.560 -10.219   5.586  1.00  0.00    -0.246 OA
BRANCH   4   6
ATOM      6  C   UNL     1       1.101  -8.074   6.490  1.00  0.00     0.060 A 
ATOM      7  C   UNL     1       0.312  -5.394   6.171  1.00  0.00     0.052 A 
ATOM      8  C   UNL     1      -0.265  -6.405   5.389  1.00  0.00     0.028 A 
ATOM      9  C   UNL     1       1.234  -5.762   7.166  1.00  0.00     0.028 A 
ATOM     10  C   UNL     1       0.146  -7.731   5.528  1.00  0.00     0.018 A 
ATOM     11  C   UNL     1       1.615  -7.096   7.341  1.00  0.00     0.018 A 
BRANCH   7  12
ATOM     12  N   UNL     1       0.048  -4.032   5.879  1.00  0.00    -0.245 N 
ATOM     13  C   UNL     1      -0.925  -2.124   4.890  1.00  0.00     0.285 C 
ATOM     14  C   UNL     1       0.441  -1.764   5.450  1.00  0.00     0.176 C 
ATOM     15  C   UNL     1      -1.133  -3.566   5.341  1.00  0.00     0.292 C 
ATOM     16  C   UNL     1       0.986  -3.038   6.007  1.00  0.00     0.240 C 
ATOM     17  O   UNL     1      -2.193  -4.173   5.236  1.00  0.00    -0.267 OA
ATOM     18  O   UNL     1       2.127  -3.116   6.444  1.00  0.00    -0.274 OA
BRANCH  13  19
ATOM     19  N   UNL     1      -1.206  -1.959   3.449  1.00  0.00    -0.315 N 
ATOM     20  N   UNL     1       1.014  -1.182   1.550  1.00  0.00    -0.326 N 
ATOM     21  C   UNL     1       0.337  -0.192   2.413  1.00  0.00     0.324 C 
ATOM     22  C   UNL     1       0.851  -2.547   2.084  1.00  0.00     0.324 C 
ATOM     23  H   UNL     1       2.007  -0.950   1.558  1.00  0.00     0.348 HD
ATOM     24  C   UNL     1      -1.067  -0.586   2.941  1.00  0.00     0.325 C 
ATOM     25  C   UNL     1      -0.582  -2.909   2.518  1.00  0.00     0.325 C 
ATOM     26  H   UNL     1      -2.196  -2.203   3.454  1.00  0.00     0.349 HD
BRANCH  20  27
ATOM     27  C   UNL     1       0.581  -1.102   0.148  1.00  0.00     0.259 C 
ATOM     28  C   UNL     1       1.162   0.126  -0.548  1.00  0.00     0.071 C 
ENDBRANCH  20  27
ENDBRANCH  13  19
ENDBRANCH   7  12
ENDBRANCH   4   6
ENDBRANCH   3   4
ENDBRANCH   2   3
ENDBRANCH   1   2
BRANCH   1  29
ATOM     29  O   UNL     1      -0.783 -11.626   8.035  1.00  0.00    -0.374 OA
BRANCH  29  30
ATOM     30  C   UNL     1      -1.412 -10.343   8.035  1.00  0.00     0.202 C 
BRANCH  30  31
ATOM     31  C   UNL     1      -2.200  -9.953   9.291  1.00  0.00     0.261 C 
BRANCH  31  32
ATOM     32  O   UNL     1      -1.348  -9.787  10.439  1.00  0.00    -0.460 OA
BRANCH  32  33
ATOM     33  C   UNL     1      -1.462 -10.759  11.374  1.00  0.00     0.338 C 
ATOM     34  O   UNL     1      -2.244 -11.698  11.381  1.00  0.00    -0.246 OA
BRANCH  33  35
ATOM     35  C   UNL     1      -0.362 -10.647  12.348  1.00  0.00     0.060 A 
ATOM     36  C   UNL     1       0.435 -11.779  12.558  1.00  0.00     0.016 A 
ATOM     37  C   UNL     1      -0.161  -9.486  13.097  1.00  0.00     0.016 A 
ATOM     38  C   UNL     1       1.409 -11.772  13.554  1.00  0.00     0.010 A 
ATOM     39  C   UNL     1       0.812  -9.483  14.102  1.00  0.00     0.010 A 
ATOM     40  C   UNL     1       1.576 -10.637  14.358  1.00  0.00    -0.014 A 
BRANCH  40  41
ATOM     41  C   UNL     1       2.452 -10.707  15.552  1.00  0.00     0.031 A 
ATOM     42  C   UNL     1       1.826 -10.878  16.908  1.00  0.00     0.074 A 
ATOM     43  C   UNL     1       3.789 -10.643  15.427  1.00  0.00     0.049 A 
ATOM     44  N   UNL     1       2.393 -10.918  18.087  1.00  0.00    -0.248 NA
ATOM     45  C   UNL     1       0.362 -11.020  16.939  1.00  0.00     0.031 C 
ATOM     46  C   UNL     1       4.513 -10.517  14.164  1.00  0.00     0.029 A 
ATOM     47  N   UNL     1       4.775 -10.667  16.381  1.00  0.00    -0.354 N 
ATOM     48  C   UNL     1       1.357 -11.080  18.998  1.00  0.00     0.074 A 
ATOM     49  C   UNL     1       0.125 -11.099  18.240  1.00  0.00     0.031 C 
ATOM     50  C   UNL     1       5.831 -10.464  14.421  1.00  0.00     0.029 A 
ATOM     51  C   UNL     1       6.039 -10.516  15.867  1.00  0.00     0.049 A 
ATOM     52  H   UNL     1       4.594 -10.781  17.342  1.00  0.00     0.167 HD
ATOM     53  C   UNL     1       1.430 -11.211  20.345  1.00  0.00     0.037 A 
ATOM     54  C   UNL     1       7.225 -10.408  16.497  1.00  0.00     0.037 A 
ATOM     55  C   UNL     1       2.659 -11.195  21.094  1.00  0.00     0.049 A 
ATOM     56  C   UNL     1       7.272 -10.485  18.001  1.00  0.00     0.074 A 
ATOM     57  C   UNL     1       2.840 -11.344  22.458  1.00  0.00     0.029 A 
ATOM     58  N   UNL     1       3.918 -11.011  20.542  1.00  0.00    -0.354 N 
ATOM     59  N   UNL     1       6.293 -10.666  18.854  1.00  0.00    -0.248 NA
ATOM     60  C   UNL     1       8.594 -10.345  18.630  1.00  0.00     0.031 C 
ATOM     61  C   UNL     1       4.202 -11.191  22.738  1.00  0.00     0.029 A 
ATOM     62  C   UNL     1       4.878 -11.011  21.542  1.00  0.00     0.049 A 
ATOM     63  H   UNL     1       4.103 -10.896  19.581  1.00  0.00     0.167 HD
ATOM     64  C   UNL     1       6.880 -10.694  20.113  1.00  0.00     0.074 A 
ATOM     65  C   UNL     1       8.304 -10.524  19.911  1.00  0.00     0.031 C 
ATOM     66  C   UNL     1       6.294 -10.849  21.326  1.00  0.00     0.037 A 
BRANCH  53  67
ATOM     67  C   UNL     1       0.139 -11.355  21.099  1.00  0.00     0.064 A 
ATOM     68  C   UNL     1      -0.641 -12.519  21.017  1.00  0.00     0.173 A 
ATOM     69  C   UNL     1      -0.305 -10.327  21.945  1.00  0.00     0.173 A 
ATOM     70  F   UNL     1      -0.268 -13.526  20.214  1.00  0.00    -0.203 F 
ATOM     71  C   UNL     1      -1.831 -12.636  21.731  1.00  0.00     0.198 A 
ATOM     72  C   UNL     1      -1.478 -10.460  22.682  1.00  0.00     0.198 A 
ATOM     73  F   UNL     1       0.405  -9.195  22.065  1.00  0.00    -0.203 F 
ATOM     74  F   UNL     1      -2.585 -13.736  21.599  1.00  0.00    -0.200 F 
ATOM     75  C   UNL     1      -2.245 -11.610  22.569  1.00  0.00     0.200 A 
ATOM     76  F   UNL     1      -1.869  -9.474  23.501  1.00  0.00    -0.200 F 
ATOM     77  F   UNL     1      -3.385 -11.728  23.262  1.00  0.00    -0.200 F 
ENDBRANCH  53  67
BRANCH  54  78
ATOM     78  C   UNL     1       8.468 -10.203  15.707  1.00  0.00     0.064 A 
ATOM     79  C   UNL     1       9.460 -11.192  15.649  1.00  0.00     0.173 A 
ATOM     80  C   UNL     1       8.698  -9.007  15.011  1.00  0.00     0.173 A 
ATOM     81  F   UNL     1       9.298 -12.343  16.318  1.00  0.00    -0.203 F 
ATOM     82  C   UNL     1      10.642 -10.985  14.940  1.00  0.00     0.198 A 
ATOM     83  C   UNL     1       9.867  -8.813  14.278  1.00  0.00     0.198 A 
ATOM     84  F   UNL     1       7.782  -8.028  15.036  1.00  0.00    -0.203 F 
ATOM     85  F   UNL     1      11.595 -11.927  14.942  1.00  0.00    -0.200 F 
ATOM     86  C   UNL     1      10.842  -9.799  14.250  1.00  0.00     0.200 A 
ATOM     87  F   UNL     1      10.049  -7.671  13.602  1.00  0.00    -0.200 F 
ATOM     88  F   UNL     1      11.977  -9.601  13.567  1.00  0.00    -0.200 F 
ENDBRANCH  54  78
BRANCH  66  89
ATOM     89  C   UNL     1       7.193 -10.885  22.530  1.00  0.00     0.064 A 
ATOM     90  C   UNL     1       7.854  -9.738  22.994  1.00  0.00     0.173 A 
ATOM     91  C   UNL     1       7.361 -12.076  23.253  1.00  0.00     0.173 A 
ATOM     92  F   UNL     1       7.739  -8.577  22.332  1.00  0.00    -0.203 F 
ATOM     93  C   UNL     1       8.672  -9.790  24.120  1.00  0.00     0.198 A 
ATOM     94  C   UNL     1       8.152 -12.117  24.397  1.00  0.00     0.198 A 
ATOM     95  F   UNL     1       6.744 -13.200  22.857  1.00  0.00    -0.203 F 
ATOM     96  F   UNL     1       9.335  -8.694  24.515  1.00  0.00    -0.200 F 
ATOM     97  C   UNL     1       8.814 -10.976  24.825  1.00  0.00     0.200 A 
ATOM     98  F   UNL     1       8.274 -13.260  25.086  1.00  0.00    -0.200 F 
ATOM     99  F   UNL     1       9.594 -11.022  25.913  1.00  0.00    -0.200 F 
ENDBRANCH  66  89
ENDBRANCH  40  41
ENDBRANCH  33  35
ENDBRANCH  32  33
ENDBRANCH  31  32
ENDBRANCH  30  31
ENDBRANCH  29  30
ENDBRANCH   1  29
TORSDOF 17
