REMARK SMILES O=C1O[C@@H](c2ccc(O)c(O)c2)[C@H](C(=O)OCCOCCOC(=O)c2ccc(-c3c4nc(c(-c5c(F)c(F)c(F)c(F)c5F)c5ccc([nH]5)c(-c5c(F)c(F)c(F)c(F)c5F)c5nc(c(-c6c(F)c(F)c(F)c(F)c6F)c6ccc3[nH]6)C=C5)C=C4)cc2)/C1=C\c1ccc(O)c(O)c1
REMARK SMILES IDX 19 1 18 2 17 3 16 4 14 5 15 6 13 7 1 8 2 9 3 10 88 11 4 12
REMARK SMILES IDX 89 13 5 14 6 15 12 16 7 17 10 18 8 19 11 20 9 22 90 24 91 25
REMARK SMILES IDX 97 26 92 27 95 28 93 29 96 30 94 32 20 34 21 35 22 36 23 37
REMARK SMILES IDX 24 38 25 39 26 40 87 41 27 42 86 43 28 44 29 45 30 46 80 47
REMARK SMILES IDX 31 48 85 49 79 50 81 51 32 52 84 53 78 54 77 55 33 57 65 58
REMARK SMILES IDX 45 59 64 60 46 61 49 62 63 63 82 64 47 65 48 66 62 68 83 69
REMARK SMILES IDX 50 70 34 71 35 72 43 73 36 74 37 75 41 76 44 77 38 78 39 79
REMARK SMILES IDX 42 80 40 81 66 82 67 83 75 84 68 85 69 86 73 87 76 88 70 89
REMARK SMILES IDX 71 90 74 91 72 92 51 93 52 94 60 95 53 96 54 97 58 98 61 99
REMARK SMILES IDX 55 100 56 101 59 102 57 103
REMARK H PARENT 11 21 9 23 96 31 94 33 81 56 49 67
REMARK Flexibility Score: inf
ROOT
ATOM      1  O   UNL     1       1.854   3.570   3.753  1.00  0.00    -0.374 OA
ENDROOT
BRANCH   1   2
ATOM      2  C   UNL     1       2.770   2.542   4.109  1.00  0.00     0.202 C 
BRANCH   2   3
ATOM      3  C   UNL     1       2.408   1.097   3.766  1.00  0.00     0.261 C 
BRANCH   3   4
ATOM      4  O   UNL     1       2.348   0.908   2.342  1.00  0.00    -0.463 OA
BRANCH   4   5
ATOM      5  C   UNL     1       1.112   0.591   1.857  1.00  0.00     0.317 C 
ATOM      6  O   UNL     1       0.144   0.306   2.547  1.00  0.00    -0.251 OA
BRANCH   5   7
ATOM      7  C   UNL     1       1.113   0.689   0.340  1.00  0.00     0.182 C 
ATOM      8  O   UNL     1      -1.854  -1.091  -0.442  1.00  0.00    -0.247 OA
ATOM      9  C   UNL     1      -0.715  -0.685  -0.287  1.00  0.00     0.335 C 
ATOM     10  O   UNL     1       0.403  -1.462  -0.231  1.00  0.00    -0.453 OA
ATOM     11  C   UNL     1      -0.296   0.727  -0.138  1.00  0.00     0.056 C 
ATOM     12  C   UNL     1       1.587  -0.642  -0.209  1.00  0.00     0.226 C 
ATOM     13  C   UNL     1      -1.134   1.737  -0.417  1.00  0.00     0.020 C 
BRANCH  12  14
ATOM     14  C   UNL     1       2.242  -0.574  -1.586  1.00  0.00    -0.002 A 
ATOM     15  C   UNL     1       3.359   0.258  -1.812  1.00  0.00     0.012 A 
ATOM     16  C   UNL     1       1.793  -1.386  -2.641  1.00  0.00     0.057 A 
ATOM     17  C   UNL     1       3.992   0.296  -3.062  1.00  0.00     0.050 A 
ATOM     18  C   UNL     1       2.429  -1.345  -3.874  1.00  0.00     0.157 A 
ATOM     19  C   UNL     1       3.519  -0.510  -4.089  1.00  0.00     0.157 A 
BRANCH  18  20
ATOM     20  O   UNL     1       1.974  -2.149  -4.879  1.00  0.00    -0.504 OA
ATOM     21  H   UNL     1       2.392  -2.133  -5.717  1.00  0.00     0.293 HD
ENDBRANCH  18  20
BRANCH  19  22
ATOM     22  O   UNL     1       4.099  -0.530  -5.326  1.00  0.00    -0.504 OA
ATOM     23  H   UNL     1       4.836   0.019  -5.507  1.00  0.00     0.293 HD
ENDBRANCH  19  22
ENDBRANCH  12  14
BRANCH  13  24
ATOM     24  C   UNL     1      -0.820   3.168  -0.345  1.00  0.00    -0.021 A 
ATOM     25  C   UNL     1       0.083   3.753  -1.247  1.00  0.00     0.012 A 
ATOM     26  C   UNL     1      -1.477   3.978   0.589  1.00  0.00     0.058 A 
ATOM     27  C   UNL     1       0.347   5.129  -1.207  1.00  0.00     0.051 A 
ATOM     28  C   UNL     1      -1.202   5.342   0.628  1.00  0.00     0.157 A 
ATOM     29  C   UNL     1      -0.292   5.915  -0.256  1.00  0.00     0.157 A 
BRANCH  28  30
ATOM     30  O   UNL     1      -1.812   6.117   1.572  1.00  0.00    -0.504 OA
ATOM     31  H   UNL     1      -1.635   7.037   1.609  1.00  0.00     0.293 HD
ENDBRANCH  28  30
BRANCH  29  32
ATOM     32  O   UNL     1      -0.043   7.253  -0.134  1.00  0.00    -0.504 OA
ATOM     33  H   UNL     1       0.564   7.672  -0.712  1.00  0.00     0.293 HD
ENDBRANCH  29  32
ENDBRANCH  13  24
ENDBRANCH   5   7
ENDBRANCH   4   5
ENDBRANCH   3   4
ENDBRANCH   2   3
ENDBRANCH   1   2
BRANCH   1  34
ATOM     34  C   UNL     1       1.672   3.888   2.379  1.00  0.00     0.202 C 
BRANCH  34  35
ATOM     35  C   UNL     1       2.772   4.662   1.640  1.00  0.00     0.261 C 
BRANCH  35  36
ATOM     36  O   UNL     1       4.079   4.102   1.793  1.00  0.00    -0.460 OA
BRANCH  36  37
ATOM     37  C   UNL     1       4.847   4.755   2.701  1.00  0.00     0.338 C 
ATOM     38  O   UNL     1       4.575   5.762   3.328  1.00  0.00    -0.246 OA
BRANCH  37  39
ATOM     39  C   UNL     1       6.051   3.954   2.961  1.00  0.00     0.060 A 
ATOM     40  C   UNL     1       6.272   3.512   4.272  1.00  0.00     0.016 A 
ATOM     41  C   UNL     1       6.965   3.683   1.944  1.00  0.00     0.016 A 
ATOM     42  C   UNL     1       7.434   2.817   4.581  1.00  0.00     0.010 A 
ATOM     43  C   UNL     1       8.139   3.000   2.258  1.00  0.00     0.010 A 
ATOM     44  C   UNL     1       8.389   2.593   3.582  1.00  0.00    -0.014 A 
BRANCH  44  45
ATOM     45  C   UNL     1       9.725   2.076   3.945  1.00  0.00     0.031 A 
ATOM     46  C   UNL     1      10.864   3.047   4.048  1.00  0.00     0.074 A 
ATOM     47  C   UNL     1       9.913   0.765   4.168  1.00  0.00     0.049 A 
ATOM     48  N   UNL     1      12.137   2.818   4.234  1.00  0.00    -0.248 NA
ATOM     49  C   UNL     1      10.520   4.473   3.914  1.00  0.00     0.031 C 
ATOM     50  C   UNL     1       8.866  -0.254   4.143  1.00  0.00     0.029 A 
ATOM     51  N   UNL     1      11.061   0.067   4.443  1.00  0.00    -0.354 N 
ATOM     52  C   UNL     1      12.747   4.066   4.223  1.00  0.00     0.074 A 
ATOM     53  C   UNL     1      11.711   5.046   3.983  1.00  0.00     0.031 C 
ATOM     54  C   UNL     1       9.424  -1.455   4.372  1.00  0.00     0.029 A 
ATOM     55  C   UNL     1      10.869  -1.290   4.515  1.00  0.00     0.049 A 
ATOM     56  H   UNL     1      11.936   0.497   4.576  1.00  0.00     0.167 HD
ATOM     57  C   UNL     1      14.055   4.360   4.404  1.00  0.00     0.037 A 
ATOM     58  C   UNL     1      11.769  -2.284   4.644  1.00  0.00     0.037 A 
ATOM     59  C   UNL     1      15.072   3.372   4.645  1.00  0.00     0.049 A 
ATOM     60  C   UNL     1      13.231  -1.936   4.761  1.00  0.00     0.074 A 
ATOM     61  C   UNL     1      16.425   3.561   4.863  1.00  0.00     0.029 A 
ATOM     62  N   UNL     1      14.846   2.003   4.691  1.00  0.00    -0.354 N 
ATOM     63  N   UNL     1      13.803  -0.755   4.769  1.00  0.00    -0.248 NA
ATOM     64  C   UNL     1      14.173  -3.057   4.886  1.00  0.00     0.031 C 
ATOM     65  C   UNL     1      17.027   2.305   4.977  1.00  0.00     0.029 A 
ATOM     66  C   UNL     1      16.040   1.335   4.902  1.00  0.00     0.049 A 
ATOM     67  H   UNL     1      13.967   1.572   4.590  1.00  0.00     0.167 HD
ATOM     68  C   UNL     1      15.162  -0.989   4.936  1.00  0.00     0.074 A 
ATOM     69  C   UNL     1      15.329  -2.424   5.030  1.00  0.00     0.031 C 
ATOM     70  C   UNL     1      16.180  -0.096   5.010  1.00  0.00     0.037 A 
BRANCH  57  71
ATOM     71  C   UNL     1      14.466   5.801   4.311  1.00  0.00     0.064 A 
ATOM     72  C   UNL     1      14.100   6.742   5.285  1.00  0.00     0.173 A 
ATOM     73  C   UNL     1      15.266   6.240   3.245  1.00  0.00     0.173 A 
ATOM     74  F   UNL     1      13.322   6.378   6.316  1.00  0.00    -0.203 F 
ATOM     75  C   UNL     1      14.498   8.072   5.182  1.00  0.00     0.198 A 
ATOM     76  C   UNL     1      15.690   7.563   3.163  1.00  0.00     0.198 A 
ATOM     77  F   UNL     1      15.646   5.382   2.286  1.00  0.00    -0.203 F 
ATOM     78  F   UNL     1      14.093   8.964   6.097  1.00  0.00    -0.200 F 
ATOM     79  C   UNL     1      15.300   8.480   4.127  1.00  0.00     0.200 A 
ATOM     80  F   UNL     1      16.476   7.952   2.149  1.00  0.00    -0.200 F 
ATOM     81  F   UNL     1      15.689   9.759   4.033  1.00  0.00    -0.200 F 
ENDBRANCH  57  71
BRANCH  58  82
ATOM     82  C   UNL     1      11.317  -3.700   4.649  1.00  0.00     0.064 A 
ATOM     83  C   UNL     1      11.435  -4.493   5.798  1.00  0.00     0.173 A 
ATOM     84  C   UNL     1      10.767  -4.293   3.502  1.00  0.00     0.173 A 
ATOM     85  F   UNL     1      11.974  -3.979   6.914  1.00  0.00    -0.203 F 
ATOM     86  C   UNL     1      11.041  -5.830   5.795  1.00  0.00     0.198 A 
ATOM     87  C   UNL     1      10.344  -5.620   3.509  1.00  0.00     0.198 A 
ATOM     88  F   UNL     1      10.629  -3.578   2.376  1.00  0.00    -0.203 F 
ATOM     89  F   UNL     1      11.211  -6.579   6.893  1.00  0.00    -0.200 F 
ATOM     90  C   UNL     1      10.490  -6.390   4.652  1.00  0.00     0.200 A 
ATOM     91  F   UNL     1       9.798  -6.152   2.407  1.00  0.00    -0.200 F 
ATOM     92  F   UNL     1      10.108  -7.675   4.650  1.00  0.00    -0.200 F 
ENDBRANCH  58  82
BRANCH  70  93
ATOM     93  C   UNL     1      17.561  -0.633   5.255  1.00  0.00     0.064 A 
ATOM     94  C   UNL     1      18.273  -1.325   4.265  1.00  0.00     0.173 A 
ATOM     95  C   UNL     1      18.207  -0.385   6.477  1.00  0.00     0.173 A 
ATOM     96  F   UNL     1      17.696  -1.600   3.086  1.00  0.00    -0.203 F 
ATOM     97  C   UNL     1      19.576  -1.762   4.495  1.00  0.00     0.198 A 
ATOM     98  C   UNL     1      19.520  -0.793   6.691  1.00  0.00     0.198 A 
ATOM     99  F   UNL     1      17.573   0.281   7.454  1.00  0.00    -0.203 F 
ATOM    100  F   UNL     1      20.224  -2.455   3.549  1.00  0.00    -0.200 F 
ATOM    101  C   UNL     1      20.201  -1.486   5.702  1.00  0.00     0.200 A 
ATOM    102  F   UNL     1      20.128  -0.508   7.850  1.00  0.00    -0.200 F 
ATOM    103  F   UNL     1      21.461  -1.890   5.913  1.00  0.00    -0.200 F 
ENDBRANCH  70  93
ENDBRANCH  44  45
ENDBRANCH  37  39
ENDBRANCH  36  37
ENDBRANCH  35  36
ENDBRANCH  34  35
ENDBRANCH   1  34
TORSDOF 20
