REMARK SMILES CC(C)[C@H](C(=O)OCCOCCOC(=O)c1ccc(-c2c3nc(c(-c4c(F)c(F)c(F)c(F)c4F)c4ccc([nH]4)c(-c4c(F)c(F)c(F)c(F)c4F)c4nc(c(-c5c(F)c(F)c(F)c(F)c5F)c5ccc2[nH]5)C=C4)C=C3)cc1)N1C(=O)/C(=C/c2ccccc2Cl)SC1=S
REMARK SMILES IDX 10 1 9 2 8 3 7 4 5 5 6 6 4 7 2 8 1 9 3 10 79 11 80 12 92 13
REMARK SMILES IDX 81 14 82 15 91 16 93 17 83 18 84 19 85 20 89 21 86 22 88 23
REMARK SMILES IDX 90 24 87 25 11 26 12 27 13 28 14 29 15 30 16 31 17 32 78 33
REMARK SMILES IDX 18 34 77 35 19 36 20 37 21 38 71 39 22 40 76 41 70 42 72 43
REMARK SMILES IDX 23 44 75 45 69 46 68 47 24 49 56 50 36 51 55 52 37 53 40 54
REMARK SMILES IDX 54 55 73 56 38 57 39 58 53 60 74 61 41 62 25 63 26 64 34 65
REMARK SMILES IDX 27 66 28 67 32 68 35 69 29 70 30 71 33 72 31 73 57 74 58 75
REMARK SMILES IDX 66 76 59 77 60 78 64 79 67 80 61 81 62 82 65 83 63 84 42 85
REMARK SMILES IDX 43 86 51 87 44 88 45 89 49 90 52 91 46 92 47 93 50 94 48 95
REMARK H PARENT 72 48 40 59
REMARK Flexibility Score: inf
ROOT
ATOM      1  O   UNL     1       2.893   1.256   2.222  1.00  0.00    -0.374 OA
ENDROOT
BRANCH   1   2
ATOM      2  C   UNL     1       3.165   1.772   0.915  1.00  0.00     0.202 C 
BRANCH   2   3
ATOM      3  C   UNL     1       2.296   1.198  -0.204  1.00  0.00     0.261 C 
BRANCH   3   4
ATOM      4  O   UNL     1       0.960   1.696  -0.036  1.00  0.00    -0.462 OA
BRANCH   4   5
ATOM      5  C   UNL     1      -0.031   0.974  -0.619  1.00  0.00     0.329 C 
ATOM      6  O   UNL     1       0.162   0.008  -1.348  1.00  0.00    -0.250 OA
BRANCH   5   7
ATOM      7  C   UNL     1      -1.417   1.344  -0.036  1.00  0.00     0.204 C 
BRANCH   7   8
ATOM      8  C   UNL     1      -1.591   0.223   1.093  1.00  0.00     0.017 C 
ATOM      9  C   UNL     1      -2.088   0.599   2.494  1.00  0.00     0.010 C 
ATOM     10  C   UNL     1      -2.428  -0.944   0.553  1.00  0.00     0.010 C 
ENDBRANCH   7   8
BRANCH   7  11
ATOM     11  N   UNL     1      -1.603   2.754   0.425  1.00  0.00    -0.278 N 
ATOM     12  C   UNL     1      -2.813   3.077   1.021  1.00  0.00     0.267 C 
ATOM     13  C   UNL     1      -1.046   3.888  -0.143  1.00  0.00     0.149 C 
ATOM     14  O   UNL     1      -3.802   2.357   1.068  1.00  0.00    -0.268 OA
ATOM     15  C   UNL     1      -2.859   4.507   1.425  1.00  0.00     0.081 C 
ATOM     16  S   UNL     1      -1.456   5.294   0.848  1.00  0.00    -0.054 SA
ATOM     17  S   UNL     1      -0.208   4.087  -1.573  1.00  0.00    -0.052 S 
ATOM     18  C   UNL     1      -3.929   5.035   2.035  1.00  0.00     0.031 C 
BRANCH  18  19
ATOM     19  C   UNL     1      -4.162   6.463   2.297  1.00  0.00    -0.006 A 
ATOM     20  C   UNL     1      -4.175   6.904   3.629  1.00  0.00     0.010 A 
ATOM     21  C   UNL     1      -4.439   7.391   1.275  1.00  0.00     0.048 A 
ATOM     22  C   UNL     1      -4.442   8.243   3.931  1.00  0.00     0.001 A 
ATOM     23  C   UNL     1      -4.693   8.730   1.582  1.00  0.00     0.021 A 
ATOM     24  Cl  UNL     1      -4.534   6.926  -0.391  1.00  0.00    -0.084 Cl
ATOM     25  C   UNL     1      -4.696   9.155   2.909  1.00  0.00     0.002 A 
ENDBRANCH  18  19
ENDBRANCH   7  11
ENDBRANCH   5   7
ENDBRANCH   4   5
ENDBRANCH   3   4
ENDBRANCH   2   3
ENDBRANCH   1   2
BRANCH   1  26
ATOM     26  C   UNL     1       1.642   1.591   2.822  1.00  0.00     0.202 C 
BRANCH  26  27
ATOM     27  C   UNL     1       1.546   2.966   3.490  1.00  0.00     0.261 C 
BRANCH  27  28
ATOM     28  O   UNL     1       1.817   4.050   2.588  1.00  0.00    -0.460 OA
BRANCH  28  29
ATOM     29  C   UNL     1       3.027   4.633   2.768  1.00  0.00     0.338 C 
ATOM     30  O   UNL     1       3.860   4.364   3.624  1.00  0.00    -0.246 OA
BRANCH  29  31
ATOM     31  C   UNL     1       3.309   5.582   1.679  1.00  0.00     0.060 A 
ATOM     32  C   UNL     1       4.516   5.429   0.986  1.00  0.00     0.016 A 
ATOM     33  C   UNL     1       2.458   6.652   1.396  1.00  0.00     0.016 A 
ATOM     34  C   UNL     1       4.895   6.368   0.030  1.00  0.00     0.010 A 
ATOM     35  C   UNL     1       2.844   7.599   0.441  1.00  0.00     0.010 A 
ATOM     36  C   UNL     1       4.077   7.476  -0.226  1.00  0.00    -0.014 A 
BRANCH  36  37
ATOM     37  C   UNL     1       4.567   8.557  -1.115  1.00  0.00     0.031 A 
ATOM     38  C   UNL     1       5.151   9.803  -0.511  1.00  0.00     0.074 A 
ATOM     39  C   UNL     1       4.519   8.412  -2.450  1.00  0.00     0.049 A 
ATOM     40  N   UNL     1       5.617  10.874  -1.103  1.00  0.00    -0.248 NA
ATOM     41  C   UNL     1       5.222   9.848   0.958  1.00  0.00     0.031 C 
ATOM     42  C   UNL     1       4.007   7.237  -3.151  1.00  0.00     0.029 A 
ATOM     43  N   UNL     1       4.903   9.265  -3.454  1.00  0.00    -0.354 N 
ATOM     44  C   UNL     1       6.031  11.720  -0.083  1.00  0.00     0.074 A 
ATOM     45  C   UNL     1       5.737  11.052   1.167  1.00  0.00     0.031 C 
ATOM     46  C   UNL     1       4.100   7.446  -4.476  1.00  0.00     0.029 A 
ATOM     47  C   UNL     1       4.646   8.781  -4.712  1.00  0.00     0.049 A 
ATOM     48  H   UNL     1       5.322  10.140  -3.288  1.00  0.00     0.167 HD
ATOM     49  C   UNL     1       6.612  12.940  -0.182  1.00  0.00     0.037 A 
ATOM     50  C   UNL     1       4.811   9.362  -5.917  1.00  0.00     0.037 A 
ATOM     51  C   UNL     1       6.905  13.602  -1.427  1.00  0.00     0.049 A 
ATOM     52  C   UNL     1       5.386  10.752  -5.996  1.00  0.00     0.074 A 
ATOM     53  C   UNL     1       7.523  14.823  -1.631  1.00  0.00     0.029 A 
ATOM     54  N   UNL     1       6.587  13.101  -2.681  1.00  0.00    -0.354 N 
ATOM     55  N   UNL     1       5.808  11.531  -5.029  1.00  0.00    -0.248 NA
ATOM     56  C   UNL     1       5.506  11.344  -7.336  1.00  0.00     0.031 C 
ATOM     57  C   UNL     1       7.531  15.086  -3.005  1.00  0.00     0.029 A 
ATOM     58  C   UNL     1       6.964  14.005  -3.661  1.00  0.00     0.049 A 
ATOM     59  H   UNL     1       6.157  12.231  -2.850  1.00  0.00     0.167 HD
ATOM     60  C   UNL     1       6.257  12.693  -5.642  1.00  0.00     0.074 A 
ATOM     61  C   UNL     1       6.076  12.510  -7.067  1.00  0.00     0.031 C 
ATOM     62  C   UNL     1       6.771  13.812  -5.076  1.00  0.00     0.037 A 
BRANCH  49  63
ATOM     63  C   UNL     1       6.951  13.653   1.094  1.00  0.00     0.064 A 
ATOM     64  C   UNL     1       8.009  13.235   1.914  1.00  0.00     0.173 A 
ATOM     65  C   UNL     1       6.233  14.796   1.479  1.00  0.00     0.173 A 
ATOM     66  F   UNL     1       8.719  12.141   1.596  1.00  0.00    -0.203 F 
ATOM     67  C   UNL     1       8.322  13.921   3.085  1.00  0.00     0.198 A 
ATOM     68  C   UNL     1       6.566  15.495   2.636  1.00  0.00     0.198 A 
ATOM     69  F   UNL     1       5.215  15.240   0.728  1.00  0.00    -0.203 F 
ATOM     70  F   UNL     1       9.310  13.480   3.876  1.00  0.00    -0.200 F 
ATOM     71  C   UNL     1       7.605  15.054   3.441  1.00  0.00     0.200 A 
ATOM     72  F   UNL     1       5.879  16.596   2.973  1.00  0.00    -0.200 F 
ATOM     73  F   UNL     1       7.912  15.717   4.565  1.00  0.00    -0.200 F 
ENDBRANCH  49  63
BRANCH  50  74
ATOM     74  C   UNL     1       4.405   8.638  -7.149  1.00  0.00     0.064 A 
ATOM     75  C   UNL     1       5.358   8.194  -8.075  1.00  0.00     0.173 A 
ATOM     76  C   UNL     1       3.053   8.391  -7.433  1.00  0.00     0.173 A 
ATOM     77  F   UNL     1       6.660   8.432  -7.862  1.00  0.00    -0.203 F 
ATOM     78  C   UNL     1       4.974   7.543  -9.246  1.00  0.00     0.198 A 
ATOM     79  C   UNL     1       2.672   7.715  -8.590  1.00  0.00     0.198 A 
ATOM     80  F   UNL     1       2.102   8.803  -6.582  1.00  0.00    -0.203 F 
ATOM     81  F   UNL     1       5.902   7.170 -10.137  1.00  0.00    -0.200 F 
ATOM     82  C   UNL     1       3.632   7.298  -9.499  1.00  0.00     0.200 A 
ATOM     83  F   UNL     1       1.375   7.474  -8.827  1.00  0.00    -0.200 F 
ATOM     84  F   UNL     1       3.264   6.671 -10.624  1.00  0.00    -0.200 F 
ENDBRANCH  50  74
BRANCH  62  85
ATOM     85  C   UNL     1       7.187  14.922  -5.998  1.00  0.00     0.064 A 
ATOM     86  C   UNL     1       6.241  15.711  -6.670  1.00  0.00     0.173 A 
ATOM     87  C   UNL     1       8.544  15.226  -6.183  1.00  0.00     0.173 A 
ATOM     88  F   UNL     1       4.931  15.451  -6.538  1.00  0.00    -0.203 F 
ATOM     89  C   UNL     1       6.639  16.747  -7.510  1.00  0.00     0.198 A 
ATOM     90  C   UNL     1       8.938  16.281  -7.002  1.00  0.00     0.198 A 
ATOM     91  F   UNL     1       9.490  14.507  -5.559  1.00  0.00    -0.203 F 
ATOM     92  F   UNL     1       5.719  17.457  -8.177  1.00  0.00    -0.200 F 
ATOM     93  C   UNL     1       7.986  17.036  -7.670  1.00  0.00     0.200 A 
ATOM     94  F   UNL     1      10.239  16.568  -7.144  1.00  0.00    -0.200 F 
ATOM     95  F   UNL     1       8.367  18.038  -8.474  1.00  0.00    -0.200 F 
ENDBRANCH  62  85
ENDBRANCH  36  37
ENDBRANCH  29  31
ENDBRANCH  28  29
ENDBRANCH  27  28
ENDBRANCH  26  27
ENDBRANCH   1  26
TORSDOF 17
