REMARK SMILES O=C(OCCOCCOC(=O)[C@@H]1CCCN1S(=O)(=O)c1ccc2c3c(cccc13)C(=O)N2)c1ccc(-c2c3nc(c(-c4c(F)c(F)c(F)c(F)c4F)c4ccc([nH]4)c(-c4c(F)c(F)c(F)c(F)c4F)c4nc(c(-c5c(F)c(F)c(F)c(F)c5F)c5ccc2[nH]5)C=C4)C=C3)cc1
REMARK SMILES IDX 6 1 5 2 4 3 3 4 2 5 1 6 33 7 34 8 95 9 35 10 94 11 36 12
REMARK SMILES IDX 37 13 38 14 88 15 39 16 93 17 87 18 89 19 40 20 92 21 86 22
REMARK SMILES IDX 85 23 41 25 73 26 53 27 72 28 54 29 57 30 71 31 90 32 55 33
REMARK SMILES IDX 56 34 70 36 91 37 58 38 42 39 43 40 51 41 44 42 45 43 49 44
REMARK SMILES IDX 52 45 46 46 47 47 50 48 48 49 74 50 75 51 83 52 76 53 77 54
REMARK SMILES IDX 81 55 84 56 78 57 79 58 82 59 80 60 59 61 60 62 68 63 61 64
REMARK SMILES IDX 62 65 66 66 69 67 63 68 64 69 67 70 65 71 7 72 8 73 9 74
REMARK SMILES IDX 10 75 11 76 12 77 13 78 16 79 14 80 15 81 17 82 18 83 19 84
REMARK SMILES IDX 20 85 21 86 29 87 22 88 24 89 28 90 23 91 25 92 27 93 32 94
REMARK SMILES IDX 26 95 30 96 31 98
REMARK H PARENT 89 24 57 35 32 97
REMARK Flexibility Score: inf
ROOT
ATOM      1  O   UNL     1       3.275   0.813  -0.829  1.00  0.00    -0.374 OA
ENDROOT
BRANCH   1   2
ATOM      2  C   UNL     1       3.892  -0.452  -1.069  1.00  0.00     0.202 C 
BRANCH   2   3
ATOM      3  C   UNL     1       3.901  -1.454   0.080  1.00  0.00     0.261 C 
BRANCH   3   4
ATOM      4  O   UNL     1       2.626  -1.531   0.710  1.00  0.00    -0.460 OA
BRANCH   4   5
ATOM      5  C   UNL     1       2.112  -0.667   1.614  1.00  0.00     0.338 C 
ATOM      6  O   UNL     1       0.962  -0.871   2.002  1.00  0.00    -0.246 OA
BRANCH   5   7
ATOM      7  C   UNL     1       2.829   0.538   2.166  1.00  0.00     0.060 A 
ATOM      8  C   UNL     1       4.056   1.055   1.736  1.00  0.00     0.016 A 
ATOM      9  C   UNL     1       2.155   1.247   3.179  1.00  0.00     0.016 A 
ATOM     10  C   UNL     1       4.538   2.273   2.182  1.00  0.00     0.010 A 
ATOM     11  C   UNL     1       2.683   2.424   3.718  1.00  0.00     0.010 A 
ATOM     12  C   UNL     1       3.879   2.930   3.210  1.00  0.00    -0.014 A 
BRANCH  12  13
ATOM     13  C   UNL     1       4.662   3.963   3.893  1.00  0.00     0.031 A 
ATOM     14  C   UNL     1       5.724   3.478   4.834  1.00  0.00     0.074 A 
ATOM     15  C   UNL     1       4.562   5.249   3.523  1.00  0.00     0.049 A 
ATOM     16  N   UNL     1       6.632   4.157   5.476  1.00  0.00    -0.248 NA
ATOM     17  C   UNL     1       5.811   2.016   5.034  1.00  0.00     0.031 C 
ATOM     18  C   UNL     1       3.658   5.769   2.497  1.00  0.00     0.029 A 
ATOM     19  N   UNL     1       5.249   6.348   3.959  1.00  0.00    -0.354 N 
ATOM     20  C   UNL     1       7.405   3.209   6.129  1.00  0.00     0.074 A 
ATOM     21  C   UNL     1       6.877   1.907   5.808  1.00  0.00     0.031 C 
ATOM     22  C   UNL     1       3.829   7.099   2.404  1.00  0.00     0.029 A 
ATOM     23  C   UNL     1       4.825   7.521   3.388  1.00  0.00     0.049 A 
ATOM     24  H   UNL     1       5.978   6.301   4.619  1.00  0.00     0.167 HD
ATOM     25  C   UNL     1       8.460   3.421   6.942  1.00  0.00     0.037 A 
ATOM     26  C   UNL     1       5.183   8.786   3.678  1.00  0.00     0.037 A 
ATOM     27  C   UNL     1       8.931   4.729   7.287  1.00  0.00     0.049 A 
ATOM     28  C   UNL     1       6.242   9.000   4.733  1.00  0.00     0.074 A 
ATOM     29  C   UNL     1       9.946   5.075   8.155  1.00  0.00     0.029 A 
ATOM     30  N   UNL     1       8.393   5.908   6.791  1.00  0.00    -0.354 N 
ATOM     31  N   UNL     1       6.956   8.108   5.382  1.00  0.00    -0.248 NA
ATOM     32  C   UNL     1       6.535  10.388   5.113  1.00  0.00     0.031 C 
ATOM     33  C   UNL     1       9.974   6.468   8.242  1.00  0.00     0.029 A 
ATOM     34  C   UNL     1       9.021   6.989   7.378  1.00  0.00     0.049 A 
ATOM     35  H   UNL     1       7.673   5.966   6.122  1.00  0.00     0.167 HD
ATOM     36  C   UNL     1       7.790   8.825   6.229  1.00  0.00     0.074 A 
ATOM     37  C   UNL     1       7.506  10.226   6.001  1.00  0.00     0.031 C 
ATOM     38  C   UNL     1       8.703   8.370   7.123  1.00  0.00     0.037 A 
BRANCH  25  39
ATOM     39  C   UNL     1       9.107   2.231   7.572  1.00  0.00     0.064 A 
ATOM     40  C   UNL     1       9.955   1.381   6.850  1.00  0.00     0.173 A 
ATOM     41  C   UNL     1       8.909   1.969   8.935  1.00  0.00     0.173 A 
ATOM     42  F   UNL     1      10.142   1.569   5.535  1.00  0.00    -0.203 F 
ATOM     43  C   UNL     1      10.594   0.314   7.476  1.00  0.00     0.198 A 
ATOM     44  C   UNL     1       9.567   0.917   9.563  1.00  0.00     0.198 A 
ATOM     45  F   UNL     1       8.087   2.743   9.660  1.00  0.00    -0.203 F 
ATOM     46  F   UNL     1      11.384  -0.503   6.766  1.00  0.00    -0.200 F 
ATOM     47  C   UNL     1      10.411   0.092   8.834  1.00  0.00     0.200 A 
ATOM     48  F   UNL     1       9.389   0.706  10.874  1.00  0.00    -0.200 F 
ATOM     49  F   UNL     1      11.044  -0.921   9.441  1.00  0.00    -0.200 F 
ENDBRANCH  25  39
BRANCH  26  50
ATOM     50  C   UNL     1       4.487   9.931   3.031  1.00  0.00     0.064 A 
ATOM     51  C   UNL     1       5.170  10.849   2.224  1.00  0.00     0.173 A 
ATOM     52  C   UNL     1       3.114  10.148   3.239  1.00  0.00     0.173 A 
ATOM     53  F   UNL     1       6.487  10.710   2.018  1.00  0.00    -0.203 F 
ATOM     54  C   UNL     1       4.514  11.944   1.662  1.00  0.00     0.198 A 
ATOM     55  C   UNL     1       2.453  11.224   2.651  1.00  0.00     0.198 A 
ATOM     56  F   UNL     1       2.408   9.309   4.012  1.00  0.00    -0.203 F 
ATOM     57  F   UNL     1       5.203  12.835   0.935  1.00  0.00    -0.200 F 
ATOM     58  C   UNL     1       3.155  12.127   1.869  1.00  0.00     0.200 A 
ATOM     59  F   UNL     1       1.137  11.387   2.846  1.00  0.00    -0.200 F 
ATOM     60  F   UNL     1       2.525  13.177   1.327  1.00  0.00    -0.200 F 
ENDBRANCH  26  50
BRANCH  38  61
ATOM     61  C   UNL     1       9.451   9.385   7.934  1.00  0.00     0.064 A 
ATOM     62  C   UNL     1       8.826  10.075   8.982  1.00  0.00     0.173 A 
ATOM     63  C   UNL     1      10.831   9.564   7.753  1.00  0.00     0.173 A 
ATOM     64  F   UNL     1       7.507   9.939   9.189  1.00  0.00    -0.203 F 
ATOM     65  C   UNL     1       9.557  10.911   9.819  1.00  0.00     0.198 A 
ATOM     66  C   UNL     1      11.564  10.373   8.613  1.00  0.00     0.198 A 
ATOM     67  F   UNL     1      11.476   8.909   6.776  1.00  0.00    -0.203 F 
ATOM     68  F   UNL     1       8.937  11.577  10.803  1.00  0.00    -0.200 F 
ATOM     69  C   UNL     1      10.926  11.047   9.644  1.00  0.00     0.200 A 
ATOM     70  F   UNL     1      12.891  10.481   8.461  1.00  0.00    -0.200 F 
ATOM     71  F   UNL     1      11.634  11.824  10.475  1.00  0.00    -0.200 F 
ENDBRANCH  38  61
ENDBRANCH  12  13
ENDBRANCH   5   7
ENDBRANCH   4   5
ENDBRANCH   3   4
ENDBRANCH   2   3
ENDBRANCH   1   2
BRANCH   1  72
ATOM     72  C   UNL     1       2.031   1.008  -1.503  1.00  0.00     0.202 C 
BRANCH  72  73
ATOM     73  C   UNL     1       2.237   1.476  -2.950  1.00  0.00     0.261 C 
BRANCH  73  74
ATOM     74  O   UNL     1       3.005   0.482  -3.666  1.00  0.00    -0.462 OA
BRANCH  74  75
ATOM     75  C   UNL     1       4.089   0.912  -4.367  1.00  0.00     0.324 C 
ATOM     76  O   UNL     1       4.276   2.079  -4.688  1.00  0.00    -0.250 OA
BRANCH  75  77
ATOM     77  C   UNL     1       5.045  -0.206  -4.702  1.00  0.00     0.183 C 
ATOM     78  C   UNL     1       4.635  -1.624  -4.310  1.00  0.00     0.034 C 
ATOM     79  N   UNL     1       6.531  -0.186  -4.488  1.00  0.00    -0.184 NA
ATOM     80  C   UNL     1       5.692  -2.456  -4.999  1.00  0.00     0.019 C 
ATOM     81  C   UNL     1       6.957  -1.597  -4.927  1.00  0.00     0.103 C 
BRANCH  79  82
ATOM     82  S   UNL     1       7.391   0.209  -3.044  1.00  0.00     0.244 S 
ATOM     83  O   UNL     1       6.920  -0.700  -2.018  1.00  0.00    -0.207 OA
ATOM     84  O   UNL     1       8.779   0.126  -3.457  1.00  0.00    -0.207 OA
BRANCH  82  85
ATOM     85  C   UNL     1       7.141   1.868  -2.410  1.00  0.00     0.090 A 
ATOM     86  C   UNL     1       5.824   2.313  -2.182  1.00  0.00     0.024 A 
ATOM     87  C   UNL     1       8.229   2.669  -1.911  1.00  0.00     0.005 A 
ATOM     88  C   UNL     1       5.492   3.552  -1.603  1.00  0.00     0.028 A 
ATOM     89  C   UNL     1       7.857   3.866  -1.351  1.00  0.00     0.019 A 
ATOM     90  C   UNL     1       9.631   2.436  -1.828  1.00  0.00     0.010 A 
ATOM     91  C   UNL     1       6.563   4.309  -1.202  1.00  0.00     0.050 A 
ATOM     92  C   UNL     1       8.690   4.820  -0.778  1.00  0.00     0.050 A 
ATOM     93  C   UNL     1      10.513   3.379  -1.250  1.00  0.00     0.002 A 
ATOM     94  N   UNL     1       6.599   5.535  -0.567  1.00  0.00    -0.321 N 
ATOM     95  C   UNL     1      10.059   4.596  -0.723  1.00  0.00     0.014 A 
ATOM     96  C   UNL     1       7.906   5.934  -0.283  1.00  0.00     0.256 C 
ATOM     97  H   UNL     1       5.800   6.063  -0.342  1.00  0.00     0.170 HD
ATOM     98  O   UNL     1       8.208   6.994   0.257  1.00  0.00    -0.269 OA
ENDBRANCH  82  85
ENDBRANCH  79  82
ENDBRANCH  75  77
ENDBRANCH  74  75
ENDBRANCH  73  74
ENDBRANCH  72  73
ENDBRANCH   1  72
TORSDOF 16
