REMARK SMILES CC(C)C[C@H](NC(=O)CNC(=O)[C@@H]([NH3+])C(C)C)C(=O)OCCOCCOC(=O)c1ccc(-c2c3nc(c(-c4c(F)c(F)c(F)c(F)c4F)c4ccc([nH]4)c(-c4c(F)c(F)c(F)c(F)c4F)c4nc(c(-c5c(F)c(F)c(F)c(F)c5F)c5ccc2[nH]5)C=C4)C=C3)cc1
REMARK SMILES IDX 21 1 20 2 18 3 19 4 5 5 4 6 2 7 1 8 3 9 6 10 7 11 8 13 9 14
REMARK SMILES IDX 10 15 11 16 12 18 13 19 14 20 15 24 16 25 17 26 22 27 23 28
REMARK SMILES IDX 24 29 25 30 26 31 27 32 28 33 29 34 30 35 91 36 31 37 90 38
REMARK SMILES IDX 32 39 33 40 34 41 84 42 35 43 89 44 83 45 85 46 36 47 88 48
REMARK SMILES IDX 82 49 81 50 37 52 69 53 49 54 68 55 50 56 53 57 67 58 86 59
REMARK SMILES IDX 51 60 52 61 66 63 87 64 54 65 38 66 39 67 47 68 40 69 41 70
REMARK SMILES IDX 45 71 48 72 42 73 43 74 46 75 44 76 70 77 71 78 79 79 72 80
REMARK SMILES IDX 73 81 77 82 80 83 74 84 75 85 78 86 76 87 55 88 56 89 64 90
REMARK SMILES IDX 57 91 58 92 62 93 65 94 59 95 60 96 63 97 61 98
REMARK H PARENT 6 12 10 17 14 21 14 22 14 23 85 51 53 62
REMARK Flexibility Score: inf
ROOT
ATOM      1  C   UNL     1      -5.841  -1.699   0.126  1.00  0.00     0.261 C 
ENDROOT
BRANCH   1   2
ATOM      2  O   UNL     1      -4.474  -1.812   0.540  1.00  0.00    -0.462 OA
BRANCH   2   3
ATOM      3  C   UNL     1      -3.568  -1.977  -0.471  1.00  0.00     0.328 C 
ATOM      4  O   UNL     1      -3.824  -1.975  -1.667  1.00  0.00    -0.250 OA
BRANCH   3   5
ATOM      5  C   UNL     1      -2.178  -2.263   0.095  1.00  0.00     0.192 C 
BRANCH   5   6
ATOM      6  C   UNL     1      -1.785  -3.704  -0.243  1.00  0.00     0.040 C 
BRANCH   6   7
ATOM      7  C   UNL     1      -2.773  -4.848   0.075  1.00  0.00    -0.015 C 
ATOM      8  C   UNL     1      -3.868  -5.010  -0.985  1.00  0.00     0.007 C 
ATOM      9  C   UNL     1      -1.999  -6.172   0.144  1.00  0.00     0.007 C 
ENDBRANCH   6   7
ENDBRANCH   5   6
BRANCH   5  10
ATOM     10  N   UNL     1      -2.070  -1.944   1.535  1.00  0.00    -0.341 N 
ATOM     11  C   UNL     1      -1.035  -1.165   2.003  1.00  0.00     0.240 C 
ATOM     12  H   UNL     1      -2.743  -2.291   2.164  1.00  0.00     0.164 HD
ATOM     13  O   UNL     1      -1.180   0.058   2.036  1.00  0.00    -0.273 OA
BRANCH  11  14
ATOM     14  C   UNL     1       0.300  -1.833   2.379  1.00  0.00     0.216 C 
BRANCH  14  15
ATOM     15  N   UNL     1       0.191  -3.248   2.699  1.00  0.00    -0.342 N 
ATOM     16  C   UNL     1       0.715  -4.395   2.205  1.00  0.00     0.278 C 
ATOM     17  H   UNL     1      -0.412  -3.411   3.460  1.00  0.00     0.164 HD
ATOM     18  O   UNL     1       0.393  -5.404   2.848  1.00  0.00    -0.268 OA
BRANCH  16  19
ATOM     19  C   UNL     1       1.529  -4.536   0.874  1.00  0.00     0.273 C 
BRANCH  19  20
ATOM     20  N   UNL     1       1.820  -3.237   0.232  1.00  0.00    -0.347 N 
ATOM     21  H   UNL     1       2.441  -2.693   0.832  1.00  0.00     0.345 HD
ATOM     22  H   UNL     1       0.950  -2.725   0.090  1.00  0.00     0.345 HD
ATOM     23  H   UNL     1       2.272  -3.396  -0.669  1.00  0.00     0.345 HD
ENDBRANCH  19  20
BRANCH  19  24
ATOM     24  C   UNL     1       2.804  -5.414   1.019  1.00  0.00     0.051 C 
ATOM     25  C   UNL     1       2.478  -6.846   1.476  1.00  0.00     0.014 C 
ATOM     26  C   UNL     1       3.573  -5.529  -0.309  1.00  0.00     0.014 C 
ENDBRANCH  19  24
ENDBRANCH  16  19
ENDBRANCH  14  15
ENDBRANCH  11  14
ENDBRANCH   5  10
ENDBRANCH   3   5
ENDBRANCH   2   3
ENDBRANCH   1   2
BRANCH   1  27
ATOM     27  C   UNL     1      -6.371  -0.271   0.235  1.00  0.00     0.202 C 
BRANCH  27  28
ATOM     28  O   UNL     1      -5.709   0.717  -0.545  1.00  0.00    -0.374 OA
BRANCH  28  29
ATOM     29  C   UNL     1      -4.418   1.170  -0.134  1.00  0.00     0.202 C 
BRANCH  29  30
ATOM     30  C   UNL     1      -4.324   1.896   1.210  1.00  0.00     0.261 C 
BRANCH  30  31
ATOM     31  O   UNL     1      -4.559   1.011   2.324  1.00  0.00    -0.460 OA
BRANCH  31  32
ATOM     32  C   UNL     1      -5.536   1.429   3.163  1.00  0.00     0.338 C 
ATOM     33  O   UNL     1      -6.202   2.447   3.086  1.00  0.00    -0.246 OA
BRANCH  32  34
ATOM     34  C   UNL     1      -5.836   0.398   4.168  1.00  0.00     0.060 A 
ATOM     35  C   UNL     1      -7.110  -0.180   4.137  1.00  0.00     0.016 A 
ATOM     36  C   UNL     1      -4.971   0.174   5.240  1.00  0.00     0.016 A 
ATOM     37  C   UNL     1      -7.557  -0.925   5.224  1.00  0.00     0.010 A 
ATOM     38  C   UNL     1      -5.425  -0.572   6.334  1.00  0.00     0.010 A 
ATOM     39  C   UNL     1      -6.739  -1.073   6.353  1.00  0.00    -0.014 A 
BRANCH  39  40
ATOM     40  C   UNL     1      -7.349  -1.574   7.609  1.00  0.00     0.031 A 
ATOM     41  C   UNL     1      -7.815  -0.579   8.639  1.00  0.00     0.074 A 
ATOM     42  C   UNL     1      -7.559  -2.888   7.794  1.00  0.00     0.049 A 
ATOM     43  N   UNL     1      -8.422  -0.785   9.780  1.00  0.00    -0.248 NA
ATOM     44  C   UNL     1      -7.566   0.840   8.339  1.00  0.00     0.031 C 
ATOM     45  C   UNL     1      -7.195  -3.940   6.849  1.00  0.00     0.029 A 
ATOM     46  N   UNL     1      -8.143  -3.557   8.840  1.00  0.00    -0.354 N 
ATOM     47  C   UNL     1      -8.623   0.473  10.334  1.00  0.00     0.074 A 
ATOM     48  C   UNL     1      -8.047   1.435   9.420  1.00  0.00     0.031 C 
ATOM     49  C   UNL     1      -7.571  -5.127   7.356  1.00  0.00     0.029 A 
ATOM     50  C   UNL     1      -8.179  -4.918   8.668  1.00  0.00     0.049 A 
ATOM     51  H   UNL     1      -8.502  -3.104   9.637  1.00  0.00     0.167 HD
ATOM     52  C   UNL     1      -9.242   0.798  11.495  1.00  0.00     0.037 A 
ATOM     53  C   UNL     1      -8.647  -5.881   9.484  1.00  0.00     0.037 A 
ATOM     54  C   UNL     1      -9.823  -0.159  12.399  1.00  0.00     0.049 A 
ATOM     55  C   UNL     1      -9.274  -5.497  10.799  1.00  0.00     0.074 A 
ATOM     56  C   UNL     1     -10.494   0.070  13.587  1.00  0.00     0.029 A 
ATOM     57  N   UNL     1      -9.795  -1.534  12.214  1.00  0.00    -0.354 N 
ATOM     58  N   UNL     1      -9.489  -4.305  11.299  1.00  0.00    -0.248 NA
ATOM     59  C   UNL     1      -9.731  -6.598  11.659  1.00  0.00     0.031 C 
ATOM     60  C   UNL     1     -10.830  -1.168  14.146  1.00  0.00     0.029 A 
ATOM     61  C   UNL     1     -10.413  -2.167  13.281  1.00  0.00     0.049 A 
ATOM     62  H   UNL     1      -9.396  -1.992  11.440  1.00  0.00     0.167 HD
ATOM     63  C   UNL     1     -10.132  -4.509  12.513  1.00  0.00     0.074 A 
ATOM     64  C   UNL     1     -10.282  -5.941  12.669  1.00  0.00     0.031 C 
ATOM     65  C   UNL     1     -10.562  -3.593  13.416  1.00  0.00     0.037 A 
BRANCH  52  66
ATOM     66  C   UNL     1      -9.294   2.251  11.867  1.00  0.00     0.064 A 
ATOM     67  C   UNL     1     -10.123   3.159  11.191  1.00  0.00     0.173 A 
ATOM     68  C   UNL     1      -8.518   2.737  12.931  1.00  0.00     0.173 A 
ATOM     69  F   UNL     1     -10.874   2.747  10.159  1.00  0.00    -0.203 F 
ATOM     70  C   UNL     1     -10.153   4.505  11.549  1.00  0.00     0.198 A 
ATOM     71  C   UNL     1      -8.571   4.077  13.303  1.00  0.00     0.198 A 
ATOM     72  F   UNL     1      -7.711   1.910  13.612  1.00  0.00    -0.203 F 
ATOM     73  F   UNL     1     -10.917   5.363  10.860  1.00  0.00    -0.200 F 
ATOM     74  C   UNL     1      -9.381   4.962  12.607  1.00  0.00     0.200 A 
ATOM     75  F   UNL     1      -7.833   4.515  14.333  1.00  0.00    -0.200 F 
ATOM     76  F   UNL     1      -9.414   6.256  12.953  1.00  0.00    -0.200 F 
ENDBRANCH  52  66
BRANCH  53  77
ATOM     77  C   UNL     1      -8.550  -7.307   9.079  1.00  0.00     0.064 A 
ATOM     78  C   UNL     1      -9.697  -8.048   8.762  1.00  0.00     0.173 A 
ATOM     79  C   UNL     1      -7.311  -7.961   9.013  1.00  0.00     0.173 A 
ATOM     80  F   UNL     1     -10.906  -7.473   8.835  1.00  0.00    -0.203 F 
ATOM     81  C   UNL     1      -9.610  -9.393   8.411  1.00  0.00     0.198 A 
ATOM     82  C   UNL     1      -7.222  -9.299   8.637  1.00  0.00     0.198 A 
ATOM     83  F   UNL     1      -6.184  -7.296   9.309  1.00  0.00    -0.203 F 
ATOM     84  F   UNL     1     -10.725 -10.090   8.155  1.00  0.00    -0.200 F 
ATOM     85  C   UNL     1      -8.372 -10.016   8.343  1.00  0.00     0.200 A 
ATOM     86  F   UNL     1      -6.024  -9.894   8.563  1.00  0.00    -0.200 F 
ATOM     87  F   UNL     1      -8.289 -11.310   8.003  1.00  0.00    -0.200 F 
ENDBRANCH  53  77
BRANCH  65  88
ATOM     88  C   UNL     1     -11.273  -4.110  14.633  1.00  0.00     0.064 A 
ATOM     89  C   UNL     1     -10.588  -4.777  15.660  1.00  0.00     0.173 A 
ATOM     90  C   UNL     1     -12.653  -3.909  14.787  1.00  0.00     0.173 A 
ATOM     91  F   UNL     1      -9.271  -5.006  15.553  1.00  0.00    -0.203 F 
ATOM     92  C   UNL     1     -11.264  -5.248  16.782  1.00  0.00     0.198 A 
ATOM     93  C   UNL     1     -13.321  -4.356  15.924  1.00  0.00     0.198 A 
ATOM     94  F   UNL     1     -13.354  -3.271  13.838  1.00  0.00    -0.203 F 
ATOM     95  F   UNL     1     -10.598  -5.927  17.727  1.00  0.00    -0.200 F 
ATOM     96  C   UNL     1     -12.628  -5.032  16.916  1.00  0.00     0.200 A 
ATOM     97  F   UNL     1     -14.636  -4.135  16.057  1.00  0.00    -0.200 F 
ATOM     98  F   UNL     1     -13.276  -5.485  17.998  1.00  0.00    -0.200 F 
ENDBRANCH  65  88
ENDBRANCH  39  40
ENDBRANCH  32  34
ENDBRANCH  31  32
ENDBRANCH  30  31
ENDBRANCH  29  30
ENDBRANCH  28  29
ENDBRANCH  27  28
ENDBRANCH   1  27
TORSDOF 22
