REMARK SMILES CC[N@@H+]1CC[C@H](C[NH2+]Cc2ccc(C(=O)OCCOCCOC(=O)c3ccc(-c4c5nc(c(-c6c(F)c(F)c(F)c(F)c6F)c6ccc([nH]6)c(-c6c(F)c(F)c(F)c(F)c6F)c6nc(c(-c7c(F)c(F)c(F)c(F)c7F)c7ccc4[nH]7)C=C6)C=C5)cc3)cn2)C1
REMARK SMILES IDX 17 1 16 2 14 3 15 4 13 5 10 6 11 7 89 8 12 9 88 10 9 11 8 12
REMARK SMILES IDX 7 15 6 16 3 17 4 18 90 19 5 21 2 22 1 23 18 24 19 25 20 26
REMARK SMILES IDX 21 27 22 28 23 29 24 30 25 31 26 32 87 33 27 34 86 35 28 36
REMARK SMILES IDX 29 37 30 38 80 39 31 40 85 41 79 42 81 43 32 44 84 45 78 46
REMARK SMILES IDX 77 47 33 49 65 50 45 51 64 52 46 53 49 54 63 55 82 56 47 57
REMARK SMILES IDX 48 58 62 60 83 61 50 62 34 63 35 64 43 65 36 66 37 67 41 68
REMARK SMILES IDX 44 69 38 70 39 71 42 72 40 73 66 74 67 75 75 76 68 77 69 78
REMARK SMILES IDX 73 79 76 80 70 81 71 82 74 83 72 84 51 85 52 86 60 87 53 88
REMARK SMILES IDX 54 89 58 90 61 91 55 92 56 93 59 94 57 95
REMARK H PARENT 8 13 8 14 3 20 81 48 49 59
REMARK Flexibility Score: inf
ROOT
ATOM      1  C   UNL     1      -5.340  -4.055  -4.571  1.00  0.00     0.261 C 
ENDROOT
BRANCH   1   2
ATOM      2  O   UNL     1      -5.117  -4.707  -3.309  1.00  0.00    -0.460 OA
BRANCH   2   3
ATOM      3  C   UNL     1      -4.125  -4.160  -2.573  1.00  0.00     0.339 C 
ATOM      4  O   UNL     1      -3.318  -3.313  -2.925  1.00  0.00    -0.246 OA
BRANCH   3   5
ATOM      5  C   UNL     1      -4.246  -4.578  -1.176  1.00  0.00     0.078 A 
ATOM      6  C   UNL     1      -4.110  -5.091   1.509  1.00  0.00     0.094 A 
ATOM      7  C   UNL     1      -4.230  -6.164   0.621  1.00  0.00     0.031 A 
ATOM      8  N   UNL     1      -4.204  -3.802   1.097  1.00  0.00    -0.254 NA
ATOM      9  C   UNL     1      -4.328  -5.900  -0.749  1.00  0.00     0.019 A 
ATOM     10  C   UNL     1      -4.215  -3.571  -0.228  1.00  0.00     0.127 A 
BRANCH   6  11
ATOM     11  C   UNL     1      -3.627  -5.299   2.937  1.00  0.00     0.317 C 
BRANCH  11  12
ATOM     12  N   UNL     1      -2.172  -5.055   3.097  1.00  0.00    -0.341 N 
ATOM     13  H   UNL     1      -1.881  -5.384   4.018  1.00  0.00     0.346 HD
ATOM     14  H   UNL     1      -1.683  -5.558   2.356  1.00  0.00     0.346 HD
BRANCH  12  15
ATOM     15  C   UNL     1      -1.839  -3.625   2.975  1.00  0.00     0.270 C 
BRANCH  15  16
ATOM     16  C   UNL     1      -0.332  -3.347   2.994  1.00  0.00     0.105 C 
ATOM     17  N   UNL     1       1.025  -1.793   1.690  1.00  0.00    -0.335 N 
ATOM     18  C   UNL     1       1.614  -3.138   1.656  1.00  0.00     0.262 C 
ATOM     19  C   UNL     1      -0.015  -1.857   2.744  1.00  0.00     0.271 C 
ATOM     20  H   UNL     1       1.724  -1.078   1.894  1.00  0.00     0.348 HD
ATOM     21  C   UNL     1       0.449  -4.073   1.903  1.00  0.00     0.076 C 
BRANCH  17  22
ATOM     22  C   UNL     1       0.462  -1.410   0.384  1.00  0.00     0.258 C 
ATOM     23  C   UNL     1       0.790   0.051   0.101  1.00  0.00     0.071 C 
ENDBRANCH  17  22
ENDBRANCH  15  16
ENDBRANCH  12  15
ENDBRANCH  11  12
ENDBRANCH   6  11
ENDBRANCH   3   5
ENDBRANCH   2   3
ENDBRANCH   1   2
BRANCH   1  24
ATOM     24  C   UNL     1      -6.696  -3.345  -4.590  1.00  0.00     0.202 C 
BRANCH  24  25
ATOM     25  O   UNL     1      -6.850  -2.258  -3.678  1.00  0.00    -0.374 OA
BRANCH  25  26
ATOM     26  C   UNL     1      -7.178  -2.574  -2.324  1.00  0.00     0.202 C 
BRANCH  26  27
ATOM     27  C   UNL     1      -8.637  -2.947  -2.039  1.00  0.00     0.261 C 
BRANCH  27  28
ATOM     28  O   UNL     1      -8.960  -4.248  -2.564  1.00  0.00    -0.460 OA
BRANCH  28  29
ATOM     29  C   UNL     1      -9.793  -4.245  -3.630  1.00  0.00     0.338 C 
ATOM     30  O   UNL     1     -10.348  -3.283  -4.140  1.00  0.00    -0.246 OA
BRANCH  29  31
ATOM     31  C   UNL     1      -9.810  -5.585  -4.243  1.00  0.00     0.060 A 
ATOM     32  C   UNL     1      -9.566  -5.677  -5.621  1.00  0.00     0.016 A 
ATOM     33  C   UNL     1     -10.123  -6.722  -3.498  1.00  0.00     0.016 A 
ATOM     34  C   UNL     1      -9.684  -6.904  -6.271  1.00  0.00     0.010 A 
ATOM     35  C   UNL     1     -10.254  -7.948  -4.153  1.00  0.00     0.010 A 
ATOM     36  C   UNL     1     -10.072  -8.036  -5.546  1.00  0.00    -0.014 A 
BRANCH  36  37
ATOM     37  C   UNL     1     -10.467  -9.277  -6.251  1.00  0.00     0.031 A 
ATOM     38  C   UNL     1     -11.931  -9.544  -6.460  1.00  0.00     0.074 A 
ATOM     39  C   UNL     1      -9.547 -10.160  -6.673  1.00  0.00     0.049 A 
ATOM     40  N   UNL     1     -12.527 -10.621  -6.901  1.00  0.00    -0.248 NA
ATOM     41  C   UNL     1     -12.848  -8.445  -6.114  1.00  0.00     0.031 C 
ATOM     42  C   UNL     1      -8.100  -9.983  -6.577  1.00  0.00     0.029 A 
ATOM     43  N   UNL     1      -9.701 -11.397  -7.247  1.00  0.00    -0.354 N 
ATOM     44  C   UNL     1     -13.886 -10.339  -6.864  1.00  0.00     0.074 A 
ATOM     45  C   UNL     1     -14.030  -8.997  -6.344  1.00  0.00     0.031 C 
ATOM     46  C   UNL     1      -7.496 -11.086  -7.051  1.00  0.00     0.029 A 
ATOM     47  C   UNL     1      -8.515 -12.060  -7.441  1.00  0.00     0.049 A 
ATOM     48  H   UNL     1     -10.577 -11.772  -7.495  1.00  0.00     0.167 HD
ATOM     49  C   UNL     1     -14.920 -11.132  -7.233  1.00  0.00     0.037 A 
ATOM     50  C   UNL     1      -8.286 -13.323  -7.851  1.00  0.00     0.037 A 
ATOM     51  C   UNL     1     -14.767 -12.464  -7.754  1.00  0.00     0.049 A 
ATOM     52  C   UNL     1      -9.456 -14.212  -8.189  1.00  0.00     0.074 A 
ATOM     53  C   UNL     1     -15.748 -13.348  -8.165  1.00  0.00     0.029 A 
ATOM     54  N   UNL     1     -13.549 -13.103  -7.934  1.00  0.00    -0.354 N 
ATOM     55  N   UNL     1     -10.739 -13.943  -8.154  1.00  0.00    -0.248 NA
ATOM     56  C   UNL     1      -9.145 -15.582  -8.622  1.00  0.00     0.031 C 
ATOM     57  C   UNL     1     -15.127 -14.540  -8.549  1.00  0.00     0.029 A 
ATOM     58  C   UNL     1     -13.755 -14.378  -8.432  1.00  0.00     0.049 A 
ATOM     59  H   UNL     1     -12.669 -12.709  -7.737  1.00  0.00     0.167 HD
ATOM     60  C   UNL     1     -11.384 -15.091  -8.597  1.00  0.00     0.074 A 
ATOM     61  C   UNL     1     -10.351 -16.061  -8.893  1.00  0.00     0.031 C 
ATOM     62  C   UNL     1     -12.712 -15.319  -8.749  1.00  0.00     0.037 A 
BRANCH  49  63
ATOM     63  C   UNL     1     -16.307 -10.591  -7.052  1.00  0.00     0.064 A 
ATOM     64  C   UNL     1     -16.813  -9.568  -7.867  1.00  0.00     0.173 A 
ATOM     65  C   UNL     1     -17.152 -11.125  -6.067  1.00  0.00     0.173 A 
ATOM     66  F   UNL     1     -16.040  -9.012  -8.812  1.00  0.00    -0.203 F 
ATOM     67  C   UNL     1     -18.106  -9.082  -7.686  1.00  0.00     0.198 A 
ATOM     68  C   UNL     1     -18.453 -10.658  -5.908  1.00  0.00     0.198 A 
ATOM     69  F   UNL     1     -16.717 -12.107  -5.263  1.00  0.00    -0.203 F 
ATOM     70  F   UNL     1     -18.553  -8.072  -8.444  1.00  0.00    -0.200 F 
ATOM     71  C   UNL     1     -18.927  -9.632  -6.712  1.00  0.00     0.200 A 
ATOM     72  F   UNL     1     -19.248 -11.199  -4.975  1.00  0.00    -0.200 F 
ATOM     73  F   UNL     1     -20.173  -9.169  -6.544  1.00  0.00    -0.200 F 
ENDBRANCH  49  63
BRANCH  50  74
ATOM     74  C   UNL     1      -6.894 -13.832  -7.944  1.00  0.00     0.064 A 
ATOM     75  C   UNL     1      -6.314 -14.124  -9.187  1.00  0.00     0.173 A 
ATOM     76  C   UNL     1      -6.119 -14.053  -6.795  1.00  0.00     0.173 A 
ATOM     77  F   UNL     1      -7.023 -13.954 -10.312  1.00  0.00    -0.203 F 
ATOM     78  C   UNL     1      -5.020 -14.634  -9.275  1.00  0.00     0.198 A 
ATOM     79  C   UNL     1      -4.816 -14.536  -6.887  1.00  0.00     0.198 A 
ATOM     80  F   UNL     1      -6.627 -13.790  -5.582  1.00  0.00    -0.203 F 
ATOM     81  F   UNL     1      -4.507 -14.948 -10.473  1.00  0.00    -0.200 F 
ATOM     82  C   UNL     1      -4.270 -14.834  -8.126  1.00  0.00     0.200 A 
ATOM     83  F   UNL     1      -4.090 -14.715  -5.775  1.00  0.00    -0.200 F 
ATOM     84  F   UNL     1      -3.025 -15.321  -8.212  1.00  0.00    -0.200 F 
ENDBRANCH  50  74
BRANCH  62  85
ATOM     85  C   UNL     1     -13.129 -16.641  -9.323  1.00  0.00     0.064 A 
ATOM     86  C   UNL     1     -13.069 -17.826  -8.576  1.00  0.00     0.173 A 
ATOM     87  C   UNL     1     -13.664 -16.707 -10.620  1.00  0.00     0.173 A 
ATOM     88  F   UNL     1     -12.554 -17.817  -7.338  1.00  0.00    -0.203 F 
ATOM     89  C   UNL     1     -13.514 -19.032  -9.113  1.00  0.00     0.198 A 
ATOM     90  C   UNL     1     -14.134 -17.908 -11.142  1.00  0.00     0.198 A 
ATOM     91  F   UNL     1     -13.751 -15.599 -11.371  1.00  0.00    -0.203 F 
ATOM     92  F   UNL     1     -13.414 -20.159  -8.395  1.00  0.00    -0.200 F 
ATOM     93  C   UNL     1     -14.054 -19.070 -10.390  1.00  0.00     0.200 A 
ATOM     94  F   UNL     1     -14.669 -17.939 -12.370  1.00  0.00    -0.200 F 
ATOM     95  F   UNL     1     -14.496 -20.229 -10.898  1.00  0.00    -0.200 F 
ENDBRANCH  62  85
ENDBRANCH  36  37
ENDBRANCH  29  31
ENDBRANCH  28  29
ENDBRANCH  27  28
ENDBRANCH  26  27
ENDBRANCH  25  26
ENDBRANCH  24  25
ENDBRANCH   1  24
TORSDOF 19
