REMARK SMILES C[C@H](C[NH3+])S[C@H](C)c1ccc(C(=O)OCCOCCOC(=O)c2ccc(-c3c4nc(c(-c5c(F)c(F)c(F)c(F)c5F)c5ccc([nH]5)c(-c5c(F)c(F)c(F)c(F)c5F)c5nc(c(-c6c(F)c(F)c(F)c(F)c6F)c6ccc3[nH]6)C=C5)C=C4)cc2)o1
REMARK SMILES IDX 15 1 14 2 12 3 13 4 11 5 8 6 9 7 86 8 10 9 6 10 7 11 5 12
REMARK SMILES IDX 2 13 1 14 3 15 4 16 16 20 17 21 18 22 19 23 20 24 21 25
REMARK SMILES IDX 22 26 23 27 24 28 85 29 25 30 84 31 26 32 27 33 28 34 78 35
REMARK SMILES IDX 29 36 83 37 77 38 79 39 30 40 82 41 76 42 75 43 31 45 63 46
REMARK SMILES IDX 43 47 62 48 44 49 47 50 61 51 80 52 45 53 46 54 60 56 81 57
REMARK SMILES IDX 48 58 32 59 33 60 41 61 34 62 35 63 39 64 42 65 36 66 37 67
REMARK SMILES IDX 40 68 38 69 64 70 65 71 73 72 66 73 67 74 71 75 74 76 68 77
REMARK SMILES IDX 69 78 72 79 70 80 49 81 50 82 58 83 51 84 52 85 56 86 59 87
REMARK SMILES IDX 53 88 54 89 57 90 55 91
REMARK H PARENT 4 17 4 18 4 19 79 44 47 55
REMARK Flexibility Score: inf
ROOT
ATOM      1  C   UNL     1       1.113  -4.288   5.059  1.00  0.00     0.261 C 
ENDROOT
BRANCH   1   2
ATOM      2  O   UNL     1       0.818  -3.124   4.267  1.00  0.00    -0.457 OA
BRANCH   2   3
ATOM      3  C   UNL     1       0.843  -3.312   2.915  1.00  0.00     0.374 C 
ATOM      4  O   UNL     1       1.291  -4.306   2.358  1.00  0.00    -0.242 OA
BRANCH   3   5
ATOM      5  C   UNL     1       0.132  -2.236   2.265  1.00  0.00     0.211 A 
ATOM      6  C   UNL     1      -1.048  -1.388   0.595  1.00  0.00     0.117 A 
ATOM      7  C   UNL     1      -1.057  -0.446   1.606  1.00  0.00     0.048 A 
ATOM      8  O   UNL     1      -0.319  -2.466   0.997  1.00  0.00    -0.453 OA
ATOM      9  C   UNL     1      -0.302  -0.989   2.678  1.00  0.00     0.058 A 
BRANCH   6  10
ATOM     10  C   UNL     1      -1.699  -1.445  -0.758  1.00  0.00     0.110 C 
ATOM     11  C   UNL     1      -1.448  -0.151  -1.535  1.00  0.00     0.028 C 
BRANCH  10  12
ATOM     12  S   UNL     1      -1.090  -2.822  -1.812  1.00  0.00    -0.142 SA
BRANCH  12  13
ATOM     13  C   UNL     1      -2.446  -4.070  -1.653  1.00  0.00     0.099 C 
ATOM     14  C   UNL     1      -3.772  -3.525  -2.181  1.00  0.00     0.025 C 
BRANCH  13  15
ATOM     15  C   UNL     1      -2.596  -4.642  -0.228  1.00  0.00     0.273 C 
BRANCH  15  16
ATOM     16  N   UNL     1      -1.394  -5.343   0.218  1.00  0.00    -0.357 N 
ATOM     17  H   UNL     1      -1.212  -6.133  -0.402  1.00  0.00     0.344 HD
ATOM     18  H   UNL     1      -1.532  -5.682   1.170  1.00  0.00     0.344 HD
ATOM     19  H   UNL     1      -0.600  -4.704   0.196  1.00  0.00     0.344 HD
ENDBRANCH  15  16
ENDBRANCH  13  15
ENDBRANCH  12  13
ENDBRANCH  10  12
ENDBRANCH   6  10
ENDBRANCH   3   5
ENDBRANCH   2   3
ENDBRANCH   1   2
BRANCH   1  20
ATOM     20  C   UNL     1      -0.137  -4.737   5.823  1.00  0.00     0.202 C 
BRANCH  20  21
ATOM     21  O   UNL     1      -1.157  -5.328   5.015  1.00  0.00    -0.374 OA
BRANCH  21  22
ATOM     22  C   UNL     1      -2.060  -4.437   4.359  1.00  0.00     0.202 C 
BRANCH  22  23
ATOM     23  C   UNL     1      -3.234  -3.943   5.210  1.00  0.00     0.261 C 
BRANCH  23  24
ATOM     24  O   UNL     1      -2.782  -3.098   6.283  1.00  0.00    -0.460 OA
BRANCH  24  25
ATOM     25  C   UNL     1      -2.880  -3.655   7.513  1.00  0.00     0.338 C 
ATOM     26  O   UNL     1      -3.400  -4.720   7.802  1.00  0.00    -0.246 OA
BRANCH  25  27
ATOM     27  C   UNL     1      -2.119  -2.863   8.499  1.00  0.00     0.060 A 
ATOM     28  C   UNL     1      -1.297  -3.573   9.382  1.00  0.00     0.016 A 
ATOM     29  C   UNL     1      -2.267  -1.479   8.626  1.00  0.00     0.016 A 
ATOM     30  C   UNL     1      -0.684  -2.916  10.445  1.00  0.00     0.010 A 
ATOM     31  C   UNL     1      -1.650  -0.819   9.697  1.00  0.00     0.010 A 
ATOM     32  C   UNL     1      -0.899  -1.545  10.639  1.00  0.00    -0.014 A 
BRANCH  32  33
ATOM     33  C   UNL     1      -0.484  -0.937  11.927  1.00  0.00     0.031 A 
ATOM     34  C   UNL     1      -1.510  -0.768  13.015  1.00  0.00     0.074 A 
ATOM     35  C   UNL     1       0.801  -0.615  12.156  1.00  0.00     0.049 A 
ATOM     36  N   UNL     1      -1.361  -0.331  14.240  1.00  0.00    -0.248 NA
ATOM     37  C   UNL     1      -2.892  -1.146  12.677  1.00  0.00     0.031 C 
ATOM     38  C   UNL     1       1.891  -0.756  11.194  1.00  0.00     0.029 A 
ATOM     39  N   UNL     1       1.405  -0.111  13.281  1.00  0.00    -0.354 N 
ATOM     40  C   UNL     1      -2.623  -0.385  14.817  1.00  0.00     0.074 A 
ATOM     41  C   UNL     1      -3.535  -0.858  13.798  1.00  0.00     0.031 C 
ATOM     42  C   UNL     1       3.036  -0.351  11.772  1.00  0.00     0.029 A 
ATOM     43  C   UNL     1       2.754   0.090  13.137  1.00  0.00     0.049 A 
ATOM     44  H   UNL     1       0.916   0.087  14.112  1.00  0.00     0.167 HD
ATOM     45  C   UNL     1      -2.988  -0.084  16.086  1.00  0.00     0.037 A 
ATOM     46  C   UNL     1       3.658   0.576  14.010  1.00  0.00     0.037 A 
ATOM     47  C   UNL     1      -2.083   0.381  17.103  1.00  0.00     0.049 A 
ATOM     48  C   UNL     1       3.219   0.943  15.404  1.00  0.00     0.074 A 
ATOM     49  C   UNL     1      -2.354   0.700  18.422  1.00  0.00     0.029 A 
ATOM     50  N   UNL     1      -0.726   0.598  16.910  1.00  0.00    -0.354 N 
ATOM     51  N   UNL     1       2.030   0.855  15.950  1.00  0.00    -0.248 NA
ATOM     52  C   UNL     1       4.255   1.464  16.307  1.00  0.00     0.031 C 
ATOM     53  C   UNL     1      -1.170   1.150  19.016  1.00  0.00     0.029 A 
ATOM     54  C   UNL     1      -0.151   1.065  18.081  1.00  0.00     0.049 A 
ATOM     55  H   UNL     1      -0.244   0.443  16.066  1.00  0.00     0.167 HD
ATOM     56  C   UNL     1       2.180   1.279  17.264  1.00  0.00     0.074 A 
ATOM     57  C   UNL     1       3.579   1.611  17.438  1.00  0.00     0.031 C 
ATOM     58  C   UNL     1       1.245   1.383  18.241  1.00  0.00     0.037 A 
BRANCH  45  59
ATOM     59  C   UNL     1      -4.438  -0.236  16.441  1.00  0.00     0.064 A 
ATOM     60  C   UNL     1      -5.033  -1.499  16.582  1.00  0.00     0.173 A 
ATOM     61  C   UNL     1      -5.236   0.895  16.666  1.00  0.00     0.173 A 
ATOM     62  F   UNL     1      -4.316  -2.611  16.362  1.00  0.00    -0.203 F 
ATOM     63  C   UNL     1      -6.380  -1.623  16.913  1.00  0.00     0.198 A 
ATOM     64  C   UNL     1      -6.576   0.767  17.022  1.00  0.00     0.198 A 
ATOM     65  F   UNL     1      -4.715   2.126  16.544  1.00  0.00    -0.203 F 
ATOM     66  F   UNL     1      -6.938  -2.838  16.997  1.00  0.00    -0.200 F 
ATOM     67  C   UNL     1      -7.148  -0.490  17.138  1.00  0.00     0.200 A 
ATOM     68  F   UNL     1      -7.315   1.862  17.248  1.00  0.00    -0.200 F 
ATOM     69  F   UNL     1      -8.444  -0.611  17.459  1.00  0.00    -0.200 F 
ENDBRANCH  45  59
BRANCH  46  70
ATOM     70  C   UNL     1       5.076   0.734  13.598  1.00  0.00     0.064 A 
ATOM     71  C   UNL     1       6.083  -0.077  14.140  1.00  0.00     0.173 A 
ATOM     72  C   UNL     1       5.456   1.714  12.670  1.00  0.00     0.173 A 
ATOM     73  F   UNL     1       5.772  -1.012  15.050  1.00  0.00    -0.203 F 
ATOM     74  C   UNL     1       7.418   0.100  13.784  1.00  0.00     0.198 A 
ATOM     75  C   UNL     1       6.788   1.873  12.294  1.00  0.00     0.198 A 
ATOM     76  F   UNL     1       4.530   2.517  12.124  1.00  0.00    -0.203 F 
ATOM     77  F   UNL     1       8.367  -0.657  14.352  1.00  0.00    -0.200 F 
ATOM     78  C   UNL     1       7.769   1.071  12.858  1.00  0.00     0.200 A 
ATOM     79  F   UNL     1       7.121   2.806  11.392  1.00  0.00    -0.200 F 
ATOM     80  F   UNL     1       9.053   1.241  12.515  1.00  0.00    -0.200 F 
ENDBRANCH  46  70
BRANCH  58  81
ATOM     81  C   UNL     1       1.710   1.838  19.593  1.00  0.00     0.064 A 
ATOM     82  C   UNL     1       2.094   3.166  19.832  1.00  0.00     0.173 A 
ATOM     83  C   UNL     1       1.748   0.940  20.671  1.00  0.00     0.173 A 
ATOM     84  F   UNL     1       2.088   4.061  18.833  1.00  0.00    -0.203 F 
ATOM     85  C   UNL     1       2.529   3.569  21.092  1.00  0.00     0.198 A 
ATOM     86  C   UNL     1       2.155   1.353  21.936  1.00  0.00     0.198 A 
ATOM     87  F   UNL     1       1.383  -0.340  20.497  1.00  0.00    -0.203 F 
ATOM     88  F   UNL     1       2.942   4.830  21.285  1.00  0.00    -0.200 F 
ATOM     89  C   UNL     1       2.554   2.665  22.143  1.00  0.00     0.200 A 
ATOM     90  F   UNL     1       2.167   0.481  22.953  1.00  0.00    -0.200 F 
ATOM     91  F   UNL     1       2.973   3.055  23.355  1.00  0.00    -0.200 F 
ENDBRANCH  58  81
ENDBRANCH  32  33
ENDBRANCH  25  27
ENDBRANCH  24  25
ENDBRANCH  23  24
ENDBRANCH  22  23
ENDBRANCH  21  22
ENDBRANCH  20  21
ENDBRANCH   1  20
TORSDOF 19
