REMARK SMILES O=C(OCCOCCOC(=O)c1ccn(CC(F)(F)F)c1)c1ccc(-c2c3nc(c(-c4c(F)c(F)c(F)c(F)c4F)c4ccc([nH]4)c(-c4c(F)c(F)c(F)c(F)c4F)c4nc(c(-c5c(F)c(F)c(F)c(F)c5F)c5ccc2[nH]5)C=C4)C=C3)cc1
REMARK SMILES IDX 6 1 5 2 4 3 3 4 2 5 1 6 22 7 23 8 84 9 24 10 83 11 25 12
REMARK SMILES IDX 26 13 27 14 77 15 28 16 82 17 76 18 78 19 29 20 81 21 75 22
REMARK SMILES IDX 74 23 30 25 62 26 42 27 61 28 43 29 46 30 60 31 79 32 44 33
REMARK SMILES IDX 45 34 59 36 80 37 47 38 31 39 32 40 40 41 33 42 34 43 38 44
REMARK SMILES IDX 41 45 35 46 36 47 39 48 37 49 63 50 64 51 72 52 65 53 66 54
REMARK SMILES IDX 70 55 73 56 67 57 68 58 71 59 69 60 48 61 49 62 57 63 50 64
REMARK SMILES IDX 51 65 55 66 58 67 52 68 53 69 56 70 54 71 7 72 8 73 9 74
REMARK SMILES IDX 10 75 11 76 12 77 13 78 21 79 14 80 15 81 16 82 17 83 18 84
REMARK SMILES IDX 19 85 20 86
REMARK H PARENT 78 24 46 35
REMARK Flexibility Score: inf
ROOT
ATOM      1  O   UNL     1       4.217  -1.241  -0.094  1.00  0.00    -0.374 OA
ENDROOT
BRANCH   1   2
ATOM      2  C   UNL     1       4.686  -0.494   1.030  1.00  0.00     0.202 C 
BRANCH   2   3
ATOM      3  C   UNL     1       4.242   0.967   1.071  1.00  0.00     0.261 C 
BRANCH   3   4
ATOM      4  O   UNL     1       2.804   1.074   1.098  1.00  0.00    -0.460 OA
BRANCH   4   5
ATOM      5  C   UNL     1       2.007   0.915   0.011  1.00  0.00     0.338 C 
ATOM      6  O   UNL     1       0.923   0.347   0.081  1.00  0.00    -0.246 OA
BRANCH   5   7
ATOM      7  C   UNL     1       2.321   1.729  -1.177  1.00  0.00     0.060 A 
ATOM      8  C   UNL     1       3.561   1.711  -1.809  1.00  0.00     0.016 A 
ATOM      9  C   UNL     1       1.289   2.546  -1.665  1.00  0.00     0.016 A 
ATOM     10  C   UNL     1       3.840   2.654  -2.780  1.00  0.00     0.010 A 
ATOM     11  C   UNL     1       1.535   3.431  -2.705  1.00  0.00     0.010 A 
ATOM     12  C   UNL     1       2.830   3.519  -3.220  1.00  0.00    -0.014 A 
BRANCH  12  13
ATOM     13  C   UNL     1       3.178   4.403  -4.348  1.00  0.00     0.031 A 
ATOM     14  C   UNL     1       3.396   3.601  -5.628  1.00  0.00     0.074 A 
ATOM     15  C   UNL     1       3.376   5.720  -4.058  1.00  0.00     0.049 A 
ATOM     16  N   UNL     1       4.269   3.758  -6.575  1.00  0.00    -0.248 NA
ATOM     17  C   UNL     1       2.593   2.364  -5.819  1.00  0.00     0.031 C 
ATOM     18  C   UNL     1       3.079   6.337  -2.752  1.00  0.00     0.029 A 
ATOM     19  N   UNL     1       3.880   6.792  -4.766  1.00  0.00    -0.354 N 
ATOM     20  C   UNL     1       3.997   2.778  -7.550  1.00  0.00     0.074 A 
ATOM     21  C   UNL     1       3.072   1.860  -6.956  1.00  0.00     0.031 C 
ATOM     22  C   UNL     1       3.461   7.629  -2.735  1.00  0.00     0.029 A 
ATOM     23  C   UNL     1       4.043   7.983  -4.014  1.00  0.00     0.049 A 
ATOM     24  H   UNL     1       4.109   6.734  -5.722  1.00  0.00     0.167 HD
ATOM     25  C   UNL     1       4.422   2.873  -8.844  1.00  0.00     0.037 A 
ATOM     26  C   UNL     1       4.652   9.157  -4.369  1.00  0.00     0.037 A 
ATOM     27  C   UNL     1       5.228   4.036  -9.018  1.00  0.00     0.049 A 
ATOM     28  C   UNL     1       5.074   8.976  -5.767  1.00  0.00     0.074 A 
ATOM     29  C   UNL     1       6.515   4.359  -8.681  1.00  0.00     0.029 A 
ATOM     30  N   UNL     1       4.577   5.181  -9.404  1.00  0.00    -0.354 N 
ATOM     31  N   UNL     1       4.274   9.009  -6.790  1.00  0.00    -0.248 NA
ATOM     32  C   UNL     1       6.476   8.639  -6.048  1.00  0.00     0.031 C 
ATOM     33  C   UNL     1       6.501   5.764  -8.523  1.00  0.00     0.029 A 
ATOM     34  C   UNL     1       5.226   6.248  -8.832  1.00  0.00     0.049 A 
ATOM     35  H   UNL     1       3.786   5.229  -9.987  1.00  0.00     0.167 HD
ATOM     36  C   UNL     1       5.015   8.387  -7.769  1.00  0.00     0.074 A 
ATOM     37  C   UNL     1       6.397   8.482  -7.367  1.00  0.00     0.031 C 
ATOM     38  C   UNL     1       4.440   7.426  -8.535  1.00  0.00     0.037 A 
BRANCH  25  39
ATOM     39  C   UNL     1       3.967   2.155 -10.090  1.00  0.00     0.064 A 
ATOM     40  C   UNL     1       4.769   2.263 -11.254  1.00  0.00     0.173 A 
ATOM     41  C   UNL     1       2.665   1.672 -10.288  1.00  0.00     0.173 A 
ATOM     42  F   UNL     1       6.047   2.667 -11.175  1.00  0.00    -0.203 F 
ATOM     43  C   UNL     1       4.257   2.044 -12.532  1.00  0.00     0.198 A 
ATOM     44  C   UNL     1       2.173   1.399 -11.568  1.00  0.00     0.198 A 
ATOM     45  F   UNL     1       1.802   1.548  -9.274  1.00  0.00    -0.203 F 
ATOM     46  F   UNL     1       5.013   2.303 -13.608  1.00  0.00    -0.200 F 
ATOM     47  C   UNL     1       2.951   1.628 -12.689  1.00  0.00     0.200 A 
ATOM     48  F   UNL     1       0.907   0.983 -11.713  1.00  0.00    -0.200 F 
ATOM     49  F   UNL     1       2.431   1.482 -13.915  1.00  0.00    -0.200 F 
ENDBRANCH  25  39
BRANCH  26  50
ATOM     50  C   UNL     1       5.039  10.458  -3.698  1.00  0.00     0.064 A 
ATOM     51  C   UNL     1       4.553  10.927  -2.470  1.00  0.00     0.173 A 
ATOM     52  C   UNL     1       5.984  11.330  -4.311  1.00  0.00     0.173 A 
ATOM     53  F   UNL     1       3.555  10.306  -1.835  1.00  0.00    -0.203 F 
ATOM     54  C   UNL     1       5.051  12.094  -1.859  1.00  0.00     0.198 A 
ATOM     55  C   UNL     1       6.494  12.477  -3.699  1.00  0.00     0.198 A 
ATOM     56  F   UNL     1       6.454  11.108  -5.545  1.00  0.00    -0.203 F 
ATOM     57  F   UNL     1       4.562  12.481  -0.672  1.00  0.00    -0.200 F 
ATOM     58  C   UNL     1       6.039  12.851  -2.459  1.00  0.00     0.200 A 
ATOM     59  F   UNL     1       7.433  13.201  -4.325  1.00  0.00    -0.200 F 
ATOM     60  F   UNL     1       6.535  13.941  -1.859  1.00  0.00    -0.200 F 
ENDBRANCH  26  50
BRANCH  38  61
ATOM     61  C   UNL     1       2.925   7.519  -8.556  1.00  0.00     0.064 A 
ATOM     62  C   UNL     1       2.290   8.631  -9.127  1.00  0.00     0.173 A 
ATOM     63  C   UNL     1       2.092   6.618  -7.872  1.00  0.00     0.173 A 
ATOM     64  F   UNL     1       3.010   9.535  -9.807  1.00  0.00    -0.203 F 
ATOM     65  C   UNL     1       0.912   8.835  -8.993  1.00  0.00     0.198 A 
ATOM     66  C   UNL     1       0.718   6.812  -7.742  1.00  0.00     0.198 A 
ATOM     67  F   UNL     1       2.602   5.527  -7.309  1.00  0.00    -0.203 F 
ATOM     68  F   UNL     1       0.343   9.917  -9.540  1.00  0.00    -0.200 F 
ATOM     69  C   UNL     1       0.128   7.929  -8.296  1.00  0.00     0.200 A 
ATOM     70  F   UNL     1      -0.026   5.913  -7.079  1.00  0.00    -0.200 F 
ATOM     71  F   UNL     1      -1.191   8.126  -8.169  1.00  0.00    -0.200 F 
ENDBRANCH  38  61
ENDBRANCH  12  13
ENDBRANCH   5   7
ENDBRANCH   4   5
ENDBRANCH   3   4
ENDBRANCH   2   3
ENDBRANCH   1   2
BRANCH   1  72
ATOM     72  C   UNL     1       3.067  -2.064   0.170  1.00  0.00     0.202 C 
BRANCH  72  73
ATOM     73  C   UNL     1       3.350  -3.421   0.836  1.00  0.00     0.261 C 
BRANCH  73  74
ATOM     74  O   UNL     1       3.644  -3.263   2.237  1.00  0.00    -0.460 OA
BRANCH  74  75
ATOM     75  C   UNL     1       4.976  -3.256   2.558  1.00  0.00     0.339 C 
ATOM     76  O   UNL     1       5.871  -3.583   1.813  1.00  0.00    -0.246 OA
BRANCH  75  77
ATOM     77  C   UNL     1       5.209  -2.586   3.840  1.00  0.00     0.077 A 
ATOM     78  C   UNL     1       4.422  -2.549   5.022  1.00  0.00     0.035 A 
ATOM     79  C   UNL     1       6.295  -1.757   4.075  1.00  0.00     0.101 A 
ATOM     80  C   UNL     1       5.066  -1.737   5.934  1.00  0.00     0.087 A 
ATOM     81  N   UNL     1       6.178  -1.217   5.329  1.00  0.00    -0.344 N 
BRANCH  81  82
ATOM     82  C   UNL     1       7.145  -0.301   5.908  1.00  0.00     0.236 C 
BRANCH  82  83
ATOM     83  C   UNL     1       6.566   0.869   6.672  1.00  0.00     0.406 C 
ATOM     84  F   UNL     1       5.924   0.484   7.795  1.00  0.00    -0.169 F 
ATOM     85  F   UNL     1       7.566   1.703   7.056  1.00  0.00    -0.169 F 
ATOM     86  F   UNL     1       5.712   1.597   5.922  1.00  0.00    -0.169 F 
ENDBRANCH  82  83
ENDBRANCH  81  82
ENDBRANCH  75  77
ENDBRANCH  74  75
ENDBRANCH  73  74
ENDBRANCH  72  73
ENDBRANCH   1  72
TORSDOF 16
