REMARK SMILES Cc1cc(C)c2c(c1)C=C(C(=O)OCCOCCOC(=O)c1ccc(-c3c4nc(c(-c5c(F)c(F)c(F)c(F)c5F)c5ccc([nH]5)c(-c5c(F)c(F)c(F)c(F)c5F)c5nc(c(-c6c(F)c(F)c(F)c(F)c6F)c6ccc3[nH]6)C=C5)C=C4)cc1)[C@@H](C(F)(F)F)O2
REMARK SMILES IDX 17 1 16 2 15 3 14 4 13 5 11 6 12 7 10 8 1 9 2 10 3 11 8 12
REMARK SMILES IDX 4 13 7 14 5 15 6 16 9 17 90 18 85 19 86 20 87 21 88 22 89 23
REMARK SMILES IDX 18 24 19 25 20 26 21 27 22 28 23 29 84 30 24 31 83 32 25 33
REMARK SMILES IDX 26 34 27 35 77 36 28 37 82 38 76 39 78 40 29 41 81 42 75 43
REMARK SMILES IDX 74 44 30 46 62 47 42 48 61 49 43 50 46 51 60 52 79 53 44 54
REMARK SMILES IDX 45 55 59 57 80 58 47 59 31 60 32 61 40 62 33 63 34 64 38 65
REMARK SMILES IDX 41 66 35 67 36 68 39 69 37 70 63 71 64 72 72 73 65 74 66 75
REMARK SMILES IDX 70 76 73 77 67 78 68 79 71 80 69 81 48 82 49 83 57 84 50 85
REMARK SMILES IDX 51 86 55 87 58 88 52 89 53 90 56 91 54 92
REMARK H PARENT 78 45 46 56
REMARK Flexibility Score: inf
ROOT
ATOM      1  C   UNL     1       2.840   6.830   3.819  1.00  0.00     0.202 C 
ENDROOT
BRANCH   1   2
ATOM      2  O   UNL     1       2.366   8.162   3.608  1.00  0.00    -0.374 OA
BRANCH   2   3
ATOM      3  C   UNL     1       1.456   8.705   4.561  1.00  0.00     0.202 C 
BRANCH   3   4
ATOM      4  C   UNL     1      -0.003   8.254   4.454  1.00  0.00     0.261 C 
BRANCH   4   5
ATOM      5  O   UNL     1      -0.126   6.827   4.555  1.00  0.00    -0.460 OA
BRANCH   5   6
ATOM      6  C   UNL     1      -0.557   6.220   3.425  1.00  0.00     0.338 C 
ATOM      7  O   UNL     1      -0.960   6.766   2.409  1.00  0.00    -0.246 OA
BRANCH   6   8
ATOM      8  C   UNL     1      -0.364   4.763   3.532  1.00  0.00     0.087 C 
ATOM      9  C   UNL     1       1.073  -0.040  -0.027  1.00  0.00     0.044 C 
ATOM     10  C   UNL     1       0.628   0.659   1.223  1.00  0.00    -0.050 A 
ATOM     11  C   UNL     1       0.211  -0.065   2.346  1.00  0.00     0.010 A 
ATOM     12  C   UNL     1       0.644   2.055   1.284  1.00  0.00     0.015 A 
ATOM     13  C   UNL     1      -0.198   0.591   3.519  1.00  0.00    -0.008 A 
ATOM     14  C   UNL     1       0.223   2.721   2.440  1.00  0.00     0.018 A 
ATOM     15  C   UNL     1      -0.678  -0.211   4.697  1.00  0.00     0.048 C 
ATOM     16  C   UNL     1      -0.174   1.994   3.564  1.00  0.00     0.130 A 
ATOM     17  C   UNL     1       0.130   4.168   2.440  1.00  0.00     0.027 C 
ATOM     18  O   UNL     1      -0.550   2.586   4.739  1.00  0.00    -0.475 OA
ATOM     19  C   UNL     1      -0.737   4.028   4.788  1.00  0.00     0.316 C 
BRANCH  19  20
ATOM     20  C   UNL     1      -2.180   4.306   5.234  1.00  0.00     0.430 C 
ATOM     21  F   UNL     1      -2.496   3.595   6.344  1.00  0.00    -0.167 F 
ATOM     22  F   UNL     1      -2.366   5.610   5.551  1.00  0.00    -0.167 F 
ATOM     23  F   UNL     1      -3.081   3.989   4.278  1.00  0.00    -0.167 F 
ENDBRANCH  19  20
ENDBRANCH   6   8
ENDBRANCH   5   6
ENDBRANCH   4   5
ENDBRANCH   3   4
ENDBRANCH   2   3
ENDBRANCH   1   2
BRANCH   1  24
ATOM     24  C   UNL     1       3.845   6.619   4.958  1.00  0.00     0.261 C 
BRANCH  24  25
ATOM     25  O   UNL     1       3.243   6.798   6.254  1.00  0.00    -0.460 OA
BRANCH  25  26
ATOM     26  C   UNL     1       3.737   7.830   6.976  1.00  0.00     0.338 C 
ATOM     27  O   UNL     1       4.664   8.572   6.680  1.00  0.00    -0.246 OA
BRANCH  26  28
ATOM     28  C   UNL     1       2.871   8.084   8.139  1.00  0.00     0.060 A 
ATOM     29  C   UNL     1       2.272   9.346   8.243  1.00  0.00     0.016 A 
ATOM     30  C   UNL     1       2.712   7.134   9.150  1.00  0.00     0.016 A 
ATOM     31  C   UNL     1       1.537   9.676   9.379  1.00  0.00     0.010 A 
ATOM     32  C   UNL     1       1.984   7.472  10.296  1.00  0.00     0.010 A 
ATOM     33  C   UNL     1       1.419   8.753  10.428  1.00  0.00    -0.014 A 
BRANCH  33  34
ATOM     34  C   UNL     1       0.818   9.188  11.710  1.00  0.00     0.031 A 
ATOM     35  C   UNL     1       1.720   9.614  12.834  1.00  0.00     0.074 A 
ATOM     36  C   UNL     1      -0.518   9.254  11.852  1.00  0.00     0.049 A 
ATOM     37  N   UNL     1       1.409  10.050  14.028  1.00  0.00    -0.248 NA
ATOM     38  C   UNL     1       3.168   9.544  12.577  1.00  0.00     0.031 C 
ATOM     39  C   UNL     1      -1.490   8.909  10.818  1.00  0.00     0.029 A 
ATOM     40  N   UNL     1      -1.284   9.642  12.922  1.00  0.00    -0.354 N 
ATOM     41  C   UNL     1       2.617  10.315  14.658  1.00  0.00     0.074 A 
ATOM     42  C   UNL     1       3.669   9.954  13.734  1.00  0.00     0.031 C 
ATOM     43  C   UNL     1      -2.728   9.107  11.302  1.00  0.00     0.029 A 
ATOM     44  C   UNL     1      -2.635   9.566  12.687  1.00  0.00     0.049 A 
ATOM     45  H   UNL     1      -0.902   9.947  13.777  1.00  0.00     0.167 HD
ATOM     46  C   UNL     1       2.828  10.832  15.891  1.00  0.00     0.037 A 
ATOM     47  C   UNL     1      -3.675   9.830  13.502  1.00  0.00     0.037 A 
ATOM     48  C   UNL     1       1.780  11.191  16.809  1.00  0.00     0.049 A 
ATOM     49  C   UNL     1      -3.412  10.316  14.904  1.00  0.00     0.074 A 
ATOM     50  C   UNL     1       1.894  11.731  18.078  1.00  0.00     0.029 A 
ATOM     51  N   UNL     1       0.424  11.039  16.558  1.00  0.00    -0.354 N 
ATOM     52  N   UNL     1      -2.268  10.588  15.483  1.00  0.00    -0.248 NA
ATOM     53  C   UNL     1      -4.584  10.530  15.767  1.00  0.00     0.031 C 
ATOM     54  C   UNL     1       0.611  11.861  18.614  1.00  0.00     0.029 A 
ATOM     55  C   UNL     1      -0.307  11.449  17.660  1.00  0.00     0.049 A 
ATOM     56  H   UNL     1       0.039  10.691  15.721  1.00  0.00     0.167 HD
ATOM     57  C   UNL     1      -2.581  11.027  16.763  1.00  0.00     0.074 A 
ATOM     58  C   UNL     1      -4.024  10.995  16.876  1.00  0.00     0.031 C 
ATOM     59  C   UNL     1      -1.745  11.422  17.754  1.00  0.00     0.037 A 
BRANCH  46  60
ATOM     60  C   UNL     1       4.247  11.041  16.329  1.00  0.00     0.064 A 
ATOM     61  C   UNL     1       5.031  12.074  15.795  1.00  0.00     0.173 A 
ATOM     62  C   UNL     1       4.805  10.246  17.341  1.00  0.00     0.173 A 
ATOM     63  F   UNL     1       4.546  12.854  14.817  1.00  0.00    -0.203 F 
ATOM     64  C   UNL     1       6.329  12.295  16.250  1.00  0.00     0.198 A 
ATOM     65  C   UNL     1       6.093  10.487  17.811  1.00  0.00     0.198 A 
ATOM     66  F   UNL     1       4.093   9.249  17.888  1.00  0.00    -0.203 F 
ATOM     67  F   UNL     1       7.071  13.268  15.704  1.00  0.00    -0.200 F 
ATOM     68  C   UNL     1       6.854  11.508  17.263  1.00  0.00     0.200 A 
ATOM     69  F   UNL     1       6.595   9.734  18.800  1.00  0.00    -0.200 F 
ATOM     70  F   UNL     1       8.097  11.733  17.711  1.00  0.00    -0.200 F 
ENDBRANCH  46  60
BRANCH  47  71
ATOM     71  C   UNL     1      -5.064   9.651  13.005  1.00  0.00     0.064 A 
ATOM     72  C   UNL     1      -5.897  10.756  12.782  1.00  0.00     0.173 A 
ATOM     73  C   UNL     1      -5.582   8.377  12.732  1.00  0.00     0.173 A 
ATOM     74  F   UNL     1      -5.455  11.993  13.052  1.00  0.00    -0.203 F 
ATOM     75  C   UNL     1      -7.198  10.592  12.310  1.00  0.00     0.198 A 
ATOM     76  C   UNL     1      -6.874   8.216  12.237  1.00  0.00     0.198 A 
ATOM     77  F   UNL     1      -4.827   7.287  12.933  1.00  0.00    -0.203 F 
ATOM     78  F   UNL     1      -7.984  11.663  12.137  1.00  0.00    -0.200 F 
ATOM     79  C   UNL     1      -7.683   9.323  12.030  1.00  0.00     0.200 A 
ATOM     80  F   UNL     1      -7.335   6.989  11.957  1.00  0.00    -0.200 F 
ATOM     81  F   UNL     1      -8.930   9.168  11.567  1.00  0.00    -0.200 F 
ENDBRANCH  47  71
BRANCH  59  82
ATOM     82  C   UNL     1      -2.352  11.873  19.050  1.00  0.00     0.064 A 
ATOM     83  C   UNL     1      -2.888  10.955  19.964  1.00  0.00     0.173 A 
ATOM     84  C   UNL     1      -2.295  13.223  19.429  1.00  0.00     0.173 A 
ATOM     85  F   UNL     1      -2.974   9.655  19.643  1.00  0.00    -0.203 F 
ATOM     86  C   UNL     1      -3.346  11.373  21.210  1.00  0.00     0.198 A 
ATOM     87  C   UNL     1      -2.730  13.633  20.686  1.00  0.00     0.198 A 
ATOM     88  F   UNL     1      -1.782  14.139  18.593  1.00  0.00    -0.203 F 
ATOM     89  F   UNL     1      -3.871  10.482  22.062  1.00  0.00    -0.200 F 
ATOM     90  C   UNL     1      -3.255  12.708  21.575  1.00  0.00     0.200 A 
ATOM     91  F   UNL     1      -2.624  14.921  21.043  1.00  0.00    -0.200 F 
ATOM     92  F   UNL     1      -3.671  13.104  22.786  1.00  0.00    -0.200 F 
ENDBRANCH  59  82
ENDBRANCH  33  34
ENDBRANCH  26  28
ENDBRANCH  25  26
ENDBRANCH  24  25
ENDBRANCH   1  24
TORSDOF 15
