REMARK SMILES C[C@H](NC(=O)C(=O)c1ccccc1)C(=O)OCCOCCOC(=O)c1ccc(-c2c3nc(c(-c4c(F)c(F)c(F)c(F)c4F)c4ccc([nH]4)c(-c4c(F)c(F)c(F)c(F)c4F)c4nc(c(-c5c(F)c(F)c(F)c(F)c5F)c5ccc2[nH]5)C=C4)C=C3)cc1
REMARK SMILES IDX 18 1 17 2 16 3 14 4 15 5 2 6 1 7 3 8 4 9 5 11 6 12 7 13 8 14
REMARK SMILES IDX 9 15 13 16 10 17 12 18 11 19 19 20 20 21 21 22 22 23 23 24
REMARK SMILES IDX 24 25 25 26 26 27 87 28 27 29 86 30 28 31 29 32 30 33 80 34
REMARK SMILES IDX 31 35 85 36 79 37 81 38 32 39 84 40 78 41 77 42 33 44 65 45
REMARK SMILES IDX 45 46 64 47 46 48 49 49 63 50 82 51 47 52 48 53 62 55 83 56
REMARK SMILES IDX 50 57 34 58 35 59 43 60 36 61 37 62 41 63 44 64 38 65 39 66
REMARK SMILES IDX 42 67 40 68 66 69 67 70 75 71 68 72 69 73 73 74 76 75 70 76
REMARK SMILES IDX 71 77 74 78 72 79 51 80 52 81 60 82 53 83 54 84 58 85 61 86
REMARK SMILES IDX 55 87 56 88 59 89 57 90
REMARK H PARENT 3 10 81 43 49 54
REMARK Flexibility Score: inf
ROOT
ATOM      1  C   UNL     1      -3.633  -0.624   0.203  1.00  0.00     0.202 C 
ENDROOT
BRANCH   1   2
ATOM      2  C   UNL     1      -2.799  -1.271   1.313  1.00  0.00     0.261 C 
BRANCH   2   3
ATOM      3  O   UNL     1      -1.400  -0.964   1.158  1.00  0.00    -0.462 OA
BRANCH   3   4
ATOM      4  C   UNL     1      -0.550  -2.000   1.404  1.00  0.00     0.328 C 
ATOM      5  O   UNL     1      -0.887  -3.063   1.916  1.00  0.00    -0.250 OA
BRANCH   4   6
ATOM      6  C   UNL     1       0.921  -1.651   1.106  1.00  0.00     0.189 C 
ATOM      7  C   UNL     1       1.626  -1.495   2.451  1.00  0.00     0.043 C 
BRANCH   6   8
ATOM      8  N   UNL     1       1.176  -0.445   0.304  1.00  0.00    -0.336 N 
ATOM      9  C   UNL     1       1.496  -0.355  -1.031  1.00  0.00     0.293 C 
ATOM     10  H   UNL     1       1.108   0.411   0.786  1.00  0.00     0.164 HD
ATOM     11  O   UNL     1       1.767   0.727  -1.539  1.00  0.00    -0.265 OA
BRANCH   9  12
ATOM     12  C   UNL     1       1.454  -1.606  -1.909  1.00  0.00     0.250 C 
ATOM     13  O   UNL     1       0.592  -2.454  -1.698  1.00  0.00    -0.283 OA
BRANCH  12  14
ATOM     14  C   UNL     1       2.377  -1.745  -3.062  1.00  0.00     0.028 A 
ATOM     15  C   UNL     1       1.917  -2.429  -4.197  1.00  0.00     0.012 A 
ATOM     16  C   UNL     1       3.683  -1.245  -3.036  1.00  0.00     0.012 A 
ATOM     17  C   UNL     1       2.751  -2.600  -5.303  1.00  0.00     0.001 A 
ATOM     18  C   UNL     1       4.519  -1.433  -4.142  1.00  0.00     0.001 A 
ATOM     19  C   UNL     1       4.053  -2.106  -5.273  1.00  0.00     0.000 A 
ENDBRANCH  12  14
ENDBRANCH   9  12
ENDBRANCH   6   8
ENDBRANCH   4   6
ENDBRANCH   3   4
ENDBRANCH   2   3
ENDBRANCH   1   2
BRANCH   1  20
ATOM     20  O   UNL     1      -3.430  -1.144  -1.113  1.00  0.00    -0.374 OA
BRANCH  20  21
ATOM     21  C   UNL     1      -2.183  -0.844  -1.738  1.00  0.00     0.202 C 
BRANCH  21  22
ATOM     22  C   UNL     1      -2.072   0.536  -2.396  1.00  0.00     0.261 C 
BRANCH  22  23
ATOM     23  O   UNL     1      -2.369   1.609  -1.486  1.00  0.00    -0.460 OA
BRANCH  23  24
ATOM     24  C   UNL     1      -3.537   2.243  -1.737  1.00  0.00     0.338 C 
ATOM     25  O   UNL     1      -4.285   2.072  -2.692  1.00  0.00    -0.246 OA
BRANCH  24  26
ATOM     26  C   UNL     1      -3.919   3.106  -0.606  1.00  0.00     0.060 A 
ATOM     27  C   UNL     1      -5.212   2.945  -0.093  1.00  0.00     0.016 A 
ATOM     28  C   UNL     1      -3.084   4.116  -0.117  1.00  0.00     0.016 A 
ATOM     29  C   UNL     1      -5.698   3.831   0.863  1.00  0.00     0.010 A 
ATOM     30  C   UNL     1      -3.578   5.010   0.844  1.00  0.00     0.010 A 
ATOM     31  C   UNL     1      -4.901   4.895   1.308  1.00  0.00    -0.014 A 
BRANCH  31  32
ATOM     32  C   UNL     1      -5.525   5.941   2.155  1.00  0.00     0.031 A 
ATOM     33  C   UNL     1      -6.024   7.209   1.516  1.00  0.00     0.074 A 
ATOM     34  C   UNL     1      -5.730   5.724   3.466  1.00  0.00     0.049 A 
ATOM     35  N   UNL     1      -6.683   8.206   2.051  1.00  0.00    -0.248 NA
ATOM     36  C   UNL     1      -5.749   7.373   0.080  1.00  0.00     0.031 C 
ATOM     37  C   UNL     1      -5.313   4.530   4.198  1.00  0.00     0.029 A 
ATOM     38  N   UNL     1      -6.354   6.499   4.412  1.00  0.00    -0.354 N 
ATOM     39  C   UNL     1      -6.916   9.104   1.018  1.00  0.00     0.074 A 
ATOM     40  C   UNL     1      -6.290   8.557  -0.167  1.00  0.00     0.031 C 
ATOM     41  C   UNL     1      -5.693   4.651   5.481  1.00  0.00     0.029 A 
ATOM     42  C   UNL     1      -6.369   5.934   5.663  1.00  0.00     0.049 A 
ATOM     43  H   UNL     1      -6.753   7.377   4.212  1.00  0.00     0.167 HD
ATOM     44  C   UNL     1      -7.607  10.269   1.048  1.00  0.00     0.037 A 
ATOM     45  C   UNL     1      -6.870   6.401   6.822  1.00  0.00     0.037 A 
ATOM     46  C   UNL     1      -8.223  10.822   2.226  1.00  0.00     0.049 A 
ATOM     47  C   UNL     1      -7.595   7.722   6.838  1.00  0.00     0.074 A 
ATOM     48  C   UNL     1      -8.939  11.999   2.356  1.00  0.00     0.029 A 
ATOM     49  N   UNL     1      -8.191  10.234   3.482  1.00  0.00    -0.354 N 
ATOM     50  N   UNL     1      -7.835   8.547   5.848  1.00  0.00    -0.248 NA
ATOM     51  C   UNL     1      -8.130   8.168   8.132  1.00  0.00     0.031 C 
ATOM     52  C   UNL     1      -9.309  12.142   3.699  1.00  0.00     0.029 A 
ATOM     53  C   UNL     1      -8.861  11.032   4.396  1.00  0.00     0.049 A 
ATOM     54  H   UNL     1      -7.756   9.376   3.693  1.00  0.00     0.167 HD
ATOM     55  C   UNL     1      -8.562   9.598   6.394  1.00  0.00     0.074 A 
ATOM     56  C   UNL     1      -8.746   9.293   7.797  1.00  0.00     0.031 C 
ATOM     57  C   UNL     1      -9.030  10.717   5.790  1.00  0.00     0.037 A 
BRANCH  44  58
ATOM     58  C   UNL     1      -7.731  11.033  -0.237  1.00  0.00     0.064 A 
ATOM     59  C   UNL     1      -8.578  10.595  -1.267  1.00  0.00     0.173 A 
ATOM     60  C   UNL     1      -7.036  12.236  -0.424  1.00  0.00     0.173 A 
ATOM     61  F   UNL     1      -9.255   9.444  -1.141  1.00  0.00    -0.203 F 
ATOM     62  C   UNL     1      -8.712  11.328  -2.443  1.00  0.00     0.198 A 
ATOM     63  C   UNL     1      -7.191  12.978  -1.592  1.00  0.00     0.198 A 
ATOM     64  F   UNL     1      -6.217  12.699   0.532  1.00  0.00    -0.203 F 
ATOM     65  F   UNL     1      -9.501  10.875  -3.428  1.00  0.00    -0.200 F 
ATOM     66  C   UNL     1      -8.024  12.522  -2.602  1.00  0.00     0.200 A 
ATOM     67  F   UNL     1      -6.534  14.137  -1.740  1.00  0.00    -0.200 F 
ATOM     68  F   UNL     1      -8.162  13.231  -3.731  1.00  0.00    -0.200 F 
ENDBRANCH  44  58
BRANCH  45  69
ATOM     69  C   UNL     1      -6.704   5.616   8.073  1.00  0.00     0.064 A 
ATOM     70  C   UNL     1      -7.800   5.018   8.709  1.00  0.00     0.173 A 
ATOM     71  C   UNL     1      -5.443   5.473   8.670  1.00  0.00     0.173 A 
ATOM     72  F   UNL     1      -9.029   5.148   8.190  1.00  0.00    -0.203 F 
ATOM     73  C   UNL     1      -7.644   4.326   9.909  1.00  0.00     0.198 A 
ATOM     74  C   UNL     1      -5.284   4.758   9.855  1.00  0.00     0.198 A 
ATOM     75  F   UNL     1      -4.363   6.028   8.101  1.00  0.00    -0.203 F 
ATOM     76  F   UNL     1      -8.716   3.807  10.524  1.00  0.00    -0.200 F 
ATOM     77  C   UNL     1      -6.386   4.193  10.478  1.00  0.00     0.200 A 
ATOM     78  F   UNL     1      -4.066   4.623  10.395  1.00  0.00    -0.200 F 
ATOM     79  F   UNL     1      -6.237   3.529  11.632  1.00  0.00    -0.200 F 
ENDBRANCH  45  69
BRANCH  57  80
ATOM     80  C   UNL     1      -9.796  11.685   6.645  1.00  0.00     0.064 A 
ATOM     81  C   UNL     1      -9.156  12.474   7.612  1.00  0.00     0.173 A 
ATOM     82  C   UNL     1     -11.182  11.836   6.486  1.00  0.00     0.173 A 
ATOM     83  F   UNL     1      -7.834  12.357   7.812  1.00  0.00    -0.203 F 
ATOM     84  C   UNL     1      -9.880  13.353   8.413  1.00  0.00     0.198 A 
ATOM     85  C   UNL     1     -11.899  12.737   7.269  1.00  0.00     0.198 A 
ATOM     86  F   UNL     1     -11.841  11.111   5.570  1.00  0.00    -0.203 F 
ATOM     87  F   UNL     1      -9.256  14.056   9.368  1.00  0.00    -0.200 F 
ATOM     88  C   UNL     1     -11.249  13.487   8.238  1.00  0.00     0.200 A 
ATOM     89  F   UNL     1     -13.220  12.873   7.092  1.00  0.00    -0.200 F 
ATOM     90  F   UNL     1     -11.945  14.331   9.012  1.00  0.00    -0.200 F 
ENDBRANCH  57  80
ENDBRANCH  31  32
ENDBRANCH  24  26
ENDBRANCH  23  24
ENDBRANCH  22  23
ENDBRANCH  21  22
ENDBRANCH  20  21
ENDBRANCH   1  20
TORSDOF 17
