REMARK SMILES Cc1cc(C(=O)OCCOCCOC(=O)c2ccc(-c3c4nc(c(-c5c(F)c(F)c(F)c(F)c5F)c5ccc([nH]5)c(-c5c(F)c(F)c(F)c(F)c5F)c5nc(c(-c6c(F)c(F)c(F)c(F)c6F)c6ccc3[nH]6)C=C5)C=C4)cc2)ccc1NS(=O)(=O)c1ccc2c(c1)CCC2
REMARK SMILES IDX 9 1 8 2 7 3 5 4 6 5 4 6 1 7 2 8 3 9 81 10 80 11 79 12 82 13
REMARK SMILES IDX 83 15 84 16 85 17 86 18 87 19 91 20 88 21 90 22 89 23 92 24
REMARK SMILES IDX 94 25 93 26 10 27 11 28 12 29 13 30 14 31 15 32 16 33 17 34
REMARK SMILES IDX 78 35 18 36 77 37 19 38 20 39 21 40 71 41 22 42 76 43 70 44
REMARK SMILES IDX 72 45 23 46 75 47 69 48 68 49 24 51 56 52 36 53 55 54 37 55
REMARK SMILES IDX 40 56 54 57 73 58 38 59 39 60 53 62 74 63 41 64 25 65 26 66
REMARK SMILES IDX 34 67 27 68 28 69 32 70 35 71 29 72 30 73 33 74 31 75 57 76
REMARK SMILES IDX 58 77 66 78 59 79 60 80 64 81 67 82 61 83 62 84 65 85 63 86
REMARK SMILES IDX 42 87 43 88 51 89 44 90 45 91 49 92 52 93 46 94 47 95 50 96
REMARK SMILES IDX 48 97
REMARK H PARENT 82 14 72 50 40 61
REMARK Flexibility Score: inf
ROOT
ATOM      1  C   UNL     1      -2.872  -2.187  -2.485  1.00  0.00     0.202 C 
ENDROOT
BRANCH   1   2
ATOM      2  C   UNL     1      -3.355  -1.985  -1.074  1.00  0.00     0.261 C 
BRANCH   2   3
ATOM      3  O   UNL     1      -2.438  -1.229  -0.252  1.00  0.00    -0.460 OA
BRANCH   3   4
ATOM      4  C   UNL     1      -1.353  -1.844   0.325  1.00  0.00     0.338 C 
ATOM      5  O   UNL     1      -1.048  -2.996   0.327  1.00  0.00    -0.246 OA
BRANCH   4   6
ATOM      6  C   UNL     1      -0.487  -0.745   0.813  1.00  0.00     0.060 A 
ATOM      7  C   UNL     1       2.904   0.441  -0.304  1.00  0.00     0.046 C 
ATOM      8  C   UNL     1       1.506   0.467   0.242  1.00  0.00    -0.026 A 
ATOM      9  C   UNL     1       0.832  -0.751   0.370  1.00  0.00     0.021 A 
ATOM     10  C   UNL     1       0.807   1.652   0.536  1.00  0.00     0.052 A 
ATOM     11  C   UNL     1      -0.333   1.588   1.340  1.00  0.00     0.028 A 
ATOM     12  C   UNL     1      -1.018   0.381   1.438  1.00  0.00     0.018 A 
BRANCH  10  13
ATOM     13  N   UNL     1       1.001   2.747  -0.361  1.00  0.00    -0.279 N 
ATOM     14  H   UNL     1       1.658   2.606  -1.080  1.00  0.00     0.180 HD
BRANCH  13  15
ATOM     15  S   UNL     1       0.250   4.236  -0.337  1.00  0.00     0.261 S 
ATOM     16  O   UNL     1       0.414   4.790   0.991  1.00  0.00    -0.201 OA
ATOM     17  O   UNL     1       0.752   4.930  -1.505  1.00  0.00    -0.201 OA
BRANCH  15  18
ATOM     18  C   UNL     1      -1.512   4.039  -0.598  1.00  0.00     0.088 A 
ATOM     19  C   UNL     1      -2.132   2.792  -0.791  1.00  0.00     0.022 A 
ATOM     20  C   UNL     1      -2.285   5.186  -0.367  1.00  0.00     0.026 A 
ATOM     21  C   UNL     1      -3.500   2.641  -0.519  1.00  0.00     0.005 A 
ATOM     22  C   UNL     1      -3.642   5.029  -0.155  1.00  0.00    -0.043 A 
ATOM     23  C   UNL     1      -4.225   3.759  -0.140  1.00  0.00    -0.045 A 
ATOM     24  C   UNL     1      -4.663   6.081   0.137  1.00  0.00     0.036 C 
ATOM     25  C   UNL     1      -5.639   3.838   0.355  1.00  0.00     0.036 C 
ATOM     26  C   UNL     1      -5.669   5.260   0.949  1.00  0.00     0.010 C 
ENDBRANCH  15  18
ENDBRANCH  13  15
ENDBRANCH  10  13
ENDBRANCH   4   6
ENDBRANCH   3   4
ENDBRANCH   2   3
ENDBRANCH   1   2
BRANCH   1  27
ATOM     27  O   UNL     1      -1.797  -3.107  -2.405  1.00  0.00    -0.374 OA
BRANCH  27  28
ATOM     28  C   UNL     1      -1.133  -3.380  -3.625  1.00  0.00     0.202 C 
BRANCH  28  29
ATOM     29  C   UNL     1      -2.025  -4.079  -4.661  1.00  0.00     0.261 C 
BRANCH  29  30
ATOM     30  O   UNL     1      -2.439  -5.364  -4.156  1.00  0.00    -0.460 OA
BRANCH  30  31
ATOM     31  C   UNL     1      -3.719  -5.431  -3.698  1.00  0.00     0.338 C 
ATOM     32  O   UNL     1      -4.707  -5.042  -4.298  1.00  0.00    -0.246 OA
BRANCH  31  33
ATOM     33  C   UNL     1      -3.711  -5.781  -2.249  1.00  0.00     0.060 A 
ATOM     34  C   UNL     1      -4.880  -5.622  -1.481  1.00  0.00     0.016 A 
ATOM     35  C   UNL     1      -2.484  -5.954  -1.614  1.00  0.00     0.016 A 
ATOM     36  C   UNL     1      -4.793  -5.471  -0.088  1.00  0.00     0.010 A 
ATOM     37  C   UNL     1      -2.397  -5.705  -0.262  1.00  0.00     0.010 A 
ATOM     38  C   UNL     1      -3.536  -5.420   0.509  1.00  0.00    -0.014 A 
BRANCH  38  39
ATOM     39  C   UNL     1      -3.242  -4.988   1.881  1.00  0.00     0.031 A 
ATOM     40  C   UNL     1      -2.493  -5.916   2.767  1.00  0.00     0.074 A 
ATOM     41  C   UNL     1      -3.357  -3.682   2.240  1.00  0.00     0.049 A 
ATOM     42  N   UNL     1      -2.215  -5.653   3.995  1.00  0.00    -0.248 NA
ATOM     43  C   UNL     1      -2.022  -7.244   2.372  1.00  0.00     0.031 C 
ATOM     44  C   UNL     1      -2.609  -2.970   3.283  1.00  0.00     0.029 A 
ATOM     45  N   UNL     1      -4.184  -2.672   1.721  1.00  0.00    -0.354 N 
ATOM     46  C   UNL     1      -1.274  -6.554   4.425  1.00  0.00     0.074 A 
ATOM     47  C   UNL     1      -1.290  -7.598   3.434  1.00  0.00     0.031 C 
ATOM     48  C   UNL     1      -3.196  -1.788   3.535  1.00  0.00     0.029 A 
ATOM     49  C   UNL     1      -4.417  -1.748   2.753  1.00  0.00     0.049 A 
ATOM     50  H   UNL     1      -4.536  -2.622   0.803  1.00  0.00     0.167 HD
ATOM     51  C   UNL     1      -0.528  -6.220   5.515  1.00  0.00     0.037 A 
ATOM     52  C   UNL     1      -5.675  -1.501   3.203  1.00  0.00     0.037 A 
ATOM     53  C   UNL     1      -1.093  -5.030   6.171  1.00  0.00     0.049 A 
ATOM     54  C   UNL     1      -5.753  -1.915   4.638  1.00  0.00     0.074 A 
ATOM     55  C   UNL     1      -0.685  -3.715   6.297  1.00  0.00     0.029 A 
ATOM     56  N   UNL     1      -2.431  -5.064   6.575  1.00  0.00    -0.354 N 
ATOM     57  N   UNL     1      -4.945  -2.809   5.142  1.00  0.00    -0.248 NA
ATOM     58  C   UNL     1      -6.618  -1.304   5.638  1.00  0.00     0.031 C 
ATOM     59  C   UNL     1      -1.824  -2.945   6.684  1.00  0.00     0.029 A 
ATOM     60  C   UNL     1      -2.910  -3.796   6.839  1.00  0.00     0.049 A 
ATOM     61  H   UNL     1      -2.964  -5.888   6.662  1.00  0.00     0.167 HD
ATOM     62  C   UNL     1      -5.085  -2.828   6.491  1.00  0.00     0.074 A 
ATOM     63  C   UNL     1      -6.180  -1.909   6.757  1.00  0.00     0.031 C 
ATOM     64  C   UNL     1      -4.285  -3.586   7.289  1.00  0.00     0.037 A 
BRANCH  51  65
ATOM     65  C   UNL     1       0.782  -6.860   5.934  1.00  0.00     0.064 A 
ATOM     66  C   UNL     1       1.412  -6.461   7.135  1.00  0.00     0.173 A 
ATOM     67  C   UNL     1       1.520  -7.795   5.176  1.00  0.00     0.173 A 
ATOM     68  F   UNL     1       0.846  -5.557   7.948  1.00  0.00    -0.203 F 
ATOM     69  C   UNL     1       2.655  -6.962   7.542  1.00  0.00     0.198 A 
ATOM     70  C   UNL     1       2.739  -8.334   5.608  1.00  0.00     0.198 A 
ATOM     71  F   UNL     1       1.137  -8.191   3.959  1.00  0.00    -0.203 F 
ATOM     72  F   UNL     1       3.220  -6.509   8.670  1.00  0.00    -0.200 F 
ATOM     73  C   UNL     1       3.311  -7.912   6.786  1.00  0.00     0.200 A 
ATOM     74  F   UNL     1       3.362  -9.251   4.853  1.00  0.00    -0.200 F 
ATOM     75  F   UNL     1       4.494  -8.403   7.180  1.00  0.00    -0.200 F 
ENDBRANCH  51  65
BRANCH  52  76
ATOM     76  C   UNL     1      -6.684  -1.607   2.112  1.00  0.00     0.064 A 
ATOM     77  C   UNL     1      -6.640  -0.593   1.129  1.00  0.00     0.173 A 
ATOM     78  C   UNL     1      -7.242  -2.837   1.734  1.00  0.00     0.173 A 
ATOM     79  F   UNL     1      -6.092   0.597   1.425  1.00  0.00    -0.203 F 
ATOM     80  C   UNL     1      -6.990  -0.843  -0.197  1.00  0.00     0.198 A 
ATOM     81  C   UNL     1      -7.597  -3.081   0.400  1.00  0.00     0.198 A 
ATOM     82  F   UNL     1      -7.296  -3.852   2.607  1.00  0.00    -0.203 F 
ATOM     83  F   UNL     1      -6.777   0.096  -1.132  1.00  0.00    -0.200 F 
ATOM     84  C   UNL     1      -7.429  -2.101  -0.568  1.00  0.00     0.200 A 
ATOM     85  F   UNL     1      -7.998  -4.306   0.028  1.00  0.00    -0.200 F 
ATOM     86  F   UNL     1      -7.625  -2.387  -1.864  1.00  0.00    -0.200 F 
ENDBRANCH  52  76
BRANCH  64  87
ATOM     87  C   UNL     1      -4.751  -4.133   8.606  1.00  0.00     0.064 A 
ATOM     88  C   UNL     1      -6.113  -4.312   8.915  1.00  0.00     0.173 A 
ATOM     89  C   UNL     1      -3.835  -4.684   9.527  1.00  0.00     0.173 A 
ATOM     90  F   UNL     1      -7.082  -3.962   8.059  1.00  0.00    -0.203 F 
ATOM     91  C   UNL     1      -6.527  -4.920  10.097  1.00  0.00     0.198 A 
ATOM     92  C   UNL     1      -4.254  -5.354  10.673  1.00  0.00     0.198 A 
ATOM     93  F   UNL     1      -2.511  -4.628   9.321  1.00  0.00    -0.203 F 
ATOM     94  F   UNL     1      -7.836  -5.018  10.366  1.00  0.00    -0.200 F 
ATOM     95  C   UNL     1      -5.598  -5.451  10.969  1.00  0.00     0.200 A 
ATOM     96  F   UNL     1      -3.346  -5.928  11.474  1.00  0.00    -0.200 F 
ATOM     97  F   UNL     1      -6.001  -6.080  12.081  1.00  0.00    -0.200 F 
ENDBRANCH  64  87
ENDBRANCH  38  39
ENDBRANCH  31  33
ENDBRANCH  30  31
ENDBRANCH  29  30
ENDBRANCH  28  29
ENDBRANCH  27  28
ENDBRANCH   1  27
TORSDOF 17
