REMARK SMILES CC[C@H](C)[C@H](NC(=O)[C@H](C)Oc1ccc2c(C)c(C)c(=O)oc2c1C)C(=O)OCCOCCOC(=O)c1ccc(-c2c3nc(c(-c4c(F)c(F)c(F)c(F)c4F)c4ccc([nH]4)c(-c4c(F)c(F)c(F)c(F)c4F)c4nc(c(-c5c(F)c(F)c(F)c(F)c5F)c5ccc2[nH]5)C=C4)C=C3)cc1
REMARK SMILES IDX 30 1 29 2 28 3 26 4 27 5 5 6 3 7 4 8 2 9 1 10 6 11 7 12 8 14
REMARK SMILES IDX 9 15 10 16 11 17 12 18 13 19 24 20 14 21 23 22 25 23 15 24
REMARK SMILES IDX 22 25 16 26 20 27 17 28 18 29 21 30 19 31 31 32 32 33 33 34
REMARK SMILES IDX 34 35 35 36 36 37 37 38 38 39 99 40 39 41 98 42 40 43 41 44
REMARK SMILES IDX 42 45 92 46 43 47 97 48 91 49 93 50 44 51 96 52 90 53 89 54
REMARK SMILES IDX 45 56 77 57 57 58 76 59 58 60 61 61 75 62 94 63 59 64 60 65
REMARK SMILES IDX 74 67 95 68 62 69 46 70 47 71 55 72 48 73 49 74 53 75 56 76
REMARK SMILES IDX 50 77 51 78 54 79 52 80 78 81 79 82 87 83 80 84 81 85 85 86
REMARK SMILES IDX 88 87 82 88 83 89 86 90 84 91 63 92 64 93 72 94 65 95 66 96
REMARK SMILES IDX 70 97 73 98 67 99 68 100 71 101 69 102
REMARK H PARENT 6 13 93 55 61 66
REMARK Flexibility Score: inf
ROOT
ATOM      1  C   UNL     1      -1.521  -6.362  -1.582  1.00  0.00     0.202 C 
ENDROOT
BRANCH   1   2
ATOM      2  C   UNL     1      -0.239  -6.625  -0.778  1.00  0.00     0.261 C 
BRANCH   2   3
ATOM      3  O   UNL     1       0.107  -5.639   0.204  1.00  0.00    -0.462 OA
BRANCH   3   4
ATOM      4  C   UNL     1       0.918  -4.671  -0.307  1.00  0.00     0.328 C 
ATOM      5  O   UNL     1       1.173  -4.554  -1.502  1.00  0.00    -0.250 OA
BRANCH   4   6
ATOM      6  C   UNL     1       1.587  -3.801   0.763  1.00  0.00     0.195 C 
BRANCH   6   7
ATOM      7  C   UNL     1       2.798  -4.530   1.421  1.00  0.00     0.019 C 
ATOM      8  C   UNL     1       2.435  -5.391   2.645  1.00  0.00     0.010 C 
BRANCH   7   9
ATOM      9  C   UNL     1       3.604  -5.436   0.457  1.00  0.00     0.002 C 
ATOM     10  C   UNL     1       4.092  -4.795  -0.828  1.00  0.00     0.004 C 
ENDBRANCH   7   9
ENDBRANCH   6   7
BRANCH   6  11
ATOM     11  N   UNL     1       0.651  -3.254   1.749  1.00  0.00    -0.339 N 
ATOM     12  C   UNL     1       0.159  -2.004   1.958  1.00  0.00     0.261 C 
ATOM     13  H   UNL     1       0.313  -3.924   2.386  1.00  0.00     0.164 HD
ATOM     14  O   UNL     1      -0.563  -1.882   2.958  1.00  0.00    -0.271 OA
BRANCH  12  15
ATOM     15  C   UNL     1       0.374  -0.775   1.013  1.00  0.00     0.258 C 
ATOM     16  C   UNL     1      -0.115  -1.025  -0.412  1.00  0.00     0.064 C 
BRANCH  15  17
ATOM     17  O   UNL     1       1.496   0.101   1.053  1.00  0.00    -0.480 OA
BRANCH  17  18
ATOM     18  C   UNL     1       2.728  -0.446   0.889  1.00  0.00     0.127 A 
ATOM     19  C   UNL     1       3.186  -0.760  -0.389  1.00  0.00     0.047 A 
ATOM     20  C   UNL     1       3.589  -0.553   1.980  1.00  0.00     0.035 A 
ATOM     21  C   UNL     1       4.457  -1.322  -0.572  1.00  0.00     0.016 A 
ATOM     22  C   UNL     1       4.849  -1.147   1.769  1.00  0.00     0.145 A 
ATOM     23  C   UNL     1       3.222  -0.022   3.337  1.00  0.00     0.052 C 
ATOM     24  C   UNL     1       5.303  -1.572   0.516  1.00  0.00     0.021 A 
ATOM     25  O   UNL     1       5.641  -1.343   2.916  1.00  0.00    -0.422 OA
ATOM     26  C   UNL     1       6.574  -2.327   0.433  1.00  0.00    -0.030 A 
ATOM     27  C   UNL     1       6.771  -2.136   2.900  1.00  0.00     0.339 A 
ATOM     28  C   UNL     1       7.098  -2.829  -0.894  1.00  0.00     0.045 C 
ATOM     29  C   UNL     1       7.203  -2.665   1.581  1.00  0.00     0.038 A 
ATOM     30  O   UNL     1       7.385  -2.378   3.933  1.00  0.00    -0.246 OA
ATOM     31  C   UNL     1       8.374  -3.612   1.628  1.00  0.00     0.052 C 
ENDBRANCH  17  18
ENDBRANCH  15  17
ENDBRANCH  12  15
ENDBRANCH   6  11
ENDBRANCH   4   6
ENDBRANCH   3   4
ENDBRANCH   2   3
ENDBRANCH   1   2
BRANCH   1  32
ATOM     32  O   UNL     1      -1.780  -5.071  -2.107  1.00  0.00    -0.374 OA
BRANCH  32  33
ATOM     33  C   UNL     1      -2.051  -3.992  -1.218  1.00  0.00     0.202 C 
BRANCH  33  34
ATOM     34  C   UNL     1      -3.186  -4.108  -0.198  1.00  0.00     0.261 C 
BRANCH  34  35
ATOM     35  O   UNL     1      -2.984  -5.178   0.740  1.00  0.00    -0.460 OA
BRANCH  35  36
ATOM     36  C   UNL     1      -3.952  -6.119   0.730  1.00  0.00     0.338 C 
ATOM     37  O   UNL     1      -4.971  -6.144   0.045  1.00  0.00    -0.246 OA
BRANCH  36  38
ATOM     38  C   UNL     1      -3.547  -7.262   1.550  1.00  0.00     0.060 A 
ATOM     39  C   UNL     1      -3.257  -8.471   0.902  1.00  0.00     0.016 A 
ATOM     40  C   UNL     1      -3.618  -7.188   2.941  1.00  0.00     0.016 A 
ATOM     41  C   UNL     1      -3.078  -9.628   1.646  1.00  0.00     0.010 A 
ATOM     42  C   UNL     1      -3.471  -8.357   3.686  1.00  0.00     0.010 A 
ATOM     43  C   UNL     1      -3.248  -9.583   3.034  1.00  0.00    -0.014 A 
BRANCH  43  44
ATOM     44  C   UNL     1      -3.426 -10.855   3.761  1.00  0.00     0.031 A 
ATOM     45  C   UNL     1      -4.818 -11.403   3.899  1.00  0.00     0.074 A 
ATOM     46  C   UNL     1      -2.364 -11.530   4.227  1.00  0.00     0.049 A 
ATOM     47  N   UNL     1      -5.224 -12.496   4.489  1.00  0.00    -0.248 NA
ATOM     48  C   UNL     1      -5.899 -10.618   3.275  1.00  0.00     0.031 C 
ATOM     49  C   UNL     1      -0.971 -11.116   4.078  1.00  0.00     0.029 A 
ATOM     50  N   UNL     1      -2.297 -12.711   4.917  1.00  0.00    -0.354 N 
ATOM     51  C   UNL     1      -6.599 -12.536   4.298  1.00  0.00     0.074 A 
ATOM     52  C   UNL     1      -6.967 -11.346   3.565  1.00  0.00     0.031 C 
ATOM     53  C   UNL     1      -0.183 -12.028   4.672  1.00  0.00     0.029 A 
ATOM     54  C   UNL     1      -1.020 -13.070   5.265  1.00  0.00     0.049 A 
ATOM     55  H   UNL     1      -3.090 -13.251   5.142  1.00  0.00     0.167 HD
ATOM     56  C   UNL     1      -7.472 -13.490   4.694  1.00  0.00     0.037 A 
ATOM     57  C   UNL     1      -0.587 -14.114   5.996  1.00  0.00     0.037 A 
ATOM     58  C   UNL     1      -7.096 -14.659   5.440  1.00  0.00     0.049 A 
ATOM     59  C   UNL     1      -1.595 -15.102   6.524  1.00  0.00     0.074 A 
ATOM     60  C   UNL     1      -7.901 -15.682   5.905  1.00  0.00     0.029 A 
ATOM     61  N   UNL     1      -5.799 -14.954   5.837  1.00  0.00    -0.354 N 
ATOM     62  N   UNL     1      -2.893 -15.139   6.338  1.00  0.00    -0.248 NA
ATOM     63  C   UNL     1      -1.079 -16.191   7.364  1.00  0.00     0.031 C 
ATOM     64  C   UNL     1      -7.099 -16.571   6.626  1.00  0.00     0.029 A 
ATOM     65  C   UNL     1      -5.786 -16.131   6.565  1.00  0.00     0.049 A 
ATOM     66  H   UNL     1      -5.007 -14.407   5.631  1.00  0.00     0.167 HD
ATOM     67  C   UNL     1      -3.345 -16.263   7.016  1.00  0.00     0.074 A 
ATOM     68  C   UNL     1      -2.180 -16.889   7.607  1.00  0.00     0.031 C 
ATOM     69  C   UNL     1      -4.610 -16.735   7.138  1.00  0.00     0.037 A 
BRANCH  56  70
ATOM     70  C   UNL     1      -8.917 -13.301   4.345  1.00  0.00     0.064 A 
ATOM     71  C   UNL     1      -9.382 -13.472   3.033  1.00  0.00     0.173 A 
ATOM     72  C   UNL     1      -9.857 -13.001   5.343  1.00  0.00     0.173 A 
ATOM     73  F   UNL     1      -8.521 -13.742   2.041  1.00  0.00    -0.203 F 
ATOM     74  C   UNL     1     -10.735 -13.340   2.731  1.00  0.00     0.198 A 
ATOM     75  C   UNL     1     -11.211 -12.894   5.041  1.00  0.00     0.198 A 
ATOM     76  F   UNL     1      -9.462 -12.826   6.613  1.00  0.00    -0.203 F 
ATOM     77  F   UNL     1     -11.154 -13.479   1.465  1.00  0.00    -0.200 F 
ATOM     78  C   UNL     1     -11.649 -13.061   3.736  1.00  0.00     0.200 A 
ATOM     79  F   UNL     1     -12.095 -12.634   6.015  1.00  0.00    -0.200 F 
ATOM     80  F   UNL     1     -12.953 -12.951   3.446  1.00  0.00    -0.200 F 
ENDBRANCH  56  70
BRANCH  57  81
ATOM     81  C   UNL     1       0.863 -14.272   6.272  1.00  0.00     0.064 A 
ATOM     82  C   UNL     1       1.595 -15.322   5.703  1.00  0.00     0.173 A 
ATOM     83  C   UNL     1       1.549 -13.372   7.102  1.00  0.00     0.173 A 
ATOM     84  F   UNL     1       0.979 -16.220   4.920  1.00  0.00    -0.203 F 
ATOM     85  C   UNL     1       2.957 -15.471   5.959  1.00  0.00     0.198 A 
ATOM     86  C   UNL     1       2.916 -13.507   7.337  1.00  0.00     0.198 A 
ATOM     87  F   UNL     1       0.893 -12.350   7.672  1.00  0.00    -0.203 F 
ATOM     88  F   UNL     1       3.627 -16.503   5.428  1.00  0.00    -0.200 F 
ATOM     89  C   UNL     1       3.618 -14.559   6.769  1.00  0.00     0.200 A 
ATOM     90  F   UNL     1       3.552 -12.616   8.109  1.00  0.00    -0.200 F 
ATOM     91  F   UNL     1       4.929 -14.697   7.006  1.00  0.00    -0.200 F 
ENDBRANCH  57  81
BRANCH  69  92
ATOM     92  C   UNL     1      -4.807 -17.998   7.924  1.00  0.00     0.064 A 
ATOM     93  C   UNL     1      -4.711 -18.011   9.323  1.00  0.00     0.173 A 
ATOM     94  C   UNL     1      -5.178 -19.187   7.277  1.00  0.00     0.173 A 
ATOM     95  F   UNL     1      -4.348 -16.903   9.985  1.00  0.00    -0.203 F 
ATOM     96  C   UNL     1      -4.969 -19.173  10.044  1.00  0.00     0.198 A 
ATOM     97  C   UNL     1      -5.464 -20.338   8.004  1.00  0.00     0.198 A 
ATOM     98  F   UNL     1      -5.293 -19.221   5.941  1.00  0.00    -0.203 F 
ATOM     99  F   UNL     1      -4.842 -19.172  11.379  1.00  0.00    -0.200 F 
ATOM    100  C   UNL     1      -5.356 -20.331   9.386  1.00  0.00     0.200 A 
ATOM    101  F   UNL     1      -5.855 -21.451   7.367  1.00  0.00    -0.200 F 
ATOM    102  F   UNL     1      -5.623 -21.443  10.085  1.00  0.00    -0.200 F 
ENDBRANCH  69  92
ENDBRANCH  43  44
ENDBRANCH  36  38
ENDBRANCH  35  36
ENDBRANCH  34  35
ENDBRANCH  33  34
ENDBRANCH  32  33
ENDBRANCH   1  32
TORSDOF 20
