REMARK SMILES CC(C)C[C@H](NC(=O)[C@H](C)NC(=O)[C@@H](NC(=O)CNC(=O)OCc1ccccc1)C(C)C)C(=O)OCCOCCOC(=O)c1ccc(-c2c3nc(c(-c4c(F)c(F)c(F)c(F)c4F)c4ccc([nH]4)c(-c4c(F)c(F)c(F)c(F)c4F)c4nc(c(-c5c(F)c(F)c(F)c(F)c5F)c5ccc2[nH]5)C=C4)C=C3)cc1
REMARK SMILES IDX 33 1 34 2 5 3 4 4 2 5 1 6 3 7 6 8 7 9 8 11 9 12 10 13 11 14
REMARK SMILES IDX 12 15 13 17 14 18 15 19 16 20 17 22 18 23 19 24 20 25 21 27
REMARK SMILES IDX 22 28 23 29 24 30 25 31 29 32 26 33 28 34 27 35 30 36 31 37
REMARK SMILES IDX 32 38 35 39 36 40 37 41 38 42 39 43 40 44 41 45 42 46 43 47
REMARK SMILES IDX 44 48 45 49 106 50 46 51 105 52 47 53 48 54 49 55 99 56
REMARK SMILES IDX 50 57 104 58 98 59 100 60 51 61 103 62 97 63 96 64 52 66
REMARK SMILES IDX 84 67 64 68 83 69 65 70 68 71 82 72 101 73 66 74 67 75 81 77
REMARK SMILES IDX 102 78 69 79 53 80 54 81 62 82 55 83 56 84 60 85 63 86 57 87
REMARK SMILES IDX 58 88 61 89 59 90 85 91 86 92 94 93 87 94 88 95 92 96 95 97
REMARK SMILES IDX 89 98 90 99 93 100 91 101 70 102 71 103 79 104 72 105 73 106
REMARK SMILES IDX 77 107 80 108 74 109 75 110 78 111 76 112
REMARK H PARENT 6 10 11 16 15 21 19 26 100 65 68 76
REMARK Flexibility Score: inf
ROOT
ATOM      1  C   UNL     1      -4.110  -5.675  -0.554  1.00  0.00     0.328 C 
ATOM      2  O   UNL     1      -5.064  -5.022  -0.972  1.00  0.00    -0.250 OA
ENDROOT
BRANCH   1   3
ATOM      3  C   UNL     1      -3.466  -5.424   0.935  1.00  0.00     0.192 C 
BRANCH   3   4
ATOM      4  C   UNL     1      -4.218  -4.178   1.542  1.00  0.00     0.040 C 
BRANCH   4   5
ATOM      5  C   UNL     1      -4.326  -3.970   3.077  1.00  0.00    -0.015 C 
ATOM      6  C   UNL     1      -3.035  -4.017   3.897  1.00  0.00     0.007 C 
ATOM      7  C   UNL     1      -4.965  -2.589   3.315  1.00  0.00     0.007 C 
ENDBRANCH   4   5
ENDBRANCH   3   4
BRANCH   3   8
ATOM      8  N   UNL     1      -2.016  -5.099   1.203  1.00  0.00    -0.341 N 
ATOM      9  C   UNL     1      -0.815  -5.293   0.576  1.00  0.00     0.242 C 
ATOM     10  H   UNL     1      -1.905  -4.620   2.056  1.00  0.00     0.164 HD
ATOM     11  O   UNL     1       0.257  -5.023   1.106  1.00  0.00    -0.273 OA
BRANCH   9  12
ATOM     12  C   UNL     1      -0.925  -6.050  -0.692  1.00  0.00     0.168 C 
ATOM     13  C   UNL     1      -1.022  -7.486  -0.082  1.00  0.00     0.041 C 
BRANCH  12  14
ATOM     14  N   UNL     1      -0.033  -5.917  -1.827  1.00  0.00    -0.343 N 
ATOM     15  C   UNL     1      -0.174  -5.258  -3.017  1.00  0.00     0.243 C 
ATOM     16  H   UNL     1       0.828  -6.383  -1.722  1.00  0.00     0.164 HD
ATOM     17  O   UNL     1       0.018  -5.892  -4.064  1.00  0.00    -0.273 OA
BRANCH  15  18
ATOM     18  C   UNL     1      -0.498  -3.789  -3.259  1.00  0.00     0.174 C 
BRANCH  18  19
ATOM     19  N   UNL     1      -1.881  -3.506  -3.621  1.00  0.00    -0.343 N 
ATOM     20  C   UNL     1      -2.858  -2.699  -3.137  1.00  0.00     0.240 C 
ATOM     21  H   UNL     1      -2.177  -4.023  -4.404  1.00  0.00     0.164 HD
ATOM     22  O   UNL     1      -3.844  -2.583  -3.876  1.00  0.00    -0.273 OA
BRANCH  20  23
ATOM     23  C   UNL     1      -2.749  -1.809  -1.871  1.00  0.00     0.219 C 
BRANCH  23  24
ATOM     24  N   UNL     1      -2.222  -2.377  -0.642  1.00  0.00    -0.312 N 
ATOM     25  C   UNL     1      -1.282  -1.896   0.236  1.00  0.00     0.407 C 
ATOM     26  H   UNL     1      -2.601  -3.252  -0.398  1.00  0.00     0.167 HD
ATOM     27  O   UNL     1      -1.060  -2.533   1.260  1.00  0.00    -0.225 OA
BRANCH  25  28
ATOM     28  O   UNL     1      -0.575  -0.814  -0.183  1.00  0.00    -0.445 OA
BRANCH  28  29
ATOM     29  C   UNL     1       0.754  -0.620   0.387  1.00  0.00     0.270 C 
BRANCH  29  30
ATOM     30  C   UNL     1       0.849  -0.658   1.888  1.00  0.00    -0.011 A 
ATOM     31  C   UNL     1       1.790  -1.473   2.541  1.00  0.00     0.007 A 
ATOM     32  C   UNL     1      -0.082   0.061   2.640  1.00  0.00     0.007 A 
ATOM     33  C   UNL     1       1.750  -1.609   3.929  1.00  0.00     0.000 A 
ATOM     34  C   UNL     1      -0.131  -0.093   4.020  1.00  0.00     0.000 A 
ATOM     35  C   UNL     1       0.777  -0.933   4.664  1.00  0.00     0.000 A 
ENDBRANCH  29  30
ENDBRANCH  28  29
ENDBRANCH  25  28
ENDBRANCH  23  24
ENDBRANCH  20  23
ENDBRANCH  18  19
BRANCH  18  36
ATOM     36  C   UNL     1       0.226  -2.720  -2.498  1.00  0.00     0.015 C 
ATOM     37  C   UNL     1       1.479  -3.148  -1.784  1.00  0.00     0.010 C 
ATOM     38  C   UNL     1       0.332  -1.456  -3.345  1.00  0.00     0.010 C 
ENDBRANCH  18  36
ENDBRANCH  15  18
ENDBRANCH  12  14
ENDBRANCH   9  12
ENDBRANCH   3   8
ENDBRANCH   1   3
BRANCH   1  39
ATOM     39  O   UNL     1      -3.538  -6.671  -1.342  1.00  0.00    -0.462 OA
BRANCH  39  40
ATOM     40  C   UNL     1      -3.596  -6.383  -2.776  1.00  0.00     0.261 C 
BRANCH  40  41
ATOM     41  C   UNL     1      -3.007  -7.378  -3.842  1.00  0.00     0.202 C 
BRANCH  41  42
ATOM     42  O   UNL     1      -1.609  -7.706  -3.876  1.00  0.00    -0.374 OA
BRANCH  42  43
ATOM     43  C   UNL     1      -1.137  -8.755  -3.050  1.00  0.00     0.202 C 
BRANCH  43  44
ATOM     44  C   UNL     1       0.446  -8.991  -2.977  1.00  0.00     0.261 C 
BRANCH  44  45
ATOM     45  O   UNL     1       1.353  -7.877  -3.308  1.00  0.00    -0.460 OA
BRANCH  45  46
ATOM     46  C   UNL     1       2.403  -7.491  -2.507  1.00  0.00     0.338 C 
ATOM     47  O   UNL     1       2.663  -8.014  -1.433  1.00  0.00    -0.246 OA
BRANCH  46  48
ATOM     48  C   UNL     1       3.074  -6.193  -2.969  1.00  0.00     0.060 A 
ATOM     49  C   UNL     1       2.845  -5.626  -4.233  1.00  0.00     0.016 A 
ATOM     50  C   UNL     1       3.861  -5.438  -2.071  1.00  0.00     0.016 A 
ATOM     51  C   UNL     1       3.320  -4.331  -4.580  1.00  0.00     0.010 A 
ATOM     52  C   UNL     1       4.362  -4.148  -2.423  1.00  0.00     0.010 A 
ATOM     53  C   UNL     1       4.099  -3.569  -3.690  1.00  0.00    -0.014 A 
BRANCH  53  54
ATOM     54  C   UNL     1       4.971  -2.451  -4.227  1.00  0.00     0.031 A 
ATOM     55  C   UNL     1       6.358  -2.893  -4.587  1.00  0.00     0.074 A 
ATOM     56  C   UNL     1       4.652  -1.150  -4.438  1.00  0.00     0.049 A 
ATOM     57  N   UNL     1       7.391  -2.193  -4.968  1.00  0.00    -0.248 NA
ATOM     58  C   UNL     1       6.629  -4.328  -4.410  1.00  0.00     0.031 C 
ATOM     59  C   UNL     1       3.395  -0.534  -4.080  1.00  0.00     0.029 A 
ATOM     60  N   UNL     1       5.346  -0.093  -5.004  1.00  0.00    -0.354 N 
ATOM     61  C   UNL     1       8.436  -3.101  -5.011  1.00  0.00     0.074 A 
ATOM     62  C   UNL     1       7.938  -4.367  -4.536  1.00  0.00     0.031 C 
ATOM     63  C   UNL     1       3.333   0.736  -4.520  1.00  0.00     0.029 A 
ATOM     64  C   UNL     1       4.617   1.082  -5.116  1.00  0.00     0.049 A 
ATOM     65  H   UNL     1       6.280  -0.170  -5.303  1.00  0.00     0.167 HD
ATOM     66  C   UNL     1       9.701  -2.915  -5.441  1.00  0.00     0.037 A 
ATOM     67  C   UNL     1       4.957   2.297  -5.611  1.00  0.00     0.037 A 
ATOM     68  C   UNL     1      10.190  -1.667  -5.940  1.00  0.00     0.049 A 
ATOM     69  C   UNL     1       6.383   2.488  -6.083  1.00  0.00     0.074 A 
ATOM     70  C   UNL     1      11.457  -1.359  -6.391  1.00  0.00     0.029 A 
ATOM     71  N   UNL     1       9.422  -0.517  -6.057  1.00  0.00    -0.354 N 
ATOM     72  N   UNL     1       7.362   1.616  -6.122  1.00  0.00    -0.248 NA
ATOM     73  C   UNL     1       6.763   3.829  -6.555  1.00  0.00     0.031 C 
ATOM     74  C   UNL     1      11.468  -0.006  -6.744  1.00  0.00     0.029 A 
ATOM     75  C   UNL     1      10.190   0.507  -6.579  1.00  0.00     0.049 A 
ATOM     76  H   UNL     1       8.473  -0.442  -5.805  1.00  0.00     0.167 HD
ATOM     77  C   UNL     1       8.454   2.287  -6.656  1.00  0.00     0.074 A 
ATOM     78  C   UNL     1       8.016   3.637  -6.939  1.00  0.00     0.031 C 
ATOM     79  C   UNL     1       9.710   1.829  -6.888  1.00  0.00     0.037 A 
BRANCH  66  80
ATOM     80  C   UNL     1      10.608  -4.102  -5.330  1.00  0.00     0.064 A 
ATOM     81  C   UNL     1      10.393  -5.269  -6.083  1.00  0.00     0.173 A 
ATOM     82  C   UNL     1      11.618  -4.120  -4.360  1.00  0.00     0.173 A 
ATOM     83  F   UNL     1       9.401  -5.318  -6.986  1.00  0.00    -0.203 F 
ATOM     84  C   UNL     1      11.111  -6.431  -5.818  1.00  0.00     0.198 A 
ATOM     85  C   UNL     1      12.367  -5.269  -4.133  1.00  0.00     0.198 A 
ATOM     86  F   UNL     1      11.850  -3.037  -3.603  1.00  0.00    -0.203 F 
ATOM     87  F   UNL     1      10.805  -7.566  -6.462  1.00  0.00    -0.200 F 
ATOM     88  C   UNL     1      12.100  -6.428  -4.847  1.00  0.00     0.200 A 
ATOM     89  F   UNL     1      13.325  -5.266  -3.196  1.00  0.00    -0.200 F 
ATOM     90  F   UNL     1      12.778  -7.552  -4.580  1.00  0.00    -0.200 F 
ENDBRANCH  66  80
BRANCH  67  91
ATOM     91  C   UNL     1       3.990   3.447  -5.689  1.00  0.00     0.064 A 
ATOM     92  C   UNL     1       3.646   4.025  -6.927  1.00  0.00     0.173 A 
ATOM     93  C   UNL     1       3.462   4.061  -4.543  1.00  0.00     0.173 A 
ATOM     94  F   UNL     1       4.147   3.518  -8.064  1.00  0.00    -0.203 F 
ATOM     95  C   UNL     1       2.849   5.171  -7.010  1.00  0.00     0.198 A 
ATOM     96  C   UNL     1       2.636   5.187  -4.628  1.00  0.00     0.198 A 
ATOM     97  F   UNL     1       3.761   3.581  -3.327  1.00  0.00    -0.203 F 
ATOM     98  F   UNL     1       2.605   5.734  -8.202  1.00  0.00    -0.200 F 
ATOM     99  C   UNL     1       2.339   5.749  -5.860  1.00  0.00     0.200 A 
ATOM    100  F   UNL     1       2.142   5.740  -3.511  1.00  0.00    -0.200 F 
ATOM    101  F   UNL     1       1.580   6.852  -5.936  1.00  0.00    -0.200 F 
ENDBRANCH  67  91
BRANCH  79 102
ATOM    102  C   UNL     1      10.670   2.759  -7.568  1.00  0.00     0.064 A 
ATOM    103  C   UNL     1      11.213   3.878  -6.924  1.00  0.00     0.173 A 
ATOM    104  C   UNL     1      11.097   2.478  -8.876  1.00  0.00     0.173 A 
ATOM    105  F   UNL     1      10.829   4.194  -5.677  1.00  0.00    -0.203 F 
ATOM    106  C   UNL     1      12.126   4.702  -7.576  1.00  0.00     0.198 A 
ATOM    107  C   UNL     1      12.039   3.280  -9.510  1.00  0.00     0.198 A 
ATOM    108  F   UNL     1      10.615   1.410  -9.530  1.00  0.00    -0.203 F 
ATOM    109  F   UNL     1      12.593   5.798  -6.963  1.00  0.00    -0.200 F 
ATOM    110  C   UNL     1      12.545   4.396  -8.863  1.00  0.00     0.200 A 
ATOM    111  F   UNL     1      12.458   2.969 -10.744  1.00  0.00    -0.200 F 
ATOM    112  F   UNL     1      13.434   5.183  -9.484  1.00  0.00    -0.200 F 
ENDBRANCH  79 102
ENDBRANCH  53  54
ENDBRANCH  46  48
ENDBRANCH  45  46
ENDBRANCH  44  45
ENDBRANCH  43  44
ENDBRANCH  42  43
ENDBRANCH  41  42
ENDBRANCH  40  41
ENDBRANCH  39  40
ENDBRANCH   1  39
TORSDOF 27
