REMARK SMILES O=C(OCCOCCOC(=O)[C@@H](Cc1ccncc1)c1ccc(Cl)cc1)c1ccc(-c2c3nc(c(-c4c(F)c(F)c(F)c(F)c4F)c4ccc([nH]4)c(-c4c(F)c(F)c(F)c(F)c4F)c4nc(c(-c5c(F)c(F)c(F)c(F)c5F)c5ccc2[nH]5)C=C4)C=C3)cc1
REMARK SMILES IDX 6 1 5 2 4 3 3 4 2 5 1 6 27 7 28 8 89 9 29 10 88 11 30 12
REMARK SMILES IDX 31 13 32 14 82 15 33 16 87 17 81 18 83 19 34 20 86 21 80 22
REMARK SMILES IDX 79 23 35 25 67 26 47 27 66 28 48 29 51 30 65 31 84 32 49 33
REMARK SMILES IDX 50 34 64 36 85 37 52 38 36 39 37 40 45 41 38 42 39 43 43 44
REMARK SMILES IDX 46 45 40 46 41 47 44 48 42 49 68 50 69 51 77 52 70 53 71 54
REMARK SMILES IDX 75 55 78 56 72 57 73 58 76 59 74 60 53 61 54 62 62 63 55 64
REMARK SMILES IDX 56 65 60 66 63 67 57 68 58 69 61 70 59 71 7 72 8 73 9 74
REMARK SMILES IDX 10 75 11 76 12 77 13 78 14 79 15 80 19 81 16 82 18 83 17 84
REMARK SMILES IDX 20 85 21 86 26 87 22 88 25 89 23 90 24 91
REMARK H PARENT 83 24 51 35
REMARK Flexibility Score: inf
ROOT
ATOM      1  O   UNL     1       4.286  -0.749  -1.103  1.00  0.00    -0.374 OA
ENDROOT
BRANCH   1   2
ATOM      2  C   UNL     1       4.759  -1.057   0.207  1.00  0.00     0.202 C 
BRANCH   2   3
ATOM      3  C   UNL     1       4.561   0.029   1.276  1.00  0.00     0.261 C 
BRANCH   3   4
ATOM      4  O   UNL     1       3.174   0.373   1.433  1.00  0.00    -0.460 OA
BRANCH   4   5
ATOM      5  C   UNL     1       2.454   1.325   0.796  1.00  0.00     0.338 C 
ATOM      6  O   UNL     1       1.268   1.450   1.099  1.00  0.00    -0.246 OA
BRANCH   5   7
ATOM      7  C   UNL     1       2.998   2.217  -0.277  1.00  0.00     0.060 A 
ATOM      8  C   UNL     1       4.214   2.036  -0.937  1.00  0.00     0.016 A 
ATOM      9  C   UNL     1       2.187   3.288  -0.693  1.00  0.00     0.016 A 
ATOM     10  C   UNL     1       4.617   2.842  -1.978  1.00  0.00     0.010 A 
ATOM     11  C   UNL     1       2.603   4.151  -1.710  1.00  0.00     0.010 A 
ATOM     12  C   UNL     1       3.831   3.924  -2.334  1.00  0.00    -0.014 A 
BRANCH  12  13
ATOM     13  C   UNL     1       4.481   4.913  -3.189  1.00  0.00     0.031 A 
ATOM     14  C   UNL     1       5.242   5.998  -2.502  1.00  0.00     0.074 A 
ATOM     15  C   UNL     1       4.552   4.694  -4.509  1.00  0.00     0.049 A 
ATOM     16  N   UNL     1       5.860   7.026  -3.007  1.00  0.00    -0.248 NA
ATOM     17  C   UNL     1       5.345   5.892  -1.033  1.00  0.00     0.031 C 
ATOM     18  C   UNL     1       4.010   3.521  -5.197  1.00  0.00     0.029 A 
ATOM     19  N   UNL     1       5.131   5.433  -5.499  1.00  0.00    -0.354 N 
ATOM     20  C   UNL     1       6.386   7.709  -1.921  1.00  0.00     0.074 A 
ATOM     21  C   UNL     1       6.051   6.967  -0.730  1.00  0.00     0.031 C 
ATOM     22  C   UNL     1       4.264   3.633  -6.511  1.00  0.00     0.029 A 
ATOM     23  C   UNL     1       4.917   4.916  -6.750  1.00  0.00     0.049 A 
ATOM     24  H   UNL     1       5.649   6.253  -5.332  1.00  0.00     0.167 HD
ATOM     25  C   UNL     1       7.056   8.882  -1.938  1.00  0.00     0.037 A 
ATOM     26  C   UNL     1       5.169   5.472  -7.948  1.00  0.00     0.037 A 
ATOM     27  C   UNL     1       7.330   9.585  -3.159  1.00  0.00     0.049 A 
ATOM     28  C   UNL     1       5.810   6.833  -7.950  1.00  0.00     0.074 A 
ATOM     29  C   UNL     1       7.893  10.831  -3.342  1.00  0.00     0.029 A 
ATOM     30  N   UNL     1       7.039   9.078  -4.423  1.00  0.00    -0.354 N 
ATOM     31  N   UNL     1       6.203   7.558  -6.926  1.00  0.00    -0.248 NA
ATOM     32  C   UNL     1       6.026   7.466  -9.253  1.00  0.00     0.031 C 
ATOM     33  C   UNL     1       7.898  11.096  -4.717  1.00  0.00     0.029 A 
ATOM     34  C   UNL     1       7.393   9.992  -5.394  1.00  0.00     0.049 A 
ATOM     35  H   UNL     1       6.638   8.195  -4.598  1.00  0.00     0.167 HD
ATOM     36  C   UNL     1       6.726   8.726  -7.455  1.00  0.00     0.074 A 
ATOM     37  C   UNL     1       6.605   8.607  -8.898  1.00  0.00     0.031 C 
ATOM     38  C   UNL     1       7.256   9.800  -6.819  1.00  0.00     0.037 A 
BRANCH  25  39
ATOM     39  C   UNL     1       7.383   9.490  -0.607  1.00  0.00     0.064 A 
ATOM     40  C   UNL     1       8.348   8.942   0.253  1.00  0.00     0.173 A 
ATOM     41  C   UNL     1       6.635  10.581  -0.138  1.00  0.00     0.173 A 
ATOM     42  F   UNL     1       9.060   7.870  -0.126  1.00  0.00    -0.203 F 
ATOM     43  C   UNL     1       8.521   9.438   1.545  1.00  0.00     0.198 A 
ATOM     44  C   UNL     1       6.831  11.092   1.142  1.00  0.00     0.198 A 
ATOM     45  F   UNL     1       5.686  11.131  -0.911  1.00  0.00    -0.203 F 
ATOM     46  F   UNL     1       9.390   8.847   2.377  1.00  0.00    -0.200 F 
ATOM     47  C   UNL     1       7.763  10.512   1.988  1.00  0.00     0.200 A 
ATOM     48  F   UNL     1       6.093  12.126   1.569  1.00  0.00    -0.200 F 
ATOM     49  F   UNL     1       7.913  10.971   3.238  1.00  0.00    -0.200 F 
ENDBRANCH  25  39
BRANCH  26  50
ATOM     50  C   UNL     1       4.740   4.774  -9.187  1.00  0.00     0.064 A 
ATOM     51  C   UNL     1       5.668   4.259 -10.099  1.00  0.00     0.173 A 
ATOM     52  C   UNL     1       3.377   4.554  -9.453  1.00  0.00     0.173 A 
ATOM     53  F   UNL     1       6.980   4.454  -9.902  1.00  0.00    -0.203 F 
ATOM     54  C   UNL     1       5.252   3.546 -11.224  1.00  0.00     0.198 A 
ATOM     55  C   UNL     1       2.964   3.819 -10.561  1.00  0.00     0.198 A 
ATOM     56  F   UNL     1       2.444   5.025  -8.612  1.00  0.00    -0.203 F 
ATOM     57  F   UNL     1       6.160   3.079 -12.092  1.00  0.00    -0.200 F 
ATOM     58  C   UNL     1       3.902   3.317 -11.448  1.00  0.00     0.200 A 
ATOM     59  F   UNL     1       1.659   3.586 -10.761  1.00  0.00    -0.200 F 
ATOM     60  F   UNL     1       3.506   2.613 -12.518  1.00  0.00    -0.200 F 
ENDBRANCH  26  50
BRANCH  38  61
ATOM     61  C   UNL     1       7.783  10.902  -7.682  1.00  0.00     0.064 A 
ATOM     62  C   UNL     1       6.925  11.819  -8.302  1.00  0.00     0.173 A 
ATOM     63  C   UNL     1       9.167  11.094  -7.800  1.00  0.00     0.173 A 
ATOM     64  F   UNL     1       5.595  11.663  -8.220  1.00  0.00    -0.203 F 
ATOM     65  C   UNL     1       7.439  12.894  -9.019  1.00  0.00     0.198 A 
ATOM     66  C   UNL     1       9.675  12.183  -8.497  1.00  0.00     0.198 A 
ATOM     67  F   UNL     1      10.020  10.242  -7.213  1.00  0.00    -0.203 F 
ATOM     68  F   UNL     1       6.606  13.750  -9.626  1.00  0.00    -0.200 F 
ATOM     69  C   UNL     1       8.811  13.081  -9.106  1.00  0.00     0.200 A 
ATOM     70  F   UNL     1      11.000  12.372  -8.566  1.00  0.00    -0.200 F 
ATOM     71  F   UNL     1       9.303  14.130  -9.779  1.00  0.00    -0.200 F 
ENDBRANCH  38  61
ENDBRANCH  12  13
ENDBRANCH   5   7
ENDBRANCH   4   5
ENDBRANCH   3   4
ENDBRANCH   2   3
ENDBRANCH   1   2
BRANCH   1  72
ATOM     72  C   UNL     1       2.922  -1.081  -1.386  1.00  0.00     0.202 C 
BRANCH  72  73
ATOM     73  C   UNL     1       2.814  -2.394  -2.151  1.00  0.00     0.261 C 
BRANCH  73  74
ATOM     74  O   UNL     1       3.111  -3.480  -1.264  1.00  0.00    -0.463 OA
BRANCH  74  75
ATOM     75  C   UNL     1       4.405  -3.871  -1.187  1.00  0.00     0.313 C 
ATOM     76  O   UNL     1       5.312  -3.454  -1.911  1.00  0.00    -0.252 OA
BRANCH  75  77
ATOM     77  C   UNL     1       4.622  -4.920  -0.110  1.00  0.00     0.133 C 
BRANCH  77  78
ATOM     78  C   UNL     1       4.067  -4.577   1.302  1.00  0.00     0.055 C 
BRANCH  78  79
ATOM     79  C   UNL     1       2.581  -4.347   1.469  1.00  0.00    -0.044 A 
ATOM     80  C   UNL     1       2.067  -3.084   1.787  1.00  0.00     0.024 A 
ATOM     81  C   UNL     1       1.671  -5.394   1.327  1.00  0.00     0.024 A 
ATOM     82  C   UNL     1       0.693  -2.904   1.857  1.00  0.00     0.111 A 
ATOM     83  C   UNL     1       0.315  -5.124   1.433  1.00  0.00     0.111 A 
ATOM     84  N   UNL     1      -0.196  -3.899   1.677  1.00  0.00    -0.265 NA
ENDBRANCH  78  79
ENDBRANCH  77  78
BRANCH  77  85
ATOM     85  C   UNL     1       4.309  -6.326  -0.589  1.00  0.00    -0.033 A 
ATOM     86  C   UNL     1       3.260  -6.601  -1.481  1.00  0.00     0.006 A 
ATOM     87  C   UNL     1       5.096  -7.391  -0.124  1.00  0.00     0.006 A 
ATOM     88  C   UNL     1       3.009  -7.906  -1.903  1.00  0.00     0.021 A 
ATOM     89  C   UNL     1       4.845  -8.696  -0.546  1.00  0.00     0.021 A 
ATOM     90  C   UNL     1       3.803  -8.948  -1.435  1.00  0.00     0.041 A 
ATOM     91  Cl  UNL     1       3.492 -10.556  -1.954  1.00  0.00    -0.084 Cl
ENDBRANCH  77  85
ENDBRANCH  75  77
ENDBRANCH  74  75
ENDBRANCH  73  74
ENDBRANCH  72  73
ENDBRANCH   1  72
TORSDOF 17
