REMARK SMILES Cc1cc(C)n(CC(=O)N[C@@H]2C(=O)N3C(C(=O)OCCOCCOC(=O)c4ccc(-c5c6nc(c(-c7c(F)c(F)c(F)c(F)c7F)c7ccc([nH]7)c(-c7c(F)c(F)c(F)c(F)c7F)c7nc(c(-c8c(F)c(F)c(F)c(F)c8F)c8ccc5[nH]8)C=C7)C=C6)cc4)=C(CSc4nnc(C)s4)CS[C@H]23)n1
REMARK SMILES IDX 20 1 19 2 18 3 16 4 17 5 15 6 11 7 12 8 101 9 13 10 14 11
REMARK SMILES IDX 100 12 99 13 90 14 10 15 8 16 9 17 7 19 6 20 1 21 2 22 3 23
REMARK SMILES IDX 102 24 4 25 5 26 91 27 92 28 93 29 94 30 98 31 95 32 96 33
REMARK SMILES IDX 97 34 21 35 22 36 23 37 24 38 25 39 26 40 27 41 28 42 89 43
REMARK SMILES IDX 29 44 88 45 30 46 31 47 32 48 82 49 33 50 87 51 81 52 83 53
REMARK SMILES IDX 34 54 86 55 80 56 79 57 35 59 67 60 47 61 66 62 48 63 51 64
REMARK SMILES IDX 65 65 84 66 49 67 50 68 64 70 85 71 52 72 36 73 37 74 45 75
REMARK SMILES IDX 38 76 39 77 43 78 46 79 40 80 41 81 44 82 42 83 68 84 69 85
REMARK SMILES IDX 77 86 70 87 71 88 75 89 78 90 72 91 73 92 76 93 74 94 53 95
REMARK SMILES IDX 54 96 62 97 55 98 56 99 60 100 63 101 57 102 58 103 61 104
REMARK SMILES IDX 59 105
REMARK H PARENT 10 18 83 58 51 69
REMARK Flexibility Score: inf
ROOT
ATOM      1  C   UNL     1      -8.451   0.239  -2.048  1.00  0.00     0.202 C 
ENDROOT
BRANCH   1   2
ATOM      2  C   UNL     1      -8.646   1.351  -1.018  1.00  0.00     0.261 C 
BRANCH   2   3
ATOM      3  O   UNL     1      -7.421   2.083  -0.836  1.00  0.00    -0.459 OA
BRANCH   3   4
ATOM      4  C   UNL     1      -6.906   2.055   0.414  1.00  0.00     0.355 C 
ATOM      5  O   UNL     1      -7.441   1.589   1.410  1.00  0.00    -0.244 OA
BRANCH   4   6
ATOM      6  C   UNL     1      -5.527   2.635   0.454  1.00  0.00     0.132 C 
ATOM      7  C   UNL     1      -3.250   1.586   2.811  1.00  0.00     0.205 C 
ATOM      8  C   UNL     1      -4.194   0.859   1.746  1.00  0.00     0.253 C 
ATOM      9  C   UNL     1      -3.671   2.836   2.011  1.00  0.00     0.181 C 
ATOM     10  O   UNL     1      -4.380  -0.270   1.318  1.00  0.00    -0.272 OA
ATOM     11  N   UNL     1      -4.682   2.060   1.370  1.00  0.00    -0.289 N 
ATOM     12  S   UNL     1      -2.560   3.317   0.649  1.00  0.00    -0.129 SA
ATOM     13  C   UNL     1      -3.804   4.448   0.039  1.00  0.00     0.106 C 
ATOM     14  C   UNL     1      -5.149   3.777  -0.190  1.00  0.00    -0.019 C 
BRANCH   7  15
ATOM     15  N   UNL     1      -1.771   1.395   2.845  1.00  0.00    -0.340 N 
ATOM     16  C   UNL     1      -0.835   2.292   3.328  1.00  0.00     0.242 C 
ATOM     17  O   UNL     1       0.353   2.066   3.077  1.00  0.00    -0.273 OA
ATOM     18  H   UNL     1      -1.426   0.544   2.490  1.00  0.00     0.164 HD
BRANCH  16  19
ATOM     19  C   UNL     1      -1.226   3.467   4.221  1.00  0.00     0.244 C 
BRANCH  19  20
ATOM     20  N   UNL     1      -1.760   4.673   3.585  1.00  0.00    -0.260 N 
ATOM     21  C   UNL     1      -4.734   6.515   2.990  1.00  0.00     0.069 C 
ATOM     22  C   UNL     1      -3.318   6.068   3.128  1.00  0.00     0.060 A 
ATOM     23  C   UNL     1      -2.211   6.429   2.331  1.00  0.00     0.048 A 
ATOM     24  N   UNL     1      -3.000   5.077   3.969  1.00  0.00    -0.178 NA
ATOM     25  C   UNL     1      -1.229   5.493   2.613  1.00  0.00     0.036 A 
ATOM     26  C   UNL     1       0.066   5.272   1.917  1.00  0.00     0.066 C 
ENDBRANCH  19  20
ENDBRANCH  16  19
ENDBRANCH   7  15
BRANCH  14  27
ATOM     27  C   UNL     1      -5.985   4.625  -1.109  1.00  0.00     0.111 C 
BRANCH  27  28
ATOM     28  S   UNL     1      -5.695   4.336  -2.865  1.00  0.00    -0.089 SA
BRANCH  28  29
ATOM     29  C   UNL     1      -3.959   4.200  -3.103  1.00  0.00     0.174 A 
ATOM     30  N   UNL     1      -3.285   5.076  -3.820  1.00  0.00    -0.132 NA
ATOM     31  S   UNL     1      -3.020   2.811  -2.684  1.00  0.00    -0.091 S 
ATOM     32  N   UNL     1      -2.048   4.581  -4.225  1.00  0.00    -0.143 NA
ATOM     33  C   UNL     1      -1.846   3.350  -3.803  1.00  0.00     0.115 A 
ATOM     34  C   UNL     1      -0.797   2.416  -4.287  1.00  0.00     0.081 C 
ENDBRANCH  28  29
ENDBRANCH  27  28
ENDBRANCH  14  27
ENDBRANCH   4   6
ENDBRANCH   3   4
ENDBRANCH   2   3
ENDBRANCH   1   2
BRANCH   1  35
ATOM     35  O   UNL     1      -7.668  -0.881  -1.635  1.00  0.00    -0.374 OA
BRANCH  35  36
ATOM     36  C   UNL     1      -6.286  -0.687  -1.363  1.00  0.00     0.202 C 
BRANCH  36  37
ATOM     37  C   UNL     1      -5.366  -0.455  -2.552  1.00  0.00     0.261 C 
BRANCH  37  38
ATOM     38  O   UNL     1      -5.788   0.596  -3.418  1.00  0.00    -0.460 OA
BRANCH  38  39
ATOM     39  C   UNL     1      -6.315   0.201  -4.610  1.00  0.00     0.338 C 
ATOM     40  O   UNL     1      -6.853  -0.859  -4.868  1.00  0.00    -0.246 OA
BRANCH  39  41
ATOM     41  C   UNL     1      -6.006   1.234  -5.611  1.00  0.00     0.060 A 
ATOM     42  C   UNL     1      -6.690   1.359  -6.811  1.00  0.00     0.016 A 
ATOM     43  C   UNL     1      -4.873   2.004  -5.386  1.00  0.00     0.016 A 
ATOM     44  C   UNL     1      -6.144   2.184  -7.793  1.00  0.00     0.010 A 
ATOM     45  C   UNL     1      -4.425   2.939  -6.275  1.00  0.00     0.010 A 
ATOM     46  C   UNL     1      -4.973   2.925  -7.528  1.00  0.00    -0.014 A 
BRANCH  46  47
ATOM     47  C   UNL     1      -4.324   3.743  -8.536  1.00  0.00     0.031 A 
ATOM     48  C   UNL     1      -5.247   4.712  -9.144  1.00  0.00     0.074 A 
ATOM     49  C   UNL     1      -3.005   3.711  -8.835  1.00  0.00     0.049 A 
ATOM     50  N   UNL     1      -5.795   4.598 -10.303  1.00  0.00    -0.248 NA
ATOM     51  C   UNL     1      -5.783   5.800  -8.315  1.00  0.00     0.031 C 
ATOM     52  C   UNL     1      -1.908   3.012  -8.153  1.00  0.00     0.029 A 
ATOM     53  N   UNL     1      -2.356   4.358  -9.844  1.00  0.00    -0.354 N 
ATOM     54  C   UNL     1      -6.597   5.716 -10.446  1.00  0.00     0.074 A 
ATOM     55  C   UNL     1      -6.695   6.320  -9.141  1.00  0.00     0.031 C 
ATOM     56  C   UNL     1      -0.718   3.430  -8.647  1.00  0.00     0.029 A 
ATOM     57  C   UNL     1      -0.968   4.291  -9.788  1.00  0.00     0.049 A 
ATOM     58  H   UNL     1      -2.834   4.837 -10.559  1.00  0.00     0.167 HD
ATOM     59  C   UNL     1      -6.879   6.182 -11.690  1.00  0.00     0.037 A 
ATOM     60  C   UNL     1      -0.090   4.886 -10.636  1.00  0.00     0.037 A 
ATOM     61  C   UNL     1      -6.626   5.173 -12.694  1.00  0.00     0.049 A 
ATOM     62  C   UNL     1      -0.819   5.139 -11.902  1.00  0.00     0.074 A 
ATOM     63  C   UNL     1      -7.133   3.915 -12.957  1.00  0.00     0.029 A 
ATOM     64  N   UNL     1      -5.426   5.235 -13.359  1.00  0.00    -0.354 N 
ATOM     65  N   UNL     1      -1.244   4.190 -12.688  1.00  0.00    -0.248 NA
ATOM     66  C   UNL     1      -1.488   6.421 -12.048  1.00  0.00     0.031 C 
ATOM     67  C   UNL     1      -6.012   3.137 -13.380  1.00  0.00     0.029 A 
ATOM     68  C   UNL     1      -4.894   3.971 -13.415  1.00  0.00     0.049 A 
ATOM     69  H   UNL     1      -5.016   6.048 -13.733  1.00  0.00     0.167 HD
ATOM     70  C   UNL     1      -2.503   4.608 -13.091  1.00  0.00     0.074 A 
ATOM     71  C   UNL     1      -2.560   6.026 -12.740  1.00  0.00     0.031 C 
ATOM     72  C   UNL     1      -3.473   3.700 -13.406  1.00  0.00     0.037 A 
BRANCH  59  73
ATOM     73  C   UNL     1      -6.962   7.647 -12.013  1.00  0.00     0.064 A 
ATOM     74  C   UNL     1      -7.418   8.042 -13.282  1.00  0.00     0.173 A 
ATOM     75  C   UNL     1      -6.330   8.653 -11.247  1.00  0.00     0.173 A 
ATOM     76  F   UNL     1      -8.002   7.154 -14.102  1.00  0.00    -0.203 F 
ATOM     77  C   UNL     1      -7.199   9.331 -13.773  1.00  0.00     0.198 A 
ATOM     78  C   UNL     1      -6.161   9.952 -11.718  1.00  0.00     0.198 A 
ATOM     79  F   UNL     1      -5.745   8.397 -10.071  1.00  0.00    -0.203 F 
ATOM     80  F   UNL     1      -7.538   9.628 -15.034  1.00  0.00    -0.200 F 
ATOM     81  C   UNL     1      -6.568  10.283 -12.992  1.00  0.00     0.200 A 
ATOM     82  F   UNL     1      -5.523  10.851 -10.955  1.00  0.00    -0.200 F 
ATOM     83  F   UNL     1      -6.302  11.500 -13.482  1.00  0.00    -0.200 F 
ENDBRANCH  59  73
BRANCH  60  84
ATOM     84  C   UNL     1       1.191   5.563 -10.312  1.00  0.00     0.064 A 
ATOM     85  C   UNL     1       2.113   5.911 -11.315  1.00  0.00     0.173 A 
ATOM     86  C   UNL     1       1.395   6.152  -9.049  1.00  0.00     0.173 A 
ATOM     87  F   UNL     1       1.964   5.438 -12.561  1.00  0.00    -0.203 F 
ATOM     88  C   UNL     1       3.160   6.810 -11.075  1.00  0.00     0.198 A 
ATOM     89  C   UNL     1       2.439   7.049  -8.810  1.00  0.00     0.198 A 
ATOM     90  F   UNL     1       0.527   5.943  -8.049  1.00  0.00    -0.203 F 
ATOM     91  F   UNL     1       3.984   7.163 -12.072  1.00  0.00    -0.200 F 
ATOM     92  C   UNL     1       3.314   7.387  -9.825  1.00  0.00     0.200 A 
ATOM     93  F   UNL     1       2.552   7.633  -7.609  1.00  0.00    -0.200 F 
ATOM     94  F   UNL     1       4.277   8.295  -9.610  1.00  0.00    -0.200 F 
ENDBRANCH  60  84
BRANCH  72  95
ATOM     95  C   UNL     1      -3.042   2.264 -13.563  1.00  0.00     0.064 A 
ATOM     96  C   UNL     1      -2.528   1.470 -12.521  1.00  0.00     0.173 A 
ATOM     97  C   UNL     1      -3.256   1.636 -14.797  1.00  0.00     0.173 A 
ATOM     98  F   UNL     1      -2.378   1.965 -11.287  1.00  0.00    -0.203 F 
ATOM     99  C   UNL     1      -2.202   0.129 -12.721  1.00  0.00     0.198 A 
ATOM    100  C   UNL     1      -2.962   0.288 -14.986  1.00  0.00     0.198 A 
ATOM    101  F   UNL     1      -3.790   2.326 -15.817  1.00  0.00    -0.203 F 
ATOM    102  F   UNL     1      -1.697  -0.600 -11.713  1.00  0.00    -0.200 F 
ATOM    103  C   UNL     1      -2.424  -0.463 -13.953  1.00  0.00     0.200 A 
ATOM    104  F   UNL     1      -3.220  -0.291 -16.167  1.00  0.00    -0.200 F 
ATOM    105  F   UNL     1      -2.142  -1.760 -14.139  1.00  0.00    -0.200 F 
ENDBRANCH  72  95
ENDBRANCH  46  47
ENDBRANCH  39  41
ENDBRANCH  38  39
ENDBRANCH  37  38
ENDBRANCH  36  37
ENDBRANCH  35  36
ENDBRANCH   1  35
TORSDOF 20
