REMARK SMILES CC[C@@H](C(=O)OCCOCCOC(=O)c1ccc(-c2c3nc(c(-c4c(F)c(F)c(F)c(F)c4F)c4ccc([nH]4)c(-c4c(F)c(F)c(F)c(F)c4F)c4nc(c(-c5c(F)c(F)c(F)c(F)c5F)c5ccc2[nH]5)C=C4)C=C3)cc1)N1C(=O)/C(=C/C(C)=C/c2ccccc2)SC1=S
REMARK SMILES IDX 8 1 7 2 6 3 4 4 5 5 3 6 2 7 1 8 78 9 79 10 93 11 80 12 81 13
REMARK SMILES IDX 92 14 94 15 82 16 83 17 84 18 85 19 86 20 87 21 91 22 88 23
REMARK SMILES IDX 90 24 89 25 9 26 10 27 11 28 12 29 13 30 14 31 15 32 16 33
REMARK SMILES IDX 77 34 17 35 76 36 18 37 19 38 20 39 70 40 21 41 75 42 69 43
REMARK SMILES IDX 71 44 22 45 74 46 68 47 67 48 23 50 55 51 35 52 54 53 36 54
REMARK SMILES IDX 39 55 53 56 72 57 37 58 38 59 52 61 73 62 40 63 24 64 25 65
REMARK SMILES IDX 33 66 26 67 27 68 31 69 34 70 28 71 29 72 32 73 30 74 56 75
REMARK SMILES IDX 57 76 65 77 58 78 59 79 63 80 66 81 60 82 61 83 64 84 62 85
REMARK SMILES IDX 41 86 42 87 50 88 43 89 44 90 48 91 51 92 45 93 46 94 49 95
REMARK SMILES IDX 47 96
REMARK H PARENT 71 49 39 60
REMARK Flexibility Score: inf
ROOT
ATOM      1  C   UNL     1      -0.661  -4.351  -0.549  1.00  0.00     0.202 C 
ENDROOT
BRANCH   1   2
ATOM      2  C   UNL     1       0.750  -4.118  -1.107  1.00  0.00     0.261 C 
BRANCH   2   3
ATOM      3  O   UNL     1       1.005  -2.707  -1.158  1.00  0.00    -0.462 OA
BRANCH   3   4
ATOM      4  C   UNL     1       1.879  -2.272  -2.104  1.00  0.00     0.329 C 
ATOM      5  O   UNL     1       2.675  -2.983  -2.705  1.00  0.00    -0.250 OA
BRANCH   4   6
ATOM      6  C   UNL     1       1.657  -0.775  -2.408  1.00  0.00     0.201 C 
BRANCH   6   7
ATOM      7  C   UNL     1       0.878   0.017  -1.323  1.00  0.00     0.034 C 
ATOM      8  C   UNL     1       1.441  -0.110   0.090  1.00  0.00     0.007 C 
ENDBRANCH   6   7
BRANCH   6   9
ATOM      9  N   UNL     1       1.117  -0.521  -3.779  1.00  0.00    -0.278 N 
ATOM     10  C   UNL     1       0.377  -1.475  -4.473  1.00  0.00     0.266 C 
ATOM     11  C   UNL     1       1.211   0.708  -4.402  1.00  0.00     0.149 C 
ATOM     12  O   UNL     1       0.085  -2.597  -4.087  1.00  0.00    -0.268 OA
ATOM     13  C   UNL     1      -0.059  -0.951  -5.808  1.00  0.00     0.080 C 
ATOM     14  S   UNL     1       0.174   0.745  -5.809  1.00  0.00    -0.054 SA
ATOM     15  S   UNL     1       2.123   2.040  -3.981  1.00  0.00    -0.052 S 
ATOM     16  C   UNL     1      -0.501  -1.759  -6.790  1.00  0.00     0.024 C 
BRANCH  16  17
ATOM     17  C   UNL     1      -0.973  -1.494  -8.166  1.00  0.00    -0.049 C 
ATOM     18  C   UNL     1      -1.408  -2.733  -8.922  1.00  0.00     0.044 C 
ATOM     19  C   UNL     1      -0.994  -0.272  -8.738  1.00  0.00     0.011 C 
BRANCH  19  20
ATOM     20  C   UNL     1      -1.514   0.187 -10.039  1.00  0.00    -0.025 A 
ATOM     21  C   UNL     1      -0.841   1.243 -10.675  1.00  0.00     0.008 A 
ATOM     22  C   UNL     1      -2.737  -0.241 -10.566  1.00  0.00     0.008 A 
ATOM     23  C   UNL     1      -1.372   1.850 -11.815  1.00  0.00     0.001 A 
ATOM     24  C   UNL     1      -3.263   0.359 -11.715  1.00  0.00     0.001 A 
ATOM     25  C   UNL     1      -2.585   1.407 -12.334  1.00  0.00     0.000 A 
ENDBRANCH  19  20
ENDBRANCH  16  17
ENDBRANCH   6   9
ENDBRANCH   4   6
ENDBRANCH   3   4
ENDBRANCH   2   3
ENDBRANCH   1   2
BRANCH   1  26
ATOM     26  O   UNL     1      -1.753  -3.980  -1.396  1.00  0.00    -0.374 OA
BRANCH  26  27
ATOM     27  C   UNL     1      -1.948  -2.591  -1.654  1.00  0.00     0.202 C 
BRANCH  27  28
ATOM     28  C   UNL     1      -2.679  -1.796  -0.565  1.00  0.00     0.261 C 
BRANCH  28  29
ATOM     29  O   UNL     1      -1.970  -1.800   0.688  1.00  0.00    -0.460 OA
BRANCH  29  30
ATOM     30  C   UNL     1      -2.592  -2.480   1.677  1.00  0.00     0.338 C 
ATOM     31  O   UNL     1      -3.700  -3.002   1.641  1.00  0.00    -0.246 OA
BRANCH  30  32
ATOM     32  C   UNL     1      -1.691  -2.665   2.826  1.00  0.00     0.060 A 
ATOM     33  C   UNL     1      -1.470  -3.978   3.260  1.00  0.00     0.016 A 
ATOM     34  C   UNL     1      -1.166  -1.583   3.536  1.00  0.00     0.016 A 
ATOM     35  C   UNL     1      -0.768  -4.213   4.439  1.00  0.00     0.010 A 
ATOM     36  C   UNL     1      -0.465  -1.823   4.725  1.00  0.00     0.010 A 
ATOM     37  C   UNL     1      -0.297  -3.136   5.201  1.00  0.00    -0.014 A 
BRANCH  37  38
ATOM     38  C   UNL     1       0.236  -3.394   6.562  1.00  0.00     0.031 A 
ATOM     39  C   UNL     1      -0.657  -3.179   7.753  1.00  0.00     0.074 A 
ATOM     40  C   UNL     1       1.482  -3.871   6.732  1.00  0.00     0.049 A 
ATOM     41  N   UNL     1      -0.404  -3.355   9.026  1.00  0.00    -0.248 NA
ATOM     42  C   UNL     1      -2.020  -2.704   7.472  1.00  0.00     0.031 C 
ATOM     43  C   UNL     1       2.428  -4.160   5.657  1.00  0.00     0.029 A 
ATOM     44  N   UNL     1       2.162  -4.198   7.879  1.00  0.00    -0.354 N 
ATOM     45  C   UNL     1      -1.572  -3.013   9.694  1.00  0.00     0.074 A 
ATOM     46  C   UNL     1      -2.524  -2.586   8.691  1.00  0.00     0.031 C 
ATOM     47  C   UNL     1       3.570  -4.620   6.195  1.00  0.00     0.029 A 
ATOM     48  C   UNL     1       3.445  -4.631   7.652  1.00  0.00     0.049 A 
ATOM     49  H   UNL     1       1.768  -4.128   8.778  1.00  0.00     0.167 HD
ATOM     50  C   UNL     1      -1.832  -3.061  11.023  1.00  0.00     0.037 A 
ATOM     51  C   UNL     1       4.410  -4.982   8.523  1.00  0.00     0.037 A 
ATOM     52  C   UNL     1      -0.886  -3.487  12.021  1.00  0.00     0.049 A 
ATOM     53  C   UNL     1       4.118  -4.961  10.001  1.00  0.00     0.074 A 
ATOM     54  C   UNL     1      -1.060  -3.586  13.391  1.00  0.00     0.029 A 
ATOM     55  N   UNL     1       0.418  -3.880  11.756  1.00  0.00    -0.354 N 
ATOM     56  N   UNL     1       3.004  -4.660  10.623  1.00  0.00    -0.248 NA
ATOM     57  C   UNL     1       5.220  -5.335  10.899  1.00  0.00     0.031 C 
ATOM     58  C   UNL     1       0.152  -3.990  13.960  1.00  0.00     0.029 A 
ATOM     59  C   UNL     1       1.067  -4.196  12.940  1.00  0.00     0.049 A 
ATOM     60  H   UNL     1       0.822  -3.927  10.860  1.00  0.00     0.167 HD
ATOM     61  C   UNL     1       3.260  -4.837  11.976  1.00  0.00     0.074 A 
ATOM     62  C   UNL     1       4.633  -5.284  12.086  1.00  0.00     0.031 C 
ATOM     63  C   UNL     1       2.433  -4.646  13.034  1.00  0.00     0.037 A 
BRANCH  50  64
ATOM     64  C   UNL     1      -3.192  -2.618  11.479  1.00  0.00     0.064 A 
ATOM     65  C   UNL     1      -4.340  -3.386  11.232  1.00  0.00     0.173 A 
ATOM     66  C   UNL     1      -3.344  -1.424  12.199  1.00  0.00     0.173 A 
ATOM     67  F   UNL     1      -4.250  -4.530  10.536  1.00  0.00    -0.203 F 
ATOM     68  C   UNL     1      -5.593  -2.962  11.667  1.00  0.00     0.198 A 
ATOM     69  C   UNL     1      -4.594  -1.017  12.657  1.00  0.00     0.198 A 
ATOM     70  F   UNL     1      -2.278  -0.654  12.466  1.00  0.00    -0.203 F 
ATOM     71  F   UNL     1      -6.682  -3.688  11.380  1.00  0.00    -0.200 F 
ATOM     72  C   UNL     1      -5.718  -1.782  12.385  1.00  0.00     0.200 A 
ATOM     73  F   UNL     1      -4.712   0.118  13.361  1.00  0.00    -0.200 F 
ATOM     74  F   UNL     1      -6.924  -1.378  12.808  1.00  0.00    -0.200 F 
ENDBRANCH  50  64
BRANCH  51  75
ATOM     75  C   UNL     1       5.752  -5.380   8.022  1.00  0.00     0.064 A 
ATOM     76  C   UNL     1       6.210  -6.699   8.146  1.00  0.00     0.173 A 
ATOM     77  C   UNL     1       6.610  -4.444   7.426  1.00  0.00     0.173 A 
ATOM     78  F   UNL     1       5.436  -7.624   8.733  1.00  0.00    -0.203 F 
ATOM     79  C   UNL     1       7.483  -7.062   7.710  1.00  0.00     0.198 A 
ATOM     80  C   UNL     1       7.871  -4.814   6.965  1.00  0.00     0.198 A 
ATOM     81  F   UNL     1       6.220  -3.168   7.287  1.00  0.00    -0.203 F 
ATOM     82  F   UNL     1       7.915  -8.318   7.884  1.00  0.00    -0.200 F 
ATOM     83  C   UNL     1       8.309  -6.121   7.114  1.00  0.00     0.200 A 
ATOM     84  F   UNL     1       8.662  -3.905   6.380  1.00  0.00    -0.200 F 
ATOM     85  F   UNL     1       9.532  -6.472   6.693  1.00  0.00    -0.200 F 
ENDBRANCH  51  75
BRANCH  63  86
ATOM     86  C   UNL     1       2.976  -4.956  14.400  1.00  0.00     0.064 A 
ATOM     87  C   UNL     1       3.939  -4.141  15.013  1.00  0.00     0.173 A 
ATOM     88  C   UNL     1       2.502  -6.066  15.117  1.00  0.00     0.173 A 
ATOM     89  F   UNL     1       4.435  -3.077  14.365  1.00  0.00    -0.203 F 
ATOM     90  C   UNL     1       4.428  -4.443  16.282  1.00  0.00     0.198 A 
ATOM     91  C   UNL     1       2.971  -6.346  16.397  1.00  0.00     0.198 A 
ATOM     92  F   UNL     1       1.575  -6.873  14.579  1.00  0.00    -0.203 F 
ATOM     93  F   UNL     1       5.385  -3.679  16.827  1.00  0.00    -0.200 F 
ATOM     94  C   UNL     1       3.940  -5.540  16.975  1.00  0.00     0.200 A 
ATOM     95  F   UNL     1       2.487  -7.399  17.071  1.00  0.00    -0.200 F 
ATOM     96  F   UNL     1       4.409  -5.826  18.198  1.00  0.00    -0.200 F 
ENDBRANCH  63  86
ENDBRANCH  37  38
ENDBRANCH  30  32
ENDBRANCH  29  30
ENDBRANCH  28  29
ENDBRANCH  27  28
ENDBRANCH  26  27
ENDBRANCH   1  26
TORSDOF 18
