REMARK SMILES COCc1cc(C[NH+]2CCC(CC(=O)OCCOCCOC(=O)c3ccc(-c4c5nc(c(-c6c(F)c(F)c(F)c(F)c6F)c6ccc([nH]6)c(-c6c(F)c(F)c(F)c(F)c6F)c6nc(c(-c7c(F)c(F)c(F)c(F)c7F)c7ccc4[nH]7)C=C6)C=C5)cc3)CC2)no1
REMARK SMILES IDX 16 1 15 2 13 3 14 4 12 5 11 6 8 7 9 8 88 9 10 11 87 12 7 13
REMARK SMILES IDX 6 14 4 15 5 16 90 17 89 18 3 19 2 20 1 21 17 22 18 23 19 24
REMARK SMILES IDX 20 25 21 26 22 27 23 28 24 29 25 30 86 31 26 32 85 33 27 34
REMARK SMILES IDX 28 35 29 36 79 37 30 38 84 39 78 40 80 41 31 42 83 43 77 44
REMARK SMILES IDX 76 45 32 47 64 48 44 49 63 50 45 51 48 52 62 53 81 54 46 55
REMARK SMILES IDX 47 56 61 58 82 59 49 60 33 61 34 62 42 63 35 64 36 65 40 66
REMARK SMILES IDX 43 67 37 68 38 69 41 70 39 71 65 72 66 73 74 74 67 75 68 76
REMARK SMILES IDX 72 77 75 78 69 79 70 80 73 81 71 82 50 83 51 84 59 85 52 86
REMARK SMILES IDX 53 87 57 88 60 89 54 90 55 91 58 92 56 93
REMARK H PARENT 8 10 80 46 48 57
REMARK Flexibility Score: inf
ROOT
ATOM      1  C   UNL     1       7.279   1.711  -8.469  1.00  0.00     0.261 C 
ENDROOT
BRANCH   1   2
ATOM      2  O   UNL     1       5.917   2.154  -8.297  1.00  0.00    -0.463 OA
BRANCH   2   3
ATOM      3  C   UNL     1       5.152   2.211  -9.416  1.00  0.00     0.306 C 
ATOM      4  O   UNL     1       5.555   1.990 -10.551  1.00  0.00    -0.252 OA
BRANCH   3   5
ATOM      5  C   UNL     1       3.731   2.646  -9.128  1.00  0.00     0.126 C 
BRANCH   5   6
ATOM      6  C   UNL     1       3.022   2.019  -7.910  1.00  0.00     0.011 C 
ATOM      7  N   UNL     1       1.170   2.502  -5.696  1.00  0.00    -0.330 N 
ATOM      8  C   UNL     1       2.575   2.228  -5.404  1.00  0.00     0.262 C 
ATOM      9  C   UNL     1       0.710   1.735  -6.854  1.00  0.00     0.262 C 
ATOM     10  H   UNL     1       1.125   3.491  -5.941  1.00  0.00     0.348 HD
ATOM     11  C   UNL     1       3.455   2.661  -6.580  1.00  0.00     0.066 C 
ATOM     12  C   UNL     1       1.498   2.163  -8.092  1.00  0.00     0.066 C 
BRANCH   7  13
ATOM     13  C   UNL     1       0.271   2.382  -4.537  1.00  0.00     0.323 C 
BRANCH  13  14
ATOM     14  C   UNL     1       0.280   1.044  -3.866  1.00  0.00     0.138 A 
ATOM     15  C   UNL     1       0.646  -0.636  -2.485  1.00  0.00     0.162 A 
ATOM     16  C   UNL     1       1.060   0.644  -2.756  1.00  0.00     0.081 A 
ATOM     17  O   UNL     1      -0.307  -0.994  -3.389  1.00  0.00    -0.358 OA
ATOM     18  N   UNL     1      -0.541   0.059  -4.256  1.00  0.00    -0.079 NA
BRANCH  15  19
ATOM     19  C   UNL     1       1.027  -1.652  -1.479  1.00  0.00     0.238 C 
BRANCH  19  20
ATOM     20  O   UNL     1       0.395  -1.367  -0.229  1.00  0.00    -0.377 OA
ATOM     21  C   UNL     1       0.959  -0.267   0.472  1.00  0.00     0.195 C 
ENDBRANCH  19  20
ENDBRANCH  15  19
ENDBRANCH  13  14
ENDBRANCH   7  13
ENDBRANCH   5   6
ENDBRANCH   3   5
ENDBRANCH   2   3
ENDBRANCH   1   2
BRANCH   1  22
ATOM     22  C   UNL     1       7.543   0.453  -7.639  1.00  0.00     0.202 C 
BRANCH  22  23
ATOM     23  O   UNL     1       7.017  -0.761  -8.180  1.00  0.00    -0.374 OA
BRANCH  23  24
ATOM     24  C   UNL     1       5.613  -0.969  -8.048  1.00  0.00     0.202 C 
BRANCH  24  25
ATOM     25  C   UNL     1       5.162  -1.576  -6.714  1.00  0.00     0.261 C 
BRANCH  25  26
ATOM     26  O   UNL     1       5.480  -0.721  -5.601  1.00  0.00    -0.460 OA
BRANCH  26  27
ATOM     27  C   UNL     1       6.504  -1.167  -4.837  1.00  0.00     0.338 C 
ATOM     28  O   UNL     1       7.080  -2.243  -4.923  1.00  0.00    -0.246 OA
BRANCH  27  29
ATOM     29  C   UNL     1       6.972  -0.112  -3.920  1.00  0.00     0.060 A 
ATOM     30  C   UNL     1       8.356   0.080  -3.832  1.00  0.00     0.016 A 
ATOM     31  C   UNL     1       6.103   0.602  -3.090  1.00  0.00     0.016 A 
ATOM     32  C   UNL     1       8.884   0.918  -2.854  1.00  0.00     0.010 A 
ATOM     33  C   UNL     1       6.635   1.445  -2.105  1.00  0.00     0.010 A 
ATOM     34  C   UNL     1       8.029   1.561  -1.949  1.00  0.00    -0.014 A 
BRANCH  34  35
ATOM     35  C   UNL     1       8.624   2.180  -0.739  1.00  0.00     0.031 A 
ATOM     36  C   UNL     1       8.627   1.402   0.549  1.00  0.00     0.074 A 
ATOM     37  C   UNL     1       9.227   3.379  -0.800  1.00  0.00     0.049 A 
ATOM     38  N   UNL     1       9.160   1.707   1.705  1.00  0.00    -0.248 NA
ATOM     39  C   UNL     1       7.932   0.106   0.531  1.00  0.00     0.031 C 
ATOM     40  C   UNL     1       9.306   4.223  -1.989  1.00  0.00     0.029 A 
ATOM     41  N   UNL     1       9.894   4.089   0.167  1.00  0.00    -0.354 N 
ATOM     42  C   UNL     1       8.867   0.643   2.548  1.00  0.00     0.074 A 
ATOM     43  C   UNL     1       8.072  -0.294   1.785  1.00  0.00     0.031 C 
ATOM     44  C   UNL     1       9.981   5.344  -1.681  1.00  0.00     0.029 A 
ATOM     45  C   UNL     1      10.371   5.298  -0.272  1.00  0.00     0.049 A 
ATOM     46  H   UNL     1      10.019   3.762   1.087  1.00  0.00     0.167 HD
ATOM     47  C   UNL     1       9.242   0.453   3.836  1.00  0.00     0.037 A 
ATOM     48  C   UNL     1      11.042   6.260   0.391  1.00  0.00     0.037 A 
ATOM     49  C   UNL     1      10.041   1.378   4.594  1.00  0.00     0.049 A 
ATOM     50  C   UNL     1      11.431   6.040   1.829  1.00  0.00     0.074 A 
ATOM     51  C   UNL     1      10.500   1.261   5.894  1.00  0.00     0.029 A 
ATOM     52  N   UNL     1      10.494   2.600   4.119  1.00  0.00    -0.354 N 
ATOM     53  N   UNL     1      11.191   5.010   2.603  1.00  0.00    -0.248 NA
ATOM     54  C   UNL     1      12.201   7.111   2.478  1.00  0.00     0.031 C 
ATOM     55  C   UNL     1      11.191   2.434   6.222  1.00  0.00     0.029 A 
ATOM     56  C   UNL     1      11.206   3.259   5.109  1.00  0.00     0.049 A 
ATOM     57  H   UNL     1      10.334   2.948   3.212  1.00  0.00     0.167 HD
ATOM     58  C   UNL     1      11.795   5.296   3.821  1.00  0.00     0.074 A 
ATOM     59  C   UNL     1      12.426   6.591   3.678  1.00  0.00     0.031 C 
ATOM     60  C   UNL     1      11.825   4.552   4.955  1.00  0.00     0.037 A 
BRANCH  47  61
ATOM     61  C   UNL     1       8.763  -0.800   4.510  1.00  0.00     0.064 A 
ATOM     62  C   UNL     1       9.266  -2.064   4.164  1.00  0.00     0.173 A 
ATOM     63  C   UNL     1       7.785  -0.735   5.513  1.00  0.00     0.173 A 
ATOM     64  F   UNL     1      10.190  -2.182   3.198  1.00  0.00    -0.203 F 
ATOM     65  C   UNL     1       8.780  -3.219   4.772  1.00  0.00     0.198 A 
ATOM     66  C   UNL     1       7.323  -1.890   6.140  1.00  0.00     0.198 A 
ATOM     67  F   UNL     1       7.272   0.448   5.882  1.00  0.00    -0.203 F 
ATOM     68  F   UNL     1       9.230  -4.420   4.382  1.00  0.00    -0.200 F 
ATOM     69  C   UNL     1       7.812  -3.131   5.761  1.00  0.00     0.200 A 
ATOM     70  F   UNL     1       6.393  -1.802   7.101  1.00  0.00    -0.200 F 
ATOM     71  F   UNL     1       7.341  -4.243   6.341  1.00  0.00    -0.200 F 
ENDBRANCH  47  61
BRANCH  48  72
ATOM     72  C   UNL     1      11.393   7.520  -0.313  1.00  0.00     0.064 A 
ATOM     73  C   UNL     1      12.716   7.813  -0.669  1.00  0.00     0.173 A 
ATOM     74  C   UNL     1      10.401   8.449  -0.658  1.00  0.00     0.173 A 
ATOM     75  F   UNL     1      13.701   6.965  -0.339  1.00  0.00    -0.203 F 
ATOM     76  C   UNL     1      13.035   8.994  -1.337  1.00  0.00     0.198 A 
ATOM     77  C   UNL     1      10.718   9.617  -1.348  1.00  0.00     0.198 A 
ATOM     78  F   UNL     1       9.120   8.213  -0.340  1.00  0.00    -0.203 F 
ATOM     79  F   UNL     1      14.312   9.266  -1.637  1.00  0.00    -0.200 F 
ATOM     80  C   UNL     1      12.035   9.891  -1.683  1.00  0.00     0.200 A 
ATOM     81  F   UNL     1       9.746  10.474  -1.691  1.00  0.00    -0.200 F 
ATOM     82  F   UNL     1      12.341  11.020  -2.335  1.00  0.00    -0.200 F 
ENDBRANCH  48  72
BRANCH  60  83
ATOM     83  C   UNL     1      12.581   5.111   6.126  1.00  0.00     0.064 A 
ATOM     84  C   UNL     1      12.091   6.196   6.867  1.00  0.00     0.173 A 
ATOM     85  C   UNL     1      13.792   4.530   6.533  1.00  0.00     0.173 A 
ATOM     86  F   UNL     1      10.944   6.794   6.511  1.00  0.00    -0.203 F 
ATOM     87  C   UNL     1      12.800   6.697   7.956  1.00  0.00     0.198 A 
ATOM     88  C   UNL     1      14.484   5.016   7.639  1.00  0.00     0.198 A 
ATOM     89  F   UNL     1      14.300   3.485   5.863  1.00  0.00    -0.203 F 
ATOM     90  F   UNL     1      12.337   7.765   8.621  1.00  0.00    -0.200 F 
ATOM     91  C   UNL     1      13.992   6.104   8.345  1.00  0.00     0.200 A 
ATOM     92  F   UNL     1      15.629   4.434   8.020  1.00  0.00    -0.200 F 
ATOM     93  F   UNL     1      14.671   6.585   9.395  1.00  0.00    -0.200 F 
ENDBRANCH  60  83
ENDBRANCH  34  35
ENDBRANCH  27  29
ENDBRANCH  26  27
ENDBRANCH  25  26
ENDBRANCH  24  25
ENDBRANCH  23  24
ENDBRANCH  22  23
ENDBRANCH   1  22
TORSDOF 19
