REMARK SMILES C=CCN(CC(=O)OCCOCCOC(=O)c1ccc(-c2c3nc(c(-c4c(F)c(F)c(F)c(F)c4F)c4ccc([nH]4)c(-c4c(F)c(F)c(F)c(F)c4F)c4nc(c(-c5c(F)c(F)c(F)c(F)c5F)c5ccc2[nH]5)C=C4)C=C3)cc1)C(=O)[C@@H]1[C@H](C)[C@H](C)O[C@@H]1C
REMARK SMILES IDX 10 1 9 2 8 3 6 4 7 5 5 6 4 7 3 8 2 9 1 10 80 11 81 12 82 13
REMARK SMILES IDX 83 14 88 15 84 16 85 17 87 18 89 19 86 20 11 21 12 22 13 23
REMARK SMILES IDX 14 24 15 25 16 26 17 27 18 28 79 29 19 30 78 31 20 32 21 33
REMARK SMILES IDX 22 34 72 35 23 36 77 37 71 38 73 39 24 40 76 41 70 42 69 43
REMARK SMILES IDX 25 45 57 46 37 47 56 48 38 49 41 50 55 51 74 52 39 53 40 54
REMARK SMILES IDX 54 56 75 57 42 58 26 59 27 60 35 61 28 62 29 63 33 64 36 65
REMARK SMILES IDX 30 66 31 67 34 68 32 69 58 70 59 71 67 72 60 73 61 74 65 75
REMARK SMILES IDX 68 76 62 77 63 78 66 79 64 80 43 81 44 82 52 83 45 84 46 85
REMARK SMILES IDX 50 86 53 87 47 88 48 89 51 90 49 91
REMARK H PARENT 73 44 41 55
REMARK Flexibility Score: inf
ROOT
ATOM      1  C   UNL     1      -6.543  -1.718   2.570  1.00  0.00     0.202 C 
ENDROOT
BRANCH   1   2
ATOM      2  C   UNL     1      -5.779  -0.387   2.657  1.00  0.00     0.261 C 
BRANCH   2   3
ATOM      3  O   UNL     1      -4.346  -0.514   2.504  1.00  0.00    -0.462 OA
BRANCH   3   4
ATOM      4  C   UNL     1      -3.608   0.194   3.407  1.00  0.00     0.325 C 
ATOM      5  O   UNL     1      -4.087   0.925   4.270  1.00  0.00    -0.250 OA
BRANCH   4   6
ATOM      6  C   UNL     1      -2.102  -0.107   3.377  1.00  0.00     0.242 C 
BRANCH   6   7
ATOM      7  N   UNL     1      -1.500  -0.679   2.165  1.00  0.00    -0.328 N 
BRANCH   7   8
ATOM      8  C   UNL     1      -1.353   0.238   1.037  1.00  0.00     0.147 C 
BRANCH   8   9
ATOM      9  C   UNL     1       0.073   0.719   1.002  1.00  0.00    -0.014 C 
ATOM     10  C   UNL     1       0.940   0.421   0.023  1.00  0.00     0.006 C 
ENDBRANCH   8   9
ENDBRANCH   7   8
BRANCH   7  11
ATOM     11  C   UNL     1      -1.062  -1.987   1.981  1.00  0.00     0.229 C 
ATOM     12  O   UNL     1      -0.747  -2.384   0.856  1.00  0.00    -0.274 OA
BRANCH  11  13
ATOM     13  C   UNL     1      -1.006  -2.946   3.169  1.00  0.00     0.113 C 
ATOM     14  C   UNL     1      -0.038  -2.696   4.333  1.00  0.00     0.030 C 
ATOM     15  C   UNL     1      -0.724  -4.408   2.800  1.00  0.00     0.128 C 
ATOM     16  C   UNL     1       1.272  -1.996   3.990  1.00  0.00     0.011 C 
ATOM     17  C   UNL     1       0.083  -4.097   4.973  1.00  0.00     0.119 C 
ATOM     18  O   UNL     1      -0.506  -5.046   4.069  1.00  0.00    -0.374 OA
ATOM     19  C   UNL     1       0.452  -4.742   1.887  1.00  0.00     0.039 C 
ATOM     20  C   UNL     1       1.470  -4.603   5.330  1.00  0.00     0.039 C 
ENDBRANCH  11  13
ENDBRANCH   7  11
ENDBRANCH   6   7
ENDBRANCH   4   6
ENDBRANCH   3   4
ENDBRANCH   2   3
ENDBRANCH   1   2
BRANCH   1  21
ATOM     21  O   UNL     1      -6.245  -2.699   3.564  1.00  0.00    -0.374 OA
BRANCH  21  22
ATOM     22  C   UNL     1      -4.921  -3.221   3.585  1.00  0.00     0.202 C 
BRANCH  22  23
ATOM     23  C   UNL     1      -4.522  -4.109   2.405  1.00  0.00     0.261 C 
BRANCH  23  24
ATOM     24  O   UNL     1      -4.807  -3.528   1.137  1.00  0.00    -0.460 OA
BRANCH  24  25
ATOM     25  C   UNL     1      -5.164  -4.421   0.191  1.00  0.00     0.338 C 
ATOM     26  O   UNL     1      -5.134  -5.645   0.255  1.00  0.00    -0.246 OA
BRANCH  25  27
ATOM     27  C   UNL     1      -5.734  -3.694  -0.940  1.00  0.00     0.060 A 
ATOM     28  C   UNL     1      -7.125  -3.587  -1.029  1.00  0.00     0.016 A 
ATOM     29  C   UNL     1      -4.899  -3.198  -1.939  1.00  0.00     0.016 A 
ATOM     30  C   UNL     1      -7.694  -3.013  -2.161  1.00  0.00     0.010 A 
ATOM     31  C   UNL     1      -5.469  -2.617  -3.072  1.00  0.00     0.010 A 
ATOM     32  C   UNL     1      -6.868  -2.557  -3.200  1.00  0.00    -0.014 A 
BRANCH  32  33
ATOM     33  C   UNL     1      -7.479  -2.150  -4.483  1.00  0.00     0.031 A 
ATOM     34  C   UNL     1      -7.528  -3.146  -5.606  1.00  0.00     0.074 A 
ATOM     35  C   UNL     1      -8.014  -0.925  -4.616  1.00  0.00     0.049 A 
ATOM     36  N   UNL     1      -8.030  -3.018  -6.807  1.00  0.00    -0.248 NA
ATOM     37  C   UNL     1      -6.932  -4.466  -5.340  1.00  0.00     0.031 C 
ATOM     38  C   UNL     1      -8.033   0.102  -3.575  1.00  0.00     0.029 A 
ATOM     39  N   UNL     1      -8.644  -0.338  -5.681  1.00  0.00    -0.354 N 
ATOM     40  C   UNL     1      -7.825  -4.241  -7.431  1.00  0.00     0.074 A 
ATOM     41  C   UNL     1      -7.114  -5.085  -6.497  1.00  0.00     0.031 C 
ATOM     42  C   UNL     1      -8.643   1.198  -4.056  1.00  0.00     0.029 A 
ATOM     43  C   UNL     1      -9.035   0.956  -5.442  1.00  0.00     0.049 A 
ATOM     44  H   UNL     1      -8.801  -0.799  -6.537  1.00  0.00     0.167 HD
ATOM     45  C   UNL     1      -8.215  -4.628  -8.668  1.00  0.00     0.037 A 
ATOM     46  C   UNL     1      -9.632   1.842  -6.261  1.00  0.00     0.037 A 
ATOM     47  C   UNL     1      -8.907  -3.772  -9.593  1.00  0.00     0.049 A 
ATOM     48  C   UNL     1      -9.994   1.407  -7.657  1.00  0.00     0.074 A 
ATOM     49  C   UNL     1      -9.336  -4.052 -10.878  1.00  0.00     0.029 A 
ATOM     50  N   UNL     1      -9.265  -2.458  -9.326  1.00  0.00    -0.354 N 
ATOM     51  N   UNL     1      -9.821   0.240  -8.231  1.00  0.00    -0.248 NA
ATOM     52  C   UNL     1     -10.638   2.408  -8.518  1.00  0.00     0.031 C 
ATOM     53  C   UNL     1      -9.923  -2.894 -11.401  1.00  0.00     0.029 A 
ATOM     54  C   UNL     1      -9.897  -1.908 -10.428  1.00  0.00     0.049 A 
ATOM     55  H   UNL     1      -9.096  -1.988  -8.478  1.00  0.00     0.167 HD
ATOM     56  C   UNL     1     -10.352   0.358  -9.507  1.00  0.00     0.074 A 
ATOM     57  C   UNL     1     -10.870   1.706  -9.619  1.00  0.00     0.031 C 
ATOM     58  C   UNL     1     -10.407  -0.563 -10.501  1.00  0.00     0.037 A 
BRANCH  45  59
ATOM     59  C   UNL     1      -7.893  -6.032  -9.086  1.00  0.00     0.064 A 
ATOM     60  C   UNL     1      -8.575  -7.131  -8.541  1.00  0.00     0.173 A 
ATOM     61  C   UNL     1      -6.912  -6.284 -10.056  1.00  0.00     0.173 A 
ATOM     62  F   UNL     1      -9.511  -6.944  -7.598  1.00  0.00    -0.203 F 
ATOM     63  C   UNL     1      -8.271  -8.431  -8.937  1.00  0.00     0.198 A 
ATOM     64  C   UNL     1      -6.628  -7.584 -10.467  1.00  0.00     0.198 A 
ATOM     65  F   UNL     1      -6.232  -5.268 -10.609  1.00  0.00    -0.203 F 
ATOM     66  F   UNL     1      -8.907  -9.468  -8.373  1.00  0.00    -0.200 F 
ATOM     67  C   UNL     1      -7.303  -8.656  -9.903  1.00  0.00     0.200 A 
ATOM     68  F   UNL     1      -5.697  -7.799 -11.408  1.00  0.00    -0.200 F 
ATOM     69  F   UNL     1      -7.015  -9.908 -10.287  1.00  0.00    -0.200 F 
ENDBRANCH  45  59
BRANCH  46  70
ATOM     70  C   UNL     1      -9.918   3.221  -5.787  1.00  0.00     0.064 A 
ATOM     71  C   UNL     1     -11.233   3.665  -5.594  1.00  0.00     0.173 A 
ATOM     72  C   UNL     1      -8.880   4.128  -5.528  1.00  0.00     0.173 A 
ATOM     73  F   UNL     1     -12.262   2.843  -5.848  1.00  0.00    -0.203 F 
ATOM     74  C   UNL     1     -11.500   4.970  -5.180  1.00  0.00     0.198 A 
ATOM     75  C   UNL     1      -9.146   5.423  -5.087  1.00  0.00     0.198 A 
ATOM     76  F   UNL     1      -7.603   3.754  -5.694  1.00  0.00    -0.203 F 
ATOM     77  F   UNL     1     -12.768   5.382  -5.047  1.00  0.00    -0.200 F 
ATOM     78  C   UNL     1     -10.456   5.846  -4.922  1.00  0.00     0.200 A 
ATOM     79  F   UNL     1      -8.134   6.261  -4.827  1.00  0.00    -0.200 F 
ATOM     80  F   UNL     1     -10.713   7.098  -4.522  1.00  0.00    -0.200 F 
ENDBRANCH  46  70
BRANCH  58  81
ATOM     81  C   UNL     1     -11.068  -0.146 -11.780  1.00  0.00     0.064 A 
ATOM     82  C   UNL     1     -10.434   0.722 -12.681  1.00  0.00     0.173 A 
ATOM     83  C   UNL     1     -12.325  -0.660 -12.130  1.00  0.00     0.173 A 
ATOM     84  F   UNL     1      -9.238   1.249 -12.382  1.00  0.00    -0.203 F 
ATOM     85  C   UNL     1     -11.047   1.076 -13.879  1.00  0.00     0.198 A 
ATOM     86  C   UNL     1     -12.923  -0.324 -13.340  1.00  0.00     0.198 A 
ATOM     87  F   UNL     1     -12.966  -1.499 -11.302  1.00  0.00    -0.203 F 
ATOM     88  F   UNL     1     -10.443   1.939 -14.708  1.00  0.00    -0.200 F 
ATOM     89  C   UNL     1     -12.286   0.548 -14.211  1.00  0.00     0.200 A 
ATOM     90  F   UNL     1     -14.114  -0.843 -13.665  1.00  0.00    -0.200 F 
ATOM     91  F   UNL     1     -12.870   0.885 -15.368  1.00  0.00    -0.200 F 
ENDBRANCH  58  81
ENDBRANCH  32  33
ENDBRANCH  25  27
ENDBRANCH  24  25
ENDBRANCH  23  24
ENDBRANCH  22  23
ENDBRANCH  21  22
ENDBRANCH   1  21
TORSDOF 19
