REMARK SMILES C[C@@H](C(=O)OCCOCCOC(=O)c1ccc(-c2c3nc(c(-c4c(F)c(F)c(F)c(F)c4F)c4ccc([nH]4)c(-c4c(F)c(F)c(F)c(F)c4F)c4nc(c(-c5c(F)c(F)c(F)c(F)c5F)c5ccc2[nH]5)C=C4)C=C3)cc1)c1ccc(C[C@@H]2CCC[C@@H]2O)cc1
REMARK SMILES IDX 7 1 6 2 5 3 3 4 4 5 2 6 1 7 77 8 78 9 89 10 79 11 88 12
REMARK SMILES IDX 80 13 81 14 82 15 83 16 86 17 84 18 85 19 87 20 8 22 9 23
REMARK SMILES IDX 10 24 11 25 12 26 13 27 14 28 15 29 76 30 16 31 75 32 17 33
REMARK SMILES IDX 18 34 19 35 69 36 20 37 74 38 68 39 70 40 21 41 73 42 67 43
REMARK SMILES IDX 66 44 22 46 54 47 34 48 53 49 35 50 38 51 52 52 71 53 36 54
REMARK SMILES IDX 37 55 51 57 72 58 39 59 23 60 24 61 32 62 25 63 26 64 30 65
REMARK SMILES IDX 33 66 27 67 28 68 31 69 29 70 55 71 56 72 64 73 57 74 58 75
REMARK SMILES IDX 62 76 65 77 59 78 60 79 63 80 61 81 40 82 41 83 49 84 42 85
REMARK SMILES IDX 43 86 47 87 50 88 44 89 45 90 48 91 46 92
REMARK H PARENT 87 21 70 45 38 56
REMARK Flexibility Score: inf
ROOT
ATOM      1  C   UNL     1     -11.497   1.226   9.146  1.00  0.00     0.202 C 
ENDROOT
BRANCH   1   2
ATOM      2  C   UNL     1     -10.302   2.148   9.404  1.00  0.00     0.261 C 
BRANCH   2   3
ATOM      3  O   UNL     1     -10.334   3.264   8.505  1.00  0.00    -0.463 OA
BRANCH   3   4
ATOM      4  C   UNL     1      -9.120   3.706   8.079  1.00  0.00     0.313 C 
ATOM      5  O   UNL     1      -8.056   3.416   8.616  1.00  0.00    -0.252 OA
BRANCH   4   6
ATOM      6  C   UNL     1      -9.222   4.501   6.774  1.00  0.00     0.126 C 
ATOM      7  C   UNL     1     -10.542   5.282   6.698  1.00  0.00     0.025 C 
BRANCH   6   8
ATOM      8  C   UNL     1      -8.913   3.683   5.513  1.00  0.00    -0.034 A 
ATOM      9  C   UNL     1      -8.305   2.419   5.574  1.00  0.00     0.005 A 
ATOM     10  C   UNL     1      -9.137   4.226   4.237  1.00  0.00     0.005 A 
ATOM     11  C   UNL     1      -7.870   1.764   4.416  1.00  0.00     0.004 A 
ATOM     12  C   UNL     1      -8.702   3.568   3.079  1.00  0.00     0.004 A 
ATOM     13  C   UNL     1      -7.995   2.365   3.162  1.00  0.00    -0.048 A 
BRANCH  13  14
ATOM     14  C   UNL     1      -7.339   1.762   1.941  1.00  0.00     0.041 C 
BRANCH  14  15
ATOM     15  C   UNL     1      -5.804   1.927   1.781  1.00  0.00     0.022 C 
ATOM     16  C   UNL     1      -4.952   1.272   2.875  1.00  0.00     0.007 C 
ATOM     17  C   UNL     1      -5.235   3.351   1.753  1.00  0.00     0.117 C 
ATOM     18  C   UNL     1      -4.571   2.381   3.862  1.00  0.00     0.003 C 
ATOM     19  C   UNL     1      -4.980   3.701   3.214  1.00  0.00     0.032 C 
BRANCH  17  20
ATOM     20  O   UNL     1      -6.054   4.284   1.082  1.00  0.00    -0.393 OA
ATOM     21  H   UNL     1      -6.917   4.333   1.524  1.00  0.00     0.210 HD
ENDBRANCH  17  20
ENDBRANCH  14  15
ENDBRANCH  13  14
ENDBRANCH   6   8
ENDBRANCH   4   6
ENDBRANCH   3   4
ENDBRANCH   2   3
ENDBRANCH   1   2
BRANCH   1  22
ATOM     22  O   UNL     1     -11.570   0.646   7.843  1.00  0.00    -0.374 OA
BRANCH  22  23
ATOM     23  C   UNL     1     -11.909   1.501   6.749  1.00  0.00     0.202 C 
BRANCH  23  24
ATOM     24  C   UNL     1     -13.364   1.983   6.677  1.00  0.00     0.261 C 
BRANCH  24  25
ATOM     25  O   UNL     1     -13.721   2.839   7.781  1.00  0.00    -0.460 OA
BRANCH  25  26
ATOM     26  C   UNL     1     -14.742   2.383   8.544  1.00  0.00     0.338 C 
ATOM     27  O   UNL     1     -15.428   1.388   8.351  1.00  0.00    -0.246 OA
BRANCH  26  28
ATOM     28  C   UNL     1     -14.849   3.165   9.788  1.00  0.00     0.060 A 
ATOM     29  C   UNL     1     -14.743   2.469  10.999  1.00  0.00     0.016 A 
ATOM     30  C   UNL     1     -15.163   4.525   9.776  1.00  0.00     0.016 A 
ATOM     31  C   UNL     1     -14.997   3.121  12.204  1.00  0.00     0.010 A 
ATOM     32  C   UNL     1     -15.428   5.176  10.987  1.00  0.00     0.010 A 
ATOM     33  C   UNL     1     -15.382   4.469  12.203  1.00  0.00    -0.014 A 
BRANCH  33  34
ATOM     34  C   UNL     1     -15.875   5.085  13.460  1.00  0.00     0.031 A 
ATOM     35  C   UNL     1     -17.357   5.165  13.703  1.00  0.00     0.074 A 
ATOM     36  C   UNL     1     -15.015   5.530  14.392  1.00  0.00     0.049 A 
ATOM     37  N   UNL     1     -18.006   5.672  14.721  1.00  0.00    -0.248 NA
ATOM     38  C   UNL     1     -18.223   4.596  12.660  1.00  0.00     0.031 C 
ATOM     39  C   UNL     1     -13.559   5.472  14.292  1.00  0.00     0.029 A 
ATOM     40  N   UNL     1     -15.247   6.122  15.609  1.00  0.00    -0.354 N 
ATOM     41  C   UNL     1     -19.353   5.481  14.442  1.00  0.00     0.074 A 
ATOM     42  C   UNL     1     -19.431   4.842  13.146  1.00  0.00     0.031 C 
ATOM     43  C   UNL     1     -13.024   6.019  15.398  1.00  0.00     0.029 A 
ATOM     44  C   UNL     1     -14.101   6.489  16.269  1.00  0.00     0.049 A 
ATOM     45  H   UNL     1     -16.150   6.270  15.973  1.00  0.00     0.167 HD
ATOM     46  C   UNL     1     -20.428   5.800  15.202  1.00  0.00     0.037 A 
ATOM     47  C   UNL     1     -13.941   7.147  17.434  1.00  0.00     0.037 A 
ATOM     48  C   UNL     1     -20.353   6.438  16.490  1.00  0.00     0.049 A 
ATOM     49  C   UNL     1     -15.155   7.553  18.229  1.00  0.00     0.074 A 
ATOM     50  C   UNL     1     -21.386   6.794  17.340  1.00  0.00     0.029 A 
ATOM     51  N   UNL     1     -19.174   6.822  17.111  1.00  0.00    -0.354 N 
ATOM     52  N   UNL     1     -16.423   7.350  17.967  1.00  0.00    -0.248 NA
ATOM     53  C   UNL     1     -14.912   8.277  19.486  1.00  0.00     0.031 C 
ATOM     54  C   UNL     1     -20.835   7.432  18.456  1.00  0.00     0.029 A 
ATOM     55  C   UNL     1     -19.456   7.431  18.324  1.00  0.00     0.049 A 
ATOM     56  H   UNL     1     -18.271   6.683  16.746  1.00  0.00     0.167 HD
ATOM     57  C   UNL     1     -17.127   7.896  19.033  1.00  0.00     0.074 A 
ATOM     58  C   UNL     1     -16.144   8.428  19.953  1.00  0.00     0.031 C 
ATOM     59  C   UNL     1     -18.466   7.951  19.232  1.00  0.00     0.037 A 
BRANCH  46  60
ATOM     60  C   UNL     1     -21.785   5.481  14.648  1.00  0.00     0.064 A 
ATOM     61  C   UNL     1     -22.258   4.162  14.578  1.00  0.00     0.173 A 
ATOM     62  C   UNL     1     -22.636   6.508  14.215  1.00  0.00     0.173 A 
ATOM     63  F   UNL     1     -21.477   3.143  14.968  1.00  0.00    -0.203 F 
ATOM     64  C   UNL     1     -23.525   3.882  14.073  1.00  0.00     0.198 A 
ATOM     65  C   UNL     1     -23.912   6.227  13.734  1.00  0.00     0.198 A 
ATOM     66  F   UNL     1     -22.232   7.787  14.264  1.00  0.00    -0.203 F 
ATOM     67  F   UNL     1     -23.941   2.612  13.977  1.00  0.00    -0.200 F 
ATOM     68  C   UNL     1     -24.353   4.915  13.658  1.00  0.00     0.200 A 
ATOM     69  F   UNL     1     -24.715   7.226  13.343  1.00  0.00    -0.200 F 
ATOM     70  F   UNL     1     -25.575   4.644  13.178  1.00  0.00    -0.200 F 
ENDBRANCH  46  60
BRANCH  47  71
ATOM     71  C   UNL     1     -12.575   7.478  17.915  1.00  0.00     0.064 A 
ATOM     72  C   UNL     1     -12.034   6.856  19.048  1.00  0.00     0.173 A 
ATOM     73  C   UNL     1     -11.790   8.438  17.259  1.00  0.00     0.173 A 
ATOM     74  F   UNL     1     -12.757   5.952  19.725  1.00  0.00    -0.203 F 
ATOM     75  C   UNL     1     -10.766   7.193  19.517  1.00  0.00     0.198 A 
ATOM     76  C   UNL     1     -10.512   8.755  17.713  1.00  0.00     0.198 A 
ATOM     77  F   UNL     1     -12.264   9.064  16.172  1.00  0.00    -0.203 F 
ATOM     78  F   UNL     1     -10.290   6.617  20.629  1.00  0.00    -0.200 F 
ATOM     79  C   UNL     1     -10.004   8.138  18.845  1.00  0.00     0.200 A 
ATOM     80  F   UNL     1      -9.776   9.661  17.055  1.00  0.00    -0.200 F 
ATOM     81  F   UNL     1      -8.784   8.460  19.296  1.00  0.00    -0.200 F 
ENDBRANCH  47  71
BRANCH  59  82
ATOM     82  C   UNL     1     -18.950   8.581  20.506  1.00  0.00     0.064 A 
ATOM     83  C   UNL     1     -18.897   9.967  20.707  1.00  0.00     0.173 A 
ATOM     84  C   UNL     1     -19.515   7.790  21.519  1.00  0.00     0.173 A 
ATOM     85  F   UNL     1     -18.354  10.764  19.775  1.00  0.00    -0.203 F 
ATOM     86  C   UNL     1     -19.371  10.538  21.886  1.00  0.00     0.198 A 
ATOM     87  C   UNL     1     -20.012   8.366  22.684  1.00  0.00     0.198 A 
ATOM     88  F   UNL     1     -19.595   6.459  21.372  1.00  0.00    -0.203 F 
ATOM     89  F   UNL     1     -19.272  11.861  22.075  1.00  0.00    -0.200 F 
ATOM     90  C   UNL     1     -19.934   9.738  22.870  1.00  0.00     0.200 A 
ATOM     91  F   UNL     1     -20.567   7.594  23.629  1.00  0.00    -0.200 F 
ATOM     92  F   UNL     1     -20.396  10.290  24.000  1.00  0.00    -0.200 F 
ENDBRANCH  59  82
ENDBRANCH  33  34
ENDBRANCH  26  28
ENDBRANCH  25  26
ENDBRANCH  24  25
ENDBRANCH  23  24
ENDBRANCH  22  23
ENDBRANCH   1  22
TORSDOF 18
