REMARK SMILES Cc1c(CCC(=O)N2CCC(C(=O)OCCOCCOC(=O)c3ccc(-c4c5nc(c(-c6c(F)c(F)c(F)c(F)c6F)c6ccc([nH]6)c(-c6c(F)c(F)c(F)c(F)c6F)c6nc(c(-c7c(F)c(F)c(F)c(F)c7F)c7ccc4[nH]7)C=C6)C=C5)cc3)CC2)c(=O)oc2cc3oc4c(c3cc12)CCCC4
REMARK SMILES IDX 16 1 15 2 14 3 12 4 13 5 11 6 6 7 7 8 8 9 9 10 87 11 10 12
REMARK SMILES IDX 86 13 5 14 4 15 3 16 1 17 2 18 99 19 88 20 91 21 98 22 89 23
REMARK SMILES IDX 90 24 92 25 97 26 93 27 96 28 94 29 95 30 100 31 103 32
REMARK SMILES IDX 101 33 102 34 17 35 18 36 19 37 20 38 21 39 22 40 23 41
REMARK SMILES IDX 24 42 85 43 25 44 84 45 26 46 27 47 28 48 78 49 29 50 83 51
REMARK SMILES IDX 77 52 79 53 30 54 82 55 76 56 75 57 31 59 63 60 43 61 62 62
REMARK SMILES IDX 44 63 47 64 61 65 80 66 45 67 46 68 60 70 81 71 48 72 32 73
REMARK SMILES IDX 33 74 41 75 34 76 35 77 39 78 42 79 36 80 37 81 40 82 38 83
REMARK SMILES IDX 64 84 65 85 73 86 66 87 67 88 71 89 74 90 68 91 69 92 72 93
REMARK SMILES IDX 70 94 49 95 50 96 58 97 51 98 52 99 56 100 59 101 53 102
REMARK SMILES IDX 54 103 57 104 55 105
REMARK H PARENT 79 58 47 69
REMARK Flexibility Score: inf
ROOT
ATOM      1  C   UNL     1       3.437  -5.228  -3.773  1.00  0.00     0.202 C 
ENDROOT
BRANCH   1   2
ATOM      2  C   UNL     1       2.535  -4.403  -2.842  1.00  0.00     0.261 C 
BRANCH   2   3
ATOM      3  O   UNL     1       2.984  -3.071  -2.489  1.00  0.00    -0.463 OA
BRANCH   3   4
ATOM      4  C   UNL     1       3.544  -2.943  -1.264  1.00  0.00     0.309 C 
ATOM      5  O   UNL     1       3.747  -3.889  -0.505  1.00  0.00    -0.252 OA
BRANCH   4   6
ATOM      6  C   UNL     1       3.714  -1.534  -0.744  1.00  0.00     0.103 C 
ATOM      7  C   UNL     1       2.475   2.242   0.572  1.00  0.00     0.222 C 
ATOM      8  O   UNL     1       2.638   3.172  -0.219  1.00  0.00    -0.275 OA
ATOM      9  N   UNL     1       3.164   1.038   0.418  1.00  0.00    -0.343 N 
ATOM     10  C   UNL     1       4.430   0.873  -0.350  1.00  0.00     0.120 C 
ATOM     11  C   UNL     1       2.539  -0.183   0.825  1.00  0.00     0.120 C 
ATOM     12  C   UNL     1       4.481  -0.361  -1.340  1.00  0.00     0.037 C 
ATOM     13  C   UNL     1       2.340  -1.002  -0.426  1.00  0.00     0.037 C 
BRANCH   7  14
ATOM     14  C   UNL     1       1.599   2.437   1.860  1.00  0.00     0.105 C 
BRANCH  14  15
ATOM     15  C   UNL     1       0.086   2.063   1.921  1.00  0.00     0.053 C 
BRANCH  15  16
ATOM     16  C   UNL     1      -0.255   0.693   2.519  1.00  0.00     0.042 A 
ATOM     17  C   UNL     1      -0.976  -0.285   0.310  1.00  0.00     0.046 C 
ATOM     18  C   UNL     1      -0.590  -0.370   1.763  1.00  0.00    -0.030 A 
ATOM     19  C   UNL     1      -0.354  -1.683   2.365  1.00  0.00     0.022 A 
ATOM     20  C   UNL     1      -0.241   0.525   4.010  1.00  0.00     0.339 A 
ATOM     21  C   UNL     1      -0.556  -1.868   3.722  1.00  0.00     0.142 A 
ATOM     22  C   UNL     1       0.135  -2.750   1.624  1.00  0.00     0.024 A 
ATOM     23  O   UNL     1       0.031   1.464   4.750  1.00  0.00    -0.246 OA
ATOM     24  O   UNL     1      -0.662  -0.715   4.526  1.00  0.00    -0.422 OA
ATOM     25  C   UNL     1      -0.654  -3.152   4.299  1.00  0.00     0.095 A 
ATOM     26  C   UNL     1       0.222  -4.017   2.193  1.00  0.00     0.025 A 
ATOM     27  C   UNL     1      -0.369  -4.211   3.430  1.00  0.00     0.138 A 
ATOM     28  C   UNL     1       0.521  -5.284   1.654  1.00  0.00     0.001 A 
ATOM     29  O   UNL     1      -0.761  -5.533   3.506  1.00  0.00    -0.461 OA
ATOM     30  C   UNL     1      -0.388  -6.084   2.307  1.00  0.00     0.108 A 
ATOM     31  C   UNL     1       0.930  -5.611   0.270  1.00  0.00     0.040 C 
ATOM     32  C   UNL     1      -1.323  -6.926   1.488  1.00  0.00     0.076 C 
ATOM     33  C   UNL     1      -0.327  -5.650  -0.607  1.00  0.00     0.005 C 
ATOM     34  C   UNL     1      -1.594  -6.114   0.171  1.00  0.00     0.008 C 
ENDBRANCH  15  16
ENDBRANCH  14  15
ENDBRANCH   7  14
ENDBRANCH   4   6
ENDBRANCH   3   4
ENDBRANCH   2   3
ENDBRANCH   1   2
BRANCH   1  35
ATOM     35  O   UNL     1       4.680  -5.701  -3.284  1.00  0.00    -0.374 OA
BRANCH  35  36
ATOM     36  C   UNL     1       5.661  -4.773  -2.845  1.00  0.00     0.202 C 
BRANCH  36  37
ATOM     37  C   UNL     1       6.067  -3.590  -3.745  1.00  0.00     0.261 C 
BRANCH  37  38
ATOM     38  O   UNL     1       4.991  -2.691  -4.077  1.00  0.00    -0.460 OA
BRANCH  38  39
ATOM     39  C   UNL     1       4.621  -2.651  -5.391  1.00  0.00     0.338 C 
ATOM     40  O   UNL     1       5.155  -3.196  -6.318  1.00  0.00    -0.246 OA
BRANCH  39  41
ATOM     41  C   UNL     1       3.279  -2.021  -5.481  1.00  0.00     0.060 A 
ATOM     42  C   UNL     1       3.072  -0.687  -5.141  1.00  0.00     0.016 A 
ATOM     43  C   UNL     1       2.208  -2.808  -5.922  1.00  0.00     0.016 A 
ATOM     44  C   UNL     1       1.788  -0.141  -5.262  1.00  0.00     0.010 A 
ATOM     45  C   UNL     1       0.921  -2.278  -5.985  1.00  0.00     0.010 A 
ATOM     46  C   UNL     1       0.702  -0.929  -5.691  1.00  0.00    -0.014 A 
BRANCH  46  47
ATOM     47  C   UNL     1      -0.591  -0.278  -6.005  1.00  0.00     0.031 A 
ATOM     48  C   UNL     1      -1.364  -0.848  -7.162  1.00  0.00     0.074 A 
ATOM     49  C   UNL     1      -1.272   0.437  -5.085  1.00  0.00     0.049 A 
ATOM     50  N   UNL     1      -2.204  -1.841  -7.057  1.00  0.00    -0.248 NA
ATOM     51  C   UNL     1      -1.041  -0.499  -8.546  1.00  0.00     0.031 C 
ATOM     52  C   UNL     1      -1.385   0.044  -3.676  1.00  0.00     0.029 A 
ATOM     53  N   UNL     1      -2.182   1.460  -5.231  1.00  0.00    -0.354 N 
ATOM     54  C   UNL     1      -2.506  -2.265  -8.343  1.00  0.00     0.074 A 
ATOM     55  C   UNL     1      -1.763  -1.399  -9.232  1.00  0.00     0.031 C 
ATOM     56  C   UNL     1      -2.425   0.707  -3.129  1.00  0.00     0.029 A 
ATOM     57  C   UNL     1      -2.955   1.673  -4.092  1.00  0.00     0.049 A 
ATOM     58  H   UNL     1      -2.277   1.988  -6.056  1.00  0.00     0.167 HD
ATOM     59  C   UNL     1      -3.349  -3.297  -8.620  1.00  0.00     0.037 A 
ATOM     60  C   UNL     1      -4.241   2.122  -4.091  1.00  0.00     0.037 A 
ATOM     61  C   UNL     1      -3.953  -3.937  -7.492  1.00  0.00     0.049 A 
ATOM     62  C   UNL     1      -4.964   0.929  -4.664  1.00  0.00     0.074 A 
ATOM     63  C   UNL     1      -3.745  -5.054  -6.713  1.00  0.00     0.029 A 
ATOM     64  N   UNL     1      -5.070  -3.347  -6.951  1.00  0.00    -0.354 N 
ATOM     65  N   UNL     1      -5.322  -0.146  -4.013  1.00  0.00    -0.248 NA
ATOM     66  C   UNL     1      -4.970   0.797  -6.123  1.00  0.00     0.031 C 
ATOM     67  C   UNL     1      -4.438  -4.796  -5.487  1.00  0.00     0.029 A 
ATOM     68  C   UNL     1      -4.988  -3.521  -5.596  1.00  0.00     0.049 A 
ATOM     69  H   UNL     1      -5.789  -2.888  -7.443  1.00  0.00     0.167 HD
ATOM     70  C   UNL     1      -5.348  -1.161  -4.972  1.00  0.00     0.074 A 
ATOM     71  C   UNL     1      -5.126  -0.512  -6.247  1.00  0.00     0.031 C 
ATOM     72  C   UNL     1      -5.375  -2.489  -4.666  1.00  0.00     0.037 A 
BRANCH  59  73
ATOM     73  C   UNL     1      -3.839  -3.662  -9.966  1.00  0.00     0.064 A 
ATOM     74  C   UNL     1      -5.128  -3.237 -10.328  1.00  0.00     0.173 A 
ATOM     75  C   UNL     1      -3.206  -4.608 -10.775  1.00  0.00     0.173 A 
ATOM     76  F   UNL     1      -5.776  -2.342  -9.562  1.00  0.00    -0.203 F 
ATOM     77  C   UNL     1      -5.784  -3.777 -11.426  1.00  0.00     0.198 A 
ATOM     78  C   UNL     1      -3.861  -5.138 -11.889  1.00  0.00     0.198 A 
ATOM     79  F   UNL     1      -1.983  -5.059 -10.460  1.00  0.00    -0.203 F 
ATOM     80  F   UNL     1      -7.039  -3.398 -11.703  1.00  0.00    -0.200 F 
ATOM     81  C   UNL     1      -5.154  -4.736 -12.201  1.00  0.00     0.200 A 
ATOM     82  F   UNL     1      -3.258  -6.071 -12.639  1.00  0.00    -0.200 F 
ATOM     83  F   UNL     1      -5.801  -5.287 -13.237  1.00  0.00    -0.200 F 
ENDBRANCH  59  73
BRANCH  60  84
ATOM     84  C   UNL     1      -4.468   3.523  -4.574  1.00  0.00     0.064 A 
ATOM     85  C   UNL     1      -3.674   4.560  -4.040  1.00  0.00     0.173 A 
ATOM     86  C   UNL     1      -5.440   3.917  -5.507  1.00  0.00     0.173 A 
ATOM     87  F   UNL     1      -2.800   4.300  -3.054  1.00  0.00    -0.203 F 
ATOM     88  C   UNL     1      -3.762   5.875  -4.501  1.00  0.00     0.198 A 
ATOM     89  C   UNL     1      -5.510   5.227  -5.990  1.00  0.00     0.198 A 
ATOM     90  F   UNL     1      -6.338   3.043  -5.981  1.00  0.00    -0.203 F 
ATOM     91  F   UNL     1      -2.964   6.820  -3.985  1.00  0.00    -0.200 F 
ATOM     92  C   UNL     1      -4.660   6.201  -5.500  1.00  0.00     0.200 A 
ATOM     93  F   UNL     1      -6.396   5.534  -6.948  1.00  0.00    -0.200 F 
ATOM     94  F   UNL     1      -4.712   7.450  -5.984  1.00  0.00    -0.200 F 
ENDBRANCH  60  84
BRANCH  72  95
ATOM     95  C   UNL     1      -5.615  -2.827  -3.241  1.00  0.00     0.064 A 
ATOM     96  C   UNL     1      -6.885  -2.633  -2.683  1.00  0.00     0.173 A 
ATOM     97  C   UNL     1      -4.624  -3.414  -2.445  1.00  0.00     0.173 A 
ATOM     98  F   UNL     1      -7.868  -2.084  -3.413  1.00  0.00    -0.203 F 
ATOM     99  C   UNL     1      -7.164  -3.041  -1.383  1.00  0.00     0.198 A 
ATOM    100  C   UNL     1      -4.920  -3.847  -1.158  1.00  0.00     0.198 A 
ATOM    101  F   UNL     1      -3.381  -3.605  -2.914  1.00  0.00    -0.203 F 
ATOM    102  F   UNL     1      -8.389  -2.861  -0.872  1.00  0.00    -0.200 F 
ATOM    103  C   UNL     1      -6.185  -3.664  -0.627  1.00  0.00     0.200 A 
ATOM    104  F   UNL     1      -3.985  -4.471  -0.435  1.00  0.00    -0.200 F 
ATOM    105  F   UNL     1      -6.463  -4.107   0.607  1.00  0.00    -0.200 F 
ENDBRANCH  72  95
ENDBRANCH  46  47
ENDBRANCH  39  41
ENDBRANCH  38  39
ENDBRANCH  37  38
ENDBRANCH  36  37
ENDBRANCH  35  36
ENDBRANCH   1  35
TORSDOF 17
