REMARK SMILES CC(C)(C)C(=O)NCC(=O)Nc1cc(Cl)ccc1C(=O)OCCOCCOC(=O)c1ccc(-c2c3nc(c(-c4c(F)c(F)c(F)c(F)c4F)c4ccc([nH]4)c(-c4c(F)c(F)c(F)c(F)c4F)c4nc(c(-c5c(F)c(F)c(F)c(F)c5F)c5ccc2[nH]5)C=C4)C=C3)cc1
REMARK SMILES IDX 23 1 22 2 21 3 19 4 20 5 18 6 12 7 13 8 14 9 17 10 15 11
REMARK SMILES IDX 16 12 11 13 9 14 10 15 8 17 7 18 5 19 6 20 2 22 1 23 3 24
REMARK SMILES IDX 4 25 24 26 25 27 26 28 27 29 28 30 29 31 30 32 31 33 92 34
REMARK SMILES IDX 32 35 91 36 33 37 34 38 35 39 85 40 36 41 90 42 84 43 86 44
REMARK SMILES IDX 37 45 89 46 83 47 82 48 38 50 70 51 50 52 69 53 51 54 54 55
REMARK SMILES IDX 68 56 87 57 52 58 53 59 67 61 88 62 55 63 39 64 40 65 48 66
REMARK SMILES IDX 41 67 42 68 46 69 49 70 43 71 44 72 47 73 45 74 71 75 72 76
REMARK SMILES IDX 80 77 73 78 74 79 78 80 81 81 75 82 76 83 79 84 77 85 56 86
REMARK SMILES IDX 57 87 65 88 58 89 59 90 63 91 66 92 60 93 61 94 64 95 62 96
REMARK H PARENT 11 16 7 21 86 49 54 60
REMARK Flexibility Score: inf
ROOT
ATOM      1  C   UNL     1      -6.492   2.686  -0.880  1.00  0.00     0.202 C 
ENDROOT
BRANCH   1   2
ATOM      2  C   UNL     1      -6.276   3.216   0.538  1.00  0.00     0.261 C 
BRANCH   2   3
ATOM      3  O   UNL     1      -4.898   3.113   0.940  1.00  0.00    -0.460 OA
BRANCH   3   4
ATOM      4  C   UNL     1      -4.639   2.064   1.759  1.00  0.00     0.340 C 
ATOM      5  O   UNL     1      -5.481   1.317   2.236  1.00  0.00    -0.246 OA
BRANCH   4   6
ATOM      6  C   UNL     1      -3.183   1.869   2.020  1.00  0.00     0.083 A 
ATOM      7  C   UNL     1      -2.142   2.783   1.736  1.00  0.00     0.057 A 
ATOM      8  C   UNL     1      -0.888   2.532   2.298  1.00  0.00     0.047 A 
ATOM      9  C   UNL     1      -0.607   1.319   2.934  1.00  0.00     0.043 A 
ATOM     10  C   UNL     1      -2.872   0.628   2.615  1.00  0.00     0.019 A 
ATOM     11  Cl  UNL     1       0.949   1.033   3.606  1.00  0.00    -0.084 Cl
ATOM     12  C   UNL     1      -1.581   0.340   3.041  1.00  0.00     0.021 A 
BRANCH   7  13
ATOM     13  N   UNL     1      -2.382   3.943   0.978  1.00  0.00    -0.324 N 
ATOM     14  C   UNL     1      -1.640   4.719   0.134  1.00  0.00     0.243 C 
ATOM     15  O   UNL     1      -2.213   5.741  -0.280  1.00  0.00    -0.273 OA
ATOM     16  H   UNL     1      -3.303   4.275   1.079  1.00  0.00     0.170 HD
BRANCH  14  17
ATOM     17  C   UNL     1      -0.332   4.295  -0.582  1.00  0.00     0.216 C 
BRANCH  17  18
ATOM     18  N   UNL     1       0.741   3.601   0.093  1.00  0.00    -0.347 N 
ATOM     19  C   UNL     1       1.280   2.363  -0.004  1.00  0.00     0.225 C 
ATOM     20  O   UNL     1       2.261   2.176   0.725  1.00  0.00    -0.275 OA
ATOM     21  H   UNL     1       1.178   4.154   0.780  1.00  0.00     0.164 HD
BRANCH  19  22
ATOM     22  C   UNL     1       0.811   1.273  -0.989  1.00  0.00     0.041 C 
ATOM     23  C   UNL     1       1.435  -0.070  -0.535  1.00  0.00     0.021 C 
ATOM     24  C   UNL     1       1.362   1.616  -2.378  1.00  0.00     0.021 C 
ATOM     25  C   UNL     1      -0.703   1.039  -1.053  1.00  0.00     0.021 C 
ENDBRANCH  19  22
ENDBRANCH  17  18
ENDBRANCH  14  17
ENDBRANCH   7  13
ENDBRANCH   4   6
ENDBRANCH   3   4
ENDBRANCH   2   3
ENDBRANCH   1   2
BRANCH   1  26
ATOM     26  O   UNL     1      -6.095   1.335  -1.103  1.00  0.00    -0.374 OA
BRANCH  26  27
ATOM     27  C   UNL     1      -4.726   1.115  -1.453  1.00  0.00     0.202 C 
BRANCH  27  28
ATOM     28  C   UNL     1      -4.363   1.417  -2.912  1.00  0.00     0.261 C 
BRANCH  28  29
ATOM     29  O   UNL     1      -4.309   2.838  -3.147  1.00  0.00    -0.460 OA
BRANCH  29  30
ATOM     30  C   UNL     1      -5.257   3.320  -3.984  1.00  0.00     0.338 C 
ATOM     31  O   UNL     1      -6.059   2.673  -4.646  1.00  0.00    -0.246 OA
BRANCH  30  32
ATOM     32  C   UNL     1      -5.345   4.786  -3.853  1.00  0.00     0.060 A 
ATOM     33  C   UNL     1      -6.610   5.340  -3.615  1.00  0.00     0.016 A 
ATOM     34  C   UNL     1      -4.228   5.611  -4.001  1.00  0.00     0.016 A 
ATOM     35  C   UNL     1      -6.772   6.723  -3.567  1.00  0.00     0.010 A 
ATOM     36  C   UNL     1      -4.394   7.000  -3.965  1.00  0.00     0.010 A 
ATOM     37  C   UNL     1      -5.670   7.562  -3.778  1.00  0.00    -0.014 A 
BRANCH  37  38
ATOM     38  C   UNL     1      -5.876   9.023  -3.926  1.00  0.00     0.031 A 
ATOM     39  C   UNL     1      -5.934   9.618  -5.304  1.00  0.00     0.074 A 
ATOM     40  C   UNL     1      -6.030   9.807  -2.845  1.00  0.00     0.049 A 
ATOM     41  N   UNL     1      -6.055  10.870  -5.666  1.00  0.00    -0.248 NA
ATOM     42  C   UNL     1      -5.842   8.672  -6.428  1.00  0.00     0.031 C 
ATOM     43  C   UNL     1      -6.030   9.342  -1.460  1.00  0.00     0.029 A 
ATOM     44  N   UNL     1      -6.206  11.165  -2.746  1.00  0.00    -0.354 N 
ATOM     45  C   UNL     1      -6.049  10.864  -7.055  1.00  0.00     0.074 A 
ATOM     46  C   UNL     1      -5.885   9.488  -7.472  1.00  0.00     0.031 C 
ATOM     47  C   UNL     1      -6.183  10.401  -0.646  1.00  0.00     0.029 A 
ATOM     48  C   UNL     1      -6.255  11.618  -1.452  1.00  0.00     0.049 A 
ATOM     49  H   UNL     1      -6.288  11.756  -3.529  1.00  0.00     0.167 HD
ATOM     50  C   UNL     1      -6.176  11.912  -7.904  1.00  0.00     0.037 A 
ATOM     51  C   UNL     1      -6.322  12.876  -0.974  1.00  0.00     0.037 A 
ATOM     52  C   UNL     1      -6.336  13.280  -7.486  1.00  0.00     0.049 A 
ATOM     53  C   UNL     1      -6.386  14.032  -1.940  1.00  0.00     0.074 A 
ATOM     54  C   UNL     1      -6.492  14.410  -8.270  1.00  0.00     0.029 A 
ATOM     55  N   UNL     1      -6.351  13.705  -6.165  1.00  0.00    -0.354 N 
ATOM     56  N   UNL     1      -6.405  14.017  -3.251  1.00  0.00    -0.248 NA
ATOM     57  C   UNL     1      -6.439  15.380  -1.357  1.00  0.00     0.031 C 
ATOM     58  C   UNL     1      -6.550  15.524  -7.426  1.00  0.00     0.029 A 
ATOM     59  C   UNL     1      -6.486  15.083  -6.114  1.00  0.00     0.049 A 
ATOM     60  H   UNL     1      -6.278  13.114  -5.381  1.00  0.00     0.167 HD
ATOM     61  C   UNL     1      -6.497  15.345  -3.648  1.00  0.00     0.074 A 
ATOM     62  C   UNL     1      -6.545  16.139  -2.438  1.00  0.00     0.031 C 
ATOM     63  C   UNL     1      -6.537  15.860  -4.901  1.00  0.00     0.037 A 
BRANCH  50  64
ATOM     64  C   UNL     1      -6.122  11.622  -9.375  1.00  0.00     0.064 A 
ATOM     65  C   UNL     1      -7.176  10.974 -10.038  1.00  0.00     0.173 A 
ATOM     66  C   UNL     1      -5.020  12.034 -10.139  1.00  0.00     0.173 A 
ATOM     67  F   UNL     1      -8.246  10.549  -9.351  1.00  0.00    -0.203 F 
ATOM     68  C   UNL     1      -7.116  10.729 -11.408  1.00  0.00     0.198 A 
ATOM     69  C   UNL     1      -4.976  11.811 -11.513  1.00  0.00     0.198 A 
ATOM     70  F   UNL     1      -3.988  12.660  -9.555  1.00  0.00    -0.203 F 
ATOM     71  F   UNL     1      -8.114  10.071 -12.013  1.00  0.00    -0.200 F 
ATOM     72  C   UNL     1      -6.021  11.154 -12.145  1.00  0.00     0.200 A 
ATOM     73  F   UNL     1      -3.922  12.233 -12.225  1.00  0.00    -0.200 F 
ATOM     74  F   UNL     1      -5.969  10.924 -13.464  1.00  0.00    -0.200 F 
ENDBRANCH  50  64
BRANCH  51  75
ATOM     75  C   UNL     1      -6.309  13.115   0.493  1.00  0.00     0.064 A 
ATOM     76  C   UNL     1      -7.438  13.615   1.156  1.00  0.00     0.173 A 
ATOM     77  C   UNL     1      -5.159  12.866   1.258  1.00  0.00     0.173 A 
ATOM     78  F   UNL     1      -8.551  13.895   0.463  1.00  0.00    -0.203 F 
ATOM     79  C   UNL     1      -7.412  13.874   2.525  1.00  0.00     0.198 A 
ATOM     80  C   UNL     1      -5.144  13.098   2.631  1.00  0.00     0.198 A 
ATOM     81  F   UNL     1      -4.051  12.392   0.670  1.00  0.00    -0.203 F 
ATOM     82  F   UNL     1      -8.489  14.398   3.125  1.00  0.00    -0.200 F 
ATOM     83  C   UNL     1      -6.268  13.609   3.262  1.00  0.00     0.200 A 
ATOM     84  F   UNL     1      -4.040  12.830   3.341  1.00  0.00    -0.200 F 
ATOM     85  F   UNL     1      -6.244  13.856   4.579  1.00  0.00    -0.200 F 
ENDBRANCH  51  75
BRANCH  63  86
ATOM     86  C   UNL     1      -6.671  17.350  -5.030  1.00  0.00     0.064 A 
ATOM     87  C   UNL     1      -5.610  18.215  -4.724  1.00  0.00     0.173 A 
ATOM     88  C   UNL     1      -7.865  17.917  -5.503  1.00  0.00     0.173 A 
ATOM     89  F   UNL     1      -4.453  17.724  -4.254  1.00  0.00    -0.203 F 
ATOM     90  C   UNL     1      -5.748  19.594  -4.862  1.00  0.00     0.198 A 
ATOM     91  C   UNL     1      -7.989  19.294  -5.669  1.00  0.00     0.198 A 
ATOM     92  F   UNL     1      -8.908  17.134  -5.818  1.00  0.00    -0.203 F 
ATOM     93  F   UNL     1      -4.737  20.404  -4.518  1.00  0.00    -0.200 F 
ATOM     94  C   UNL     1      -6.933  20.131  -5.341  1.00  0.00     0.200 A 
ATOM     95  F   UNL     1      -9.130  19.810  -6.144  1.00  0.00    -0.200 F 
ATOM     96  F   UNL     1      -7.061  21.458  -5.479  1.00  0.00    -0.200 F 
ENDBRANCH  63  86
ENDBRANCH  37  38
ENDBRANCH  30  32
ENDBRANCH  29  30
ENDBRANCH  28  29
ENDBRANCH  27  28
ENDBRANCH  26  27
ENDBRANCH   1  26
TORSDOF 18
