REMARK SMILES O=C(OCCOCCOC(=O)[C@@H]1CCCC[C@H]1C(=O)Nc1cccc(-c2nnc(-c3ccccc3)o2)c1)c1ccc(-c2c3nc(c(-c4c(F)c(F)c(F)c(F)c4F)c4ccc([nH]4)c(-c4c(F)c(F)c(F)c(F)c4F)c4nc(c(-c5c(F)c(F)c(F)c(F)c5F)c5ccc2[nH]5)C=C4)C=C3)cc1
REMARK SMILES IDX 7 1 6 2 5 3 4 4 3 5 2 6 1 7 38 8 39 9 100 10 40 11 99 12
REMARK SMILES IDX 41 13 42 14 43 15 93 16 44 17 98 18 92 19 94 20 45 21 97 22
REMARK SMILES IDX 91 23 90 24 46 26 78 27 58 28 77 29 59 30 62 31 76 32 95 33
REMARK SMILES IDX 60 34 61 35 75 37 96 38 63 39 47 40 48 41 56 42 49 43 50 44
REMARK SMILES IDX 54 45 57 46 51 47 52 48 55 49 53 50 79 51 80 52 88 53 81 54
REMARK SMILES IDX 82 55 86 56 89 57 83 58 84 59 87 60 85 61 64 62 65 63 73 64
REMARK SMILES IDX 66 65 67 66 71 67 74 68 68 69 69 70 72 71 70 72 8 73 9 74
REMARK SMILES IDX 10 75 11 76 12 77 13 78 17 79 14 80 16 81 15 82 18 83 19 84
REMARK SMILES IDX 20 85 21 87 22 88 37 89 23 90 25 91 24 92 26 93 27 94 36 95
REMARK SMILES IDX 28 96 29 97 30 98 31 99 35 100 32 101 34 102 33 103
REMARK H PARENT 94 25 62 36 20 86
REMARK Flexibility Score: inf
ROOT
ATOM      1  C   UNL     1       2.951   1.991   0.966  1.00  0.00     0.202 C 
ENDROOT
BRANCH   1   2
ATOM      2  O   UNL     1       4.324   1.629   0.789  1.00  0.00    -0.374 OA
BRANCH   2   3
ATOM      3  C   UNL     1       4.750   1.089  -0.462  1.00  0.00     0.202 C 
BRANCH   3   4
ATOM      4  C   UNL     1       4.024  -0.113  -1.100  1.00  0.00     0.261 C 
BRANCH   4   5
ATOM      5  O   UNL     1       2.617  -0.190  -0.803  1.00  0.00    -0.460 OA
BRANCH   5   6
ATOM      6  C   UNL     1       2.036  -1.157  -0.040  1.00  0.00     0.338 C 
ATOM      7  O   UNL     1       0.841  -1.405  -0.148  1.00  0.00    -0.246 OA
BRANCH   6   8
ATOM      8  C   UNL     1       2.846  -1.886   0.973  1.00  0.00     0.060 A 
ATOM      9  C   UNL     1       3.998  -1.325   1.499  1.00  0.00     0.016 A 
ATOM     10  C   UNL     1       2.445  -3.129   1.467  1.00  0.00     0.016 A 
ATOM     11  C   UNL     1       4.854  -2.005   2.314  1.00  0.00     0.010 A 
ATOM     12  C   UNL     1       3.223  -3.773   2.442  1.00  0.00     0.010 A 
ATOM     13  C   UNL     1       4.438  -3.205   2.852  1.00  0.00    -0.014 A 
BRANCH  13  14
ATOM     14  C   UNL     1       5.394  -3.803   3.789  1.00  0.00     0.031 A 
ATOM     15  C   UNL     1       6.165  -4.993   3.334  1.00  0.00     0.074 A 
ATOM     16  C   UNL     1       5.729  -3.101   4.892  1.00  0.00     0.049 A 
ATOM     17  N   UNL     1       7.071  -5.677   3.971  1.00  0.00    -0.248 NA
ATOM     18  C   UNL     1       5.897  -5.467   1.964  1.00  0.00     0.031 C 
ATOM     19  C   UNL     1       5.140  -1.810   5.286  1.00  0.00     0.029 A 
ATOM     20  N   UNL     1       6.690  -3.319   5.838  1.00  0.00    -0.354 N 
ATOM     21  C   UNL     1       7.455  -6.682   3.099  1.00  0.00     0.074 A 
ATOM     22  C   UNL     1       6.684  -6.528   1.887  1.00  0.00     0.031 C 
ATOM     23  C   UNL     1       5.784  -1.337   6.361  1.00  0.00     0.029 A 
ATOM     24  C   UNL     1       6.744  -2.337   6.798  1.00  0.00     0.049 A 
ATOM     25  H   UNL     1       7.286  -4.103   5.832  1.00  0.00     0.167 HD
ATOM     26  C   UNL     1       8.373  -7.649   3.315  1.00  0.00     0.037 A 
ATOM     27  C   UNL     1       7.456  -2.294   7.938  1.00  0.00     0.037 A 
ATOM     28  C   UNL     1       9.113  -7.755   4.543  1.00  0.00     0.049 A 
ATOM     29  C   UNL     1       8.367  -3.458   8.211  1.00  0.00     0.074 A 
ATOM     30  C   UNL     1       9.985  -8.744   4.949  1.00  0.00     0.029 A 
ATOM     31  N   UNL     1       9.062  -6.813   5.566  1.00  0.00    -0.354 N 
ATOM     32  N   UNL     1       8.639  -4.490   7.445  1.00  0.00    -0.248 NA
ATOM     33  C   UNL     1       9.055  -3.467   9.504  1.00  0.00     0.031 C 
ATOM     34  C   UNL     1      10.426  -8.424   6.239  1.00  0.00     0.029 A 
ATOM     35  C   UNL     1       9.879  -7.203   6.611  1.00  0.00     0.049 A 
ATOM     36  H   UNL     1       8.523  -5.989   5.548  1.00  0.00     0.167 HD
ATOM     37  C   UNL     1       9.538  -5.267   8.156  1.00  0.00     0.074 A 
ATOM     38  C   UNL     1       9.791  -4.564   9.400  1.00  0.00     0.031 C 
ATOM     39  C   UNL     1      10.097  -6.459   7.827  1.00  0.00     0.037 A 
BRANCH  26  40
ATOM     40  C   UNL     1       8.535  -8.684   2.245  1.00  0.00     0.064 A 
ATOM     41  C   UNL     1       9.131  -8.392   1.009  1.00  0.00     0.173 A 
ATOM     42  C   UNL     1       8.033  -9.979   2.441  1.00  0.00     0.173 A 
ATOM     43  F   UNL     1       9.585  -7.155   0.753  1.00  0.00    -0.203 F 
ATOM     44  C   UNL     1       9.195  -9.351   0.001  1.00  0.00     0.198 A 
ATOM     45  C   UNL     1       8.125 -10.944   1.442  1.00  0.00     0.198 A 
ATOM     46  F   UNL     1       7.433 -10.304   3.596  1.00  0.00    -0.203 F 
ATOM     47  F   UNL     1       9.707  -9.030  -1.195  1.00  0.00    -0.200 F 
ATOM     48  C   UNL     1       8.699 -10.627   0.221  1.00  0.00     0.200 A 
ATOM     49  F   UNL     1       7.640 -12.175   1.656  1.00  0.00    -0.200 F 
ATOM     50  F   UNL     1       8.754 -11.546  -0.753  1.00  0.00    -0.200 F 
ENDBRANCH  26  40
BRANCH  27  51
ATOM     51  C   UNL     1       7.255  -1.197   8.925  1.00  0.00     0.064 A 
ATOM     52  C   UNL     1       8.306  -0.360   9.323  1.00  0.00     0.173 A 
ATOM     53  C   UNL     1       6.004  -0.993   9.534  1.00  0.00     0.173 A 
ATOM     54  F   UNL     1       9.527  -0.519   8.790  1.00  0.00    -0.203 F 
ATOM     55  C   UNL     1       8.125   0.608  10.312  1.00  0.00     0.198 A 
ATOM     56  C   UNL     1       5.814   0.000  10.493  1.00  0.00     0.198 A 
ATOM     57  F   UNL     1       4.957  -1.763   9.200  1.00  0.00    -0.203 F 
ATOM     58  F   UNL     1       9.166   1.344  10.724  1.00  0.00    -0.200 F 
ATOM     59  C   UNL     1       6.879   0.789  10.893  1.00  0.00     0.200 A 
ATOM     60  F   UNL     1       4.603   0.179  11.038  1.00  0.00    -0.200 F 
ATOM     61  F   UNL     1       6.709   1.711  11.851  1.00  0.00    -0.200 F 
ENDBRANCH  27  51
BRANCH  39  62
ATOM     62  C   UNL     1      11.059  -7.037   8.820  1.00  0.00     0.064 A 
ATOM     63  C   UNL     1      10.626  -7.547  10.052  1.00  0.00     0.173 A 
ATOM     64  C   UNL     1      12.427  -7.099   8.519  1.00  0.00     0.173 A 
ATOM     65  F   UNL     1       9.329  -7.492  10.389  1.00  0.00    -0.203 F 
ATOM     66  C   UNL     1      11.538  -8.065  10.966  1.00  0.00     0.198 A 
ATOM     67  C   UNL     1      13.329  -7.654   9.418  1.00  0.00     0.198 A 
ATOM     68  F   UNL     1      12.885  -6.631   7.348  1.00  0.00    -0.203 F 
ATOM     69  F   UNL     1      11.113  -8.486  12.165  1.00  0.00    -0.200 F 
ATOM     70  C   UNL     1      12.886  -8.126  10.645  1.00  0.00     0.200 A 
ATOM     71  F   UNL     1      14.628  -7.730   9.099  1.00  0.00    -0.200 F 
ATOM     72  F   UNL     1      13.761  -8.631  11.524  1.00  0.00    -0.200 F 
ENDBRANCH  39  62
ENDBRANCH  13  14
ENDBRANCH   6   8
ENDBRANCH   5   6
ENDBRANCH   4   5
ENDBRANCH   3   4
ENDBRANCH   2   3
ENDBRANCH   1   2
BRANCH   1  73
ATOM     73  C   UNL     1       2.864   3.173   1.939  1.00  0.00     0.261 C 
BRANCH  73  74
ATOM     74  O   UNL     1       3.338   4.337   1.254  1.00  0.00    -0.463 OA
BRANCH  74  75
ATOM     75  C   UNL     1       4.691   4.412   1.131  1.00  0.00     0.309 C 
ATOM     76  O   UNL     1       5.489   4.119   2.012  1.00  0.00    -0.252 OA
BRANCH  75  77
ATOM     77  C   UNL     1       5.031   4.683  -0.331  1.00  0.00     0.111 C 
ATOM     78  C   UNL     1       6.540   4.524  -0.561  1.00  0.00     0.016 C 
ATOM     79  C   UNL     1       4.381   5.977  -0.835  1.00  0.00     0.093 C 
ATOM     80  C   UNL     1       7.017   5.122  -1.872  1.00  0.00     0.001 C 
ATOM     81  C   UNL     1       5.078   6.677  -2.007  1.00  0.00     0.014 C 
ATOM     82  C   UNL     1       6.595   6.577  -1.953  1.00  0.00     0.001 C 
BRANCH  79  83
ATOM     83  C   UNL     1       2.869   5.805  -1.101  1.00  0.00     0.228 C 
ATOM     84  O   UNL     1       2.070   6.393  -0.357  1.00  0.00    -0.274 OA
ATOM     85  N   UNL     1       2.299   5.095  -2.125  1.00  0.00    -0.326 N 
ATOM     86  H   UNL     1       1.332   4.942  -2.020  1.00  0.00     0.169 HD
BRANCH  85  87
ATOM     87  C   UNL     1       2.841   4.546  -3.297  1.00  0.00     0.041 A 
ATOM     88  C   UNL     1       2.417   5.064  -4.516  1.00  0.00     0.026 A 
ATOM     89  C   UNL     1       3.746   3.490  -3.306  1.00  0.00     0.040 A 
ATOM     90  C   UNL     1       3.006   4.626  -5.706  1.00  0.00     0.003 A 
ATOM     91  C   UNL     1       4.389   3.063  -4.478  1.00  0.00     0.041 A 
ATOM     92  C   UNL     1       4.015   3.656  -5.683  1.00  0.00     0.014 A 
BRANCH  91  93
ATOM     93  C   UNL     1       5.557   2.193  -4.402  1.00  0.00     0.248 A 
ATOM     94  N   UNL     1       6.822   2.539  -4.509  1.00  0.00    -0.107 NA
ATOM     95  O   UNL     1       5.395   0.873  -4.051  1.00  0.00    -0.416 OA
ATOM     96  N   UNL     1       7.564   1.430  -4.179  1.00  0.00    -0.107 NA
ATOM     97  C   UNL     1       6.708   0.459  -3.938  1.00  0.00     0.248 A 
BRANCH  97  98
ATOM     98  C   UNL     1       6.982  -0.904  -3.497  1.00  0.00     0.039 A 
ATOM     99  C   UNL     1       8.097  -1.148  -2.675  1.00  0.00     0.014 A 
ATOM    100  C   UNL     1       6.209  -1.997  -3.911  1.00  0.00     0.014 A 
ATOM    101  C   UNL     1       8.434  -2.446  -2.280  1.00  0.00     0.001 A 
ATOM    102  C   UNL     1       6.556  -3.300  -3.528  1.00  0.00     0.001 A 
ATOM    103  C   UNL     1       7.666  -3.523  -2.714  1.00  0.00     0.000 A 
ENDBRANCH  97  98
ENDBRANCH  91  93
ENDBRANCH  85  87
ENDBRANCH  79  83
ENDBRANCH  75  77
ENDBRANCH  74  75
ENDBRANCH  73  74
ENDBRANCH   1  73
TORSDOF 18
