REMARK SMILES CCCOc1ccc(Nc2snc(C)c2C(=O)OCCOCCOC(=O)c2ccc(-c3c4nc(c(-c5c(F)c(F)c(F)c(F)c5F)c5ccc([nH]5)c(-c5c(F)c(F)c(F)c(F)c5F)c5nc(c(-c6c(F)c(F)c(F)c(F)c6F)c6ccc3[nH]6)C=C5)C=C4)cc2)cc1
REMARK SMILES IDX 19 1 18 2 16 3 17 4 15 5 10 6 11 7 12 8 13 9 14 10 9 11 8 13
REMARK SMILES IDX 5 14 6 15 91 16 7 17 90 18 4 19 3 20 2 21 1 22 20 23 21 24
REMARK SMILES IDX 22 25 23 26 24 27 25 28 26 29 27 30 28 31 89 32 29 33 88 34
REMARK SMILES IDX 30 35 31 36 32 37 82 38 33 39 87 40 81 41 83 42 34 43 86 44
REMARK SMILES IDX 80 45 79 46 35 48 67 49 47 50 66 51 48 52 51 53 65 54 84 55
REMARK SMILES IDX 49 56 50 57 64 59 85 60 52 61 36 62 37 63 45 64 38 65 39 66
REMARK SMILES IDX 43 67 46 68 40 69 41 70 44 71 42 72 68 73 69 74 77 75 70 76
REMARK SMILES IDX 71 77 75 78 78 79 72 80 73 81 76 82 74 83 53 84 54 85 62 86
REMARK SMILES IDX 55 87 56 88 60 89 63 90 57 91 58 92 61 93 59 94
REMARK H PARENT 9 12 83 47 51 58
REMARK Flexibility Score: inf
ROOT
ATOM      1  C   UNL     1       4.551   3.973  -2.253  1.00  0.00     0.261 C 
ENDROOT
BRANCH   1   2
ATOM      2  O   UNL     1       3.982   3.446  -3.460  1.00  0.00    -0.460 OA
BRANCH   2   3
ATOM      3  C   UNL     1       3.533   4.383  -4.351  1.00  0.00     0.343 C 
ATOM      4  O   UNL     1       3.572   5.588  -4.171  1.00  0.00    -0.246 OA
BRANCH   3   5
ATOM      5  C   UNL     1       3.120   3.803  -5.616  1.00  0.00     0.117 A 
ATOM      6  C   UNL     1       2.225   2.756  -5.801  1.00  0.00     0.128 A 
ATOM      7  S   UNL     1       2.210   2.392  -7.493  1.00  0.00    -0.017 S 
ATOM      8  N   UNL     1       3.222   3.597  -7.965  1.00  0.00    -0.195 NA
ATOM      9  C   UNL     1       3.627   4.270  -6.891  1.00  0.00     0.068 A 
ATOM     10  C   UNL     1       4.585   5.394  -7.119  1.00  0.00     0.069 C 
BRANCH   6  11
ATOM     11  N   UNL     1       1.442   2.002  -4.984  1.00  0.00    -0.345 N 
ATOM     12  H   UNL     1       1.183   1.132  -5.364  1.00  0.00     0.167 HD
BRANCH  11  13
ATOM     13  C   UNL     1       0.937   2.241  -3.694  1.00  0.00     0.039 A 
ATOM     14  C   UNL     1       0.194   2.495  -0.991  1.00  0.00     0.119 A 
ATOM     15  C   UNL     1       0.580   3.617  -1.710  1.00  0.00     0.048 A 
ATOM     16  C   UNL     1       0.046   1.278  -1.643  1.00  0.00     0.048 A 
ATOM     17  C   UNL     1       0.915   3.489  -3.064  1.00  0.00     0.030 A 
ATOM     18  C   UNL     1       0.462   1.141  -2.966  1.00  0.00     0.030 A 
BRANCH  14  19
ATOM     19  O   UNL     1      -0.118   2.622   0.331  1.00  0.00    -0.494 OA
BRANCH  19  20
ATOM     20  C   UNL     1       0.894   2.064   1.192  1.00  0.00     0.229 C 
BRANCH  20  21
ATOM     21  C   UNL     1       0.643   0.580   1.481  1.00  0.00     0.038 C 
ATOM     22  C   UNL     1       1.607  -0.345   0.740  1.00  0.00     0.007 C 
ENDBRANCH  20  21
ENDBRANCH  19  20
ENDBRANCH  14  19
ENDBRANCH  11  13
ENDBRANCH   6  11
ENDBRANCH   3   5
ENDBRANCH   2   3
ENDBRANCH   1   2
BRANCH   1  23
ATOM     23  C   UNL     1       6.034   3.630  -2.101  1.00  0.00     0.202 C 
BRANCH  23  24
ATOM     24  O   UNL     1       6.957   4.073  -3.095  1.00  0.00    -0.374 OA
BRANCH  24  25
ATOM     25  C   UNL     1       6.795   3.693  -4.454  1.00  0.00     0.202 C 
BRANCH  25  26
ATOM     26  C   UNL     1       6.955   2.233  -4.850  1.00  0.00     0.261 C 
BRANCH  26  27
ATOM     27  O   UNL     1       6.132   1.359  -4.095  1.00  0.00    -0.460 OA
BRANCH  27  28
ATOM     28  C   UNL     1       6.803   0.735  -3.100  1.00  0.00     0.338 C 
ATOM     29  O   UNL     1       7.869   1.062  -2.611  1.00  0.00    -0.246 OA
BRANCH  28  30
ATOM     30  C   UNL     1       6.165  -0.558  -2.844  1.00  0.00     0.060 A 
ATOM     31  C   UNL     1       6.899  -1.413  -2.023  1.00  0.00     0.016 A 
ATOM     32  C   UNL     1       5.158  -1.021  -3.705  1.00  0.00     0.016 A 
ATOM     33  C   UNL     1       6.829  -2.757  -2.281  1.00  0.00     0.010 A 
ATOM     34  C   UNL     1       5.091  -2.369  -3.963  1.00  0.00     0.010 A 
ATOM     35  C   UNL     1       5.999  -3.203  -3.320  1.00  0.00    -0.014 A 
BRANCH  35  36
ATOM     36  C   UNL     1       6.015  -4.618  -3.603  1.00  0.00     0.031 A 
ATOM     37  C   UNL     1       5.432  -5.394  -2.489  1.00  0.00     0.074 A 
ATOM     38  C   UNL     1       6.474  -5.141  -4.753  1.00  0.00     0.049 A 
ATOM     39  N   UNL     1       6.058  -6.177  -1.679  1.00  0.00    -0.248 NA
ATOM     40  C   UNL     1       4.048  -5.087  -2.093  1.00  0.00     0.031 C 
ATOM     41  C   UNL     1       6.860  -4.458  -5.989  1.00  0.00     0.029 A 
ATOM     42  N   UNL     1       6.622  -6.455  -5.073  1.00  0.00    -0.354 N 
ATOM     43  C   UNL     1       5.098  -6.620  -0.779  1.00  0.00     0.074 A 
ATOM     44  C   UNL     1       3.945  -5.780  -0.959  1.00  0.00     0.031 C 
ATOM     45  C   UNL     1       6.970  -5.369  -6.985  1.00  0.00     0.029 A 
ATOM     46  C   UNL     1       6.795  -6.700  -6.429  1.00  0.00     0.049 A 
ATOM     47  H   UNL     1       6.606  -7.172  -4.399  1.00  0.00     0.167 HD
ATOM     48  C   UNL     1       5.246  -7.819  -0.157  1.00  0.00     0.037 A 
ATOM     49  C   UNL     1       6.708  -7.918  -7.025  1.00  0.00     0.037 A 
ATOM     50  C   UNL     1       6.626  -8.238  -0.166  1.00  0.00     0.049 A 
ATOM     51  C   UNL     1       6.907  -8.943  -5.963  1.00  0.00     0.074 A 
ATOM     52  C   UNL     1       7.796  -7.712   0.348  1.00  0.00     0.029 A 
ATOM     53  N   UNL     1       7.013  -9.157  -1.110  1.00  0.00    -0.354 N 
ATOM     54  N   UNL     1       8.046  -9.135  -5.356  1.00  0.00    -0.248 NA
ATOM     55  C   UNL     1       5.729  -9.401  -5.239  1.00  0.00     0.031 C 
ATOM     56  C   UNL     1       8.790  -7.985  -0.637  1.00  0.00     0.029 A 
ATOM     57  C   UNL     1       8.191  -8.721  -1.659  1.00  0.00     0.049 A 
ATOM     58  H   UNL     1       6.531  -9.981  -1.350  1.00  0.00     0.167 HD
ATOM     59  C   UNL     1       7.707  -9.319  -4.024  1.00  0.00     0.074 A 
ATOM     60  C   UNL     1       6.262  -9.539  -4.022  1.00  0.00     0.031 C 
ATOM     61  C   UNL     1       8.575  -8.981  -3.026  1.00  0.00     0.037 A 
BRANCH  48  62
ATOM     62  C   UNL     1       4.104  -8.779   0.057  1.00  0.00     0.064 A 
ATOM     63  C   UNL     1       4.349  -9.970   0.765  1.00  0.00     0.173 A 
ATOM     64  C   UNL     1       2.888  -8.738  -0.664  1.00  0.00     0.173 A 
ATOM     65  F   UNL     1       5.476 -10.122   1.476  1.00  0.00    -0.203 F 
ATOM     66  C   UNL     1       3.492 -11.069   0.674  1.00  0.00     0.198 A 
ATOM     67  C   UNL     1       2.011  -9.816  -0.709  1.00  0.00     0.198 A 
ATOM     68  F   UNL     1       2.546  -7.709  -1.447  1.00  0.00    -0.203 F 
ATOM     69  F   UNL     1       3.837 -12.227   1.252  1.00  0.00    -0.200 F 
ATOM     70  C   UNL     1       2.330 -10.994  -0.071  1.00  0.00     0.200 A 
ATOM     71  F   UNL     1       0.899  -9.727  -1.452  1.00  0.00    -0.200 F 
ATOM     72  F   UNL     1       1.544 -12.068  -0.218  1.00  0.00    -0.200 F 
ENDBRANCH  48  62
BRANCH  49  73
ATOM     73  C   UNL     1       6.114  -8.253  -8.343  1.00  0.00     0.064 A 
ATOM     74  C   UNL     1       6.313  -9.514  -8.931  1.00  0.00     0.173 A 
ATOM     75  C   UNL     1       5.107  -7.452  -8.917  1.00  0.00     0.173 A 
ATOM     76  F   UNL     1       7.216 -10.362  -8.417  1.00  0.00    -0.203 F 
ATOM     77  C   UNL     1       5.536  -9.955 -10.009  1.00  0.00     0.198 A 
ATOM     78  C   UNL     1       4.337  -7.890  -9.995  1.00  0.00     0.198 A 
ATOM     79  F   UNL     1       4.781  -6.267  -8.381  1.00  0.00    -0.203 F 
ATOM     80  F   UNL     1       5.713 -11.189 -10.501  1.00  0.00    -0.200 F 
ATOM     81  C   UNL     1       4.542  -9.146 -10.533  1.00  0.00     0.200 A 
ATOM     82  F   UNL     1       3.350  -7.113 -10.465  1.00  0.00    -0.200 F 
ATOM     83  F   UNL     1       3.755  -9.591 -11.522  1.00  0.00    -0.200 F 
ENDBRANCH  49  73
BRANCH  61  84
ATOM     84  C   UNL     1       9.987  -8.641  -3.411  1.00  0.00     0.064 A 
ATOM     85  C   UNL     1      10.344  -7.550  -4.224  1.00  0.00     0.173 A 
ATOM     86  C   UNL     1      11.027  -9.365  -2.813  1.00  0.00     0.173 A 
ATOM     87  F   UNL     1       9.409  -6.747  -4.749  1.00  0.00    -0.203 F 
ATOM     88  C   UNL     1      11.681  -7.232  -4.461  1.00  0.00     0.198 A 
ATOM     89  C   UNL     1      12.359  -9.021  -3.019  1.00  0.00     0.198 A 
ATOM     90  F   UNL     1      10.745 -10.381  -1.982  1.00  0.00    -0.203 F 
ATOM     91  F   UNL     1      11.996  -6.194  -5.250  1.00  0.00    -0.200 F 
ATOM     92  C   UNL     1      12.687  -7.963  -3.852  1.00  0.00     0.200 A 
ATOM     93  F   UNL     1      13.326  -9.701  -2.387  1.00  0.00    -0.200 F 
ATOM     94  F   UNL     1      13.971  -7.633  -4.044  1.00  0.00    -0.200 F 
ENDBRANCH  61  84
ENDBRANCH  35  36
ENDBRANCH  28  30
ENDBRANCH  27  28
ENDBRANCH  26  27
ENDBRANCH  25  26
ENDBRANCH  24  25
ENDBRANCH  23  24
ENDBRANCH   1  23
TORSDOF 19
