REMARK SMILES O=C(N[C@@H](Cc1ccc(O)cc1)C(=O)N[C@@H](CO)C(=O)OCCOCCOC(=O)c1ccc(-c2c3nc(c(-c4c(F)c(F)c(F)c(F)c4F)c4ccc([nH]4)c(-c4c(F)c(F)c(F)c(F)c4F)c4nc(c(-c5c(F)c(F)c(F)c(F)c5F)c5ccc2[nH]5)C=C4)C=C3)cc1)c1ccc(F)cc1
REMARK SMILES IDX 22 1 21 2 19 3 20 4 16 5 15 6 13 7 14 8 4 10 3 11 1 12 2 13
REMARK SMILES IDX 93 15 94 16 99 17 95 18 98 19 96 20 97 21 5 22 6 23 7 24
REMARK SMILES IDX 12 25 8 26 11 27 9 28 10 29 17 31 18 32 23 34 24 35 25 36
REMARK SMILES IDX 26 37 27 38 28 39 29 40 30 41 31 42 92 43 32 44 91 45 33 46
REMARK SMILES IDX 34 47 35 48 85 49 36 50 90 51 84 52 86 53 37 54 89 55 83 56
REMARK SMILES IDX 82 57 38 59 70 60 50 61 69 62 51 63 54 64 68 65 87 66 52 67
REMARK SMILES IDX 53 68 67 70 88 71 55 72 39 73 40 74 48 75 41 76 42 77 46 78
REMARK SMILES IDX 49 79 43 80 44 81 47 82 45 83 71 84 72 85 80 86 73 87 74 88
REMARK SMILES IDX 78 89 81 90 75 91 76 92 79 93 77 94 56 95 57 96 65 97 58 98
REMARK SMILES IDX 59 99 63 100 66 101 60 102 61 103 64 104 62 105
REMARK H PARENT 15 9 3 14 10 30 18 33 86 58 54 69
REMARK Flexibility Score: inf
ROOT
ATOM      1  C   UNL     1       5.614   3.063  -6.711  1.00  0.00     0.261 C 
ENDROOT
BRANCH   1   2
ATOM      2  O   UNL     1       5.210   3.116  -5.335  1.00  0.00    -0.462 OA
BRANCH   2   3
ATOM      3  C   UNL     1       3.888   2.873  -5.103  1.00  0.00     0.331 C 
ATOM      4  O   UNL     1       3.041   2.728  -5.982  1.00  0.00    -0.250 OA
BRANCH   3   5
ATOM      5  C   UNL     1       3.525   2.881  -3.607  1.00  0.00     0.218 C 
BRANCH   5   6
ATOM      6  N   UNL     1       4.628   2.778  -2.651  1.00  0.00    -0.339 N 
ATOM      7  C   UNL     1       4.989   1.812  -1.766  1.00  0.00     0.243 C 
ATOM      8  O   UNL     1       6.040   2.024  -1.143  1.00  0.00    -0.273 OA
ATOM      9  H   UNL     1       5.225   3.561  -2.648  1.00  0.00     0.164 HD
BRANCH   7  10
ATOM     10  C   UNL     1       4.198   0.496  -1.462  1.00  0.00     0.176 C 
BRANCH  10  11
ATOM     11  N   UNL     1       2.852   0.711  -0.932  1.00  0.00    -0.340 N 
ATOM     12  O   UNL     1       1.049   0.221   0.310  1.00  0.00    -0.269 OA
ATOM     13  C   UNL     1       2.271   0.177   0.194  1.00  0.00     0.251 C 
ATOM     14  H   UNL     1       2.283   1.322  -1.453  1.00  0.00     0.164 HD
BRANCH  13  15
ATOM     15  C   UNL     1       3.083  -0.434   1.274  1.00  0.00     0.040 A 
ATOM     16  C   UNL     1       4.193   0.235   1.810  1.00  0.00     0.017 A 
ATOM     17  C   UNL     1       2.666  -1.651   1.833  1.00  0.00     0.017 A 
ATOM     18  C   UNL     1       4.918  -0.341   2.855  1.00  0.00     0.040 A 
ATOM     19  C   UNL     1       3.388  -2.217   2.888  1.00  0.00     0.040 A 
ATOM     20  C   UNL     1       4.511  -1.562   3.382  1.00  0.00     0.123 A 
ATOM     21  F   UNL     1       5.205  -2.107   4.390  1.00  0.00    -0.207 F 
ENDBRANCH  13  15
ENDBRANCH  10  11
BRANCH  10  22
ATOM     22  C   UNL     1       4.338  -0.721  -2.419  1.00  0.00     0.070 C 
BRANCH  22  23
ATOM     23  C   UNL     1       3.590  -0.863  -3.727  1.00  0.00    -0.045 A 
ATOM     24  C   UNL     1       2.402  -0.205  -4.036  1.00  0.00     0.007 A 
ATOM     25  C   UNL     1       4.122  -1.720  -4.710  1.00  0.00     0.007 A 
ATOM     26  C   UNL     1       1.968  -0.108  -5.359  1.00  0.00     0.046 A 
ATOM     27  C   UNL     1       3.641  -1.698  -6.020  1.00  0.00     0.046 A 
ATOM     28  C   UNL     1       2.638  -0.806  -6.349  1.00  0.00     0.115 A 
BRANCH  28  29
ATOM     29  O   UNL     1       2.352  -0.589  -7.661  1.00  0.00    -0.508 OA
ATOM     30  H   UNL     1       1.674   0.013  -7.899  1.00  0.00     0.293 HD
ENDBRANCH  28  29
ENDBRANCH  22  23
ENDBRANCH  10  22
ENDBRANCH   7  10
ENDBRANCH   5   6
BRANCH   5  31
ATOM     31  C   UNL     1       2.673   4.129  -3.362  1.00  0.00     0.193 C 
BRANCH  31  32
ATOM     32  O   UNL     1       3.432   5.303  -3.642  1.00  0.00    -0.394 OA
ATOM     33  H   UNL     1       4.207   5.332  -3.060  1.00  0.00     0.210 HD
ENDBRANCH  31  32
ENDBRANCH   5  31
ENDBRANCH   3   5
ENDBRANCH   2   3
ENDBRANCH   1   2
BRANCH   1  34
ATOM     34  C   UNL     1       6.664   1.982  -7.013  1.00  0.00     0.202 C 
BRANCH  34  35
ATOM     35  O   UNL     1       6.572   0.731  -6.353  1.00  0.00    -0.374 OA
BRANCH  35  36
ATOM     36  C   UNL     1       6.675   0.695  -4.933  1.00  0.00     0.202 C 
BRANCH  36  37
ATOM     37  C   UNL     1       7.887   1.323  -4.232  1.00  0.00     0.261 C 
BRANCH  37  38
ATOM     38  O   UNL     1       8.006   2.735  -4.464  1.00  0.00    -0.460 OA
BRANCH  38  39
ATOM     39  C   UNL     1       9.137   3.110  -5.110  1.00  0.00     0.338 C 
ATOM     40  O   UNL     1      10.068   2.410  -5.458  1.00  0.00    -0.246 OA
BRANCH  39  41
ATOM     41  C   UNL     1       8.988   4.505  -5.554  1.00  0.00     0.060 A 
ATOM     42  C   UNL     1       9.043   4.763  -6.931  1.00  0.00     0.016 A 
ATOM     43  C   UNL     1       8.874   5.543  -4.631  1.00  0.00     0.016 A 
ATOM     44  C   UNL     1       9.015   6.073  -7.395  1.00  0.00     0.010 A 
ATOM     45  C   UNL     1       8.873   6.859  -5.095  1.00  0.00     0.010 A 
ATOM     46  C   UNL     1       8.982   7.124  -6.473  1.00  0.00    -0.014 A 
BRANCH  46  47
ATOM     47  C   UNL     1       9.293   8.495  -6.929  1.00  0.00     0.031 A 
ATOM     48  C   UNL     1      10.702   8.987  -6.762  1.00  0.00     0.074 A 
ATOM     49  C   UNL     1       8.350   9.272  -7.484  1.00  0.00     0.049 A 
ATOM     50  N   UNL     1      11.200  10.177  -6.971  1.00  0.00    -0.248 NA
ATOM     51  C   UNL     1      11.683   7.998  -6.283  1.00  0.00     0.031 C 
ATOM     52  C   UNL     1       6.972   8.867  -7.751  1.00  0.00     0.029 A 
ATOM     53  N   UNL     1       8.410  10.574  -7.906  1.00  0.00    -0.354 N 
ATOM     54  C   UNL     1      12.544  10.084  -6.633  1.00  0.00     0.074 A 
ATOM     55  C   UNL     1      12.780   8.731  -6.181  1.00  0.00     0.031 C 
ATOM     56  C   UNL     1       6.306   9.912  -8.272  1.00  0.00     0.029 A 
ATOM     57  C   UNL     1       7.202  11.066  -8.332  1.00  0.00     0.049 A 
ATOM     58  H   UNL     1       9.239  11.105  -7.904  1.00  0.00     0.167 HD
ATOM     59  C   UNL     1      13.494  11.046  -6.699  1.00  0.00     0.037 A 
ATOM     60  C   UNL     1       6.860  12.318  -8.692  1.00  0.00     0.037 A 
ATOM     61  C   UNL     1      13.238  12.388  -7.149  1.00  0.00     0.049 A 
ATOM     62  C   UNL     1       7.916  13.394  -8.676  1.00  0.00     0.074 A 
ATOM     63  C   UNL     1      14.123  13.444  -7.263  1.00  0.00     0.029 A 
ATOM     64  N   UNL     1      11.996  12.858  -7.552  1.00  0.00    -0.354 N 
ATOM     65  N   UNL     1       9.187  13.306  -8.361  1.00  0.00    -0.248 NA
ATOM     66  C   UNL     1       7.491  14.745  -9.068  1.00  0.00     0.031 C 
ATOM     67  C   UNL     1      13.404  14.570  -7.675  1.00  0.00     0.029 A 
ATOM     68  C   UNL     1      12.086  14.198  -7.891  1.00  0.00     0.049 A 
ATOM     69  H   UNL     1      11.173  12.319  -7.592  1.00  0.00     0.167 HD
ATOM     70  C   UNL     1       9.720  14.574  -8.554  1.00  0.00     0.074 A 
ATOM     71  C   UNL     1       8.635  15.413  -9.020  1.00  0.00     0.031 C 
ATOM     72  C   UNL     1      10.992  15.007  -8.369  1.00  0.00     0.037 A 
BRANCH  59  73
ATOM     73  C   UNL     1      14.877  10.690  -6.236  1.00  0.00     0.064 A 
ATOM     74  C   UNL     1      15.691   9.794  -6.946  1.00  0.00     0.173 A 
ATOM     75  C   UNL     1      15.402  11.268  -5.070  1.00  0.00     0.173 A 
ATOM     76  F   UNL     1      15.232   9.199  -8.058  1.00  0.00    -0.203 F 
ATOM     77  C   UNL     1      16.967   9.469  -6.490  1.00  0.00     0.198 A 
ATOM     78  C   UNL     1      16.690  10.967  -4.636  1.00  0.00     0.198 A 
ATOM     79  F   UNL     1      14.666  12.129  -4.351  1.00  0.00    -0.203 F 
ATOM     80  F   UNL     1      17.705   8.569  -7.155  1.00  0.00    -0.200 F 
ATOM     81  C   UNL     1      17.468  10.062  -5.341  1.00  0.00     0.200 A 
ATOM     82  F   UNL     1      17.177  11.551  -3.532  1.00  0.00    -0.200 F 
ATOM     83  F   UNL     1      18.698   9.754  -4.908  1.00  0.00    -0.200 F 
ENDBRANCH  59  73
BRANCH  60  84
ATOM     84  C   UNL     1       5.457  12.626  -9.077  1.00  0.00     0.064 A 
ATOM     85  C   UNL     1       5.133  13.002 -10.387  1.00  0.00     0.173 A 
ATOM     86  C   UNL     1       4.414  12.569  -8.139  1.00  0.00     0.173 A 
ATOM     87  F   UNL     1       6.097  13.094 -11.315  1.00  0.00    -0.203 F 
ATOM     88  C   UNL     1       3.825  13.330 -10.741  1.00  0.00     0.198 A 
ATOM     89  C   UNL     1       3.102  12.866  -8.501  1.00  0.00     0.198 A 
ATOM     90  F   UNL     1       4.669  12.215  -6.871  1.00  0.00    -0.203 F 
ATOM     91  F   UNL     1       3.553  13.736 -11.988  1.00  0.00    -0.200 F 
ATOM     92  C   UNL     1       2.810  13.255  -9.799  1.00  0.00     0.200 A 
ATOM     93  F   UNL     1       2.122  12.777  -7.591  1.00  0.00    -0.200 F 
ATOM     94  F   UNL     1       1.552  13.568 -10.140  1.00  0.00    -0.200 F 
ENDBRANCH  60  84
BRANCH  72  95
ATOM     95  C   UNL     1      11.298  16.433  -8.729  1.00  0.00     0.064 A 
ATOM     96  C   UNL     1      10.825  17.510  -7.966  1.00  0.00     0.173 A 
ATOM     97  C   UNL     1      12.126  16.719  -9.826  1.00  0.00     0.173 A 
ATOM     98  F   UNL     1      10.020  17.292  -6.915  1.00  0.00    -0.203 F 
ATOM     99  C   UNL     1      11.147  18.822  -8.305  1.00  0.00     0.198 A 
ATOM    100  C   UNL     1      12.476  18.029 -10.140  1.00  0.00     0.198 A 
ATOM    101  F   UNL     1      12.614  15.724 -10.583  1.00  0.00    -0.203 F 
ATOM    102  F   UNL     1      10.642  19.839  -7.593  1.00  0.00    -0.200 F 
ATOM    103  C   UNL     1      11.979  19.079  -9.385  1.00  0.00     0.200 A 
ATOM    104  F   UNL     1      13.296  18.273 -11.171  1.00  0.00    -0.200 F 
ATOM    105  F   UNL     1      12.298  20.342  -9.700  1.00  0.00    -0.200 F 
ENDBRANCH  72  95
ENDBRANCH  46  47
ENDBRANCH  39  41
ENDBRANCH  38  39
ENDBRANCH  37  38
ENDBRANCH  36  37
ENDBRANCH  35  36
ENDBRANCH  34  35
ENDBRANCH   1  34
TORSDOF 23
