REMARK SMILES Cc1c(Cl)cccc1NC(=O)C[C@H](C(=O)OCCOCCOC(=O)c1ccc(-c2c3nc(c(-c4c(F)c(F)c(F)c(F)c4F)c4ccc([nH]4)c(-c4c(F)c(F)c(F)c(F)c4F)c4nc(c(-c5c(F)c(F)c(F)c(F)c5F)c5ccc2[nH]5)C=C4)C=C3)cc1)[C@H](C)c1ccccc1
REMARK SMILES IDX 18 1 17 2 16 3 14 4 15 5 13 6 12 7 10 8 9 9 11 11 8 12 1 13
REMARK SMILES IDX 2 14 3 15 4 16 5 17 7 18 6 19 88 20 89 21 90 22 91 23 95 24
REMARK SMILES IDX 92 25 94 26 93 27 19 28 20 29 21 30 22 31 23 32 24 33 25 34
REMARK SMILES IDX 26 35 87 36 27 37 86 38 28 39 29 40 30 41 80 42 31 43 85 44
REMARK SMILES IDX 79 45 81 46 32 47 84 48 78 49 77 50 33 52 65 53 45 54 64 55
REMARK SMILES IDX 46 56 49 57 63 58 82 59 47 60 48 61 62 63 83 64 50 65 34 66
REMARK SMILES IDX 35 67 43 68 36 69 37 70 41 71 44 72 38 73 39 74 42 75 40 76
REMARK SMILES IDX 66 77 67 78 75 79 68 80 69 81 73 82 76 83 70 84 71 85 74 86
REMARK SMILES IDX 72 87 51 88 52 89 60 90 53 91 54 92 58 93 61 94 55 95 56 96
REMARK SMILES IDX 59 97 57 98
REMARK H PARENT 9 10 81 51 49 62
REMARK Flexibility Score: inf
ROOT
ATOM      1  C   UNL     1      -8.544  -1.326   2.214  1.00  0.00     0.202 C 
ENDROOT
BRANCH   1   2
ATOM      2  C   UNL     1      -7.916  -2.242   1.151  1.00  0.00     0.261 C 
BRANCH   2   3
ATOM      3  O   UNL     1      -6.973  -1.524   0.315  1.00  0.00    -0.463 OA
BRANCH   3   4
ATOM      4  C   UNL     1      -7.230  -1.458  -1.023  1.00  0.00     0.310 C 
ATOM      5  O   UNL     1      -8.217  -1.945  -1.557  1.00  0.00    -0.252 OA
BRANCH   4   6
ATOM      6  C   UNL     1      -6.174  -0.633  -1.780  1.00  0.00     0.116 C 
BRANCH   6   7
ATOM      7  C   UNL     1      -6.340   0.838  -1.348  1.00  0.00     0.116 C 
BRANCH   7   8
ATOM      8  C   UNL     1      -5.233   1.859  -1.359  1.00  0.00     0.225 C 
ATOM      9  N   UNL     1      -4.386   2.087  -0.314  1.00  0.00    -0.326 N 
ATOM     10  H   UNL     1      -3.901   2.941  -0.378  1.00  0.00     0.169 HD
ATOM     11  O   UNL     1      -5.086   2.573  -2.358  1.00  0.00    -0.275 OA
BRANCH   9  12
ATOM     12  C   UNL     1      -4.065   1.338   0.839  1.00  0.00     0.045 A 
ATOM     13  C   UNL     1      -1.600   2.028   0.565  1.00  0.00     0.048 C 
ATOM     14  C   UNL     1      -2.713   1.281   1.262  1.00  0.00    -0.009 A 
ATOM     15  C   UNL     1      -2.362   0.360   2.277  1.00  0.00     0.046 A 
ATOM     16  Cl  UNL     1      -0.731   0.176   2.825  1.00  0.00    -0.084 Cl
ATOM     17  C   UNL     1      -3.308  -0.492   2.841  1.00  0.00     0.021 A 
ATOM     18  C   UNL     1      -5.003   0.535   1.486  1.00  0.00     0.026 A 
ATOM     19  C   UNL     1      -4.632  -0.398   2.452  1.00  0.00     0.004 A 
ENDBRANCH   9  12
ENDBRANCH   7   8
ENDBRANCH   6   7
BRANCH   6  20
ATOM     20  C   UNL     1      -4.843  -1.439  -1.783  1.00  0.00     0.031 C 
ATOM     21  C   UNL     1      -3.502  -0.719  -1.688  1.00  0.00     0.013 C 
BRANCH  20  22
ATOM     22  C   UNL     1      -4.773  -2.312  -3.040  1.00  0.00    -0.044 A 
ATOM     23  C   UNL     1      -5.089  -3.674  -2.973  1.00  0.00     0.004 A 
ATOM     24  C   UNL     1      -4.348  -1.773  -4.269  1.00  0.00     0.004 A 
ATOM     25  C   UNL     1      -4.920  -4.488  -4.094  1.00  0.00     0.000 A 
ATOM     26  C   UNL     1      -4.162  -2.593  -5.379  1.00  0.00     0.000 A 
ATOM     27  C   UNL     1      -4.438  -3.953  -5.288  1.00  0.00     0.000 A 
ENDBRANCH  20  22
ENDBRANCH   6  20
ENDBRANCH   4   6
ENDBRANCH   3   4
ENDBRANCH   2   3
ENDBRANCH   1   2
BRANCH   1  28
ATOM     28  O   UNL     1      -9.662  -0.547   1.784  1.00  0.00    -0.374 OA
BRANCH  28  29
ATOM     29  C   UNL     1      -9.375   0.564   0.943  1.00  0.00     0.202 C 
BRANCH  29  30
ATOM     30  C   UNL     1      -9.021   1.875   1.662  1.00  0.00     0.261 C 
BRANCH  30  31
ATOM     31  O   UNL     1      -7.879   1.748   2.532  1.00  0.00    -0.460 OA
BRANCH  31  32
ATOM     32  C   UNL     1      -8.178   1.639   3.849  1.00  0.00     0.338 C 
ATOM     33  O   UNL     1      -9.290   1.703   4.357  1.00  0.00    -0.246 OA
BRANCH  32  34
ATOM     34  C   UNL     1      -6.986   1.256   4.633  1.00  0.00     0.060 A 
ATOM     35  C   UNL     1      -7.128   0.183   5.521  1.00  0.00     0.016 A 
ATOM     36  C   UNL     1      -5.777   1.954   4.567  1.00  0.00     0.016 A 
ATOM     37  C   UNL     1      -6.090  -0.157   6.388  1.00  0.00     0.010 A 
ATOM     38  C   UNL     1      -4.726   1.598   5.428  1.00  0.00     0.010 A 
ATOM     39  C   UNL     1      -4.893   0.571   6.378  1.00  0.00    -0.014 A 
BRANCH  39  40
ATOM     40  C   UNL     1      -3.903   0.360   7.472  1.00  0.00     0.031 A 
ATOM     41  C   UNL     1      -3.780   1.399   8.557  1.00  0.00     0.074 A 
ATOM     42  C   UNL     1      -3.171  -0.768   7.553  1.00  0.00     0.049 A 
ATOM     43  N   UNL     1      -3.004   1.417   9.612  1.00  0.00    -0.248 NA
ATOM     44  C   UNL     1      -4.655   2.576   8.438  1.00  0.00     0.031 C 
ATOM     45  C   UNL     1      -3.226  -1.880   6.608  1.00  0.00     0.029 A 
ATOM     46  N   UNL     1      -2.239  -1.164   8.482  1.00  0.00    -0.354 N 
ATOM     47  C   UNL     1      -3.293   2.604  10.275  1.00  0.00     0.074 A 
ATOM     48  C   UNL     1      -4.282   3.300   9.482  1.00  0.00     0.031 C 
ATOM     49  C   UNL     1      -2.358  -2.829   6.997  1.00  0.00     0.029 A 
ATOM     50  C   UNL     1      -1.669  -2.384   8.208  1.00  0.00     0.049 A 
ATOM     51  H   UNL     1      -2.001  -0.625   9.270  1.00  0.00     0.167 HD
ATOM     52  C   UNL     1      -2.796   3.067  11.447  1.00  0.00     0.037 A 
ATOM     53  C   UNL     1      -0.695  -3.060   8.851  1.00  0.00     0.037 A 
ATOM     54  C   UNL     1      -1.818   2.375  12.247  1.00  0.00     0.049 A 
ATOM     55  C   UNL     1      -0.096  -2.485  10.110  1.00  0.00     0.074 A 
ATOM     56  C   UNL     1      -1.274   2.754  13.462  1.00  0.00     0.029 A 
ATOM     57  N   UNL     1      -1.230   1.166  11.907  1.00  0.00    -0.354 N 
ATOM     58  N   UNL     1      -0.402  -1.380  10.745  1.00  0.00    -0.248 NA
ATOM     59  C   UNL     1       0.979  -3.260  10.747  1.00  0.00     0.031 C 
ATOM     60  C   UNL     1      -0.308   1.810  13.823  1.00  0.00     0.029 A 
ATOM     61  C   UNL     1      -0.301   0.804  12.871  1.00  0.00     0.049 A 
ATOM     62  H   UNL     1      -1.440   0.642  11.100  1.00  0.00     0.167 HD
ATOM     63  C   UNL     1       0.418  -1.343  11.868  1.00  0.00     0.074 A 
ATOM     64  C   UNL     1       1.222  -2.545  11.836  1.00  0.00     0.031 C 
ATOM     65  C   UNL     1       0.494  -0.398  12.837  1.00  0.00     0.037 A 
BRANCH  52  66
ATOM     66  C   UNL     1      -3.281   4.406  11.926  1.00  0.00     0.064 A 
ATOM     67  C   UNL     1      -4.596   4.603  12.376  1.00  0.00     0.173 A 
ATOM     68  C   UNL     1      -2.406   5.503  11.963  1.00  0.00     0.173 A 
ATOM     69  F   UNL     1      -5.477   3.591  12.351  1.00  0.00    -0.203 F 
ATOM     70  C   UNL     1      -5.025   5.854  12.812  1.00  0.00     0.198 A 
ATOM     71  C   UNL     1      -2.829   6.744  12.433  1.00  0.00     0.198 A 
ATOM     72  F   UNL     1      -1.137   5.371  11.551  1.00  0.00    -0.203 F 
ATOM     73  F   UNL     1      -6.301   6.031  13.183  1.00  0.00    -0.200 F 
ATOM     74  C   UNL     1      -4.140   6.921  12.848  1.00  0.00     0.200 A 
ATOM     75  F   UNL     1      -1.967   7.769  12.482  1.00  0.00    -0.200 F 
ATOM     76  F   UNL     1      -4.553   8.122  13.274  1.00  0.00    -0.200 F 
ENDBRANCH  52  66
BRANCH  53  77
ATOM     77  C   UNL     1      -0.213  -4.361   8.313  1.00  0.00     0.064 A 
ATOM     78  C   UNL     1      -0.421  -5.559   9.011  1.00  0.00     0.173 A 
ATOM     79  C   UNL     1       0.492  -4.428   7.102  1.00  0.00     0.173 A 
ATOM     80  F   UNL     1      -1.065  -5.546  10.187  1.00  0.00    -0.203 F 
ATOM     81  C   UNL     1       0.074  -6.770   8.528  1.00  0.00     0.198 A 
ATOM     82  C   UNL     1       0.958  -5.643   6.604  1.00  0.00     0.198 A 
ATOM     83  F   UNL     1       0.722  -3.312   6.395  1.00  0.00    -0.203 F 
ATOM     84  F   UNL     1      -0.095  -7.892   9.241  1.00  0.00    -0.200 F 
ATOM     85  C   UNL     1       0.757  -6.812   7.322  1.00  0.00     0.200 A 
ATOM     86  F   UNL     1       1.605  -5.681   5.431  1.00  0.00    -0.200 F 
ATOM     87  F   UNL     1       1.228  -7.977   6.856  1.00  0.00    -0.200 F 
ENDBRANCH  53  77
BRANCH  65  88
ATOM     88  C   UNL     1       1.452  -0.637  13.972  1.00  0.00     0.064 A 
ATOM     89  C   UNL     1       2.842  -0.589  13.791  1.00  0.00     0.173 A 
ATOM     90  C   UNL     1       0.970  -0.878  15.269  1.00  0.00     0.173 A 
ATOM     91  F   UNL     1       3.358  -0.375  12.571  1.00  0.00    -0.203 F 
ATOM     92  C   UNL     1       3.713  -0.803  14.858  1.00  0.00     0.198 A 
ATOM     93  C   UNL     1       1.843  -1.055  16.339  1.00  0.00     0.198 A 
ATOM     94  F   UNL     1      -0.350  -0.926  15.502  1.00  0.00    -0.203 F 
ATOM     95  F   UNL     1       5.037  -0.805  14.649  1.00  0.00    -0.200 F 
ATOM     96  C   UNL     1       3.213  -1.027  16.132  1.00  0.00     0.200 A 
ATOM     97  F   UNL     1       1.356  -1.253  17.573  1.00  0.00    -0.200 F 
ATOM     98  F   UNL     1       4.052  -1.223  17.158  1.00  0.00    -0.200 F 
ENDBRANCH  65  88
ENDBRANCH  39  40
ENDBRANCH  32  34
ENDBRANCH  31  32
ENDBRANCH  30  31
ENDBRANCH  29  30
ENDBRANCH  28  29
ENDBRANCH   1  28
TORSDOF 19
