REMARK SMILES CC[C@@]1(C(=O)OCCOCCOC(=O)c2ccc(-c3c4nc(c(-c5c(F)c(F)c(F)c(F)c5F)c5ccc([nH]5)c(-c5c(F)c(F)c(F)c(F)c5F)c5nc(c(-c6c(F)c(F)c(F)c(F)c6F)c6ccc3[nH]6)C=C5)C=C4)cc2)CCN(C(=O)N(C)CCc2cccs2)C1
REMARK SMILES IDX 7 1 6 2 4 3 5 4 3 5 78 6 92 7 79 8 80 9 2 10 1 11 81 12
REMARK SMILES IDX 82 13 83 14 84 15 85 16 86 17 87 18 88 19 91 20 89 21 90 22
REMARK SMILES IDX 8 23 9 24 10 25 11 26 12 27 13 28 14 29 15 30 16 31 77 32
REMARK SMILES IDX 17 33 76 34 18 35 19 36 20 37 70 38 21 39 75 40 69 41 71 42
REMARK SMILES IDX 22 43 74 44 68 45 67 46 23 48 55 49 35 50 54 51 36 52 39 53
REMARK SMILES IDX 53 54 72 55 37 56 38 57 52 59 73 60 40 61 24 62 25 63 33 64
REMARK SMILES IDX 26 65 27 66 31 67 34 68 28 69 29 70 32 71 30 72 56 73 57 74
REMARK SMILES IDX 65 75 58 76 59 77 63 78 66 79 60 80 61 81 64 82 62 83 41 84
REMARK SMILES IDX 42 85 50 86 43 87 44 88 48 89 51 90 45 91 46 92 49 93 47 94
REMARK H PARENT 71 47 39 58
REMARK Flexibility Score: inf
ROOT
ATOM      1  C   UNL     1      -1.077  -1.643   0.626  1.00  0.00     0.261 C 
ENDROOT
BRANCH   1   2
ATOM      2  O   UNL     1      -0.693  -0.446   1.334  1.00  0.00    -0.463 OA
BRANCH   2   3
ATOM      3  C   UNL     1       0.344  -0.593   2.199  1.00  0.00     0.314 C 
ATOM      4  O   UNL     1       0.969  -1.639   2.345  1.00  0.00    -0.252 OA
BRANCH   3   5
ATOM      5  C   UNL     1       0.694   0.683   2.966  1.00  0.00     0.087 C 
ATOM      6  C   UNL     1      -0.333   1.821   2.864  1.00  0.00     0.042 C 
ATOM      7  C   UNL     1       1.959   1.279   2.334  1.00  0.00     0.140 C 
ATOM      8  C   UNL     1       0.148   2.722   1.731  1.00  0.00     0.122 C 
ATOM      9  N   UNL     1       1.569   2.477   1.590  1.00  0.00    -0.323 N 
BRANCH   5  10
ATOM     10  C   UNL     1       0.941   0.197   4.422  1.00  0.00     0.017 C 
ATOM     11  C   UNL     1       1.049   1.257   5.507  1.00  0.00     0.005 C 
ENDBRANCH   5  10
BRANCH   9  12
ATOM     12  C   UNL     1       2.563   3.159   0.921  1.00  0.00     0.319 C 
ATOM     13  O   UNL     1       3.636   2.585   0.707  1.00  0.00    -0.248 OA
BRANCH  12  14
ATOM     14  N   UNL     1       2.415   4.492   0.585  1.00  0.00    -0.327 N 
ATOM     15  C   UNL     1       1.182   5.245   0.458  1.00  0.00     0.148 C 
BRANCH  14  16
ATOM     16  C   UNL     1       3.656   5.283   0.444  1.00  0.00     0.126 C 
BRANCH  16  17
ATOM     17  C   UNL     1       4.204   5.832   1.782  1.00  0.00     0.068 C 
BRANCH  17  18
ATOM     18  C   UNL     1       5.131   4.867   2.470  1.00  0.00     0.006 A 
ATOM     19  C   UNL     1       6.481   4.675   2.244  1.00  0.00     0.015 A 
ATOM     20  S   UNL     1       4.559   3.829   3.706  1.00  0.00    -0.149 S 
ATOM     21  C   UNL     1       6.987   3.540   2.941  1.00  0.00     0.012 A 
ATOM     22  C   UNL     1       6.019   2.940   3.715  1.00  0.00     0.065 A 
ENDBRANCH  17  18
ENDBRANCH  16  17
ENDBRANCH  14  16
ENDBRANCH  12  14
ENDBRANCH   9  12
ENDBRANCH   3   5
ENDBRANCH   2   3
ENDBRANCH   1   2
BRANCH   1  23
ATOM     23  C   UNL     1      -0.654  -1.608  -0.845  1.00  0.00     0.202 C 
BRANCH  23  24
ATOM     24  O   UNL     1       0.731  -1.816  -1.116  1.00  0.00    -0.374 OA
BRANCH  24  25
ATOM     25  C   UNL     1       1.612  -0.720  -0.869  1.00  0.00     0.202 C 
BRANCH  25  26
ATOM     26  C   UNL     1       1.735   0.309  -1.995  1.00  0.00     0.261 C 
BRANCH  26  27
ATOM     27  O   UNL     1       0.478   0.974  -2.222  1.00  0.00    -0.460 OA
BRANCH  27  28
ATOM     28  C   UNL     1      -0.154   0.590  -3.351  1.00  0.00     0.338 C 
ATOM     29  O   UNL     1       0.281  -0.132  -4.240  1.00  0.00    -0.246 OA
BRANCH  28  30
ATOM     30  C   UNL     1      -1.561   1.026  -3.328  1.00  0.00     0.060 A 
ATOM     31  C   UNL     1      -2.516   0.084  -3.728  1.00  0.00     0.016 A 
ATOM     32  C   UNL     1      -1.940   2.336  -3.017  1.00  0.00     0.016 A 
ATOM     33  C   UNL     1      -3.834   0.473  -3.927  1.00  0.00     0.010 A 
ATOM     34  C   UNL     1      -3.269   2.727  -3.218  1.00  0.00     0.010 A 
ATOM     35  C   UNL     1      -4.202   1.812  -3.738  1.00  0.00    -0.014 A 
BRANCH  35  36
ATOM     36  C   UNL     1      -5.491   2.263  -4.316  1.00  0.00     0.031 A 
ATOM     37  C   UNL     1      -5.478   2.914  -5.674  1.00  0.00     0.074 A 
ATOM     38  C   UNL     1      -6.656   1.990  -3.705  1.00  0.00     0.049 A 
ATOM     39  N   UNL     1      -6.481   3.292  -6.426  1.00  0.00    -0.248 NA
ATOM     40  C   UNL     1      -4.155   3.169  -6.267  1.00  0.00     0.031 C 
ATOM     41  C   UNL     1      -6.795   1.329  -2.410  1.00  0.00     0.029 A 
ATOM     42  N   UNL     1      -7.947   2.220  -4.109  1.00  0.00    -0.354 N 
ATOM     43  C   UNL     1      -5.910   3.822  -7.577  1.00  0.00     0.074 A 
ATOM     44  C   UNL     1      -4.475   3.759  -7.408  1.00  0.00     0.031 C 
ATOM     45  C   UNL     1      -8.102   1.197  -2.127  1.00  0.00     0.029 A 
ATOM     46  C   UNL     1      -8.889   1.777  -3.215  1.00  0.00     0.049 A 
ATOM     47  H   UNL     1      -8.175   2.662  -4.958  1.00  0.00     0.167 HD
ATOM     48  C   UNL     1      -6.525   4.300  -8.684  1.00  0.00     0.037 A 
ATOM     49  C   UNL     1     -10.233   1.832  -3.275  1.00  0.00     0.037 A 
ATOM     50  C   UNL     1      -7.952   4.355  -8.856  1.00  0.00     0.049 A 
ATOM     51  C   UNL     1     -10.893   2.411  -4.499  1.00  0.00     0.074 A 
ATOM     52  C   UNL     1      -8.675   4.815  -9.942  1.00  0.00     0.029 A 
ATOM     53  N   UNL     1      -8.874   3.934  -7.910  1.00  0.00    -0.354 N 
ATOM     54  N   UNL     1     -10.346   2.887  -5.592  1.00  0.00    -0.248 NA
ATOM     55  C   UNL     1     -12.363   2.447  -4.502  1.00  0.00     0.031 C 
ATOM     56  C   UNL     1     -10.037   4.713  -9.635  1.00  0.00     0.029 A 
ATOM     57  C   UNL     1     -10.161   4.142  -8.378  1.00  0.00     0.049 A 
ATOM     58  H   UNL     1      -8.648   3.544  -7.034  1.00  0.00     0.167 HD
ATOM     59  C   UNL     1     -11.399   3.251  -6.421  1.00  0.00     0.074 A 
ATOM     60  C   UNL     1     -12.619   2.924  -5.712  1.00  0.00     0.031 C 
ATOM     61  C   UNL     1     -11.363   3.807  -7.658  1.00  0.00     0.037 A 
BRANCH  48  62
ATOM     62  C   UNL     1      -5.651   4.822  -9.787  1.00  0.00     0.064 A 
ATOM     63  C   UNL     1      -4.886   3.964 -10.592  1.00  0.00     0.173 A 
ATOM     64  C   UNL     1      -5.593   6.198 -10.054  1.00  0.00     0.173 A 
ATOM     65  F   UNL     1      -4.893   2.642 -10.365  1.00  0.00    -0.203 F 
ATOM     66  C   UNL     1      -4.075   4.467 -11.606  1.00  0.00     0.198 A 
ATOM     67  C   UNL     1      -4.803   6.695 -11.088  1.00  0.00     0.198 A 
ATOM     68  F   UNL     1      -6.305   7.062  -9.315  1.00  0.00    -0.203 F 
ATOM     69  F   UNL     1      -3.315   3.634 -12.330  1.00  0.00    -0.200 F 
ATOM     70  C   UNL     1      -4.039   5.830 -11.857  1.00  0.00     0.200 A 
ATOM     71  F   UNL     1      -4.776   8.012 -11.335  1.00  0.00    -0.200 F 
ATOM     72  F   UNL     1      -3.261   6.313 -12.836  1.00  0.00    -0.200 F 
ENDBRANCH  48  62
BRANCH  49  73
ATOM     73  C   UNL     1     -11.048   1.316  -2.145  1.00  0.00     0.064 A 
ATOM     74  C   UNL     1     -11.841   0.168  -2.284  1.00  0.00     0.173 A 
ATOM     75  C   UNL     1     -11.066   1.975  -0.907  1.00  0.00     0.173 A 
ATOM     76  F   UNL     1     -11.876  -0.482  -3.456  1.00  0.00    -0.203 F 
ATOM     77  C   UNL     1     -12.636  -0.289  -1.235  1.00  0.00     0.198 A 
ATOM     78  C   UNL     1     -11.839   1.501   0.150  1.00  0.00     0.198 A 
ATOM     79  F   UNL     1     -10.325   3.078  -0.722  1.00  0.00    -0.203 F 
ATOM     80  F   UNL     1     -13.421  -1.360  -1.410  1.00  0.00    -0.200 F 
ATOM     81  C   UNL     1     -12.630   0.375  -0.017  1.00  0.00     0.200 A 
ATOM     82  F   UNL     1     -11.822   2.139   1.329  1.00  0.00    -0.200 F 
ATOM     83  F   UNL     1     -13.394  -0.066   0.992  1.00  0.00    -0.200 F 
ENDBRANCH  49  73
BRANCH  61  84
ATOM     84  C   UNL     1     -12.680   4.066  -8.331  1.00  0.00     0.064 A 
ATOM     85  C   UNL     1     -13.544   5.080  -7.893  1.00  0.00     0.173 A 
ATOM     86  C   UNL     1     -13.072   3.302  -9.441  1.00  0.00     0.173 A 
ATOM     87  F   UNL     1     -13.220   5.830  -6.829  1.00  0.00    -0.203 F 
ATOM     88  C   UNL     1     -14.769   5.296  -8.518  1.00  0.00     0.198 A 
ATOM     89  C   UNL     1     -14.284   3.541 -10.082  1.00  0.00     0.198 A 
ATOM     90  F   UNL     1     -12.278   2.326  -9.906  1.00  0.00    -0.203 F 
ATOM     91  F   UNL     1     -15.604   6.231  -8.045  1.00  0.00    -0.200 F 
ATOM     92  C   UNL     1     -15.136   4.529  -9.614  1.00  0.00     0.200 A 
ATOM     93  F   UNL     1     -14.632   2.809 -11.150  1.00  0.00    -0.200 F 
ATOM     94  F   UNL     1     -16.317   4.737 -10.213  1.00  0.00    -0.200 F 
ENDBRANCH  61  84
ENDBRANCH  35  36
ENDBRANCH  28  30
ENDBRANCH  27  28
ENDBRANCH  26  27
ENDBRANCH  25  26
ENDBRANCH  24  25
ENDBRANCH  23  24
ENDBRANCH   1  23
TORSDOF 20
