REMARK SMILES O=C(OCCOCCOC(=O)[C@H](c1ccccc1)N1C(=O)/C(=C/c2ccc(-c3nc4ccccc4s3)o2)SC1=S)c1ccc(-c2c3nc(c(-c4c(F)c(F)c(F)c(F)c4F)c4ccc([nH]4)c(-c4c(F)c(F)c(F)c(F)c4F)c4nc(c(-c5c(F)c(F)c(F)c(F)c5F)c5ccc2[nH]5)C=C4)C=C3)cc1
REMARK SMILES IDX 7 1 6 2 5 3 4 4 3 5 2 6 1 7 41 8 42 9 103 10 43 11 102 12
REMARK SMILES IDX 44 13 45 14 46 15 96 16 47 17 101 18 95 19 97 20 48 21
REMARK SMILES IDX 100 22 94 23 93 24 49 26 81 27 61 28 80 29 62 30 65 31 79 32
REMARK SMILES IDX 98 33 63 34 64 35 78 37 99 38 66 39 50 40 51 41 59 42 52 43
REMARK SMILES IDX 53 44 57 45 60 46 54 47 55 48 58 49 56 50 82 51 83 52 91 53
REMARK SMILES IDX 84 54 85 55 89 56 92 57 86 58 87 59 90 60 88 61 67 62 68 63
REMARK SMILES IDX 76 64 69 65 70 66 74 67 77 68 71 69 72 70 75 71 73 72 8 73
REMARK SMILES IDX 9 74 10 75 11 76 12 77 19 78 20 79 39 80 21 81 22 82 38 83
REMARK SMILES IDX 40 84 23 85 24 86 25 87 37 88 26 89 27 90 28 91 29 92 36 93
REMARK SMILES IDX 30 94 35 95 31 96 34 97 32 98 33 99 13 100 14 101 18 102
REMARK SMILES IDX 15 103 17 104 16 105
REMARK H PARENT 97 25 65 36
REMARK Flexibility Score: inf
ROOT
ATOM      1  C   UNL     1       3.710   2.547   2.510  1.00  0.00     0.202 C 
ENDROOT
BRANCH   1   2
ATOM      2  O   UNL     1       2.802   1.506   2.859  1.00  0.00    -0.374 OA
BRANCH   2   3
ATOM      3  C   UNL     1       2.868   0.340   2.051  1.00  0.00     0.202 C 
BRANCH   3   4
ATOM      4  C   UNL     1       2.029   0.269   0.778  1.00  0.00     0.261 C 
BRANCH   4   5
ATOM      5  O   UNL     1       1.918   1.536   0.104  1.00  0.00    -0.460 OA
BRANCH   5   6
ATOM      6  C   UNL     1       0.754   2.236   0.061  1.00  0.00     0.338 C 
ATOM      7  O   UNL     1       0.565   3.150  -0.735  1.00  0.00    -0.246 OA
BRANCH   6   8
ATOM      8  C   UNL     1      -0.295   1.845   1.017  1.00  0.00     0.060 A 
ATOM      9  C   UNL     1       0.033   1.777   2.363  1.00  0.00     0.016 A 
ATOM     10  C   UNL     1      -1.579   1.512   0.607  1.00  0.00     0.016 A 
ATOM     11  C   UNL     1      -0.779   1.130   3.262  1.00  0.00     0.010 A 
ATOM     12  C   UNL     1      -2.512   1.144   1.581  1.00  0.00     0.010 A 
ATOM     13  C   UNL     1      -2.111   0.968   2.921  1.00  0.00    -0.014 A 
BRANCH  13  14
ATOM     14  C   UNL     1      -3.088   0.789   4.017  1.00  0.00     0.031 A 
ATOM     15  C   UNL     1      -4.062  -0.336   3.949  1.00  0.00     0.074 A 
ATOM     16  C   UNL     1      -3.103   1.687   5.029  1.00  0.00     0.049 A 
ATOM     17  N   UNL     1      -5.185  -0.488   4.592  1.00  0.00    -0.248 NA
ATOM     18  C   UNL     1      -3.747  -1.426   3.010  1.00  0.00     0.031 C 
ATOM     19  C   UNL     1      -2.137   2.780   5.225  1.00  0.00     0.029 A 
ATOM     20  N   UNL     1      -3.963   1.839   6.085  1.00  0.00    -0.354 N 
ATOM     21  C   UNL     1      -5.753  -1.644   4.078  1.00  0.00     0.074 A 
ATOM     22  C   UNL     1      -4.840  -2.171   3.088  1.00  0.00     0.031 C 
ATOM     23  C   UNL     1      -2.433   3.456   6.340  1.00  0.00     0.029 A 
ATOM     24  C   UNL     1      -3.694   2.955   6.847  1.00  0.00     0.049 A 
ATOM     25  H   UNL     1      -4.699   1.215   6.280  1.00  0.00     0.167 HD
ATOM     26  C   UNL     1      -6.952  -2.176   4.402  1.00  0.00     0.037 A 
ATOM     27  C   UNL     1      -4.434   3.574   7.782  1.00  0.00     0.037 A 
ATOM     28  C   UNL     1      -7.802  -1.621   5.422  1.00  0.00     0.049 A 
ATOM     29  C   UNL     1      -5.783   2.991   8.075  1.00  0.00     0.074 A 
ATOM     30  C   UNL     1      -9.030  -2.072   5.864  1.00  0.00     0.029 A 
ATOM     31  N   UNL     1      -7.498  -0.482   6.161  1.00  0.00    -0.354 N 
ATOM     32  N   UNL     1      -6.345   1.920   7.565  1.00  0.00    -0.248 NA
ATOM     33  C   UNL     1      -6.616   3.710   9.043  1.00  0.00     0.031 C 
ATOM     34  C   UNL     1      -9.496  -1.173   6.828  1.00  0.00     0.029 A 
ATOM     35  C   UNL     1      -8.533  -0.195   7.032  1.00  0.00     0.049 A 
ATOM     36  H   UNL     1      -6.669   0.041   6.077  1.00  0.00     0.167 HD
ATOM     37  C   UNL     1      -7.592   1.827   8.157  1.00  0.00     0.074 A 
ATOM     38  C   UNL     1      -7.692   2.937   9.086  1.00  0.00     0.031 C 
ATOM     39  C   UNL     1      -8.574   0.918   7.948  1.00  0.00     0.037 A 
BRANCH  26  40
ATOM     40  C   UNL     1      -7.437  -3.347   3.603  1.00  0.00     0.064 A 
ATOM     41  C   UNL     1      -6.858  -4.620   3.702  1.00  0.00     0.173 A 
ATOM     42  C   UNL     1      -8.515  -3.186   2.717  1.00  0.00     0.173 A 
ATOM     43  F   UNL     1      -5.808  -4.823   4.513  1.00  0.00    -0.203 F 
ATOM     44  C   UNL     1      -7.324  -5.681   2.929  1.00  0.00     0.198 A 
ATOM     45  C   UNL     1      -8.997  -4.256   1.968  1.00  0.00     0.198 A 
ATOM     46  F   UNL     1      -9.101  -1.988   2.576  1.00  0.00    -0.203 F 
ATOM     47  F   UNL     1      -6.720  -6.876   3.001  1.00  0.00    -0.200 F 
ATOM     48  C   UNL     1      -8.397  -5.501   2.069  1.00  0.00     0.200 A 
ATOM     49  F   UNL     1     -10.037  -4.078   1.141  1.00  0.00    -0.200 F 
ATOM     50  F   UNL     1      -8.845  -6.524   1.328  1.00  0.00    -0.200 F 
ENDBRANCH  26  40
BRANCH  27  51
ATOM     51  C   UNL     1      -3.969   4.843   8.410  1.00  0.00     0.064 A 
ATOM     52  C   UNL     1      -3.724   4.918   9.787  1.00  0.00     0.173 A 
ATOM     53  C   UNL     1      -3.776   6.013   7.655  1.00  0.00     0.173 A 
ATOM     54  F   UNL     1      -3.905   3.836  10.558  1.00  0.00    -0.203 F 
ATOM     55  C   UNL     1      -3.338   6.116  10.388  1.00  0.00     0.198 A 
ATOM     56  C   UNL     1      -3.350   7.200   8.250  1.00  0.00     0.198 A 
ATOM     57  F   UNL     1      -3.987   6.005   6.330  1.00  0.00    -0.203 F 
ATOM     58  F   UNL     1      -3.175   6.173  11.717  1.00  0.00    -0.200 F 
ATOM     59  C   UNL     1      -3.147   7.254   9.619  1.00  0.00     0.200 A 
ATOM     60  F   UNL     1      -3.146   8.290   7.498  1.00  0.00    -0.200 F 
ATOM     61  F   UNL     1      -2.781   8.406  10.199  1.00  0.00    -0.200 F 
ENDBRANCH  27  51
BRANCH  39  62
ATOM     62  C   UNL     1      -9.817   1.078   8.765  1.00  0.00     0.064 A 
ATOM     63  C   UNL     1     -10.740   2.099   8.498  1.00  0.00     0.173 A 
ATOM     64  C   UNL     1     -10.114   0.158   9.779  1.00  0.00     0.173 A 
ATOM     65  F   UNL     1     -10.482   3.015   7.553  1.00  0.00    -0.203 F 
ATOM     66  C   UNL     1     -11.918   2.197   9.229  1.00  0.00     0.198 A 
ATOM     67  C   UNL     1     -11.309   0.238  10.483  1.00  0.00     0.198 A 
ATOM     68  F   UNL     1      -9.258  -0.835  10.065  1.00  0.00    -0.203 F 
ATOM     69  F   UNL     1     -12.771   3.201   8.988  1.00  0.00    -0.200 F 
ATOM     70  C   UNL     1     -12.208   1.259  10.210  1.00  0.00     0.200 A 
ATOM     71  F   UNL     1     -11.596  -0.678  11.418  1.00  0.00    -0.200 F 
ATOM     72  F   UNL     1     -13.356   1.341  10.897  1.00  0.00    -0.200 F 
ENDBRANCH  39  62
ENDBRANCH  13  14
ENDBRANCH   6   8
ENDBRANCH   5   6
ENDBRANCH   4   5
ENDBRANCH   3   4
ENDBRANCH   2   3
ENDBRANCH   1   2
BRANCH   1  73
ATOM     73  C   UNL     1       5.042   2.384   3.247  1.00  0.00     0.261 C 
BRANCH  73  74
ATOM     74  O   UNL     1       5.501   1.026   3.085  1.00  0.00    -0.461 OA
BRANCH  74  75
ATOM     75  C   UNL     1       5.825   0.369   4.227  1.00  0.00     0.334 C 
ATOM     76  O   UNL     1       6.240   0.933   5.237  1.00  0.00    -0.249 OA
BRANCH  75  77
ATOM     77  C   UNL     1       5.627  -1.157   4.150  1.00  0.00     0.232 C 
BRANCH  77  78
ATOM     78  N   UNL     1       5.034  -1.717   5.383  1.00  0.00    -0.274 N 
ATOM     79  C   UNL     1       5.449  -2.998   5.709  1.00  0.00     0.267 C 
ATOM     80  C   UNL     1       3.970  -1.223   6.116  1.00  0.00     0.149 C 
ATOM     81  O   UNL     1       6.316  -3.645   5.137  1.00  0.00    -0.268 OA
ATOM     82  C   UNL     1       4.613  -3.551   6.794  1.00  0.00     0.084 C 
ATOM     83  S   UNL     1       3.575  -2.341   7.412  1.00  0.00    -0.054 SA
ATOM     84  S   UNL     1       3.061   0.160   5.935  1.00  0.00    -0.052 S 
ATOM     85  C   UNL     1       4.712  -4.837   7.141  1.00  0.00     0.068 C 
BRANCH  85  86
ATOM     86  C   UNL     1       3.955  -5.405   8.192  1.00  0.00     0.129 A 
ATOM     87  C   UNL     1       2.586  -5.403   8.424  1.00  0.00     0.051 A 
ATOM     88  O   UNL     1       4.558  -6.079   9.221  1.00  0.00    -0.454 OA
ATOM     89  C   UNL     1       2.368  -6.058   9.652  1.00  0.00     0.054 A 
ATOM     90  C   UNL     1       3.605  -6.455  10.121  1.00  0.00     0.163 A 
BRANCH  90  91
ATOM     91  C   UNL     1       3.877  -7.136  11.348  1.00  0.00     0.160 A 
ATOM     92  N   UNL     1       2.946  -7.846  11.942  1.00  0.00    -0.233 NA
ATOM     93  S   UNL     1       5.375  -7.014  12.165  1.00  0.00    -0.111 S 
ATOM     94  C   UNL     1       3.413  -8.296  13.156  1.00  0.00     0.082 A 
ATOM     95  C   UNL     1       4.717  -7.914  13.480  1.00  0.00     0.055 A 
ATOM     96  C   UNL     1       2.675  -9.068  14.070  1.00  0.00     0.030 A 
ATOM     97  C   UNL     1       5.300  -8.258  14.710  1.00  0.00     0.021 A 
ATOM     98  C   UNL     1       3.243  -9.414  15.297  1.00  0.00     0.002 A 
ATOM     99  C   UNL     1       4.536  -9.005  15.614  1.00  0.00     0.002 A 
ENDBRANCH  90  91
ENDBRANCH  85  86
ENDBRANCH  77  78
BRANCH  77 100
ATOM    100  C   UNL     1       5.063  -1.811   2.872  1.00  0.00    -0.014 A 
ATOM    101  C   UNL     1       3.879  -2.583   2.859  1.00  0.00     0.006 A 
ATOM    102  C   UNL     1       5.785  -1.720   1.667  1.00  0.00     0.006 A 
ATOM    103  C   UNL     1       3.421  -3.199   1.689  1.00  0.00     0.000 A 
ATOM    104  C   UNL     1       5.326  -2.340   0.498  1.00  0.00     0.000 A 
ATOM    105  C   UNL     1       4.144  -3.076   0.508  1.00  0.00     0.000 A 
ENDBRANCH  77 100
ENDBRANCH  75  77
ENDBRANCH  74  75
ENDBRANCH  73  74
ENDBRANCH   1  73
TORSDOF 18
