REMARK SMILES CC(=O)c1c(C)nn(CC(=O)N2CCC[C@H](c3cccc(C(=O)OCCOCCOC(=O)c4ccc(-c5c6nc(c(-c7c(F)c(F)c(F)c(F)c7F)c7ccc([nH]7)c(-c7c(F)c(F)c(F)c(F)c7F)c7nc(c(-c8c(F)c(F)c(F)c(F)c8F)c8ccc5[nH]8)C=C7)C=C6)cc4)c3)C2)c1C
REMARK SMILES IDX 25 1 24 2 22 3 23 4 21 5 17 6 18 7 96 8 19 9 20 10 16 11
REMARK SMILES IDX 12 12 13 13 97 14 14 15 15 16 10 17 11 18 9 19 8 20 4 21
REMARK SMILES IDX 5 22 98 23 6 24 7 25 99 26 2 27 1 28 3 29 26 30 27 31 28 32
REMARK SMILES IDX 29 33 30 34 31 35 32 36 33 37 34 38 95 39 35 40 94 41 36 42
REMARK SMILES IDX 37 43 38 44 88 45 39 46 93 47 87 48 89 49 40 50 92 51 86 52
REMARK SMILES IDX 85 53 41 55 73 56 53 57 72 58 54 59 57 60 71 61 90 62 55 63
REMARK SMILES IDX 56 64 70 66 91 67 58 68 42 69 43 70 51 71 44 72 45 73 49 74
REMARK SMILES IDX 52 75 46 76 47 77 50 78 48 79 74 80 75 81 83 82 76 83 77 84
REMARK SMILES IDX 81 85 84 86 78 87 79 88 82 89 80 90 59 91 60 92 68 93 61 94
REMARK SMILES IDX 62 95 66 96 69 97 63 98 64 99 67 100 65 101
REMARK H PARENT 89 54 57 65
REMARK Flexibility Score: inf
ROOT
ATOM      1  C   UNL     1      -1.320  -4.472  11.875  1.00  0.00     0.261 C 
ENDROOT
BRANCH   1   2
ATOM      2  O   UNL     1      -0.572  -4.131  10.700  1.00  0.00    -0.460 OA
BRANCH   2   3
ATOM      3  C   UNL     1       0.017  -5.190  10.089  1.00  0.00     0.338 C 
ATOM      4  O   UNL     1       0.065  -6.339  10.489  1.00  0.00    -0.246 OA
BRANCH   3   5
ATOM      5  C   UNL     1       0.406  -4.800   8.720  1.00  0.00     0.060 A 
ATOM      6  C   UNL     1       1.445  -3.277   7.134  1.00  0.00    -0.042 A 
ATOM      7  C   UNL     1       1.077  -4.184   6.132  1.00  0.00     0.004 A 
ATOM      8  C   UNL     1       1.030  -3.576   8.441  1.00  0.00     0.019 A 
ATOM      9  C   UNL     1       0.417  -5.382   6.394  1.00  0.00     0.001 A 
ATOM     10  C   UNL     1       0.107  -5.707   7.699  1.00  0.00     0.016 A 
BRANCH   6  11
ATOM     11  C   UNL     1       2.293  -2.034   6.833  1.00  0.00     0.039 C 
ATOM     12  N   UNL     1       3.968  -2.993   5.214  1.00  0.00    -0.340 N 
ATOM     13  C   UNL     1       5.032  -2.965   6.227  1.00  0.00     0.119 C 
ATOM     14  C   UNL     1       2.930  -1.966   5.409  1.00  0.00     0.127 C 
ATOM     15  C   UNL     1       4.492  -2.973   7.654  1.00  0.00     0.022 C 
ATOM     16  C   UNL     1       3.448  -1.872   7.847  1.00  0.00     0.012 C 
BRANCH  12  17
ATOM     17  C   UNL     1       3.946  -4.061   4.326  1.00  0.00     0.244 C 
ATOM     18  O   UNL     1       4.597  -5.084   4.599  1.00  0.00    -0.273 OA
BRANCH  17  19
ATOM     19  C   UNL     1       3.367  -4.006   2.917  1.00  0.00     0.244 C 
BRANCH  19  20
ATOM     20  N   UNL     1       2.212  -3.179   2.619  1.00  0.00    -0.259 N 
ATOM     21  C   UNL     1       0.844  -1.587   1.947  1.00  0.00     0.061 A 
ATOM     22  C   UNL     1       0.155  -2.654   2.581  1.00  0.00     0.070 A 
ATOM     23  C   UNL     1       2.186  -1.950   1.998  1.00  0.00     0.047 A 
ATOM     24  C   UNL     1      -1.284  -2.773   2.933  1.00  0.00     0.069 C 
ATOM     25  N   UNL     1       0.982  -3.666   2.859  1.00  0.00    -0.177 NA
ATOM     26  C   UNL     1       3.427  -1.234   1.607  1.00  0.00     0.067 C 
BRANCH  21  27
ATOM     27  C   UNL     1       0.261  -0.366   1.414  1.00  0.00     0.163 C 
ATOM     28  C   UNL     1       0.626   0.035   0.006  1.00  0.00     0.093 C 
ATOM     29  O   UNL     1      -0.563   0.280   2.059  1.00  0.00    -0.294 OA
ENDBRANCH  21  27
ENDBRANCH  19  20
ENDBRANCH  17  19
ENDBRANCH  12  17
ENDBRANCH   6  11
ENDBRANCH   3   5
ENDBRANCH   2   3
ENDBRANCH   1   2
BRANCH   1  30
ATOM     30  C   UNL     1      -2.826  -4.295  11.668  1.00  0.00     0.202 C 
BRANCH  30  31
ATOM     31  O   UNL     1      -3.491  -5.119  10.711  1.00  0.00    -0.374 OA
BRANCH  31  32
ATOM     32  C   UNL     1      -3.235  -4.955   9.321  1.00  0.00     0.202 C 
BRANCH  32  33
ATOM     33  C   UNL     1      -3.766  -3.713   8.621  1.00  0.00     0.261 C 
BRANCH  33  34
ATOM     34  O   UNL     1      -3.245  -2.520   9.185  1.00  0.00    -0.460 OA
BRANCH  34  35
ATOM     35  C   UNL     1      -4.102  -1.903  10.030  1.00  0.00     0.338 C 
ATOM     36  O   UNL     1      -5.116  -2.359  10.523  1.00  0.00    -0.246 OA
BRANCH  35  37
ATOM     37  C   UNL     1      -3.717  -0.492  10.121  1.00  0.00     0.060 A 
ATOM     38  C   UNL     1      -4.648   0.330  10.754  1.00  0.00     0.016 A 
ATOM     39  C   UNL     1      -2.710   0.015   9.285  1.00  0.00     0.016 A 
ATOM     40  C   UNL     1      -4.755   1.623  10.311  1.00  0.00     0.010 A 
ATOM     41  C   UNL     1      -2.819   1.310   8.844  1.00  0.00     0.010 A 
ATOM     42  C   UNL     1      -3.906   2.056   9.283  1.00  0.00    -0.014 A 
BRANCH  42  43
ATOM     43  C   UNL     1      -4.116   3.391   8.775  1.00  0.00     0.031 A 
ATOM     44  C   UNL     1      -3.778   4.407   9.790  1.00  0.00     0.074 A 
ATOM     45  C   UNL     1      -4.539   3.650   7.525  1.00  0.00     0.049 A 
ATOM     46  N   UNL     1      -4.604   5.156  10.438  1.00  0.00    -0.248 NA
ATOM     47  C   UNL     1      -2.402   4.427  10.312  1.00  0.00     0.031 C 
ATOM     48  C   UNL     1      -4.691   2.738   6.391  1.00  0.00     0.029 A 
ATOM     49  N   UNL     1      -4.869   4.857   6.990  1.00  0.00    -0.354 N 
ATOM     50  C   UNL     1      -3.823   5.893  11.318  1.00  0.00     0.074 A 
ATOM     51  C   UNL     1      -2.527   5.270  11.336  1.00  0.00     0.031 C 
ATOM     52  C   UNL     1      -4.856   3.459   5.255  1.00  0.00     0.029 A 
ATOM     53  C   UNL     1      -4.962   4.865   5.603  1.00  0.00     0.049 A 
ATOM     54  H   UNL     1      -5.027   5.658   7.540  1.00  0.00     0.167 HD
ATOM     55  C   UNL     1      -4.241   7.115  11.739  1.00  0.00     0.037 A 
ATOM     56  C   UNL     1      -5.039   5.981   4.831  1.00  0.00     0.037 A 
ATOM     57  C   UNL     1      -5.667   7.257  11.568  1.00  0.00     0.049 A 
ATOM     58  C   UNL     1      -5.521   7.086   5.707  1.00  0.00     0.074 A 
ATOM     59  C   UNL     1      -6.769   6.598  12.079  1.00  0.00     0.029 A 
ATOM     60  N   UNL     1      -6.115   7.930  10.458  1.00  0.00    -0.354 N 
ATOM     61  N   UNL     1      -6.726   7.129   6.205  1.00  0.00    -0.248 NA
ATOM     62  C   UNL     1      -4.517   7.855   6.430  1.00  0.00     0.031 C 
ATOM     63  C   UNL     1      -7.691   6.520  10.993  1.00  0.00     0.029 A 
ATOM     64  C   UNL     1      -7.137   7.200   9.908  1.00  0.00     0.049 A 
ATOM     65  H   UNL     1      -5.765   8.785  10.117  1.00  0.00     0.167 HD
ATOM     66  C   UNL     1      -6.550   7.547   7.516  1.00  0.00     0.074 A 
ATOM     67  C   UNL     1      -5.173   8.034   7.581  1.00  0.00     0.031 C 
ATOM     68  C   UNL     1      -7.429   7.182   8.495  1.00  0.00     0.037 A 
BRANCH  55  69
ATOM     69  C   UNL     1      -3.317   8.297  11.880  1.00  0.00     0.064 A 
ATOM     70  C   UNL     1      -3.843   9.507  12.370  1.00  0.00     0.173 A 
ATOM     71  C   UNL     1      -2.046   8.390  11.268  1.00  0.00     0.173 A 
ATOM     72  F   UNL     1      -5.046   9.539  12.963  1.00  0.00    -0.203 F 
ATOM     73  C   UNL     1      -3.194  10.727  12.168  1.00  0.00     0.198 A 
ATOM     74  C   UNL     1      -1.378   9.601  11.116  1.00  0.00     0.198 A 
ATOM     75  F   UNL     1      -1.443   7.346  10.690  1.00  0.00    -0.203 F 
ATOM     76  F   UNL     1      -3.799  11.867  12.527  1.00  0.00    -0.200 F 
ATOM     77  C   UNL     1      -1.968  10.774  11.531  1.00  0.00     0.200 A 
ATOM     78  F   UNL     1      -0.198   9.625  10.480  1.00  0.00    -0.200 F 
ATOM     79  F   UNL     1      -1.377  11.947  11.273  1.00  0.00    -0.200 F 
ENDBRANCH  55  69
BRANCH  56  80
ATOM     80  C   UNL     1      -4.375   6.240   3.529  1.00  0.00     0.064 A 
ATOM     81  C   UNL     1      -4.737   7.343   2.735  1.00  0.00     0.173 A 
ATOM     82  C   UNL     1      -3.178   5.586   3.177  1.00  0.00     0.173 A 
ATOM     83  F   UNL     1      -5.832   8.057   3.032  1.00  0.00    -0.203 F 
ATOM     84  C   UNL     1      -3.937   7.777   1.670  1.00  0.00     0.198 A 
ATOM     85  C   UNL     1      -2.384   6.017   2.113  1.00  0.00     0.198 A 
ATOM     86  F   UNL     1      -2.701   4.580   3.922  1.00  0.00    -0.203 F 
ATOM     87  F   UNL     1      -4.281   8.871   0.976  1.00  0.00    -0.200 F 
ATOM     88  C   UNL     1      -2.756   7.120   1.367  1.00  0.00     0.200 A 
ATOM     89  F   UNL     1      -1.221   5.400   1.858  1.00  0.00    -0.200 F 
ATOM     90  F   UNL     1      -1.957   7.573   0.391  1.00  0.00    -0.200 F 
ENDBRANCH  56  80
BRANCH  68  91
ATOM     91  C   UNL     1      -8.711   6.521   8.074  1.00  0.00     0.064 A 
ATOM     92  C   UNL     1      -8.782   5.277   7.420  1.00  0.00     0.173 A 
ATOM     93  C   UNL     1      -9.918   7.104   8.479  1.00  0.00     0.173 A 
ATOM     94  F   UNL     1      -7.670   4.607   7.090  1.00  0.00    -0.203 F 
ATOM     95  C   UNL     1     -10.010   4.672   7.149  1.00  0.00     0.198 A 
ATOM     96  C   UNL     1     -11.139   6.480   8.242  1.00  0.00     0.198 A 
ATOM     97  F   UNL     1      -9.909   8.263   9.156  1.00  0.00    -0.203 F 
ATOM     98  F   UNL     1     -10.053   3.491   6.514  1.00  0.00    -0.200 F 
ATOM     99  C   UNL     1     -11.186   5.271   7.567  1.00  0.00     0.200 A 
ATOM    100  F   UNL     1     -12.270   7.040   8.693  1.00  0.00    -0.200 F 
ATOM    101  F   UNL     1     -12.364   4.672   7.344  1.00  0.00    -0.200 F 
ENDBRANCH  68  91
ENDBRANCH  42  43
ENDBRANCH  35  37
ENDBRANCH  34  35
ENDBRANCH  33  34
ENDBRANCH  32  33
ENDBRANCH  31  32
ENDBRANCH  30  31
ENDBRANCH   1  30
TORSDOF 19
