REMARK SMILES CC(=O)O[C@@H]1CC[C@@]23C(=O)O[C@]4(CC[C@]2(O)C1)[C@H]3CC[C@]1(C)[C@H](C(=O)OCCOCCOC(=O)c2ccc(-c3c5nc(c(-c6c(F)c(F)c(F)c(F)c6F)c6ccc([nH]6)c(-c6c(F)c(F)c(F)c(F)c6F)c6nc(c(-c7c(F)c(F)c(F)c(F)c7F)c7ccc3[nH]7)C=C6)C=C5)cc2)CC[C@@H]14
REMARK SMILES IDX 29 1 28 2 27 3 26 4 24 5 25 6 23 7 5 8 6 9 17 10 7 11 15 12
REMARK SMILES IDX 8 13 14 14 9 15 18 16 13 17 10 18 11 19 12 20 19 21 100 22
REMARK SMILES IDX 20 23 21 24 99 25 22 26 98 27 4 28 2 29 1 30 3 31 16 32
REMARK SMILES IDX 30 34 31 35 32 36 33 37 34 38 35 39 36 40 97 41 37 42 96 43
REMARK SMILES IDX 38 44 39 45 40 46 90 47 41 48 95 49 89 50 91 51 42 52 94 53
REMARK SMILES IDX 88 54 87 55 43 57 75 58 55 59 74 60 56 61 59 62 73 63 92 64
REMARK SMILES IDX 57 65 58 66 72 68 93 69 60 70 44 71 45 72 53 73 46 74 47 75
REMARK SMILES IDX 51 76 54 77 48 78 49 79 52 80 50 81 76 82 77 83 85 84 78 85
REMARK SMILES IDX 79 86 83 87 86 88 80 89 81 90 84 91 82 92 61 93 62 94 70 95
REMARK SMILES IDX 63 96 64 97 68 98 71 99 65 100 66 101 69 102 67 103
REMARK H PARENT 16 33 91 56 59 67
REMARK Flexibility Score: inf
ROOT
ATOM      1  O   UNL     1      -3.099   9.890   9.196  1.00  0.00    -0.374 OA
ENDROOT
BRANCH   1   2
ATOM      2  C   UNL     1      -3.825  10.140   7.997  1.00  0.00     0.202 C 
BRANCH   2   3
ATOM      3  C   UNL     1      -3.172   9.803   6.653  1.00  0.00     0.261 C 
BRANCH   3   4
ATOM      4  O   UNL     1      -2.597   8.488   6.626  1.00  0.00    -0.463 OA
BRANCH   4   5
ATOM      5  C   UNL     1      -1.245   8.463   6.548  1.00  0.00     0.309 C 
ATOM      6  O   UNL     1      -0.544   9.468   6.460  1.00  0.00    -0.252 OA
BRANCH   5   7
ATOM      7  C   UNL     1      -0.619   7.083   6.715  1.00  0.00     0.105 C 
ATOM      8  C   UNL     1      -0.449   2.977  -0.111  1.00  0.00     0.179 C 
ATOM      9  C   UNL     1      -0.109   4.354   0.410  1.00  0.00     0.047 C 
ATOM     10  C   UNL     1      -1.720   2.450   0.557  1.00  0.00     0.081 C 
ATOM     11  C   UNL     1      -0.144   4.372   1.925  1.00  0.00     0.026 C 
ATOM     12  C   UNL     1      -1.832   2.588   2.094  1.00  0.00     0.085 C 
ATOM     13  C   UNL     1      -1.728   3.971   2.607  1.00  0.00     0.103 C 
ATOM     14  C   UNL     1      -0.692   1.898   2.992  1.00  0.00     0.041 C 
ATOM     15  C   UNL     1      -1.929   5.383   2.812  1.00  0.00     0.316 C 
ATOM     16  C   UNL     1      -2.124   3.755   4.278  1.00  0.00     0.054 C 
ATOM     17  C   UNL     1      -0.039   2.851   4.207  1.00  0.00     0.052 C 
ATOM     18  O   UNL     1      -2.516   6.241   2.199  1.00  0.00    -0.251 OA
ATOM     19  O   UNL     1      -0.982   5.516   3.851  1.00  0.00    -0.458 OA
ATOM     20  C   UNL     1      -0.798   4.236   4.612  1.00  0.00     0.120 C 
ATOM     21  C   UNL     1      -3.215   4.499   5.093  1.00  0.00     0.009 C 
ATOM     22  C   UNL     1      -0.368   4.722   5.971  1.00  0.00     0.040 C 
ATOM     23  C   UNL     1      -2.772   5.745   5.908  1.00  0.00     0.008 C 
ATOM     24  C   UNL     1      -1.387   5.702   6.637  1.00  0.00    -0.013 C 
ATOM     25  C   UNL     1       0.938   5.533   5.789  1.00  0.00     0.009 C 
ATOM     26  C   UNL     1      -1.565   5.175   8.081  1.00  0.00     0.013 C 
ATOM     27  C   UNL     1       0.507   6.982   5.689  1.00  0.00     0.016 C 
BRANCH   8  28
ATOM     28  O   UNL     1       0.625   2.065   0.187  1.00  0.00    -0.462 OA
BRANCH  28  29
ATOM     29  C   UNL     1       0.788   1.047  -0.703  1.00  0.00     0.302 C 
ATOM     30  C   UNL     1       1.490  -0.104  -0.050  1.00  0.00     0.139 C 
ATOM     31  O   UNL     1       0.362   1.030  -1.848  1.00  0.00    -0.253 OA
ENDBRANCH  28  29
ENDBRANCH   8  28
BRANCH  12  32
ATOM     32  O   UNL     1      -3.096   2.012   2.444  1.00  0.00    -0.389 OA
ATOM     33  H   UNL     1      -3.223   2.071   3.404  1.00  0.00     0.211 HD
ENDBRANCH  12  32
ENDBRANCH   5   7
ENDBRANCH   4   5
ENDBRANCH   3   4
ENDBRANCH   2   3
ENDBRANCH   1   2
BRANCH   1  34
ATOM     34  C   UNL     1      -2.806   8.542   9.554  1.00  0.00     0.202 C 
BRANCH  34  35
ATOM     35  C   UNL     1      -3.968   7.594   9.885  1.00  0.00     0.261 C 
BRANCH  35  36
ATOM     36  O   UNL     1      -4.900   7.427   8.805  1.00  0.00    -0.460 OA
BRANCH  36  37
ATOM     37  C   UNL     1      -6.139   7.904   9.074  1.00  0.00     0.338 C 
ATOM     38  O   UNL     1      -6.537   8.392  10.118  1.00  0.00    -0.246 OA
BRANCH  37  39
ATOM     39  C   UNL     1      -6.955   7.930   7.851  1.00  0.00     0.060 A 
ATOM     40  C   UNL     1      -7.486   9.167   7.463  1.00  0.00     0.016 A 
ATOM     41  C   UNL     1      -7.302   6.757   7.180  1.00  0.00     0.016 A 
ATOM     42  C   UNL     1      -8.420   9.228   6.437  1.00  0.00     0.010 A 
ATOM     43  C   UNL     1      -8.247   6.819   6.153  1.00  0.00     0.010 A 
ATOM     44  C   UNL     1      -8.841   8.048   5.811  1.00  0.00    -0.014 A 
BRANCH  44  45
ATOM     45  C   UNL     1     -10.018   8.096   4.916  1.00  0.00     0.031 A 
ATOM     46  C   UNL     1     -11.355   7.663   5.447  1.00  0.00     0.074 A 
ATOM     47  C   UNL     1      -9.898   8.567   3.664  1.00  0.00     0.049 A 
ATOM     48  N   UNL     1     -12.516   7.621   4.845  1.00  0.00    -0.248 NA
ATOM     49  C   UNL     1     -11.387   7.212   6.848  1.00  0.00     0.031 C 
ATOM     50  C   UNL     1      -8.656   9.045   3.062  1.00  0.00     0.029 A 
ATOM     51  N   UNL     1     -10.836   8.718   2.676  1.00  0.00    -0.354 N 
ATOM     52  C   UNL     1     -13.411   7.131   5.787  1.00  0.00     0.074 A 
ATOM     53  C   UNL     1     -12.655   6.858   6.990  1.00  0.00     0.031 C 
ATOM     54  C   UNL     1      -8.906   9.431   1.800  1.00  0.00     0.029 A 
ATOM     55  C   UNL     1     -10.318   9.196   1.500  1.00  0.00     0.049 A 
ATOM     56  H   UNL     1     -11.790   8.504   2.799  1.00  0.00     0.167 HD
ATOM     57  C   UNL     1     -14.745   6.937   5.659  1.00  0.00     0.037 A 
ATOM     58  C   UNL     1     -10.915   9.399   0.310  1.00  0.00     0.037 A 
ATOM     59  C   UNL     1     -15.486   7.216   4.457  1.00  0.00     0.049 A 
ATOM     60  C   UNL     1     -12.388   9.122   0.175  1.00  0.00     0.074 A 
ATOM     61  C   UNL     1     -16.844   7.087   4.228  1.00  0.00     0.029 A 
ATOM     62  N   UNL     1     -14.922   7.672   3.272  1.00  0.00    -0.354 N 
ATOM     63  N   UNL     1     -13.237   8.693   1.078  1.00  0.00    -0.248 NA
ATOM     64  C   UNL     1     -12.988   9.364  -1.144  1.00  0.00     0.031 C 
ATOM     65  C   UNL     1     -17.092   7.402   2.888  1.00  0.00     0.029 A 
ATOM     66  C   UNL     1     -15.901   7.794   2.298  1.00  0.00     0.049 A 
ATOM     67  H   UNL     1     -13.968   7.878   3.143  1.00  0.00     0.167 HD
ATOM     68  C   UNL     1     -14.473   8.636   0.447  1.00  0.00     0.074 A 
ATOM     69  C   UNL     1     -14.265   9.091  -0.913  1.00  0.00     0.031 C 
ATOM     70  C   UNL     1     -15.672   8.246   0.948  1.00  0.00     0.037 A 
BRANCH  57  71
ATOM     71  C   UNL     1     -15.478   6.361   6.838  1.00  0.00     0.064 A 
ATOM     72  C   UNL     1     -15.664   7.084   8.026  1.00  0.00     0.173 A 
ATOM     73  C   UNL     1     -16.014   5.065   6.771  1.00  0.00     0.173 A 
ATOM     74  F   UNL     1     -15.162   8.322   8.149  1.00  0.00    -0.203 F 
ATOM     75  C   UNL     1     -16.326   6.519   9.114  1.00  0.00     0.198 A 
ATOM     76  C   UNL     1     -16.704   4.516   7.849  1.00  0.00     0.198 A 
ATOM     77  F   UNL     1     -15.870   4.329   5.659  1.00  0.00    -0.203 F 
ATOM     78  F   UNL     1     -16.439   7.208  10.258  1.00  0.00    -0.200 F 
ATOM     79  C   UNL     1     -16.851   5.239   9.023  1.00  0.00     0.200 A 
ATOM     80  F   UNL     1     -17.222   3.284   7.753  1.00  0.00    -0.200 F 
ATOM     81  F   UNL     1     -17.489   4.698  10.069  1.00  0.00    -0.200 F 
ENDBRANCH  57  71
BRANCH  58  82
ATOM     82  C   UNL     1     -10.110   9.885  -0.840  1.00  0.00     0.064 A 
ATOM     83  C   UNL     1     -10.293  11.172  -1.362  1.00  0.00     0.173 A 
ATOM     84  C   UNL     1      -9.130   9.073  -1.431  1.00  0.00     0.173 A 
ATOM     85  F   UNL     1     -11.234  11.976  -0.846  1.00  0.00    -0.203 F 
ATOM     86  C   UNL     1      -9.533  11.626  -2.438  1.00  0.00     0.198 A 
ATOM     87  C   UNL     1      -8.350   9.539  -2.488  1.00  0.00     0.198 A 
ATOM     88  F   UNL     1      -8.917   7.832  -0.969  1.00  0.00    -0.203 F 
ATOM     89  F   UNL     1      -9.755  12.847  -2.944  1.00  0.00    -0.200 F 
ATOM     90  C   UNL     1      -8.557  10.812  -2.994  1.00  0.00     0.200 A 
ATOM     91  F   UNL     1      -7.400   8.754  -3.014  1.00  0.00    -0.200 F 
ATOM     92  F   UNL     1      -7.820  11.254  -4.023  1.00  0.00    -0.200 F 
ENDBRANCH  58  82
BRANCH  70  93
ATOM     93  C   UNL     1     -16.859   8.323   0.029  1.00  0.00     0.064 A 
ATOM     94  C   UNL     1     -17.016   7.442  -1.051  1.00  0.00     0.173 A 
ATOM     95  C   UNL     1     -17.875   9.263   0.261  1.00  0.00     0.173 A 
ATOM     96  F   UNL     1     -16.068   6.533  -1.324  1.00  0.00    -0.203 F 
ATOM     97  C   UNL     1     -18.131   7.519  -1.881  1.00  0.00     0.198 A 
ATOM     98  C   UNL     1     -19.005   9.315  -0.550  1.00  0.00     0.198 A 
ATOM     99  F   UNL     1     -17.780  10.124   1.286  1.00  0.00    -0.203 F 
ATOM    100  F   UNL     1     -18.234   6.701  -2.938  1.00  0.00    -0.200 F 
ATOM    101  C   UNL     1     -19.128   8.449  -1.626  1.00  0.00     0.200 A 
ATOM    102  F   UNL     1     -19.975  10.202  -0.290  1.00  0.00    -0.200 F 
ATOM    103  F   UNL     1     -20.204   8.515  -2.421  1.00  0.00    -0.200 F 
ENDBRANCH  70  93
ENDBRANCH  44  45
ENDBRANCH  37  39
ENDBRANCH  36  37
ENDBRANCH  35  36
ENDBRANCH  34  35
ENDBRANCH   1  34
TORSDOF 17
