REMARK SMILES Cc1cccc(C(=O)OCCOCCOC(=O)c2ccc(-c3c4nc(c(-c5c(F)c(F)c(F)c(F)c5F)c5ccc([nH]5)c(-c5c(F)c(F)c(F)c(F)c5F)c5nc(c(-c6c(F)c(F)c(F)c(F)c6F)c6ccc3[nH]6)C=C5)C=C4)cc2)c1NC(=O)N[C@H]1CCCC1(C)C
REMARK SMILES IDX 12 1 11 2 10 3 9 4 7 5 8 6 6 7 1 8 2 9 3 10 81 11 4 12 5 13
REMARK SMILES IDX 82 14 83 15 84 17 85 18 86 20 87 21 90 22 88 23 89 24 91 25
REMARK SMILES IDX 92 26 13 27 14 28 15 29 16 30 17 31 18 32 19 33 80 34 20 35
REMARK SMILES IDX 79 36 21 37 22 38 23 39 73 40 24 41 78 42 72 43 74 44 25 45
REMARK SMILES IDX 77 46 71 47 70 48 26 50 58 51 38 52 57 53 39 54 42 55 56 56
REMARK SMILES IDX 75 57 40 58 41 59 55 61 76 62 43 63 27 64 28 65 36 66 29 67
REMARK SMILES IDX 30 68 34 69 37 70 31 71 32 72 35 73 33 74 59 75 60 76 68 77
REMARK SMILES IDX 61 78 62 79 66 80 69 81 63 82 64 83 67 84 65 85 44 86 45 87
REMARK SMILES IDX 53 88 46 89 47 90 51 91 54 92 48 93 49 94 52 95 50 96
REMARK H PARENT 82 16 85 19 74 49 42 60
REMARK Flexibility Score: inf
ROOT
ATOM      1  O   UNL     1      -2.298   3.691  -1.685  1.00  0.00    -0.374 OA
ENDROOT
BRANCH   1   2
ATOM      2  C   UNL     1      -1.017   4.310  -1.862  1.00  0.00     0.202 C 
BRANCH   2   3
ATOM      3  C   UNL     1      -0.304   4.424  -0.510  1.00  0.00     0.261 C 
BRANCH   3   4
ATOM      4  O   UNL     1       0.465   3.277  -0.022  1.00  0.00    -0.460 OA
BRANCH   4   5
ATOM      5  C   UNL     1      -0.125   2.370   0.827  1.00  0.00     0.340 C 
ATOM      6  O   UNL     1      -1.205   2.620   1.342  1.00  0.00    -0.246 OA
BRANCH   5   7
ATOM      7  C   UNL     1       0.569   1.007   0.919  1.00  0.00     0.083 A 
ATOM      8  C   UNL     1       3.774  -0.349  -0.505  1.00  0.00     0.046 C 
ATOM      9  C   UNL     1       2.401  -0.351   0.080  1.00  0.00    -0.027 A 
ATOM     10  C   UNL     1       1.837  -1.517   0.572  1.00  0.00     0.005 A 
ATOM     11  C   UNL     1       1.546   0.757  -0.015  1.00  0.00     0.060 A 
ATOM     12  C   UNL     1       0.640  -1.428   1.257  1.00  0.00     0.001 A 
ATOM     13  C   UNL     1       0.101  -0.161   1.540  1.00  0.00     0.018 A 
BRANCH  11  14
ATOM     14  N   UNL     1       1.212   1.058  -1.337  1.00  0.00    -0.307 N 
ATOM     15  C   UNL     1      -0.009   1.220  -1.894  1.00  0.00     0.319 C 
ATOM     16  H   UNL     1       1.974   1.167  -1.950  1.00  0.00     0.171 HD
ATOM     17  O   UNL     1      -0.001   1.581  -3.079  1.00  0.00    -0.248 OA
ATOM     18  N   UNL     1      -1.197   1.281  -1.239  1.00  0.00    -0.335 N 
ATOM     19  H   UNL     1      -1.456   2.231  -1.246  1.00  0.00     0.165 HD
BRANCH  18  20
ATOM     20  C   UNL     1      -2.319   0.551  -0.495  1.00  0.00     0.089 C 
ATOM     21  C   UNL     1      -2.724  -0.715  -1.243  1.00  0.00     0.025 C 
ATOM     22  C   UNL     1      -3.178   0.553   0.951  1.00  0.00    -0.015 C 
ATOM     23  C   UNL     1      -3.711  -1.468  -0.373  1.00  0.00     0.003 C 
ATOM     24  C   UNL     1      -3.552  -0.949   1.039  1.00  0.00     0.008 C 
ATOM     25  C   UNL     1      -2.839   0.941   2.427  1.00  0.00     0.013 C 
ATOM     26  C   UNL     1      -4.490   1.385   0.745  1.00  0.00     0.013 C 
ENDBRANCH  18  20
ENDBRANCH  11  14
ENDBRANCH   5   7
ENDBRANCH   4   5
ENDBRANCH   3   4
ENDBRANCH   2   3
ENDBRANCH   1   2
BRANCH   1  27
ATOM     27  C   UNL     1      -3.114   3.424  -2.829  1.00  0.00     0.202 C 
BRANCH  27  28
ATOM     28  C   UNL     1      -3.051   4.411  -3.993  1.00  0.00     0.261 C 
BRANCH  28  29
ATOM     29  O   UNL     1      -3.908   5.553  -3.771  1.00  0.00    -0.460 OA
BRANCH  29  30
ATOM     30  C   UNL     1      -3.324   6.649  -3.212  1.00  0.00     0.338 C 
ATOM     31  O   UNL     1      -2.597   7.424  -3.806  1.00  0.00    -0.246 OA
BRANCH  30  32
ATOM     32  C   UNL     1      -3.586   6.687  -1.744  1.00  0.00     0.060 A 
ATOM     33  C   UNL     1      -2.762   7.435  -0.886  1.00  0.00     0.016 A 
ATOM     34  C   UNL     1      -4.466   5.763  -1.205  1.00  0.00     0.016 A 
ATOM     35  C   UNL     1      -2.691   7.117   0.485  1.00  0.00     0.010 A 
ATOM     36  C   UNL     1      -4.276   5.361   0.102  1.00  0.00     0.010 A 
ATOM     37  C   UNL     1      -3.377   6.008   0.972  1.00  0.00    -0.014 A 
BRANCH  37  38
ATOM     38  C   UNL     1      -3.238   5.392   2.314  1.00  0.00     0.031 A 
ATOM     39  C   UNL     1      -4.511   5.024   3.017  1.00  0.00     0.074 A 
ATOM     40  C   UNL     1      -2.060   4.920   2.817  1.00  0.00     0.049 A 
ATOM     41  N   UNL     1      -4.557   4.289   4.068  1.00  0.00    -0.248 NA
ATOM     42  C   UNL     1      -5.857   5.432   2.599  1.00  0.00     0.031 C 
ATOM     43  C   UNL     1      -1.892   3.835   3.800  1.00  0.00     0.029 A 
ATOM     44  N   UNL     1      -0.718   5.208   2.488  1.00  0.00    -0.354 N 
ATOM     45  C   UNL     1      -5.846   3.915   4.314  1.00  0.00     0.074 A 
ATOM     46  C   UNL     1      -6.637   4.682   3.390  1.00  0.00     0.031 C 
ATOM     47  C   UNL     1      -0.603   3.661   4.125  1.00  0.00     0.029 A 
ATOM     48  C   UNL     1       0.101   4.783   3.561  1.00  0.00     0.049 A 
ATOM     49  H   UNL     1      -0.405   5.632   1.657  1.00  0.00     0.167 HD
ATOM     50  C   UNL     1      -6.042   2.944   5.245  1.00  0.00     0.037 A 
ATOM     51  C   UNL     1       0.867   5.657   4.264  1.00  0.00     0.037 A 
ATOM     52  C   UNL     1      -4.824   2.764   6.054  1.00  0.00     0.049 A 
ATOM     53  C   UNL     1       0.307   5.707   5.659  1.00  0.00     0.074 A 
ATOM     54  C   UNL     1      -3.895   1.753   6.210  1.00  0.00     0.029 A 
ATOM     55  N   UNL     1      -4.267   3.898   6.664  1.00  0.00    -0.354 N 
ATOM     56  N   UNL     1      -0.956   5.474   5.921  1.00  0.00    -0.248 NA
ATOM     57  C   UNL     1       1.129   5.789   6.861  1.00  0.00     0.031 C 
ATOM     58  C   UNL     1      -2.735   2.325   6.827  1.00  0.00     0.029 A 
ATOM     59  C   UNL     1      -2.973   3.670   7.091  1.00  0.00     0.049 A 
ATOM     60  H   UNL     1      -4.741   4.753   6.776  1.00  0.00     0.167 HD
ATOM     61  C   UNL     1      -1.087   5.200   7.246  1.00  0.00     0.074 A 
ATOM     62  C   UNL     1       0.224   5.489   7.810  1.00  0.00     0.031 C 
ATOM     63  C   UNL     1      -2.220   4.697   7.813  1.00  0.00     0.037 A 
BRANCH  50  64
ATOM     64  C   UNL     1      -7.293   2.108   5.385  1.00  0.00     0.064 A 
ATOM     65  C   UNL     1      -7.459   1.256   6.498  1.00  0.00     0.173 A 
ATOM     66  C   UNL     1      -8.313   2.011   4.412  1.00  0.00     0.173 A 
ATOM     67  F   UNL     1      -6.548   1.220   7.481  1.00  0.00    -0.203 F 
ATOM     68  C   UNL     1      -8.557   0.397   6.632  1.00  0.00     0.198 A 
ATOM     69  C   UNL     1      -9.436   1.189   4.571  1.00  0.00     0.198 A 
ATOM     70  F   UNL     1      -8.240   2.657   3.242  1.00  0.00    -0.203 F 
ATOM     71  F   UNL     1      -8.638  -0.422   7.690  1.00  0.00    -0.200 F 
ATOM     72  C   UNL     1      -9.554   0.376   5.677  1.00  0.00     0.200 A 
ATOM     73  F   UNL     1     -10.389   1.175   3.627  1.00  0.00    -0.200 F 
ATOM     74  F   UNL     1     -10.609  -0.440   5.808  1.00  0.00    -0.200 F 
ENDBRANCH  50  64
BRANCH  51  75
ATOM     75  C   UNL     1       1.407   6.708   3.359  1.00  0.00     0.064 A 
ATOM     76  C   UNL     1       2.364   6.256   2.417  1.00  0.00     0.173 A 
ATOM     77  C   UNL     1       0.625   7.814   2.996  1.00  0.00     0.173 A 
ATOM     78  F   UNL     1       3.137   5.195   2.708  1.00  0.00    -0.203 F 
ATOM     79  C   UNL     1       2.393   6.751   1.115  1.00  0.00     0.198 A 
ATOM     80  C   UNL     1       0.668   8.313   1.689  1.00  0.00     0.198 A 
ATOM     81  F   UNL     1      -0.312   8.280   3.833  1.00  0.00    -0.203 F 
ATOM     82  F   UNL     1       3.181   6.175   0.194  1.00  0.00    -0.200 F 
ATOM     83  C   UNL     1       1.510   7.747   0.740  1.00  0.00     0.200 A 
ATOM     84  F   UNL     1      -0.200   9.262   1.308  1.00  0.00    -0.200 F 
ATOM     85  F   UNL     1       1.417   8.111  -0.548  1.00  0.00    -0.200 F 
ENDBRANCH  51  75
BRANCH  63  86
ATOM     86  C   UNL     1      -2.652   5.134   9.186  1.00  0.00     0.064 A 
ATOM     87  C   UNL     1      -2.159   6.302   9.799  1.00  0.00     0.173 A 
ATOM     88  C   UNL     1      -3.723   4.499   9.851  1.00  0.00     0.173 A 
ATOM     89  F   UNL     1      -1.253   7.087   9.200  1.00  0.00    -0.203 F 
ATOM     90  C   UNL     1      -2.626   6.741  11.034  1.00  0.00     0.198 A 
ATOM     91  C   UNL     1      -4.236   4.984  11.052  1.00  0.00     0.198 A 
ATOM     92  F   UNL     1      -4.336   3.422   9.342  1.00  0.00    -0.203 F 
ATOM     93  F   UNL     1      -2.075   7.823  11.599  1.00  0.00    -0.200 F 
ATOM     94  C   UNL     1      -3.669   6.087  11.656  1.00  0.00     0.200 A 
ATOM     95  F   UNL     1      -5.301   4.388  11.606  1.00  0.00    -0.200 F 
ATOM     96  F   UNL     1      -4.144   6.535  12.825  1.00  0.00    -0.200 F 
ENDBRANCH  63  86
ENDBRANCH  37  38
ENDBRANCH  30  32
ENDBRANCH  29  30
ENDBRANCH  28  29
ENDBRANCH  27  28
ENDBRANCH   1  27
TORSDOF 16
