REMARK SMILES O=C(OCCOCCOC(=O)[C@H]1[C@H]2CC[C@H](CC2)[C@@H]1C(=O)Nc1sc2c(c1C(=O)N1CCCCC1)CCCC2)c1ccc(-c2c3nc(c(-c4c(F)c(F)c(F)c(F)c4F)c4ccc([nH]4)c(-c4c(F)c(F)c(F)c(F)c4F)c4nc(c(-c5c(F)c(F)c(F)c(F)c5F)c5ccc2[nH]5)C=C4)C=C3)cc1
REMARK SMILES IDX 7 1 6 2 5 3 4 4 3 5 2 6 1 7 40 8 41 9 102 10 42 11 101 12
REMARK SMILES IDX 43 13 44 14 45 15 95 16 46 17 100 18 94 19 96 20 47 21 99 22
REMARK SMILES IDX 93 23 92 24 48 26 80 27 60 28 79 29 61 30 64 31 78 32 97 33
REMARK SMILES IDX 62 34 63 35 77 37 98 38 65 39 49 40 50 41 58 42 51 43 52 44
REMARK SMILES IDX 56 45 59 46 53 47 54 48 57 49 55 50 81 51 82 52 90 53 83 54
REMARK SMILES IDX 84 55 88 56 91 57 85 58 86 59 89 60 87 61 66 62 67 63 75 64
REMARK SMILES IDX 68 65 69 66 73 67 76 68 70 69 71 70 74 71 72 72 8 73 9 74
REMARK SMILES IDX 10 75 11 76 12 77 13 78 19 79 18 80 14 81 16 82 17 83 15 84
REMARK SMILES IDX 20 85 21 86 22 87 23 89 24 90 27 91 25 92 26 93 39 94 36 95
REMARK SMILES IDX 38 96 37 97 28 98 29 99 30 100 31 101 35 102 32 103 34 104
REMARK SMILES IDX 33 105
REMARK H PARENT 96 25 64 36 22 88
REMARK Flexibility Score: inf
ROOT
ATOM      1  C   UNL     1       3.648   1.897  -1.951  1.00  0.00     0.202 C 
ENDROOT
BRANCH   1   2
ATOM      2  O   UNL     1       4.720   1.468  -1.105  1.00  0.00    -0.374 OA
BRANCH   2   3
ATOM      3  C   UNL     1       4.725   0.072  -0.797  1.00  0.00     0.202 C 
BRANCH   3   4
ATOM      4  C   UNL     1       3.812  -0.502   0.312  1.00  0.00     0.261 C 
BRANCH   4   5
ATOM      5  O   UNL     1       2.402  -0.180   0.166  1.00  0.00    -0.460 OA
BRANCH   5   6
ATOM      6  C   UNL     1       1.664   0.403   1.165  1.00  0.00     0.338 C 
ATOM      7  O   UNL     1       0.472   0.182   1.315  1.00  0.00    -0.246 OA
BRANCH   6   8
ATOM      8  C   UNL     1       2.363   1.395   2.018  1.00  0.00     0.060 A 
ATOM      9  C   UNL     1       3.390   2.099   1.431  1.00  0.00     0.016 A 
ATOM     10  C   UNL     1       2.067   1.663   3.346  1.00  0.00     0.016 A 
ATOM     11  C   UNL     1       4.345   2.754   2.150  1.00  0.00     0.010 A 
ATOM     12  C   UNL     1       2.892   2.554   4.056  1.00  0.00     0.010 A 
ATOM     13  C   UNL     1       4.068   3.062   3.465  1.00  0.00    -0.014 A 
BRANCH  13  14
ATOM     14  C   UNL     1       5.093   3.856   4.166  1.00  0.00     0.031 A 
ATOM     15  C   UNL     1       5.793   3.233   5.328  1.00  0.00     0.074 A 
ATOM     16  C   UNL     1       5.499   5.032   3.640  1.00  0.00     0.049 A 
ATOM     17  N   UNL     1       6.629   3.768   6.173  1.00  0.00    -0.248 NA
ATOM     18  C   UNL     1       5.515   1.807   5.575  1.00  0.00     0.031 C 
ATOM     19  C   UNL     1       4.997   5.627   2.392  1.00  0.00     0.029 A 
ATOM     20  N   UNL     1       6.463   5.913   4.046  1.00  0.00    -0.354 N 
ATOM     21  C   UNL     1       6.911   2.771   7.095  1.00  0.00     0.074 A 
ATOM     22  C   UNL     1       6.174   1.593   6.702  1.00  0.00     0.031 C 
ATOM     23  C   UNL     1       5.702   6.730   2.106  1.00  0.00     0.029 A 
ATOM     24  C   UNL     1       6.600   6.999   3.214  1.00  0.00     0.049 A 
ATOM     25  H   UNL     1       7.008   5.781   4.856  1.00  0.00     0.167 HD
ATOM     26  C   UNL     1       7.703   2.862   8.187  1.00  0.00     0.037 A 
ATOM     27  C   UNL     1       7.329   8.118   3.372  1.00  0.00     0.037 A 
ATOM     28  C   UNL     1       8.441   4.053   8.509  1.00  0.00     0.049 A 
ATOM     29  C   UNL     1       8.128   8.231   4.640  1.00  0.00     0.074 A 
ATOM     30  C   UNL     1       9.222   4.322   9.615  1.00  0.00     0.029 A 
ATOM     31  N   UNL     1       8.492   5.181   7.693  1.00  0.00    -0.354 N 
ATOM     32  N   UNL     1       8.289   7.345   5.596  1.00  0.00    -0.248 NA
ATOM     33  C   UNL     1       8.820   9.501   4.870  1.00  0.00     0.031 C 
ATOM     34  C   UNL     1       9.702   5.632   9.493  1.00  0.00     0.029 A 
ATOM     35  C   UNL     1       9.279   6.155   8.279  1.00  0.00     0.049 A 
ATOM     36  H   UNL     1       8.034   5.271   6.826  1.00  0.00     0.167 HD
ATOM     37  C   UNL     1       9.125   7.935   6.528  1.00  0.00     0.074 A 
ATOM     38  C   UNL     1       9.448   9.253   6.011  1.00  0.00     0.031 C 
ATOM     39  C   UNL     1       9.585   7.443   7.705  1.00  0.00     0.037 A 
BRANCH  26  40
ATOM     40  C   UNL     1       7.697   1.697   9.131  1.00  0.00     0.064 A 
ATOM     41  C   UNL     1       8.258   0.454   8.803  1.00  0.00     0.173 A 
ATOM     42  C   UNL     1       7.039   1.810  10.366  1.00  0.00     0.173 A 
ATOM     43  F   UNL     1       8.865   0.278   7.619  1.00  0.00    -0.203 F 
ATOM     44  C   UNL     1       8.123  -0.642   9.655  1.00  0.00     0.198 A 
ATOM     45  C   UNL     1       6.935   0.723  11.230  1.00  0.00     0.198 A 
ATOM     46  F   UNL     1       6.471   2.971  10.726  1.00  0.00    -0.203 F 
ATOM     47  F   UNL     1       8.594  -1.840   9.283  1.00  0.00    -0.200 F 
ATOM     48  C   UNL     1       7.465  -0.505  10.868  1.00  0.00     0.200 A 
ATOM     49  F   UNL     1       6.297   0.859  12.401  1.00  0.00    -0.200 F 
ATOM     50  F   UNL     1       7.320  -1.563  11.678  1.00  0.00    -0.200 F 
ENDBRANCH  26  40
BRANCH  27  51
ATOM     51  C   UNL     1       7.276   9.219   2.370  1.00  0.00     0.064 A 
ATOM     52  C   UNL     1       8.423   9.625   1.675  1.00  0.00     0.173 A 
ATOM     53  C   UNL     1       6.081   9.909   2.100  1.00  0.00     0.173 A 
ATOM     54  F   UNL     1       9.595   9.016   1.905  1.00  0.00    -0.203 F 
ATOM     55  C   UNL     1       8.384  10.688   0.772  1.00  0.00     0.198 A 
ATOM     56  C   UNL     1       6.036  10.947   1.170  1.00  0.00     0.198 A 
ATOM     57  F   UNL     1       4.948   9.569   2.732  1.00  0.00    -0.203 F 
ATOM     58  F   UNL     1       9.510  11.090   0.166  1.00  0.00    -0.200 F 
ATOM     59  C   UNL     1       7.190  11.345   0.516  1.00  0.00     0.200 A 
ATOM     60  F   UNL     1       4.874  11.564   0.915  1.00  0.00    -0.200 F 
ATOM     61  F   UNL     1       7.154  12.367  -0.350  1.00  0.00    -0.200 F 
ENDBRANCH  27  51
BRANCH  39  62
ATOM     62  C   UNL     1      10.542   8.312   8.462  1.00  0.00     0.064 A 
ATOM     63  C   UNL     1      10.125   9.480   9.115  1.00  0.00     0.173 A 
ATOM     64  C   UNL     1      11.890   7.940   8.561  1.00  0.00     0.173 A 
ATOM     65  F   UNL     1       8.848   9.883   9.031  1.00  0.00    -0.203 F 
ATOM     66  C   UNL     1      11.035  10.264   9.815  1.00  0.00     0.198 A 
ATOM     67  C   UNL     1      12.788   8.706   9.295  1.00  0.00     0.198 A 
ATOM     68  F   UNL     1      12.332   6.825   7.958  1.00  0.00    -0.203 F 
ATOM     69  F   UNL     1      10.631  11.409  10.383  1.00  0.00    -0.200 F 
ATOM     70  C   UNL     1      12.362   9.872   9.912  1.00  0.00     0.200 A 
ATOM     71  F   UNL     1      14.065   8.315   9.403  1.00  0.00    -0.200 F 
ATOM     72  F   UNL     1      13.235  10.623  10.597  1.00  0.00    -0.200 F 
ENDBRANCH  39  62
ENDBRANCH  13  14
ENDBRANCH   6   8
ENDBRANCH   5   6
ENDBRANCH   4   5
ENDBRANCH   3   4
ENDBRANCH   2   3
ENDBRANCH   1   2
BRANCH   1  73
ATOM     73  C   UNL     1       4.119   2.290  -3.348  1.00  0.00     0.261 C 
BRANCH  73  74
ATOM     74  O   UNL     1       4.343   1.100  -4.119  1.00  0.00    -0.463 OA
BRANCH  74  75
ATOM     75  C   UNL     1       5.532   0.497  -3.938  1.00  0.00     0.310 C 
ATOM     76  O   UNL     1       6.510   1.051  -3.445  1.00  0.00    -0.252 OA
BRANCH  75  77
ATOM     77  C   UNL     1       5.512  -0.930  -4.460  1.00  0.00     0.115 C 
ATOM     78  C   UNL     1       6.770  -1.665  -3.881  1.00  0.00     0.004 C 
ATOM     79  C   UNL     1       4.213  -1.777  -4.205  1.00  0.00     0.096 C 
ATOM     80  C   UNL     1       6.578  -2.236  -2.459  1.00  0.00     0.005 C 
ATOM     81  C   UNL     1       7.024  -2.861  -4.787  1.00  0.00     0.005 C 
ATOM     82  C   UNL     1       4.695  -3.220  -3.783  1.00  0.00     0.002 C 
ATOM     83  C   UNL     1       5.336  -3.130  -2.388  1.00  0.00     0.005 C 
ATOM     84  C   UNL     1       5.801  -3.784  -4.727  1.00  0.00     0.005 C 
BRANCH  79  85
ATOM     85  C   UNL     1       3.282  -1.933  -5.448  1.00  0.00     0.229 C 
ATOM     86  O   UNL     1       3.780  -2.269  -6.530  1.00  0.00    -0.274 OA
ATOM     87  N   UNL     1       1.900  -1.955  -5.352  1.00  0.00    -0.317 N 
ATOM     88  H   UNL     1       1.474  -2.714  -5.813  1.00  0.00     0.170 HD
BRANCH  87  89
ATOM     89  C   UNL     1       1.002  -1.093  -4.717  1.00  0.00     0.108 A 
ATOM     90  S   UNL     1       1.568   0.389  -4.182  1.00  0.00    -0.122 S 
ATOM     91  C   UNL     1      -0.399  -1.158  -4.605  1.00  0.00     0.078 A 
ATOM     92  C   UNL     1       0.149   0.787  -3.386  1.00  0.00     0.011 A 
ATOM     93  C   UNL     1      -0.881  -0.050  -3.757  1.00  0.00    -0.019 A 
ATOM     94  C   UNL     1       0.051   1.971  -2.471  1.00  0.00     0.047 C 
ATOM     95  C   UNL     1      -2.263   0.239  -3.249  1.00  0.00     0.037 C 
ATOM     96  C   UNL     1      -1.233   1.916  -1.642  1.00  0.00     0.006 C 
ATOM     97  C   UNL     1      -2.421   1.590  -2.533  1.00  0.00     0.005 C 
BRANCH  91  98
ATOM     98  C   UNL     1      -1.155  -2.280  -5.204  1.00  0.00     0.257 C 
ATOM     99  O   UNL     1      -0.577  -3.160  -5.844  1.00  0.00    -0.269 OA
ATOM    100  N   UNL     1      -2.511  -2.393  -4.904  1.00  0.00    -0.339 N 
ATOM    101  C   UNL     1      -2.979  -3.708  -4.504  1.00  0.00     0.120 C 
ATOM    102  C   UNL     1      -3.527  -1.599  -5.593  1.00  0.00     0.120 C 
ATOM    103  C   UNL     1      -4.098  -3.543  -3.487  1.00  0.00     0.022 C 
ATOM    104  C   UNL     1      -4.796  -1.438  -4.736  1.00  0.00     0.022 C 
ATOM    105  C   UNL     1      -5.257  -2.742  -4.080  1.00  0.00     0.004 C 
ENDBRANCH  91  98
ENDBRANCH  87  89
ENDBRANCH  79  85
ENDBRANCH  75  77
ENDBRANCH  74  75
ENDBRANCH  73  74
ENDBRANCH   1  73
TORSDOF 17
