REMARK SMILES Cc1nn(-c2ccccc2)c(C)c1CNC(=O)CCCC(=O)OCCOCCOC(=O)c1ccc(-c2c3nc(c(-c4c(F)c(F)c(F)c(F)c4F)c4ccc([nH]4)c(-c4c(F)c(F)c(F)c(F)c4F)c4nc(c(-c5c(F)c(F)c(F)c(F)c5F)c5ccc2[nH]5)C=C4)C=C3)cc1
REMARK SMILES IDX 24 1 23 2 21 3 22 4 20 5 19 6 18 7 16 8 15 9 17 11 14 12
REMARK SMILES IDX 13 13 1 14 2 15 3 16 4 17 11 18 12 19 5 20 6 21 10 22 7 23
REMARK SMILES IDX 9 24 8 25 25 26 26 27 27 28 28 29 29 30 30 31 31 32 32 33
REMARK SMILES IDX 33 34 94 35 34 36 93 37 35 38 36 39 37 40 87 41 38 42 92 43
REMARK SMILES IDX 86 44 88 45 39 46 91 47 85 48 84 49 40 51 72 52 52 53 71 54
REMARK SMILES IDX 53 55 56 56 70 57 89 58 54 59 55 60 69 62 90 63 57 64 41 65
REMARK SMILES IDX 42 66 50 67 43 68 44 69 48 70 51 71 45 72 46 73 49 74 47 75
REMARK SMILES IDX 73 76 74 77 82 78 75 79 76 80 80 81 83 82 77 83 78 84 81 85
REMARK SMILES IDX 79 86 58 87 59 88 67 89 60 90 61 91 65 92 68 93 62 94 63 95
REMARK SMILES IDX 66 96 64 97
REMARK H PARENT 15 10 88 50 56 61
REMARK Flexibility Score: inf
ROOT
ATOM      1  C   UNL     1       4.285   2.762  -0.118  1.00  0.00     0.261 C 
ENDROOT
BRANCH   1   2
ATOM      2  O   UNL     1       3.446   3.459   0.814  1.00  0.00    -0.463 OA
BRANCH   2   3
ATOM      3  C   UNL     1       2.939   2.722   1.828  1.00  0.00     0.305 C 
ATOM      4  O   UNL     1       3.069   1.510   1.936  1.00  0.00    -0.252 OA
BRANCH   3   5
ATOM      5  C   UNL     1       2.319   3.575   2.908  1.00  0.00     0.123 C 
BRANCH   5   6
ATOM      6  C   UNL     1       2.004   5.050   2.653  1.00  0.00     0.022 C 
BRANCH   6   7
ATOM      7  C   UNL     1       1.445   5.529   1.308  1.00  0.00     0.100 C 
BRANCH   7   8
ATOM      8  C   UNL     1      -0.052   5.465   1.078  1.00  0.00     0.220 C 
ATOM      9  N   UNL     1      -0.675   4.318   0.708  1.00  0.00    -0.352 N 
ATOM     10  H   UNL     1      -1.643   4.411   0.553  1.00  0.00     0.163 HD
ATOM     11  O   UNL     1      -0.744   6.478   1.209  1.00  0.00    -0.275 OA
BRANCH   9  12
ATOM     12  C   UNL     1      -0.163   2.987   0.504  1.00  0.00     0.155 C 
BRANCH  12  13
ATOM     13  C   UNL     1      -0.439   2.090   1.675  1.00  0.00     0.016 A 
ATOM     14  C   UNL     1       0.531  -0.132   0.656  1.00  0.00     0.069 C 
ATOM     15  C   UNL     1      -0.091   0.703   1.722  1.00  0.00     0.065 A 
ATOM     16  N   UNL     1      -0.298   0.169   2.928  1.00  0.00    -0.173 NA
ATOM     17  N   UNL     1      -0.877   1.147   3.655  1.00  0.00    -0.237 N 
ATOM     18  C   UNL     1      -0.912   2.355   2.961  1.00  0.00     0.046 A 
ATOM     19  C   UNL     1      -1.192   3.640   3.675  1.00  0.00     0.067 C 
BRANCH  17  20
ATOM     20  C   UNL     1      -1.233   0.934   5.015  1.00  0.00     0.065 A 
ATOM     21  C   UNL     1      -0.429   0.128   5.829  1.00  0.00     0.028 A 
ATOM     22  C   UNL     1      -2.336   1.599   5.566  1.00  0.00     0.028 A 
ATOM     23  C   UNL     1      -0.675   0.080   7.204  1.00  0.00     0.002 A 
ATOM     24  C   UNL     1      -2.578   1.545   6.936  1.00  0.00     0.002 A 
ATOM     25  C   UNL     1      -1.736   0.802   7.758  1.00  0.00     0.000 A 
ENDBRANCH  17  20
ENDBRANCH  12  13
ENDBRANCH   9  12
ENDBRANCH   7   8
ENDBRANCH   6   7
ENDBRANCH   5   6
ENDBRANCH   3   5
ENDBRANCH   2   3
ENDBRANCH   1   2
BRANCH   1  26
ATOM     26  C   UNL     1       5.718   3.272   0.001  1.00  0.00     0.202 C 
BRANCH  26  27
ATOM     27  O   UNL     1       6.439   2.966   1.195  1.00  0.00    -0.374 OA
BRANCH  27  28
ATOM     28  C   UNL     1       6.017   3.468   2.458  1.00  0.00     0.202 C 
BRANCH  28  29
ATOM     29  C   UNL     1       6.203   4.948   2.756  1.00  0.00     0.261 C 
BRANCH  29  30
ATOM     30  O   UNL     1       5.492   5.778   1.849  1.00  0.00    -0.460 OA
BRANCH  30  31
ATOM     31  C   UNL     1       6.279   6.271   0.865  1.00  0.00     0.338 C 
ATOM     32  O   UNL     1       7.394   5.902   0.558  1.00  0.00    -0.246 OA
BRANCH  31  33
ATOM     33  C   UNL     1       5.650   7.468   0.302  1.00  0.00     0.060 A 
ATOM     34  C   UNL     1       6.421   8.149  -0.640  1.00  0.00     0.016 A 
ATOM     35  C   UNL     1       4.553   8.060   0.944  1.00  0.00     0.016 A 
ATOM     36  C   UNL     1       6.264   9.508  -0.730  1.00  0.00     0.010 A 
ATOM     37  C   UNL     1       4.389   9.419   0.843  1.00  0.00     0.010 A 
ATOM     38  C   UNL     1       5.317  10.131   0.092  1.00  0.00    -0.014 A 
BRANCH  38  39
ATOM     39  C   UNL     1       5.254  11.572   0.042  1.00  0.00     0.031 A 
ATOM     40  C   UNL     1       4.699  12.029  -1.245  1.00  0.00     0.074 A 
ATOM     41  C   UNL     1       5.629  12.353   1.072  1.00  0.00     0.049 A 
ATOM     42  N   UNL     1       5.346  12.572  -2.220  1.00  0.00    -0.248 NA
ATOM     43  C   UNL     1       3.327  11.618  -1.585  1.00  0.00     0.031 C 
ATOM     44  C   UNL     1       5.943  11.944   2.444  1.00  0.00     0.029 A 
ATOM     45  N   UNL     1       5.724  13.711   1.125  1.00  0.00    -0.354 N 
ATOM     46  C   UNL     1       4.395  12.789  -3.210  1.00  0.00     0.074 A 
ATOM     47  C   UNL     1       3.254  11.988  -2.865  1.00  0.00     0.031 C 
ATOM     48  C   UNL     1       5.961  13.037   3.243  1.00  0.00     0.029 A 
ATOM     49  C   UNL     1       5.806  14.221   2.417  1.00  0.00     0.049 A 
ATOM     50  H   UNL     1       5.734  14.280   0.322  1.00  0.00     0.167 HD
ATOM     51  C   UNL     1       4.506  13.877  -4.017  1.00  0.00     0.037 A 
ATOM     52  C   UNL     1       5.679  15.528   2.755  1.00  0.00     0.037 A 
ATOM     53  C   UNL     1       5.846  14.408  -3.963  1.00  0.00     0.049 A 
ATOM     54  C   UNL     1       5.964  16.324   1.536  1.00  0.00     0.074 A 
ATOM     55  C   UNL     1       7.087  14.041  -4.434  1.00  0.00     0.029 A 
ATOM     56  N   UNL     1       6.043  15.296  -2.938  1.00  0.00    -0.354 N 
ATOM     57  N   UNL     1       7.144  16.391   0.983  1.00  0.00    -0.248 NA
ATOM     58  C   UNL     1       4.854  16.751   0.692  1.00  0.00     0.031 C 
ATOM     59  C   UNL     1       8.036  14.600  -3.525  1.00  0.00     0.029 A 
ATOM     60  C   UNL     1       7.353  15.331  -2.553  1.00  0.00     0.049 A 
ATOM     61  H   UNL     1       5.330  15.839  -2.531  1.00  0.00     0.167 HD
ATOM     62  C   UNL     1       6.886  16.446  -0.374  1.00  0.00     0.074 A 
ATOM     63  C   UNL     1       5.485  16.837  -0.483  1.00  0.00     0.031 C 
ATOM     64  C   UNL     1       7.739  15.857  -1.262  1.00  0.00     0.037 A 
BRANCH  51  65
ATOM     65  C   UNL     1       3.333  14.769  -4.377  1.00  0.00     0.064 A 
ATOM     66  C   UNL     1       3.560  15.859  -5.242  1.00  0.00     0.173 A 
ATOM     67  C   UNL     1       2.109  14.806  -3.670  1.00  0.00     0.173 A 
ATOM     68  F   UNL     1       4.698  15.946  -5.946  1.00  0.00    -0.203 F 
ATOM     69  C   UNL     1       2.668  16.933  -5.329  1.00  0.00     0.198 A 
ATOM     70  C   UNL     1       1.199  15.853  -3.798  1.00  0.00     0.198 A 
ATOM     71  F   UNL     1       1.784  13.905  -2.738  1.00  0.00    -0.203 F 
ATOM     72  F   UNL     1       2.985  18.003  -6.068  1.00  0.00    -0.200 F 
ATOM     73  C   UNL     1       1.491  16.931  -4.603  1.00  0.00     0.200 A 
ATOM     74  F   UNL     1       0.078  15.842  -3.063  1.00  0.00    -0.200 F 
ATOM     75  F   UNL     1       0.664  17.983  -4.637  1.00  0.00    -0.200 F 
ENDBRANCH  51  65
BRANCH  52  76
ATOM     76  C   UNL     1       5.020  16.119   3.944  1.00  0.00     0.064 A 
ATOM     77  C   UNL     1       5.224  17.465   4.292  1.00  0.00     0.173 A 
ATOM     78  C   UNL     1       3.948  15.465   4.579  1.00  0.00     0.173 A 
ATOM     79  F   UNL     1       6.198  18.174   3.702  1.00  0.00    -0.203 F 
ATOM     80  C   UNL     1       4.383  18.127   5.194  1.00  0.00     0.198 A 
ATOM     81  C   UNL     1       3.111  16.124   5.481  1.00  0.00     0.198 A 
ATOM     82  F   UNL     1       3.628  14.202   4.260  1.00  0.00    -0.203 F 
ATOM     83  F   UNL     1       4.566  19.430   5.449  1.00  0.00    -0.200 F 
ATOM     84  C   UNL     1       3.318  17.459   5.776  1.00  0.00     0.200 A 
ATOM     85  F   UNL     1       2.061  15.478   6.006  1.00  0.00    -0.200 F 
ATOM     86  F   UNL     1       2.469  18.109   6.584  1.00  0.00    -0.200 F 
ENDBRANCH  52  76
BRANCH  64  87
ATOM     87  C   UNL     1       9.141  15.606  -0.798  1.00  0.00     0.064 A 
ATOM     88  C   UNL     1       9.499  14.696   0.209  1.00  0.00     0.173 A 
ATOM     89  C   UNL     1      10.174  16.269  -1.474  1.00  0.00     0.173 A 
ATOM     90  F   UNL     1       8.570  13.968   0.843  1.00  0.00    -0.203 F 
ATOM     91  C   UNL     1      10.837  14.494   0.549  1.00  0.00     0.198 A 
ATOM     92  C   UNL     1      11.508  16.036  -1.160  1.00  0.00     0.198 A 
ATOM     93  F   UNL     1       9.887  17.118  -2.473  1.00  0.00    -0.203 F 
ATOM     94  F   UNL     1      11.160  13.636   1.528  1.00  0.00    -0.200 F 
ATOM     95  C   UNL     1      11.839  15.158  -0.141  1.00  0.00     0.200 A 
ATOM     96  F   UNL     1      12.472  16.647  -1.861  1.00  0.00    -0.200 F 
ATOM     97  F   UNL     1      13.126  14.937   0.160  1.00  0.00    -0.200 F 
ENDBRANCH  64  87
ENDBRANCH  38  39
ENDBRANCH  31  33
ENDBRANCH  30  31
ENDBRANCH  29  30
ENDBRANCH  28  29
ENDBRANCH  27  28
ENDBRANCH  26  27
ENDBRANCH   1  26
TORSDOF 20
