REMARK SMILES Cc1nc(=O)[nH]c(C)c1CC(=O)Nc1sccc1C(=O)OCCOCCOC(=O)c1ccc(-c2c3nc(c(-c4c(F)c(F)c(F)c(F)c4F)c4ccc([nH]4)c(-c4c(F)c(F)c(F)c(F)c4F)c4nc(c(-c5c(F)c(F)c(F)c(F)c5F)c5ccc2[nH]5)C=C4)C=C3)cc1
REMARK SMILES IDX 23 1 22 2 21 3 19 4 20 5 18 6 14 7 15 8 16 9 17 10 13 11
REMARK SMILES IDX 11 12 12 13 10 15 9 16 1 17 2 18 3 19 4 20 7 21 5 22 6 23
REMARK SMILES IDX 8 24 24 26 25 27 26 28 27 29 28 30 29 31 30 32 31 33 92 34
REMARK SMILES IDX 32 35 91 36 33 37 34 38 35 39 85 40 36 41 90 42 84 43 86 44
REMARK SMILES IDX 37 45 89 46 83 47 82 48 38 50 70 51 50 52 69 53 51 54 54 55
REMARK SMILES IDX 68 56 87 57 52 58 53 59 67 61 88 62 55 63 39 64 40 65 48 66
REMARK SMILES IDX 41 67 42 68 46 69 49 70 43 71 44 72 47 73 45 74 71 75 72 76
REMARK SMILES IDX 80 77 73 78 74 79 78 80 81 81 75 82 76 83 79 84 77 85 56 86
REMARK SMILES IDX 57 87 65 88 58 89 59 90 63 91 66 92 60 93 61 94 64 95 62 96
REMARK H PARENT 13 14 6 25 86 49 54 60
REMARK Flexibility Score: inf
ROOT
ATOM      1  C   UNL     1      -0.992   2.927   0.305  1.00  0.00     0.202 C 
ENDROOT
BRANCH   1   2
ATOM      2  C   UNL     1      -1.309   1.429   0.189  1.00  0.00     0.261 C 
BRANCH   2   3
ATOM      3  O   UNL     1      -1.098   0.518   1.280  1.00  0.00    -0.460 OA
BRANCH   3   4
ATOM      4  C   UNL     1       0.092  -0.154   1.241  1.00  0.00     0.341 C 
ATOM      5  O   UNL     1       1.031   0.176   0.526  1.00  0.00    -0.246 OA
BRANCH   4   6
ATOM      6  C   UNL     1       0.213  -1.262   2.186  1.00  0.00     0.094 A 
ATOM      7  C   UNL     1      -0.774  -2.110   2.647  1.00  0.00     0.110 A 
ATOM      8  S   UNL     1      -0.265  -3.099   3.937  1.00  0.00    -0.126 S 
ATOM      9  C   UNL     1       1.364  -2.637   3.714  1.00  0.00     0.068 A 
ATOM     10  C   UNL     1       1.476  -1.635   2.777  1.00  0.00     0.029 A 
BRANCH   7  11
ATOM     11  N   UNL     1      -2.086  -2.307   2.305  1.00  0.00    -0.317 N 
ATOM     12  C   UNL     1      -2.542  -2.753   1.093  1.00  0.00     0.229 C 
ATOM     13  O   UNL     1      -3.760  -2.775   0.890  1.00  0.00    -0.274 OA
ATOM     14  H   UNL     1      -2.763  -2.110   2.993  1.00  0.00     0.170 HD
BRANCH  12  15
ATOM     15  C   UNL     1      -1.576  -3.392   0.087  1.00  0.00     0.139 C 
BRANCH  15  16
ATOM     16  C   UNL     1      -0.813  -2.488  -0.833  1.00  0.00     0.002 A 
ATOM     17  C   UNL     1       1.390  -3.855  -0.428  1.00  0.00     0.067 C 
ATOM     18  C   UNL     1       0.668  -2.673  -1.044  1.00  0.00     0.049 A 
ATOM     19  N   UNL     1       1.421  -1.880  -1.736  1.00  0.00    -0.198 NA
ATOM     20  C   UNL     1       0.857  -0.807  -2.354  1.00  0.00     0.345 A 
ATOM     21  C   UNL     1      -1.339  -1.494  -1.572  1.00  0.00     0.022 A 
ATOM     22  O   UNL     1       1.505   0.050  -2.958  1.00  0.00    -0.246 OA
ATOM     23  N   UNL     1      -0.507  -0.702  -2.321  1.00  0.00    -0.310 N 
ATOM     24  C   UNL     1      -2.796  -1.118  -1.598  1.00  0.00     0.065 C 
ATOM     25  H   UNL     1      -0.923  -0.004  -2.879  1.00  0.00     0.171 HD
ENDBRANCH  15  16
ENDBRANCH  12  15
ENDBRANCH   7  11
ENDBRANCH   4   6
ENDBRANCH   3   4
ENDBRANCH   2   3
ENDBRANCH   1   2
BRANCH   1  26
ATOM     26  O   UNL     1       0.127   3.420   1.004  1.00  0.00    -0.374 OA
BRANCH  26  27
ATOM     27  C   UNL     1       0.427   2.935   2.297  1.00  0.00     0.202 C 
BRANCH  27  28
ATOM     28  C   UNL     1      -0.632   2.960   3.410  1.00  0.00     0.261 C 
BRANCH  28  29
ATOM     29  O   UNL     1      -1.948   2.517   3.041  1.00  0.00    -0.460 OA
BRANCH  29  30
ATOM     30  C   UNL     1      -2.844   3.509   2.828  1.00  0.00     0.338 C 
ATOM     31  O   UNL     1      -2.649   4.711   2.882  1.00  0.00    -0.246 OA
BRANCH  30  32
ATOM     32  C   UNL     1      -4.127   2.940   2.377  1.00  0.00     0.060 A 
ATOM     33  C   UNL     1      -4.607   3.271   1.102  1.00  0.00     0.016 A 
ATOM     34  C   UNL     1      -4.920   2.217   3.268  1.00  0.00     0.016 A 
ATOM     35  C   UNL     1      -5.902   2.917   0.728  1.00  0.00     0.010 A 
ATOM     36  C   UNL     1      -6.228   1.888   2.905  1.00  0.00     0.010 A 
ATOM     37  C   UNL     1      -6.736   2.278   1.652  1.00  0.00    -0.014 A 
BRANCH  37  38
ATOM     38  C   UNL     1      -8.197   2.239   1.404  1.00  0.00     0.031 A 
ATOM     39  C   UNL     1      -9.045   3.334   1.992  1.00  0.00     0.074 A 
ATOM     40  C   UNL     1      -8.754   1.271   0.659  1.00  0.00     0.049 A 
ATOM     41  N   UNL     1     -10.345   3.482   1.979  1.00  0.00    -0.248 NA
ATOM     42  C   UNL     1      -8.324   4.411   2.691  1.00  0.00     0.031 C 
ATOM     43  C   UNL     1      -8.027   0.199  -0.015  1.00  0.00     0.029 A 
ATOM     44  N   UNL     1     -10.071   1.032   0.356  1.00  0.00    -0.354 N 
ATOM     45  C   UNL     1     -10.597   4.653   2.683  1.00  0.00     0.074 A 
ATOM     46  C   UNL     1      -9.320   5.169   3.123  1.00  0.00     0.031 C 
ATOM     47  C   UNL     1      -8.911  -0.595  -0.644  1.00  0.00     0.029 A 
ATOM     48  C   UNL     1     -10.265  -0.109  -0.381  1.00  0.00     0.049 A 
ATOM     49  H   UNL     1     -10.806   1.622   0.641  1.00  0.00     0.167 HD
ATOM     50  C   UNL     1     -11.789   5.243   2.938  1.00  0.00     0.037 A 
ATOM     51  C   UNL     1     -11.410  -0.704  -0.769  1.00  0.00     0.037 A 
ATOM     52  C   UNL     1     -13.055   4.721   2.497  1.00  0.00     0.049 A 
ATOM     53  C   UNL     1     -12.729  -0.075  -0.393  1.00  0.00     0.074 A 
ATOM     54  C   UNL     1     -14.319   5.250   2.683  1.00  0.00     0.029 A 
ATOM     55  N   UNL     1     -13.216   3.537   1.790  1.00  0.00    -0.354 N 
ATOM     56  N   UNL     1     -12.964   1.041   0.255  1.00  0.00    -0.248 NA
ATOM     57  C   UNL     1     -13.945  -0.794  -0.802  1.00  0.00     0.031 C 
ATOM     58  C   UNL     1     -15.250   4.352   2.150  1.00  0.00     0.029 A 
ATOM     59  C   UNL     1     -14.562   3.300   1.566  1.00  0.00     0.049 A 
ATOM     60  H   UNL     1     -12.482   2.953   1.493  1.00  0.00     0.167 HD
ATOM     61  C   UNL     1     -14.347   1.177   0.298  1.00  0.00     0.074 A 
ATOM     62  C   UNL     1     -14.898   0.033  -0.398  1.00  0.00     0.031 C 
ATOM     63  C   UNL     1     -15.093   2.161   0.860  1.00  0.00     0.037 A 
BRANCH  50  64
ATOM     64  C   UNL     1     -11.782   6.489   3.777  1.00  0.00     0.064 A 
ATOM     65  C   UNL     1     -11.264   7.704   3.303  1.00  0.00     0.173 A 
ATOM     66  C   UNL     1     -12.321   6.469   5.072  1.00  0.00     0.173 A 
ATOM     67  F   UNL     1     -10.722   7.776   2.078  1.00  0.00    -0.203 F 
ATOM     68  C   UNL     1     -11.258   8.843   4.107  1.00  0.00     0.198 A 
ATOM     69  C   UNL     1     -12.344   7.617   5.860  1.00  0.00     0.198 A 
ATOM     70  F   UNL     1     -12.832   5.335   5.575  1.00  0.00    -0.203 F 
ATOM     71  F   UNL     1     -10.707   9.978   3.654  1.00  0.00    -0.200 F 
ATOM     72  C   UNL     1     -11.804   8.800   5.381  1.00  0.00     0.200 A 
ATOM     73  F   UNL     1     -12.885   7.575   7.085  1.00  0.00    -0.200 F 
ATOM     74  F   UNL     1     -11.803   9.897   6.150  1.00  0.00    -0.200 F 
ENDBRANCH  50  64
BRANCH  51  75
ATOM     75  C   UNL     1     -11.368  -1.970  -1.548  1.00  0.00     0.064 A 
ATOM     76  C   UNL     1     -11.817  -2.016  -2.876  1.00  0.00     0.173 A 
ATOM     77  C   UNL     1     -10.906  -3.165  -0.976  1.00  0.00     0.173 A 
ATOM     78  F   UNL     1     -12.295  -0.907  -3.459  1.00  0.00    -0.203 F 
ATOM     79  C   UNL     1     -11.822  -3.210  -3.595  1.00  0.00     0.198 A 
ATOM     80  C   UNL     1     -10.881  -4.352  -1.706  1.00  0.00     0.198 A 
ATOM     81  F   UNL     1     -10.472  -3.180   0.293  1.00  0.00    -0.203 F 
ATOM     82  F   UNL     1     -12.304  -3.234  -4.844  1.00  0.00    -0.200 F 
ATOM     83  C   UNL     1     -11.348  -4.375  -3.012  1.00  0.00     0.200 A 
ATOM     84  F   UNL     1     -10.413  -5.473  -1.143  1.00  0.00    -0.200 F 
ATOM     85  F   UNL     1     -11.350  -5.522  -3.704  1.00  0.00    -0.200 F 
ENDBRANCH  51  75
BRANCH  63  86
ATOM     86  C   UNL     1     -16.586   2.075   0.703  1.00  0.00     0.064 A 
ATOM     87  C   UNL     1     -17.348   1.106   1.373  1.00  0.00     0.173 A 
ATOM     88  C   UNL     1     -17.267   3.007  -0.096  1.00  0.00     0.173 A 
ATOM     89  F   UNL     1     -16.746   0.183   2.138  1.00  0.00    -0.203 F 
ATOM     90  C   UNL     1     -18.732   1.057   1.225  1.00  0.00     0.198 A 
ATOM     91  C   UNL     1     -18.654   2.977  -0.212  1.00  0.00     0.198 A 
ATOM     92  F   UNL     1     -16.588   3.961  -0.751  1.00  0.00    -0.203 F 
ATOM     93  F   UNL     1     -19.434   0.090   1.832  1.00  0.00    -0.200 F 
ATOM     94  C   UNL     1     -19.384   1.997   0.441  1.00  0.00     0.200 A 
ATOM     95  F   UNL     1     -19.282   3.898  -0.955  1.00  0.00    -0.200 F 
ATOM     96  F   UNL     1     -20.717   1.954   0.309  1.00  0.00    -0.200 F 
ENDBRANCH  63  86
ENDBRANCH  37  38
ENDBRANCH  30  32
ENDBRANCH  29  30
ENDBRANCH  28  29
ENDBRANCH  27  28
ENDBRANCH  26  27
ENDBRANCH   1  26
TORSDOF 17
