REMARK SMILES COc1cccc(-c2c(C(=O)OCCOCCOC(=O)c3ccc(-c4c5nc(c(-c6c(F)c(F)c(F)c(F)c6F)c6ccc([nH]6)c(-c6c(F)c(F)c(F)c(F)c6F)c6nc(c(-c7c(F)c(F)c(F)c(F)c7F)c7ccc4[nH]7)C=C6)C=C5)cc3)nnn2-c2ccc(OC(F)(F)F)cc2)c1
REMARK SMILES IDX 14 1 13 2 12 3 10 4 11 5 9 6 8 7 86 8 84 9 85 10 7 11 3 12
REMARK SMILES IDX 4 13 98 14 5 15 6 16 2 17 1 18 87 19 88 20 97 21 89 22 96 23
REMARK SMILES IDX 90 24 91 25 92 26 93 27 94 28 95 29 15 30 16 31 17 32 18 33
REMARK SMILES IDX 19 34 20 35 21 36 22 37 83 38 23 39 82 40 24 41 25 42 26 43
REMARK SMILES IDX 76 44 27 45 81 46 75 47 77 48 28 49 80 50 74 51 73 52 29 54
REMARK SMILES IDX 61 55 41 56 60 57 42 58 45 59 59 60 78 61 43 62 44 63 58 65
REMARK SMILES IDX 79 66 46 67 30 68 31 69 39 70 32 71 33 72 37 73 40 74 34 75
REMARK SMILES IDX 35 76 38 77 36 78 62 79 63 80 71 81 64 82 65 83 69 84 72 85
REMARK SMILES IDX 66 86 67 87 70 88 68 89 47 90 48 91 56 92 49 93 50 94 54 95
REMARK SMILES IDX 57 96 51 97 52 98 55 99 53 100
REMARK H PARENT 77 53 45 64
REMARK Flexibility Score: inf
ROOT
ATOM      1  C   UNL     1       3.017   7.152  -2.975  1.00  0.00     0.202 C 
ENDROOT
BRANCH   1   2
ATOM      2  C   UNL     1       2.719   6.249  -4.174  1.00  0.00     0.261 C 
BRANCH   2   3
ATOM      3  O   UNL     1       3.078   4.878  -3.932  1.00  0.00    -0.458 OA
BRANCH   3   4
ATOM      4  C   UNL     1       4.142   4.420  -4.654  1.00  0.00     0.361 C 
ATOM      5  O   UNL     1       4.712   5.065  -5.532  1.00  0.00    -0.244 OA
BRANCH   4   6
ATOM      6  C   UNL     1       4.625   3.127  -4.206  1.00  0.00     0.198 A 
ATOM      7  C   UNL     1       3.927   1.988  -3.824  1.00  0.00     0.109 A 
ATOM      8  N   UNL     1       4.949   1.052  -3.674  1.00  0.00    -0.212 N 
ATOM      9  N   UNL     1       5.973   2.909  -4.024  1.00  0.00    -0.122 NA
ATOM     10  N   UNL     1       6.138   1.680  -3.564  1.00  0.00    -0.061 NA
BRANCH   7  11
ATOM     11  C   UNL     1       2.509   1.692  -3.614  1.00  0.00     0.007 A 
ATOM     12  C   UNL     1       0.778   0.599  -2.288  1.00  0.00     0.119 A 
ATOM     13  C   UNL     1      -0.161   0.925  -3.263  1.00  0.00     0.046 A 
ATOM     14  C   UNL     1       2.107   0.984  -2.463  1.00  0.00     0.056 A 
ATOM     15  C   UNL     1       0.215   1.664  -4.386  1.00  0.00     0.005 A 
ATOM     16  C   UNL     1       1.545   2.049  -4.561  1.00  0.00     0.011 A 
BRANCH  12  17
ATOM     17  O   UNL     1       0.312  -0.164  -1.253  1.00  0.00    -0.497 OA
ATOM     18  C   UNL     1       0.921   0.070   0.012  1.00  0.00     0.278 C 
ENDBRANCH  12  17
ENDBRANCH   7  11
BRANCH   8  19
ATOM     19  C   UNL     1       4.875  -0.357  -3.726  1.00  0.00     0.067 A 
ATOM     20  C   UNL     1       5.700  -1.136  -2.913  1.00  0.00     0.032 A 
ATOM     21  C   UNL     1       3.991  -0.969  -4.623  1.00  0.00     0.032 A 
ATOM     22  C   UNL     1       5.576  -2.528  -2.951  1.00  0.00     0.049 A 
ATOM     23  C   UNL     1       3.910  -2.361  -4.688  1.00  0.00     0.049 A 
ATOM     24  C   UNL     1       4.682  -3.148  -3.834  1.00  0.00     0.129 A 
BRANCH  24  25
ATOM     25  O   UNL     1       4.661  -4.512  -3.761  1.00  0.00    -0.406 OA
BRANCH  25  26
ATOM     26  C   UNL     1       3.773  -5.202  -4.627  1.00  0.00     0.573 C 
ATOM     27  F   UNL     1       2.494  -4.812  -4.433  1.00  0.00    -0.132 F 
ATOM     28  F   UNL     1       4.111  -5.008  -5.920  1.00  0.00    -0.132 F 
ATOM     29  F   UNL     1       3.850  -6.525  -4.364  1.00  0.00    -0.132 F 
ENDBRANCH  25  26
ENDBRANCH  24  25
ENDBRANCH   8  19
ENDBRANCH   4   6
ENDBRANCH   3   4
ENDBRANCH   2   3
ENDBRANCH   1   2
BRANCH   1  30
ATOM     30  O   UNL     1       4.380   7.337  -2.600  1.00  0.00    -0.374 OA
BRANCH  30  31
ATOM     31  C   UNL     1       5.123   6.252  -2.060  1.00  0.00     0.202 C 
BRANCH  31  32
ATOM     32  C   UNL     1       4.753   5.737  -0.678  1.00  0.00     0.261 C 
BRANCH  32  33
ATOM     33  O   UNL     1       3.386   5.375  -0.554  1.00  0.00    -0.460 OA
BRANCH  33  34
ATOM     34  C   UNL     1       2.657   6.294   0.121  1.00  0.00     0.338 C 
ATOM     35  O   UNL     1       2.872   7.491   0.213  1.00  0.00    -0.246 OA
BRANCH  34  36
ATOM     36  C   UNL     1       1.661   5.596   0.933  1.00  0.00     0.060 A 
ATOM     37  C   UNL     1       0.775   6.387   1.669  1.00  0.00     0.016 A 
ATOM     38  C   UNL     1       1.815   4.224   1.174  1.00  0.00     0.016 A 
ATOM     39  C   UNL     1       0.151   5.830   2.763  1.00  0.00     0.010 A 
ATOM     40  C   UNL     1       1.225   3.680   2.286  1.00  0.00     0.010 A 
ATOM     41  C   UNL     1       0.441   4.502   3.094  1.00  0.00    -0.014 A 
BRANCH  41  42
ATOM     42  C   UNL     1      -0.292   3.885   4.181  1.00  0.00     0.031 A 
ATOM     43  C   UNL     1      -1.703   3.631   3.788  1.00  0.00     0.074 A 
ATOM     44  C   UNL     1       0.330   3.471   5.304  1.00  0.00     0.049 A 
ATOM     45  N   UNL     1      -2.768   4.085   4.356  1.00  0.00    -0.248 NA
ATOM     46  C   UNL     1      -1.965   2.957   2.498  1.00  0.00     0.031 C 
ATOM     47  C   UNL     1       1.772   3.511   5.574  1.00  0.00     0.029 A 
ATOM     48  N   UNL     1      -0.162   2.817   6.396  1.00  0.00    -0.354 N 
ATOM     49  C   UNL     1      -3.832   3.550   3.631  1.00  0.00     0.074 A 
ATOM     50  C   UNL     1      -3.289   3.062   2.399  1.00  0.00     0.031 C 
ATOM     51  C   UNL     1       2.058   2.710   6.625  1.00  0.00     0.029 A 
ATOM     52  C   UNL     1       0.817   2.192   7.171  1.00  0.00     0.049 A 
ATOM     53  H   UNL     1      -1.121   2.788   6.618  1.00  0.00     0.167 HD
ATOM     54  C   UNL     1      -4.982   3.227   4.280  1.00  0.00     0.037 A 
ATOM     55  C   UNL     1       0.606   1.261   8.138  1.00  0.00     0.037 A 
ATOM     56  C   UNL     1      -5.067   3.963   5.517  1.00  0.00     0.049 A 
ATOM     57  C   UNL     1      -0.816   1.367   8.537  1.00  0.00     0.074 A 
ATOM     58  C   UNL     1      -5.240   5.281   5.878  1.00  0.00     0.029 A 
ATOM     59  N   UNL     1      -4.499   3.317   6.581  1.00  0.00    -0.354 N 
ATOM     60  N   UNL     1      -1.306   2.382   9.190  1.00  0.00    -0.248 NA
ATOM     61  C   UNL     1      -1.796   0.514   7.877  1.00  0.00     0.031 C 
ATOM     62  C   UNL     1      -4.562   5.437   7.124  1.00  0.00     0.029 A 
ATOM     63  C   UNL     1      -4.054   4.200   7.521  1.00  0.00     0.049 A 
ATOM     64  H   UNL     1      -4.421   2.339   6.659  1.00  0.00     0.167 HD
ATOM     65  C   UNL     1      -2.570   2.552   8.656  1.00  0.00     0.074 A 
ATOM     66  C   UNL     1      -2.878   1.288   7.996  1.00  0.00     0.031 C 
ATOM     67  C   UNL     1      -3.091   3.807   8.525  1.00  0.00     0.037 A 
BRANCH  54  68
ATOM     68  C   UNL     1      -5.675   1.880   4.120  1.00  0.00     0.064 A 
ATOM     69  C   UNL     1      -6.824   1.624   4.900  1.00  0.00     0.173 A 
ATOM     70  C   UNL     1      -5.097   0.737   3.519  1.00  0.00     0.173 A 
ATOM     71  F   UNL     1      -7.452   2.624   5.536  1.00  0.00    -0.203 F 
ATOM     72  C   UNL     1      -7.293   0.327   5.130  1.00  0.00     0.198 A 
ATOM     73  C   UNL     1      -5.595  -0.550   3.715  1.00  0.00     0.198 A 
ATOM     74  F   UNL     1      -3.967   0.784   2.808  1.00  0.00    -0.203 F 
ATOM     75  F   UNL     1      -8.306   0.128   5.984  1.00  0.00    -0.200 F 
ATOM     76  C   UNL     1      -6.673  -0.760   4.545  1.00  0.00     0.200 A 
ATOM     77  F   UNL     1      -4.961  -1.591   3.156  1.00  0.00    -0.200 F 
ATOM     78  F   UNL     1      -7.079  -2.007   4.813  1.00  0.00    -0.200 F 
ENDBRANCH  54  68
BRANCH  55  79
ATOM     79  C   UNL     1       1.446   0.111   8.564  1.00  0.00     0.064 A 
ATOM     80  C   UNL     1       1.165  -0.592   9.751  1.00  0.00     0.173 A 
ATOM     81  C   UNL     1       2.350  -0.507   7.679  1.00  0.00     0.173 A 
ATOM     82  F   UNL     1       0.286  -0.098  10.636  1.00  0.00    -0.203 F 
ATOM     83  C   UNL     1       1.716  -1.851  10.013  1.00  0.00     0.198 A 
ATOM     84  C   UNL     1       2.906  -1.760   7.945  1.00  0.00     0.198 A 
ATOM     85  F   UNL     1       2.634   0.043   6.490  1.00  0.00    -0.203 F 
ATOM     86  F   UNL     1       1.362  -2.521  11.119  1.00  0.00    -0.200 F 
ATOM     87  C   UNL     1       2.576  -2.441   9.102  1.00  0.00     0.200 A 
ATOM     88  F   UNL     1       3.708  -2.335   7.038  1.00  0.00    -0.200 F 
ATOM     89  F   UNL     1       3.049  -3.676   9.316  1.00  0.00    -0.200 F 
ENDBRANCH  55  79
BRANCH  67  90
ATOM     90  C   UNL     1      -2.517   4.883   9.395  1.00  0.00     0.064 A 
ATOM     91  C   UNL     1      -1.192   5.348   9.335  1.00  0.00     0.173 A 
ATOM     92  C   UNL     1      -3.391   5.528  10.281  1.00  0.00     0.173 A 
ATOM     93  F   UNL     1      -0.321   4.841   8.452  1.00  0.00    -0.203 F 
ATOM     94  C   UNL     1      -0.757   6.381  10.165  1.00  0.00     0.198 A 
ATOM     95  C   UNL     1      -2.966   6.587  11.073  1.00  0.00     0.198 A 
ATOM     96  F   UNL     1      -4.678   5.152  10.348  1.00  0.00    -0.203 F 
ATOM     97  F   UNL     1       0.518   6.793  10.113  1.00  0.00    -0.200 F 
ATOM     98  C   UNL     1      -1.647   7.004  11.026  1.00  0.00     0.200 A 
ATOM     99  F   UNL     1      -3.844   7.216  11.867  1.00  0.00    -0.200 F 
ATOM    100  F   UNL     1      -1.238   8.022  11.796  1.00  0.00    -0.200 F 
ENDBRANCH  67  90
ENDBRANCH  41  42
ENDBRANCH  34  36
ENDBRANCH  33  34
ENDBRANCH  32  33
ENDBRANCH  31  32
ENDBRANCH  30  31
ENDBRANCH   1  30
TORSDOF 19
