REMARK SMILES CC1=C([C@H](NC(=O)[C@@H]2[C@H](C)c3cc(F)ccc3N2C)C(=O)OCCOCCOC(=O)c2ccc(-c3c4nc(c(-c5c(F)c(F)c(F)c(F)c5F)c5ccc([nH]5)c(-c5c(F)c(F)c(F)c(F)c5F)c5nc(c(-c6c(F)c(F)c(F)c(F)c6F)c6ccc3[nH]6)C=C5)C=C4)cc2)[C@@H](C)N=N1
REMARK SMILES IDX 25 1 24 2 23 3 22 4 20 5 21 6 4 7 3 8 1 9 2 10 97 11 94 12
REMARK SMILES IDX 96 13 95 14 5 15 6 16 7 18 8 19 9 20 18 21 11 22 10 23 17 24
REMARK SMILES IDX 19 25 12 26 16 27 13 28 15 29 14 30 26 31 27 32 28 33 29 34
REMARK SMILES IDX 30 35 31 36 32 37 93 38 33 39 92 40 34 41 35 42 36 43 86 44
REMARK SMILES IDX 37 45 91 46 85 47 87 48 38 49 90 50 84 51 83 52 39 54 71 55
REMARK SMILES IDX 51 56 70 57 52 58 55 59 69 60 88 61 53 62 54 63 68 65 89 66
REMARK SMILES IDX 56 67 40 68 41 69 49 70 42 71 43 72 47 73 50 74 44 75 45 76
REMARK SMILES IDX 48 77 46 78 72 79 73 80 81 81 74 82 75 83 79 84 82 85 76 86
REMARK SMILES IDX 77 87 80 88 78 89 57 90 58 91 66 92 59 93 60 94 64 95 67 96
REMARK SMILES IDX 61 97 62 98 65 99 63 100
REMARK H PARENT 5 17 87 53 55 64
REMARK Flexibility Score: inf
ROOT
ATOM      1  O   UNL     1       5.284   2.057   2.353  1.00  0.00    -0.374 OA
ENDROOT
BRANCH   1   2
ATOM      2  C   UNL     1       5.586   3.473   1.988  1.00  0.00     0.202 C 
BRANCH   2   3
ATOM      3  C   UNL     1       5.105   4.706   0.220  1.00  0.00     0.261 C 
BRANCH   3   4
ATOM      4  O   UNL     1       3.679   4.801  -0.632  1.00  0.00    -0.461 OA
BRANCH   4   5
ATOM      5  C   UNL     1       3.433   4.333  -1.896  1.00  0.00     0.333 C 
ATOM      6  O   UNL     1       4.324   4.261  -2.739  1.00  0.00    -0.249 OA
BRANCH   5   7
ATOM      7  C   UNL     1       1.893   3.616  -2.139  1.00  0.00     0.223 C 
BRANCH   7   8
ATOM      8  C   UNL     1       1.375   4.175  -3.393  1.00  0.00     0.012 C 
ATOM      9  C   UNL     1       2.681   2.829  -5.083  1.00  0.00     0.069 C 
ATOM     10  C   UNL     1       1.727   3.892  -4.645  1.00  0.00     0.064 C 
ATOM     11  N   UNL     1       1.135   4.756  -5.528  1.00  0.00    -0.160 NA
ATOM     12  C   UNL     1       0.352   5.239  -3.465  1.00  0.00     0.156 C 
ATOM     13  N   UNL     1       0.429   5.608  -4.900  1.00  0.00    -0.181 NA
ATOM     14  C   UNL     1       0.607   6.396  -2.514  1.00  0.00     0.040 C 
ENDBRANCH   7   8
BRANCH   7  15
ATOM     15  N   UNL     1       0.649   3.447  -1.286  1.00  0.00    -0.337 N 
ATOM     16  C   UNL     1       0.571   3.227   0.089  1.00  0.00     0.244 C 
ATOM     17  H   UNL     1      -0.211   3.499  -1.763  1.00  0.00     0.164 HD
ATOM     18  O   UNL     1      -0.468   2.965   0.672  1.00  0.00    -0.273 OA
BRANCH  16  19
ATOM     19  C   UNL     1       1.899   3.442   0.685  1.00  0.00     0.178 C 
ATOM     20  C   UNL     1       2.885   2.308   0.212  1.00  0.00     0.050 C 
ATOM     21  N   UNL     1       2.273   4.047   1.976  1.00  0.00    -0.362 N 
ATOM     22  C   UNL     1       4.156   2.905   0.609  1.00  0.00    -0.016 A 
ATOM     23  C   UNL     1       2.504   0.904   0.566  1.00  0.00     0.015 C 
ATOM     24  C   UNL     1       3.651   4.233   1.695  1.00  0.00     0.041 A 
ATOM     25  C   UNL     1       1.350   4.966   2.616  1.00  0.00     0.144 C 
ATOM     26  C   UNL     1       5.832   2.743   0.003  1.00  0.00     0.045 A 
ATOM     27  C   UNL     1       4.873   5.408   2.166  1.00  0.00     0.029 A 
ATOM     28  C   UNL     1       7.065   3.930   0.521  1.00  0.00     0.123 A 
ATOM     29  C   UNL     1       6.597   5.245   1.638  1.00  0.00     0.041 A 
ATOM     30  F   UNL     1       8.329   3.845   0.098  1.00  0.00    -0.207 F 
ENDBRANCH  16  19
ENDBRANCH   7  15
ENDBRANCH   5   7
ENDBRANCH   4   5
ENDBRANCH   3   4
ENDBRANCH   2   3
ENDBRANCH   1   2
BRANCH   1  31
ATOM     31  C   UNL     1       4.360   1.802   3.424  1.00  0.00     0.202 C 
BRANCH  31  32
ATOM     32  C   UNL     1       3.690   2.772   4.509  1.00  0.00     0.261 C 
BRANCH  32  33
ATOM     33  O   UNL     1       3.748   4.236   4.407  1.00  0.00    -0.460 OA
BRANCH  33  34
ATOM     34  C   UNL     1       3.736   5.103   5.470  1.00  0.00     0.338 C 
ATOM     35  O   UNL     1       3.737   4.764   6.641  1.00  0.00    -0.246 OA
BRANCH  34  36
ATOM     36  C   UNL     1       4.044   6.548   5.005  1.00  0.00     0.060 A 
ATOM     37  C   UNL     1       3.316   7.279   4.032  1.00  0.00     0.016 A 
ATOM     38  C   UNL     1       5.382   6.925   5.192  1.00  0.00     0.016 A 
ATOM     39  C   UNL     1       4.009   8.095   3.066  1.00  0.00     0.010 A 
ATOM     40  C   UNL     1       6.066   7.711   4.225  1.00  0.00     0.010 A 
ATOM     41  C   UNL     1       5.432   8.190   3.060  1.00  0.00    -0.014 A 
BRANCH  41  42
ATOM     42  C   UNL     1       6.192   9.059   2.069  1.00  0.00     0.031 A 
ATOM     43  C   UNL     1       5.763  10.445   2.357  1.00  0.00     0.074 A 
ATOM     44  C   UNL     1       7.173   8.867   1.121  1.00  0.00     0.049 A 
ATOM     45  N   UNL     1       5.064  11.206   1.580  1.00  0.00    -0.248 NA
ATOM     46  C   UNL     1       5.850  10.908   3.754  1.00  0.00     0.031 C 
ATOM     47  C   UNL     1       7.751   7.645   0.579  1.00  0.00     0.029 A 
ATOM     48  N   UNL     1       7.975   9.795   0.445  1.00  0.00    -0.354 N 
ATOM     49  C   UNL     1       4.827  12.339   2.340  1.00  0.00     0.074 A 
ATOM     50  C   UNL     1       5.072  11.986   3.712  1.00  0.00     0.031 C 
ATOM     51  C   UNL     1       8.968   7.822   0.023  1.00  0.00     0.029 A 
ATOM     52  C   UNL     1       9.181   9.244  -0.084  1.00  0.00     0.049 A 
ATOM     53  H   UNL     1       7.729  10.743   0.344  1.00  0.00     0.167 HD
ATOM     54  C   UNL     1       4.836  13.565   1.764  1.00  0.00     0.037 A 
ATOM     55  C   UNL     1      10.218   9.834  -0.753  1.00  0.00     0.037 A 
ATOM     56  C   UNL     1       4.600  13.491   0.349  1.00  0.00     0.049 A 
ATOM     57  C   UNL     1       9.720  11.120  -1.264  1.00  0.00     0.074 A 
ATOM     58  C   UNL     1       3.562  13.055  -0.449  1.00  0.00     0.029 A 
ATOM     59  N   UNL     1       5.701  13.556  -0.460  1.00  0.00    -0.354 N 
ATOM     60  N   UNL     1       8.876  11.222  -2.247  1.00  0.00    -0.248 NA
ATOM     61  C   UNL     1       9.782  12.232  -0.339  1.00  0.00     0.031 C 
ATOM     62  C   UNL     1       4.177  12.498  -1.608  1.00  0.00     0.029 A 
ATOM     63  C   UNL     1       5.553  12.688  -1.508  1.00  0.00     0.049 A 
ATOM     64  H   UNL     1       6.481  14.139  -0.312  1.00  0.00     0.167 HD
ATOM     65  C   UNL     1       7.963  12.154  -1.790  1.00  0.00     0.074 A 
ATOM     66  C   UNL     1       8.599  12.774  -0.627  1.00  0.00     0.031 C 
ATOM     67  C   UNL     1       6.669  12.113  -2.218  1.00  0.00     0.037 A 
BRANCH  54  68
ATOM     68  C   UNL     1       5.515  14.726   2.440  1.00  0.00     0.064 A 
ATOM     69  C   UNL     1       5.252  16.031   2.007  1.00  0.00     0.173 A 
ATOM     70  C   UNL     1       6.599  14.585   3.342  1.00  0.00     0.173 A 
ATOM     71  F   UNL     1       4.302  16.261   1.090  1.00  0.00    -0.203 F 
ATOM     72  C   UNL     1       6.014  17.115   2.454  1.00  0.00     0.198 A 
ATOM     73  C   UNL     1       7.306  15.671   3.842  1.00  0.00     0.198 A 
ATOM     74  F   UNL     1       7.094  13.390   3.685  1.00  0.00    -0.203 F 
ATOM     75  F   UNL     1       5.796  18.333   1.941  1.00  0.00    -0.200 F 
ATOM     76  C   UNL     1       7.027  16.937   3.382  1.00  0.00     0.200 A 
ATOM     77  F   UNL     1       8.305  15.464   4.711  1.00  0.00    -0.200 F 
ATOM     78  F   UNL     1       7.772  17.972   3.788  1.00  0.00    -0.200 F 
ENDBRANCH  54  68
BRANCH  55  79
ATOM     79  C   UNL     1      11.692   9.571  -0.689  1.00  0.00     0.064 A 
ATOM     80  C   UNL     1      12.601  10.293  -1.498  1.00  0.00     0.173 A 
ATOM     81  C   UNL     1      12.261   8.874   0.391  1.00  0.00     0.173 A 
ATOM     82  F   UNL     1      12.159  11.004  -2.546  1.00  0.00    -0.203 F 
ATOM     83  C   UNL     1      13.968  10.376  -1.194  1.00  0.00     0.198 A 
ATOM     84  C   UNL     1      13.626   8.957   0.692  1.00  0.00     0.198 A 
ATOM     85  F   UNL     1      11.489   8.180   1.237  1.00  0.00    -0.203 F 
ATOM     86  F   UNL     1      14.777  11.147  -1.936  1.00  0.00    -0.200 F 
ATOM     87  C   UNL     1      14.474   9.727  -0.083  1.00  0.00     0.200 A 
ATOM     88  F   UNL     1      14.100   8.347   1.787  1.00  0.00    -0.200 F 
ATOM     89  F   UNL     1      15.760   9.877   0.265  1.00  0.00    -0.200 F 
ENDBRANCH  55  79
BRANCH  67  90
ATOM     90  C   UNL     1       6.358  11.280  -3.433  1.00  0.00     0.064 A 
ATOM     91  C   UNL     1       6.484   9.880  -3.507  1.00  0.00     0.173 A 
ATOM     92  C   UNL     1       5.788  11.935  -4.535  1.00  0.00     0.173 A 
ATOM     93  F   UNL     1       6.950   9.174  -2.466  1.00  0.00    -0.203 F 
ATOM     94  C   UNL     1       6.079   9.181  -4.648  1.00  0.00     0.198 A 
ATOM     95  C   UNL     1       5.351  11.232  -5.652  1.00  0.00     0.198 A 
ATOM     96  F   UNL     1       5.611  13.265  -4.503  1.00  0.00    -0.203 F 
ATOM     97  F   UNL     1       6.214   7.848  -4.705  1.00  0.00    -0.200 F 
ATOM     98  C   UNL     1       5.504   9.857  -5.713  1.00  0.00     0.200 A 
ATOM     99  F   UNL     1       4.757  11.889  -6.658  1.00  0.00    -0.200 F 
ATOM    100  F   UNL     1       5.076   9.184  -6.791  1.00  0.00    -0.200 F 
ENDBRANCH  67  90
ENDBRANCH  41  42
ENDBRANCH  34  36
ENDBRANCH  33  34
ENDBRANCH  32  33
ENDBRANCH  31  32
ENDBRANCH   1  31
TORSDOF 17
