REMARK SMILES Cn1ncc(C(=O)OCCOCCOC(=O)c2ccc(-c3c4nc(c(-c5c(F)c(F)c(F)c(F)c5F)c5ccc([nH]5)c(-c5c(F)c(F)c(F)c(F)c5F)c5nc(c(-c6c(F)c(F)c(F)c(F)c6F)c6ccc3[nH]6)C=C5)C=C4)cc2)c1C(=O)Nc1ccccn1
REMARK SMILES IDX 11 1 10 2 9 3 8 4 6 5 7 6 5 7 1 8 2 9 3 10 80 11 4 12 81 13
REMARK SMILES IDX 82 14 83 15 84 17 85 18 89 19 86 20 88 21 87 22 12 23 13 24
REMARK SMILES IDX 14 25 15 26 16 27 17 28 18 29 79 30 19 31 78 32 20 33 21 34
REMARK SMILES IDX 22 35 72 36 23 37 77 38 71 39 73 40 24 41 76 42 70 43 69 44
REMARK SMILES IDX 25 46 57 47 37 48 56 49 38 50 41 51 55 52 74 53 39 54 40 55
REMARK SMILES IDX 54 57 75 58 42 59 26 60 27 61 35 62 28 63 29 64 33 65 36 66
REMARK SMILES IDX 30 67 31 68 34 69 32 70 58 71 59 72 67 73 60 74 61 75 65 76
REMARK SMILES IDX 68 77 62 78 63 79 66 80 64 81 43 82 44 83 52 84 45 85 46 86
REMARK SMILES IDX 50 87 53 88 47 89 48 90 51 91 49 92
REMARK H PARENT 83 16 73 45 41 56
REMARK Flexibility Score: inf
ROOT
ATOM      1  O   UNL     1       4.947  -1.918  -1.469  1.00  0.00    -0.374 OA
ENDROOT
BRANCH   1   2
ATOM      2  C   UNL     1       4.721  -3.166  -0.807  1.00  0.00     0.202 C 
BRANCH   2   3
ATOM      3  C   UNL     1       4.120  -3.044   0.593  1.00  0.00     0.261 C 
BRANCH   3   4
ATOM      4  O   UNL     1       2.792  -2.508   0.494  1.00  0.00    -0.460 OA
BRANCH   4   5
ATOM      5  C   UNL     1       2.577  -1.367   1.197  1.00  0.00     0.342 C 
ATOM      6  O   UNL     1       3.345  -0.909   2.036  1.00  0.00    -0.246 OA
BRANCH   5   7
ATOM      7  C   UNL     1       1.429  -0.608   0.742  1.00  0.00     0.111 A 
ATOM      8  C   UNL     1      -1.741   0.700   1.218  1.00  0.00     0.174 C 
ATOM      9  N   UNL     1      -0.535   0.265   0.545  1.00  0.00    -0.262 N 
ATOM     10  N   UNL     1       0.286   1.251   0.126  1.00  0.00    -0.180 NA
ATOM     11  C   UNL     1       0.083  -0.973   0.582  1.00  0.00     0.140 A 
ATOM     12  C   UNL     1       1.490   0.758   0.399  1.00  0.00     0.151 A 
BRANCH  11  13
ATOM     13  C   UNL     1      -0.480  -2.306   0.708  1.00  0.00     0.275 C 
ATOM     14  O   UNL     1       0.221  -3.257   1.068  1.00  0.00    -0.267 OA
ATOM     15  N   UNL     1      -1.805  -2.609   0.544  1.00  0.00    -0.305 N 
ATOM     16  H   UNL     1      -2.022  -3.517   0.855  1.00  0.00     0.171 HD
BRANCH  15  17
ATOM     17  C   UNL     1      -2.912  -1.945   0.046  1.00  0.00     0.132 A 
ATOM     18  C   UNL     1      -2.898  -1.121  -1.067  1.00  0.00     0.047 A 
ATOM     19  N   UNL     1      -4.021  -2.157   0.784  1.00  0.00    -0.239 NA
ATOM     20  C   UNL     1      -4.062  -0.411  -1.375  1.00  0.00     0.005 A 
ATOM     21  C   UNL     1      -5.121  -1.435   0.490  1.00  0.00     0.113 A 
ATOM     22  C   UNL     1      -5.185  -0.544  -0.564  1.00  0.00     0.020 A 
ENDBRANCH  15  17
ENDBRANCH  11  13
ENDBRANCH   5   7
ENDBRANCH   4   5
ENDBRANCH   3   4
ENDBRANCH   2   3
ENDBRANCH   1   2
BRANCH   1  23
ATOM     23  C   UNL     1       3.821  -1.318  -2.116  1.00  0.00     0.202 C 
BRANCH  23  24
ATOM     24  C   UNL     1       3.492  -1.871  -3.506  1.00  0.00     0.261 C 
BRANCH  24  25
ATOM     25  O   UNL     1       2.950  -3.202  -3.420  1.00  0.00    -0.460 OA
BRANCH  25  26
ATOM     26  C   UNL     1       3.749  -4.178  -3.913  1.00  0.00     0.338 C 
ATOM     27  O   UNL     1       4.800  -4.040  -4.516  1.00  0.00    -0.246 OA
BRANCH  26  28
ATOM     28  C   UNL     1       3.263  -5.498  -3.466  1.00  0.00     0.060 A 
ATOM     29  C   UNL     1       4.205  -6.370  -2.903  1.00  0.00     0.016 A 
ATOM     30  C   UNL     1       1.938  -5.904  -3.641  1.00  0.00     0.016 A 
ATOM     31  C   UNL     1       3.837  -7.669  -2.562  1.00  0.00     0.010 A 
ATOM     32  C   UNL     1       1.573  -7.213  -3.310  1.00  0.00     0.010 A 
ATOM     33  C   UNL     1       2.530  -8.111  -2.802  1.00  0.00    -0.014 A 
BRANCH  33  34
ATOM     34  C   UNL     1       2.215  -9.553  -2.663  1.00  0.00     0.031 A 
ATOM     35  C   UNL     1       2.258 -10.427  -3.884  1.00  0.00     0.074 A 
ATOM     36  C   UNL     1       1.934 -10.084  -1.460  1.00  0.00     0.049 A 
ATOM     37  N   UNL     1       2.017 -11.709  -3.999  1.00  0.00    -0.248 NA
ATOM     38  C   UNL     1       2.626  -9.769  -5.148  1.00  0.00     0.031 C 
ATOM     39  C   UNL     1       1.897  -9.346  -0.200  1.00  0.00     0.029 A 
ATOM     40  N   UNL     1       1.624 -11.373  -1.108  1.00  0.00    -0.354 N 
ATOM     41  C   UNL     1       2.204 -12.008  -5.341  1.00  0.00     0.074 A 
ATOM     42  C   UNL     1       2.550 -10.773  -6.009  1.00  0.00     0.031 C 
ATOM     43  C   UNL     1       1.571 -10.195   0.791  1.00  0.00     0.029 A 
ATOM     44  C   UNL     1       1.355 -11.528   0.229  1.00  0.00     0.049 A 
ATOM     45  H   UNL     1       1.597 -12.117  -1.753  1.00  0.00     0.167 HD
ATOM     46  C   UNL     1       2.105 -13.209  -5.960  1.00  0.00     0.037 A 
ATOM     47  C   UNL     1       0.961 -12.618   0.914  1.00  0.00     0.037 A 
ATOM     48  C   UNL     1       1.761 -14.439  -5.298  1.00  0.00     0.049 A 
ATOM     49  C   UNL     1       0.791 -13.928   0.189  1.00  0.00     0.074 A 
ATOM     50  C   UNL     1       1.655 -15.709  -5.836  1.00  0.00     0.029 A 
ATOM     51  N   UNL     1       1.459 -14.548  -3.949  1.00  0.00    -0.354 N 
ATOM     52  N   UNL     1       0.997 -14.209  -1.075  1.00  0.00    -0.248 NA
ATOM     53  C   UNL     1       0.333 -15.074   0.989  1.00  0.00     0.031 C 
ATOM     54  C   UNL     1       1.248 -16.581  -4.821  1.00  0.00     0.029 A 
ATOM     55  C   UNL     1       1.141 -15.861  -3.642  1.00  0.00     0.049 A 
ATOM     56  H   UNL     1       1.468 -13.803  -3.305  1.00  0.00     0.167 HD
ATOM     57  C   UNL     1       0.718 -15.562  -1.217  1.00  0.00     0.074 A 
ATOM     58  C   UNL     1       0.340 -16.051   0.092  1.00  0.00     0.031 C 
ATOM     59  C   UNL     1       0.771 -16.331  -2.332  1.00  0.00     0.037 A 
BRANCH  46  60
ATOM     60  C   UNL     1       2.355 -13.247  -7.437  1.00  0.00     0.064 A 
ATOM     61  C   UNL     1       3.650 -13.131  -7.965  1.00  0.00     0.173 A 
ATOM     62  C   UNL     1       1.293 -13.438  -8.333  1.00  0.00     0.173 A 
ATOM     63  F   UNL     1       4.696 -12.932  -7.149  1.00  0.00    -0.203 F 
ATOM     64  C   UNL     1       3.869 -13.186  -9.339  1.00  0.00     0.198 A 
ATOM     65  C   UNL     1       1.518 -13.515  -9.704  1.00  0.00     0.198 A 
ATOM     66  F   UNL     1       0.037 -13.556  -7.877  1.00  0.00    -0.203 F 
ATOM     67  F   UNL     1       5.109 -13.036  -9.825  1.00  0.00    -0.200 F 
ATOM     68  C   UNL     1       2.804 -13.384 -10.207  1.00  0.00     0.200 A 
ATOM     69  F   UNL     1       0.491 -13.716 -10.540  1.00  0.00    -0.200 F 
ATOM     70  F   UNL     1       3.018 -13.443 -11.528  1.00  0.00    -0.200 F 
ENDBRANCH  46  60
BRANCH  47  71
ATOM     71  C   UNL     1       0.684 -12.520   2.370  1.00  0.00     0.064 A 
ATOM     72  C   UNL     1       1.521 -13.138   3.309  1.00  0.00     0.173 A 
ATOM     73  C   UNL     1      -0.436 -11.825   2.849  1.00  0.00     0.173 A 
ATOM     74  F   UNL     1       2.587 -13.838   2.896  1.00  0.00    -0.203 F 
ATOM     75  C   UNL     1       1.238 -13.078   4.672  1.00  0.00     0.198 A 
ATOM     76  C   UNL     1      -0.704 -11.745   4.213  1.00  0.00     0.198 A 
ATOM     77  F   UNL     1      -1.271 -11.223   1.989  1.00  0.00    -0.203 F 
ATOM     78  F   UNL     1       2.028 -13.717   5.546  1.00  0.00    -0.200 F 
ATOM     79  C   UNL     1       0.130 -12.377   5.123  1.00  0.00     0.200 A 
ATOM     80  F   UNL     1      -1.773 -11.062   4.645  1.00  0.00    -0.200 F 
ATOM     81  F   UNL     1      -0.143 -12.322   6.434  1.00  0.00    -0.200 F 
ENDBRANCH  47  71
BRANCH  59  82
ATOM     82  C   UNL     1       0.435 -17.786  -2.183  1.00  0.00     0.064 A 
ATOM     83  C   UNL     1      -0.887 -18.218  -2.003  1.00  0.00     0.173 A 
ATOM     84  C   UNL     1       1.441 -18.760  -2.267  1.00  0.00     0.173 A 
ATOM     85  F   UNL     1      -1.881 -17.323  -1.901  1.00  0.00    -0.203 F 
ATOM     86  C   UNL     1      -1.187 -19.573  -1.893  1.00  0.00     0.198 A 
ATOM     87  C   UNL     1       1.134 -20.115  -2.182  1.00  0.00     0.198 A 
ATOM     88  F   UNL     1       2.720 -18.398  -2.446  1.00  0.00    -0.203 F 
ATOM     89  F   UNL     1      -2.452 -19.962  -1.682  1.00  0.00    -0.200 F 
ATOM     90  C   UNL     1      -0.178 -20.520  -1.989  1.00  0.00     0.200 A 
ATOM     91  F   UNL     1       2.109 -21.029  -2.287  1.00  0.00    -0.200 F 
ATOM     92  F   UNL     1      -0.470 -21.824  -1.891  1.00  0.00    -0.200 F 
ENDBRANCH  59  82
ENDBRANCH  33  34
ENDBRANCH  26  28
ENDBRANCH  25  26
ENDBRANCH  24  25
ENDBRANCH  23  24
ENDBRANCH   1  23
TORSDOF 16
