REMARK SMILES C[C@@H](C(=O)OCCOCCOC(=O)c1ccc(-c2c3nc(c(-c4c(F)c(F)c(F)c(F)c4F)c4ccc([nH]4)c(-c4c(F)c(F)c(F)c(F)c4F)c4nc(c(-c5c(F)c(F)c(F)c(F)c5F)c5ccc2[nH]5)C=C4)C=C3)cc1)c1ccc(C[C@H]2CCCC2=O)cc1[N+](=O)[O-]
REMARK SMILES IDX 7 1 6 2 5 3 3 4 4 5 2 6 1 7 77 8 78 9 89 10 79 11 88 12
REMARK SMILES IDX 80 13 90 14 91 15 92 16 81 17 82 18 83 19 86 20 84 21 85 22
REMARK SMILES IDX 87 23 8 24 9 25 10 26 11 27 12 28 13 29 14 30 15 31 76 32
REMARK SMILES IDX 16 33 75 34 17 35 18 36 19 37 69 38 20 39 74 40 68 41 70 42
REMARK SMILES IDX 21 43 73 44 67 45 66 46 22 48 54 49 34 50 53 51 35 52 38 53
REMARK SMILES IDX 52 54 71 55 36 56 37 57 51 59 72 60 39 61 23 62 24 63 32 64
REMARK SMILES IDX 25 65 26 66 30 67 33 68 27 69 28 70 31 71 29 72 55 73 56 74
REMARK SMILES IDX 64 75 57 76 58 77 62 78 65 79 59 80 60 81 63 82 61 83 40 84
REMARK SMILES IDX 41 85 49 86 42 87 43 88 47 89 50 90 44 91 45 92 48 93 46 94
REMARK H PARENT 70 47 38 58
REMARK Flexibility Score: inf
ROOT
ATOM      1  C   UNL     1       2.170   1.353   4.360  1.00  0.00     0.202 C 
ENDROOT
BRANCH   1   2
ATOM      2  C   UNL     1       2.163  -0.151   4.078  1.00  0.00     0.261 C 
BRANCH   2   3
ATOM      3  O   UNL     1       1.934  -0.409   2.679  1.00  0.00    -0.463 OA
BRANCH   3   4
ATOM      4  C   UNL     1       0.945  -1.300   2.402  1.00  0.00     0.313 C 
ATOM      5  O   UNL     1       0.375  -1.984   3.246  1.00  0.00    -0.252 OA
BRANCH   4   6
ATOM      6  C   UNL     1       0.564  -1.343   0.914  1.00  0.00     0.133 C 
ATOM      7  C   UNL     1       1.304  -0.324   0.032  1.00  0.00     0.025 C 
BRANCH   6   8
ATOM      8  C   UNL     1      -0.968  -1.284   0.802  1.00  0.00     0.044 A 
ATOM      9  C   UNL     1      -1.607  -0.038   0.633  1.00  0.00     0.012 A 
ATOM     10  C   UNL     1      -1.813  -2.398   1.038  1.00  0.00     0.273 A 
ATOM     11  C   UNL     1      -2.997   0.104   0.739  1.00  0.00     0.004 A 
ATOM     12  C   UNL     1      -3.211  -2.247   1.158  1.00  0.00     0.089 A 
ATOM     13  C   UNL     1      -3.811  -0.990   1.036  1.00  0.00    -0.040 A 
BRANCH  10  14
ATOM     14  N   UNL     1      -1.300  -3.771   1.171  1.00  0.00     0.063 N 
ATOM     15  O   UNL     1      -1.897  -4.532   1.946  1.00  0.00    -0.258 OA
ATOM     16  O   UNL     1      -0.354  -4.109   0.447  1.00  0.00    -0.258 OA
ENDBRANCH  10  14
BRANCH  13  17
ATOM     17  C   UNL     1      -5.304  -0.828   1.207  1.00  0.00     0.047 C 
BRANCH  17  18
ATOM     18  C   UNL     1      -5.795  -0.214   2.523  1.00  0.00     0.060 C 
ATOM     19  C   UNL     1      -5.328  -0.892   3.816  1.00  0.00     0.012 C 
ATOM     20  C   UNL     1      -5.332   1.212   2.722  1.00  0.00     0.136 C 
ATOM     21  C   UNL     1      -4.188  -0.037   4.356  1.00  0.00     0.009 C 
ATOM     22  C   UNL     1      -4.556   1.395   3.998  1.00  0.00     0.076 C 
ATOM     23  O   UNL     1      -5.581   2.125   1.943  1.00  0.00    -0.299 OA
ENDBRANCH  17  18
ENDBRANCH  13  17
ENDBRANCH   6   8
ENDBRANCH   4   6
ENDBRANCH   3   4
ENDBRANCH   2   3
ENDBRANCH   1   2
BRANCH   1  24
ATOM     24  O   UNL     1       0.917   2.026   4.222  1.00  0.00    -0.374 OA
BRANCH  24  25
ATOM     25  C   UNL     1       0.425   2.234   2.900  1.00  0.00     0.202 C 
BRANCH  25  26
ATOM     26  C   UNL     1       1.073   3.371   2.099  1.00  0.00     0.261 C 
BRANCH  26  27
ATOM     27  O   UNL     1       2.475   3.147   1.864  1.00  0.00    -0.460 OA
BRANCH  27  28
ATOM     28  C   UNL     1       3.297   4.025   2.485  1.00  0.00     0.338 C 
ATOM     29  O   UNL     1       2.974   5.020   3.124  1.00  0.00    -0.246 OA
BRANCH  28  30
ATOM     30  C   UNL     1       4.688   3.543   2.454  1.00  0.00     0.060 A 
ATOM     31  C   UNL     1       5.356   3.433   3.680  1.00  0.00     0.016 A 
ATOM     32  C   UNL     1       5.359   3.290   1.255  1.00  0.00     0.016 A 
ATOM     33  C   UNL     1       6.713   3.122   3.712  1.00  0.00     0.010 A 
ATOM     34  C   UNL     1       6.726   2.987   1.288  1.00  0.00     0.010 A 
ATOM     35  C   UNL     1       7.416   2.939   2.514  1.00  0.00    -0.014 A 
BRANCH  35  36
ATOM     36  C   UNL     1       8.896   2.859   2.551  1.00  0.00     0.031 A 
ATOM     37  C   UNL     1       9.701   4.100   2.276  1.00  0.00     0.074 A 
ATOM     38  C   UNL     1       9.517   1.711   2.875  1.00  0.00     0.049 A 
ATOM     39  N   UNL     1      10.999   4.263   2.257  1.00  0.00    -0.248 NA
ATOM     40  C   UNL     1       8.937   5.323   1.986  1.00  0.00     0.031 C 
ATOM     41  C   UNL     1       8.847   0.455   3.204  1.00  0.00     0.029 A 
ATOM     42  N   UNL     1      10.854   1.419   2.980  1.00  0.00    -0.354 N 
ATOM     43  C   UNL     1      11.207   5.601   1.951  1.00  0.00     0.074 A 
ATOM     44  C   UNL     1       9.904   6.201   1.763  1.00  0.00     0.031 C 
ATOM     45  C   UNL     1       9.778  -0.478   3.470  1.00  0.00     0.029 A 
ATOM     46  C   UNL     1      11.107   0.110   3.303  1.00  0.00     0.049 A 
ATOM     47  H   UNL     1      11.564   2.087   2.838  1.00  0.00     0.167 HD
ATOM     48  C   UNL     1      12.379   6.272   1.845  1.00  0.00     0.037 A 
ATOM     49  C   UNL     1      12.279  -0.542   3.432  1.00  0.00     0.037 A 
ATOM     50  C   UNL     1      13.675   5.677   2.037  1.00  0.00     0.049 A 
ATOM     51  C   UNL     1      13.570   0.212   3.240  1.00  0.00     0.074 A 
ATOM     52  C   UNL     1      14.919   6.278   1.974  1.00  0.00     0.029 A 
ATOM     53  N   UNL     1      13.892   4.337   2.323  1.00  0.00    -0.354 N 
ATOM     54  N   UNL     1      13.757   1.483   2.979  1.00  0.00    -0.248 NA
ATOM     55  C   UNL     1      14.814  -0.562   3.365  1.00  0.00     0.031 C 
ATOM     56  C   UNL     1      15.892   5.293   2.174  1.00  0.00     0.029 A 
ATOM     57  C   UNL     1      15.252   4.087   2.411  1.00  0.00     0.049 A 
ATOM     58  H   UNL     1      13.185   3.663   2.445  1.00  0.00     0.167 HD
ATOM     59  C   UNL     1      15.133   1.667   2.936  1.00  0.00     0.074 A 
ATOM     60  C   UNL     1      15.735   0.379   3.209  1.00  0.00     0.031 C 
ATOM     61  C   UNL     1      15.835   2.801   2.693  1.00  0.00     0.037 A 
BRANCH  48  62
ATOM     62  C   UNL     1      12.315   7.726   1.480  1.00  0.00     0.064 A 
ATOM     63  C   UNL     1      11.871   8.695   2.391  1.00  0.00     0.173 A 
ATOM     64  C   UNL     1      12.735   8.157   0.213  1.00  0.00     0.173 A 
ATOM     65  F   UNL     1      11.445   8.332   3.610  1.00  0.00    -0.203 F 
ATOM     66  C   UNL     1      11.831  10.042   2.039  1.00  0.00     0.198 A 
ATOM     67  C   UNL     1      12.718   9.507  -0.126  1.00  0.00     0.198 A 
ATOM     68  F   UNL     1      13.171   7.270  -0.693  1.00  0.00    -0.203 F 
ATOM     69  F   UNL     1      11.364  10.947   2.911  1.00  0.00    -0.200 F 
ATOM     70  C   UNL     1      12.260  10.448   0.784  1.00  0.00     0.200 A 
ATOM     71  F   UNL     1      13.144   9.898  -1.335  1.00  0.00    -0.200 F 
ATOM     72  F   UNL     1      12.227  11.745   0.450  1.00  0.00    -0.200 F 
ENDBRANCH  48  62
BRANCH  49  73
ATOM     73  C   UNL     1      12.291  -1.993   3.751  1.00  0.00     0.064 A 
ATOM     74  C   UNL     1      12.756  -2.459   4.988  1.00  0.00     0.173 A 
ATOM     75  C   UNL     1      11.856  -2.945   2.816  1.00  0.00     0.173 A 
ATOM     76  F   UNL     1      13.207  -1.590   5.904  1.00  0.00    -0.203 F 
ATOM     77  C   UNL     1      12.801  -3.823   5.272  1.00  0.00     0.198 A 
ATOM     78  C   UNL     1      11.877  -4.306   3.111  1.00  0.00     0.198 A 
ATOM     79  F   UNL     1      11.406  -2.550   1.616  1.00  0.00    -0.203 F 
ATOM     80  F   UNL     1      13.293  -4.244   6.445  1.00  0.00    -0.200 F 
ATOM     81  C   UNL     1      12.356  -4.745   4.336  1.00  0.00     0.200 A 
ATOM     82  F   UNL     1      11.437  -5.192   2.207  1.00  0.00    -0.200 F 
ATOM     83  F   UNL     1      12.399  -6.055   4.610  1.00  0.00    -0.200 F 
ENDBRANCH  49  73
BRANCH  61  84
ATOM     84  C   UNL     1      17.333   2.711   2.746  1.00  0.00     0.064 A 
ATOM     85  C   UNL     1      18.068   2.074   1.737  1.00  0.00     0.173 A 
ATOM     86  C   UNL     1      18.042   3.308   3.800  1.00  0.00     0.173 A 
ATOM     87  F   UNL     1      17.435   1.475   0.716  1.00  0.00    -0.203 F 
ATOM     88  C   UNL     1      19.458   2.018   1.791  1.00  0.00     0.198 A 
ATOM     89  C   UNL     1      19.433   3.275   3.836  1.00  0.00     0.198 A 
ATOM     90  F   UNL     1      17.386   3.937   4.786  1.00  0.00    -0.203 F 
ATOM     91  F   UNL     1      20.139   1.366   0.838  1.00  0.00    -0.200 F 
ATOM     92  C   UNL     1      20.140   2.624   2.836  1.00  0.00     0.200 A 
ATOM     93  F   UNL     1      20.090   3.873   4.839  1.00  0.00    -0.200 F 
ATOM     94  F   UNL     1      21.478   2.576   2.882  1.00  0.00    -0.200 F 
ENDBRANCH  61  84
ENDBRANCH  35  36
ENDBRANCH  28  30
ENDBRANCH  27  28
ENDBRANCH  26  27
ENDBRANCH  25  26
ENDBRANCH  24  25
ENDBRANCH   1  24
TORSDOF 18
