REMARK SMILES C[C@@H](C(=O)OCCOCCOC(=O)c1ccc(-c2c3nc(c(-c4c(F)c(F)c(F)c(F)c4F)c4ccc([nH]4)c(-c4c(F)c(F)c(F)c(F)c4F)c4nc(c(-c5c(F)c(F)c(F)c(F)c5F)c5ccc2[nH]5)C=C4)C=C3)cc1)c1ccc(C[C@H]2CCCC2=O)c(-c2ccc(F)cc2)c1
REMARK SMILES IDX 7 1 6 2 5 3 3 4 4 5 2 6 1 7 77 8 78 9 96 10 79 11 88 12
REMARK SMILES IDX 80 13 89 14 90 15 95 16 91 17 94 18 92 19 93 20 81 21 82 22
REMARK SMILES IDX 83 23 86 24 84 25 85 26 87 27 8 28 9 29 10 30 11 31 12 32
REMARK SMILES IDX 13 33 14 34 15 35 76 36 16 37 75 38 17 39 18 40 19 41 69 42
REMARK SMILES IDX 20 43 74 44 68 45 70 46 21 47 73 48 67 49 66 50 22 52 54 53
REMARK SMILES IDX 34 54 53 55 35 56 38 57 52 58 71 59 36 60 37 61 51 63 72 64
REMARK SMILES IDX 39 65 23 66 24 67 32 68 25 69 26 70 30 71 33 72 27 73 28 74
REMARK SMILES IDX 31 75 29 76 55 77 56 78 64 79 57 80 58 81 62 82 65 83 59 84
REMARK SMILES IDX 60 85 63 86 61 87 40 88 41 89 49 90 42 91 43 92 47 93 50 94
REMARK SMILES IDX 44 95 45 96 48 97 46 98
REMARK H PARENT 70 51 38 62
REMARK Flexibility Score: inf
ROOT
ATOM      1  C   UNL     1       2.431   3.077   3.388  1.00  0.00     0.202 C 
ENDROOT
BRANCH   1   2
ATOM      2  C   UNL     1       2.193   1.638   3.858  1.00  0.00     0.261 C 
BRANCH   2   3
ATOM      3  O   UNL     1       1.919   0.790   2.724  1.00  0.00    -0.463 OA
BRANCH   3   4
ATOM      4  C   UNL     1       0.895  -0.093   2.875  1.00  0.00     0.313 C 
ATOM      5  O   UNL     1       0.348  -0.330   3.947  1.00  0.00    -0.252 OA
BRANCH   4   6
ATOM      6  C   UNL     1       0.483  -0.756   1.551  1.00  0.00     0.126 C 
ATOM      7  C   UNL     1       1.236  -0.268   0.310  1.00  0.00     0.025 C 
BRANCH   6   8
ATOM      8  C   UNL     1      -1.030  -0.674   1.378  1.00  0.00    -0.033 A 
ATOM      9  C   UNL     1      -1.683   0.517   1.056  1.00  0.00     0.005 A 
ATOM     10  C   UNL     1      -1.818  -1.802   1.637  1.00  0.00     0.013 A 
ATOM     11  C   UNL     1      -3.074   0.604   1.101  1.00  0.00     0.004 A 
ATOM     12  C   UNL     1      -3.230  -1.752   1.657  1.00  0.00    -0.015 A 
ATOM     13  C   UNL     1      -3.864  -0.504   1.451  1.00  0.00    -0.039 A 
BRANCH  12  14
ATOM     14  C   UNL     1      -3.959  -3.015   1.876  1.00  0.00    -0.018 A 
ATOM     15  C   UNL     1      -4.848  -3.510   0.904  1.00  0.00     0.012 A 
ATOM     16  C   UNL     1      -3.733  -3.790   3.027  1.00  0.00     0.012 A 
ATOM     17  C   UNL     1      -5.517  -4.720   1.092  1.00  0.00     0.040 A 
ATOM     18  C   UNL     1      -4.389  -5.009   3.209  1.00  0.00     0.040 A 
ATOM     19  C   UNL     1      -5.280  -5.459   2.243  1.00  0.00     0.123 A 
ATOM     20  F   UNL     1      -5.913  -6.625   2.421  1.00  0.00    -0.207 F 
ENDBRANCH  12  14
BRANCH  13  21
ATOM     21  C   UNL     1      -5.354  -0.275   1.627  1.00  0.00     0.047 C 
BRANCH  21  22
ATOM     22  C   UNL     1      -5.805   0.382   2.941  1.00  0.00     0.060 C 
ATOM     23  C   UNL     1      -5.349  -0.283   4.243  1.00  0.00     0.012 C 
ATOM     24  C   UNL     1      -5.292   1.796   3.109  1.00  0.00     0.136 C 
ATOM     25  C   UNL     1      -4.162   0.531   4.743  1.00  0.00     0.009 C 
ATOM     26  C   UNL     1      -4.480   1.970   4.364  1.00  0.00     0.076 C 
ATOM     27  O   UNL     1      -5.540   2.709   2.330  1.00  0.00    -0.299 OA
ENDBRANCH  21  22
ENDBRANCH  13  21
ENDBRANCH   6   8
ENDBRANCH   4   6
ENDBRANCH   3   4
ENDBRANCH   2   3
ENDBRANCH   1   2
BRANCH   1  28
ATOM     28  O   UNL     1       1.264   3.811   3.004  1.00  0.00    -0.374 OA
BRANCH  28  29
ATOM     29  C   UNL     1       0.601   3.392   1.815  1.00  0.00     0.202 C 
BRANCH  29  30
ATOM     30  C   UNL     1       1.157   3.939   0.495  1.00  0.00     0.261 C 
BRANCH  30  31
ATOM     31  O   UNL     1       2.554   3.647   0.336  1.00  0.00    -0.460 OA
BRANCH  31  32
ATOM     32  C   UNL     1       3.364   4.716   0.511  1.00  0.00     0.338 C 
ATOM     33  O   UNL     1       3.034   5.887   0.650  1.00  0.00    -0.246 OA
BRANCH  32  34
ATOM     34  C   UNL     1       4.755   4.272   0.691  1.00  0.00     0.060 A 
ATOM     35  C   UNL     1       5.428   4.733   1.829  1.00  0.00     0.016 A 
ATOM     36  C   UNL     1       5.412   3.481  -0.255  1.00  0.00     0.016 A 
ATOM     37  C   UNL     1       6.779   4.453   2.000  1.00  0.00     0.010 A 
ATOM     38  C   UNL     1       6.774   3.209  -0.087  1.00  0.00     0.010 A 
ATOM     39  C   UNL     1       7.470   3.727   1.020  1.00  0.00    -0.014 A 
BRANCH  39  40
ATOM     40  C   UNL     1       8.948   3.663   1.085  1.00  0.00     0.031 A 
ATOM     41  C   UNL     1       9.751   4.640   0.271  1.00  0.00     0.074 A 
ATOM     42  C   UNL     1       9.565   2.788   1.897  1.00  0.00     0.049 A 
ATOM     43  N   UNL     1      11.049   4.777   0.178  1.00  0.00    -0.248 NA
ATOM     44  C   UNL     1       8.985   5.594  -0.548  1.00  0.00     0.031 C 
ATOM     45  C   UNL     1       8.891   1.825   2.766  1.00  0.00     0.029 A 
ATOM     46  N   UNL     1      10.900   2.572   2.124  1.00  0.00    -0.354 N 
ATOM     47  C   UNL     1      11.254   5.826  -0.708  1.00  0.00     0.074 A 
ATOM     48  C   UNL     1       9.951   6.272  -1.149  1.00  0.00     0.031 C 
ATOM     49  C   UNL     1       9.820   1.115   3.430  1.00  0.00     0.029 A 
ATOM     50  C   UNL     1      11.149   1.556   3.013  1.00  0.00     0.049 A 
ATOM     51  H   UNL     1      11.613   3.095   1.690  1.00  0.00     0.167 HD
ATOM     52  C   UNL     1      12.425   6.373  -1.110  1.00  0.00     0.037 A 
ATOM     53  C   UNL     1      12.320   1.036   3.428  1.00  0.00     0.037 A 
ATOM     54  C   UNL     1      13.720   5.931  -0.665  1.00  0.00     0.049 A 
ATOM     55  C   UNL     1      13.611   1.618   2.911  1.00  0.00     0.074 A 
ATOM     56  C   UNL     1      14.965   6.435  -0.995  1.00  0.00     0.029 A 
ATOM     57  N   UNL     1      13.934   4.871   0.204  1.00  0.00    -0.354 N 
ATOM     58  N   UNL     1      13.797   2.629   2.096  1.00  0.00    -0.248 NA
ATOM     59  C   UNL     1      14.855   0.987   3.374  1.00  0.00     0.031 C 
ATOM     60  C   UNL     1      15.936   5.648  -0.365  1.00  0.00     0.029 A 
ATOM     61  C   UNL     1      15.293   4.686   0.398  1.00  0.00     0.049 A 
ATOM     62  H   UNL     1      13.225   4.329   0.620  1.00  0.00     0.167 HD
ATOM     63  C   UNL     1      15.172   2.773   1.973  1.00  0.00     0.074 A 
ATOM     64  C   UNL     1      15.775   1.753   2.805  1.00  0.00     0.031 C 
ATOM     65  C   UNL     1      15.874   3.671   1.238  1.00  0.00     0.037 A 
BRANCH  52  66
ATOM     66  C   UNL     1      12.361   7.496  -2.102  1.00  0.00     0.064 A 
ATOM     67  C   UNL     1      11.914   8.776  -1.741  1.00  0.00     0.173 A 
ATOM     68  C   UNL     1      12.784   7.296  -3.425  1.00  0.00     0.173 A 
ATOM     69  F   UNL     1      11.484   9.014  -0.493  1.00  0.00    -0.203 F 
ATOM     70  C   UNL     1      11.872   9.809  -2.675  1.00  0.00     0.198 A 
ATOM     71  C   UNL     1      12.767   8.338  -4.348  1.00  0.00     0.198 A 
ATOM     72  F   UNL     1      13.223   6.092  -3.820  1.00  0.00    -0.203 F 
ATOM     73  F   UNL     1      11.402  11.012  -2.319  1.00  0.00    -0.200 F 
ATOM     74  C   UNL     1      12.305   9.591  -3.974  1.00  0.00     0.200 A 
ATOM     75  F   UNL     1      13.195   8.129  -5.600  1.00  0.00    -0.200 F 
ATOM     76  F   UNL     1      12.271  10.588  -4.869  1.00  0.00    -0.200 F 
ENDBRANCH  52  66
BRANCH  53  77
ATOM     77  C   UNL     1      12.331  -0.105   4.380  1.00  0.00     0.064 A 
ATOM     78  C   UNL     1      12.803   0.049   5.691  1.00  0.00     0.173 A 
ATOM     79  C   UNL     1      11.890  -1.379   3.991  1.00  0.00     0.173 A 
ATOM     80  F   UNL     1      13.261   1.241   6.101  1.00  0.00    -0.203 F 
ATOM     81  C   UNL     1      12.850  -1.030   6.571  1.00  0.00     0.198 A 
ATOM     82  C   UNL     1      11.911  -2.451   4.880  1.00  0.00     0.198 A 
ATOM     83  F   UNL     1      11.432  -1.580   2.747  1.00  0.00    -0.203 F 
ATOM     84  F   UNL     1      13.349  -0.866   7.803  1.00  0.00    -0.200 F 
ATOM     85  C   UNL     1      12.398  -2.278   6.167  1.00  0.00     0.200 A 
ATOM     86  F   UNL     1      11.464  -3.652   4.489  1.00  0.00    -0.200 F 
ATOM     87  F   UNL     1      12.442  -3.315   7.014  1.00  0.00    -0.200 F 
ENDBRANCH  53  77
BRANCH  65  88
ATOM     88  C   UNL     1      17.372   3.615   1.328  1.00  0.00     0.064 A 
ATOM     89  C   UNL     1      18.107   2.585   0.725  1.00  0.00     0.173 A 
ATOM     90  C   UNL     1      18.081   4.631   1.987  1.00  0.00     0.173 A 
ATOM     91  F   UNL     1      17.475   1.583   0.095  1.00  0.00    -0.203 F 
ATOM     92  C   UNL     1      19.497   2.560   0.799  1.00  0.00     0.198 A 
ATOM     93  C   UNL     1      19.472   4.619   2.035  1.00  0.00     0.198 A 
ATOM     94  F   UNL     1      17.424   5.643   2.574  1.00  0.00    -0.203 F 
ATOM     95  F   UNL     1      20.178   1.542   0.255  1.00  0.00    -0.200 F 
ATOM     96  C   UNL     1      20.178   3.580   1.447  1.00  0.00     0.200 A 
ATOM     97  F   UNL     1      20.129   5.612   2.650  1.00  0.00    -0.200 F 
ATOM     98  F   UNL     1      21.517   3.559   1.512  1.00  0.00    -0.200 F 
ENDBRANCH  65  88
ENDBRANCH  39  40
ENDBRANCH  32  34
ENDBRANCH  31  32
ENDBRANCH  30  31
ENDBRANCH  29  30
ENDBRANCH  28  29
ENDBRANCH   1  28
TORSDOF 18
