REMARK SMILES O=C(CCC(=O)N1N=C(c2ccc(F)cc2)C[C@@H]1c1ccc2nccnc2c1)OCCOCCOC(=O)c1ccc(-c2c3nc(c(-c4c(F)c(F)c(F)c(F)c4F)c4ccc([nH]4)c(-c4c(F)c(F)c(F)c(F)c4F)c4nc(c(-c5c(F)c(F)c(F)c(F)c5F)c5ccc2[nH]5)C=C4)C=C3)cc1
REMARK SMILES IDX 31 1 30 2 29 3 2 4 1 5 3 6 4 7 5 8 6 9 7 10 8 11 18 12 9 13
REMARK SMILES IDX 17 14 19 15 20 16 28 17 21 18 27 19 22 20 26 21 23 22 25 23
REMARK SMILES IDX 24 24 10 25 11 26 16 27 12 28 15 29 13 30 14 31 32 32 33 33
REMARK SMILES IDX 34 34 35 35 36 36 37 37 38 38 39 39 100 40 40 41 99 42 41 43
REMARK SMILES IDX 42 44 43 45 93 46 44 47 98 48 92 49 94 50 45 51 97 52 91 53
REMARK SMILES IDX 90 54 46 56 78 57 58 58 77 59 59 60 62 61 76 62 95 63 60 64
REMARK SMILES IDX 61 65 75 67 96 68 63 69 47 70 48 71 56 72 49 73 50 74 54 75
REMARK SMILES IDX 57 76 51 77 52 78 55 79 53 80 79 81 80 82 88 83 81 84 82 85
REMARK SMILES IDX 86 86 89 87 83 88 84 89 87 90 85 91 64 92 65 93 73 94 66 95
REMARK SMILES IDX 67 96 71 97 74 98 68 99 69 100 72 101 70 102
REMARK H PARENT 94 55 62 66
REMARK Flexibility Score: inf
ROOT
ATOM      1  C   UNL     1       4.509   0.433   3.174  1.00  0.00     0.202 C 
ENDROOT
BRANCH   1   2
ATOM      2  C   UNL     1       4.234  -0.869   2.438  1.00  0.00     0.261 C 
BRANCH   2   3
ATOM      3  O   UNL     1       3.365  -0.567   1.335  1.00  0.00    -0.463 OA
BRANCH   3   4
ATOM      4  C   UNL     1       2.346  -1.411   1.058  1.00  0.00     0.306 C 
ATOM      5  O   UNL     1       1.205  -1.016   0.849  1.00  0.00    -0.252 OA
BRANCH   4   6
ATOM      6  C   UNL     1       2.816  -2.770   0.653  1.00  0.00     0.132 C 
BRANCH   6   7
ATOM      7  C   UNL     1       3.347  -2.633  -0.763  1.00  0.00     0.114 C 
BRANCH   7   8
ATOM      8  C   UNL     1       4.596  -1.752  -0.801  1.00  0.00     0.243 C 
ATOM      9  O   UNL     1       5.626  -2.119  -0.233  1.00  0.00    -0.273 OA
BRANCH   8  10
ATOM     10  N   UNL     1       4.538  -0.646  -1.644  1.00  0.00    -0.225 N 
ATOM     11  N   UNL     1       5.066  -0.949  -2.883  1.00  0.00    -0.174 NA
ATOM     12  C   UNL     1       3.440   0.359  -1.732  1.00  0.00     0.147 C 
ATOM     13  C   UNL     1       4.330  -0.374  -3.772  1.00  0.00     0.071 C 
ATOM     14  C   UNL     1       3.257   0.539  -3.252  1.00  0.00     0.091 C 
BRANCH  12  15
ATOM     15  C   UNL     1       3.654   1.665  -0.921  1.00  0.00    -0.021 A 
ATOM     16  C   UNL     1       2.358   2.921  -0.947  1.00  0.00     0.008 A 
ATOM     17  C   UNL     1       5.127   1.969   0.080  1.00  0.00     0.036 A 
ATOM     18  C   UNL     1       2.549   4.460  -0.006  1.00  0.00     0.031 A 
ATOM     19  C   UNL     1       5.332   3.478   1.092  1.00  0.00     0.089 A 
ATOM     20  C   UNL     1       4.009   4.767   1.057  1.00  0.00     0.089 A 
ATOM     21  N   UNL     1       6.397   3.713   1.858  1.00  0.00    -0.253 NA
ATOM     22  N   UNL     1       4.173   5.854   1.817  1.00  0.00    -0.253 NA
ATOM     23  C   UNL     1       6.379   4.915   2.499  1.00  0.00     0.132 A 
ATOM     24  C   UNL     1       5.359   5.896   2.482  1.00  0.00     0.132 A 
ENDBRANCH  12  15
BRANCH  13  25
ATOM     25  C   UNL     1       4.471  -0.723  -5.194  1.00  0.00    -0.002 A 
ATOM     26  C   UNL     1       5.447  -0.105  -5.975  1.00  0.00     0.013 A 
ATOM     27  C   UNL     1       3.743  -1.812  -5.696  1.00  0.00     0.013 A 
ATOM     28  C   UNL     1       5.654  -0.540  -7.287  1.00  0.00     0.040 A 
ATOM     29  C   UNL     1       3.960  -2.246  -7.007  1.00  0.00     0.040 A 
ATOM     30  C   UNL     1       4.904  -1.597  -7.795  1.00  0.00     0.123 A 
ATOM     31  F   UNL     1       5.103  -1.998  -9.057  1.00  0.00    -0.207 F 
ENDBRANCH  13  25
ENDBRANCH   8  10
ENDBRANCH   7   8
ENDBRANCH   6   7
ENDBRANCH   4   6
ENDBRANCH   3   4
ENDBRANCH   2   3
ENDBRANCH   1   2
BRANCH   1  32
ATOM     32  O   UNL     1       3.307   0.998   3.694  1.00  0.00    -0.374 OA
BRANCH  32  33
ATOM     33  C   UNL     1       2.445   1.651   2.748  1.00  0.00     0.202 C 
BRANCH  33  34
ATOM     34  C   UNL     1       3.008   2.946   2.195  1.00  0.00     0.261 C 
BRANCH  34  35
ATOM     35  O   UNL     1       3.561   2.942   0.545  1.00  0.00    -0.460 OA
BRANCH  35  36
ATOM     36  C   UNL     1       4.449   3.844  -0.862  1.00  0.00     0.338 C 
ATOM     37  O   UNL     1       5.171   4.879  -0.755  1.00  0.00    -0.246 OA
BRANCH  36  38
ATOM     38  C   UNL     1       4.522   3.644  -2.368  1.00  0.00     0.060 A 
ATOM     39  C   UNL     1       5.768   3.225  -2.877  1.00  0.00     0.016 A 
ATOM     40  C   UNL     1       3.707   4.493  -3.145  1.00  0.00     0.016 A 
ATOM     41  C   UNL     1       6.212   3.695  -4.110  1.00  0.00     0.010 A 
ATOM     42  C   UNL     1       4.146   4.949  -4.379  1.00  0.00     0.010 A 
ATOM     43  C   UNL     1       5.418   4.591  -4.836  1.00  0.00    -0.014 A 
BRANCH  43  44
ATOM     44  C   UNL     1       5.882   5.146  -6.116  1.00  0.00     0.031 A 
ATOM     45  C   UNL     1       6.515   6.497  -6.190  1.00  0.00     0.074 A 
ATOM     46  C   UNL     1       5.614   4.427  -7.215  1.00  0.00     0.049 A 
ATOM     47  N   UNL     1       6.853   7.181  -7.252  1.00  0.00    -0.248 NA
ATOM     48  C   UNL     1       6.772   7.187  -4.917  1.00  0.00     0.031 C 
ATOM     49  C   UNL     1       4.936   3.134  -7.199  1.00  0.00     0.029 A 
ATOM     50  N   UNL     1       5.850   4.674  -8.536  1.00  0.00    -0.354 N 
ATOM     51  C   UNL     1       7.316   8.402  -6.782  1.00  0.00     0.074 A 
ATOM     52  C   UNL     1       7.245   8.355  -5.337  1.00  0.00     0.031 C 
ATOM     53  C   UNL     1       4.834   2.681  -8.454  1.00  0.00     0.029 A 
ATOM     54  C   UNL     1       5.407   3.670  -9.357  1.00  0.00     0.049 A 
ATOM     55  H   UNL     1       6.292   5.489  -8.865  1.00  0.00     0.167 HD
ATOM     56  C   UNL     1       7.728   9.466  -7.513  1.00  0.00     0.037 A 
ATOM     57  C   UNL     1       5.448   3.568 -10.695  1.00  0.00     0.037 A 
ATOM     58  C   UNL     1       7.785   9.470  -8.953  1.00  0.00     0.049 A 
ATOM     59  C   UNL     1       6.016   4.712 -11.472  1.00  0.00     0.074 A 
ATOM     60  C   UNL     1       8.201  10.481  -9.802  1.00  0.00     0.029 A 
ATOM     61  N   UNL     1       7.407   8.402  -9.758  1.00  0.00    -0.354 N 
ATOM     62  N   UNL     1       6.465   5.859 -11.022  1.00  0.00    -0.248 NA
ATOM     63  C   UNL     1       6.065   4.569 -12.930  1.00  0.00     0.031 C 
ATOM     64  C   UNL     1       8.047  10.034 -11.120  1.00  0.00     0.029 A 
ATOM     65  C   UNL     1       7.567   8.733 -11.094  1.00  0.00     0.049 A 
ATOM     66  H   UNL     1       7.075   7.536  -9.428  1.00  0.00     0.167 HD
ATOM     67  C   UNL     1       6.822   6.593 -12.139  1.00  0.00     0.074 A 
ATOM     68  C   UNL     1       6.576   5.741 -13.289  1.00  0.00     0.031 C 
ATOM     69  C   UNL     1       7.286   7.864 -12.209  1.00  0.00     0.037 A 
BRANCH  56  70
ATOM     70  C   UNL     1       8.092  10.722  -6.778  1.00  0.00     0.064 A 
ATOM     71  C   UNL     1       7.240  11.838  -6.825  1.00  0.00     0.173 A 
ATOM     72  C   UNL     1       9.293  10.846  -6.066  1.00  0.00     0.173 A 
ATOM     73  F   UNL     1       6.080  11.774  -7.496  1.00  0.00    -0.203 F 
ATOM     74  C   UNL     1       7.580  13.030  -6.190  1.00  0.00     0.198 A 
ATOM     75  C   UNL     1       9.622  12.034  -5.415  1.00  0.00     0.198 A 
ATOM     76  F   UNL     1      10.138   9.807  -5.983  1.00  0.00    -0.203 F 
ATOM     77  F   UNL     1       6.758  14.086  -6.264  1.00  0.00    -0.200 F 
ATOM     78  C   UNL     1       8.768  13.126  -5.482  1.00  0.00     0.200 A 
ATOM     79  F   UNL     1      10.762  12.121  -4.717  1.00  0.00    -0.200 F 
ATOM     80  F   UNL     1       9.090  14.270  -4.861  1.00  0.00    -0.200 F 
ENDBRANCH  56  70
BRANCH  57  81
ATOM     81  C   UNL     1       4.963   2.315 -11.319  1.00  0.00     0.064 A 
ATOM     82  C   UNL     1       3.598   1.990 -11.337  1.00  0.00     0.173 A 
ATOM     83  C   UNL     1       5.875   1.343 -11.746  1.00  0.00     0.173 A 
ATOM     84  F   UNL     1       2.691   2.878 -10.905  1.00  0.00    -0.203 F 
ATOM     85  C   UNL     1       3.169   0.722 -11.721  1.00  0.00     0.198 A 
ATOM     86  C   UNL     1       5.442   0.082 -12.152  1.00  0.00     0.198 A 
ATOM     87  F   UNL     1       7.189   1.611 -11.741  1.00  0.00    -0.203 F 
ATOM     88  F   UNL     1       1.866   0.412 -11.663  1.00  0.00    -0.200 F 
ATOM     89  C   UNL     1       4.091  -0.232 -12.125  1.00  0.00     0.200 A 
ATOM     90  F   UNL     1       6.336  -0.834 -12.549  1.00  0.00    -0.200 F 
ATOM     91  F   UNL     1       3.678  -1.457 -12.478  1.00  0.00    -0.200 F 
ENDBRANCH  57  81
BRANCH  69  92
ATOM     92  C   UNL     1       7.511   8.419 -13.579  1.00  0.00     0.064 A 
ATOM     93  C   UNL     1       8.804   8.524 -14.108  1.00  0.00     0.173 A 
ATOM     94  C   UNL     1       6.437   8.906 -14.338  1.00  0.00     0.173 A 
ATOM     95  F   UNL     1       9.857   8.071 -13.412  1.00  0.00    -0.203 F 
ATOM     96  C   UNL     1       9.016   9.108 -15.352  1.00  0.00     0.198 A 
ATOM     97  C   UNL     1       6.652   9.477 -15.588  1.00  0.00     0.198 A 
ATOM     98  F   UNL     1       5.183   8.812 -13.871  1.00  0.00    -0.203 F 
ATOM     99  F   UNL     1      10.260   9.215 -15.837  1.00  0.00    -0.200 F 
ATOM    100  C   UNL     1       7.941   9.583 -16.090  1.00  0.00     0.200 A 
ATOM    101  F   UNL     1       5.613   9.921 -16.307  1.00  0.00    -0.200 F 
ATOM    102  F   UNL     1       8.147  10.141 -17.291  1.00  0.00    -0.200 F 
ENDBRANCH  69  92
ENDBRANCH  43  44
ENDBRANCH  36  38
ENDBRANCH  35  36
ENDBRANCH  34  35
ENDBRANCH  33  34
ENDBRANCH  32  33
ENDBRANCH   1  32
TORSDOF 19
