REMARK SMILES CN(C(=O)N1CCC(C(=O)OCCOCCOC(=O)c2ccc(-c3c4nc(c(-c5c(F)c(F)c(F)c(F)c5F)c5ccc([nH]5)c(-c5c(F)c(F)c(F)c(F)c5F)c5nc(c(-c6c(F)c(F)c(F)c(F)c6F)c6ccc3[nH]6)C=C5)C=C4)cc2)CC1)[C@H]1CCSC1
REMARK SMILES IDX 14 1 13 2 12 3 11 4 9 5 10 6 8 7 3 8 4 9 5 10 6 11 84 12
REMARK SMILES IDX 7 13 83 14 2 15 1 16 85 17 86 18 89 19 87 20 88 21 15 22
REMARK SMILES IDX 16 23 17 24 18 25 19 26 20 27 21 28 82 29 22 30 81 31 23 32
REMARK SMILES IDX 24 33 25 34 75 35 26 36 80 37 74 38 76 39 27 40 79 41 73 42
REMARK SMILES IDX 72 43 28 45 60 46 40 47 59 48 41 49 44 50 58 51 77 52 42 53
REMARK SMILES IDX 43 54 57 56 78 57 45 58 29 59 30 60 38 61 31 62 32 63 36 64
REMARK SMILES IDX 39 65 33 66 34 67 37 68 35 69 61 70 62 71 70 72 63 73 64 74
REMARK SMILES IDX 68 75 71 76 65 77 66 78 69 79 67 80 46 81 47 82 55 83 48 84
REMARK SMILES IDX 49 85 53 86 56 87 50 88 51 89 54 90 52 91
REMARK H PARENT 76 44 44 55
REMARK Flexibility Score: inf
ROOT
ATOM      1  O   UNL     1      -0.722   9.060  -9.529  1.00  0.00    -0.374 OA
ENDROOT
BRANCH   1   2
ATOM      2  C   UNL     1      -0.348   9.777  -8.355  1.00  0.00     0.202 C 
BRANCH   2   3
ATOM      3  C   UNL     1      -1.078   9.401  -7.064  1.00  0.00     0.261 C 
BRANCH   3   4
ATOM      4  O   UNL     1      -0.795   8.048  -6.666  1.00  0.00    -0.463 OA
BRANCH   4   5
ATOM      5  C   UNL     1      -1.862   7.211  -6.656  1.00  0.00     0.309 C 
ATOM      6  O   UNL     1      -3.022   7.544  -6.873  1.00  0.00    -0.252 OA
BRANCH   5   7
ATOM      7  C   UNL     1      -1.501   5.783  -6.313  1.00  0.00     0.103 C 
ATOM      8  C   UNL     1       0.502   3.097  -3.939  1.00  0.00     0.320 C 
ATOM      9  O   UNL     1       1.671   3.477  -3.957  1.00  0.00    -0.248 OA
ATOM     10  N   UNL     1      -0.391   3.549  -4.890  1.00  0.00    -0.325 N 
ATOM     11  C   UNL     1       0.104   3.872  -6.223  1.00  0.00     0.122 C 
ATOM     12  C   UNL     1      -1.732   4.023  -4.551  1.00  0.00     0.122 C 
ATOM     13  C   UNL     1      -0.049   5.356  -6.551  1.00  0.00     0.037 C 
ATOM     14  C   UNL     1      -1.882   5.509  -4.859  1.00  0.00     0.037 C 
BRANCH   8  15
ATOM     15  N   UNL     1       0.021   2.196  -2.998  1.00  0.00    -0.324 N 
ATOM     16  C   UNL     1      -1.174   1.383  -3.197  1.00  0.00     0.149 C 
BRANCH  15  17
ATOM     17  C   UNL     1       0.783   1.915  -1.772  1.00  0.00     0.097 C 
ATOM     18  C   UNL     1       2.198   1.367  -1.978  1.00  0.00     0.037 C 
ATOM     19  C   UNL     1       0.924   3.121  -0.843  1.00  0.00     0.094 C 
ATOM     20  C   UNL     1       2.783   1.193  -0.584  1.00  0.00     0.072 C 
ATOM     21  S   UNL     1       2.173   2.611   0.379  1.00  0.00    -0.160 SA
ENDBRANCH  15  17
ENDBRANCH   8  15
ENDBRANCH   5   7
ENDBRANCH   4   5
ENDBRANCH   3   4
ENDBRANCH   2   3
ENDBRANCH   1   2
BRANCH   1  22
ATOM     22  C   UNL     1      -0.211   7.736  -9.680  1.00  0.00     0.202 C 
BRANCH  22  23
ATOM     23  C   UNL     1       1.268   7.614 -10.073  1.00  0.00     0.261 C 
BRANCH  23  24
ATOM     24  O   UNL     1       2.151   8.077  -9.034  1.00  0.00    -0.460 OA
BRANCH  24  25
ATOM     25  C   UNL     1       2.907   9.151  -9.362  1.00  0.00     0.338 C 
ATOM     26  O   UNL     1       2.980   9.703 -10.454  1.00  0.00    -0.246 OA
BRANCH  25  27
ATOM     27  C   UNL     1       3.531   9.723  -8.156  1.00  0.00     0.060 A 
ATOM     28  C   UNL     1       3.251  11.061  -7.853  1.00  0.00     0.016 A 
ATOM     29  C   UNL     1       4.429   8.992  -7.376  1.00  0.00     0.016 A 
ATOM     30  C   UNL     1       3.889  11.685  -6.782  1.00  0.00     0.010 A 
ATOM     31  C   UNL     1       5.080   9.624  -6.310  1.00  0.00     0.010 A 
ATOM     32  C   UNL     1       4.831  10.979  -6.022  1.00  0.00    -0.014 A 
BRANCH  32  33
ATOM     33  C   UNL     1       5.622  11.689  -4.987  1.00  0.00     0.031 A 
ATOM     34  C   UNL     1       7.005  12.175  -5.318  1.00  0.00     0.074 A 
ATOM     35  C   UNL     1       5.101  11.916  -3.768  1.00  0.00     0.049 A 
ATOM     36  N   UNL     1       7.875  12.787  -4.554  1.00  0.00    -0.248 NA
ATOM     37  C   UNL     1       7.471  11.945  -6.694  1.00  0.00     0.031 C 
ATOM     38  C   UNL     1       3.758  11.530  -3.341  1.00  0.00     0.029 A 
ATOM     39  N   UNL     1       5.645  12.522  -2.663  1.00  0.00    -0.354 N 
ATOM     40  C   UNL     1       8.990  13.008  -5.351  1.00  0.00     0.074 A 
ATOM     41  C   UNL     1       8.696  12.449  -6.654  1.00  0.00     0.031 C 
ATOM     42  C   UNL     1       3.585  11.898  -2.060  1.00  0.00     0.029 A 
ATOM     43  C   UNL     1       4.817  12.514  -1.568  1.00  0.00     0.049 A 
ATOM     44  H   UNL     1       6.544  12.923  -2.656  1.00  0.00     0.167 HD
ATOM     45  C   UNL     1      10.150  13.625  -5.026  1.00  0.00     0.037 A 
ATOM     46  C   UNL     1       5.039  12.932  -0.307  1.00  0.00     0.037 A 
ATOM     47  C   UNL     1      10.437  14.189  -3.732  1.00  0.00     0.049 A 
ATOM     48  C   UNL     1       6.373  13.536   0.048  1.00  0.00     0.074 A 
ATOM     49  C   UNL     1      11.564  14.882  -3.325  1.00  0.00     0.029 A 
ATOM     50  N   UNL     1       9.596  14.112  -2.634  1.00  0.00    -0.354 N 
ATOM     51  N   UNL     1       7.403  13.784  -0.724  1.00  0.00    -0.248 NA
ATOM     52  C   UNL     1       6.576  13.913   1.455  1.00  0.00     0.031 C 
ATOM     53  C   UNL     1      11.428  15.176  -1.964  1.00  0.00     0.029 A 
ATOM     54  C   UNL     1      10.196  14.709  -1.536  1.00  0.00     0.049 A 
ATOM     55  H   UNL     1       8.704  13.695  -2.633  1.00  0.00     0.167 HD
ATOM     56  C   UNL     1       8.364  14.363   0.095  1.00  0.00     0.074 A 
ATOM     57  C   UNL     1       7.789  14.446   1.421  1.00  0.00     0.031 C 
ATOM     58  C   UNL     1       9.612  14.785  -0.222  1.00  0.00     0.037 A 
BRANCH  45  59
ATOM     59  C   UNL     1      11.216  13.709  -6.076  1.00  0.00     0.064 A 
ATOM     60  C   UNL     1      11.117  14.595  -7.158  1.00  0.00     0.173 A 
ATOM     61  C   UNL     1      12.384  12.939  -5.960  1.00  0.00     0.173 A 
ATOM     62  F   UNL     1      10.017  15.345  -7.318  1.00  0.00    -0.203 F 
ATOM     63  C   UNL     1      12.143  14.697  -8.095  1.00  0.00     0.198 A 
ATOM     64  C   UNL     1      13.417  13.061  -6.885  1.00  0.00     0.198 A 
ATOM     65  F   UNL     1      12.529  12.080  -4.939  1.00  0.00    -0.203 F 
ATOM     66  F   UNL     1      12.017  15.529  -9.137  1.00  0.00    -0.200 F 
ATOM     67  C   UNL     1      13.295  13.937  -7.952  1.00  0.00     0.200 A 
ATOM     68  F   UNL     1      14.534  12.334  -6.739  1.00  0.00    -0.200 F 
ATOM     69  F   UNL     1      14.287  14.047  -8.847  1.00  0.00    -0.200 F 
ENDBRANCH  45  59
BRANCH  46  70
ATOM     70  C   UNL     1       3.985  12.774   0.729  1.00  0.00     0.064 A 
ATOM     71  C   UNL     1       3.353  13.890   1.293  1.00  0.00     0.173 A 
ATOM     72  C   UNL     1       3.616  11.506   1.203  1.00  0.00     0.173 A 
ATOM     73  F   UNL     1       3.694  15.125   0.894  1.00  0.00    -0.203 F 
ATOM     74  C   UNL     1       2.406  13.746   2.304  1.00  0.00     0.198 A 
ATOM     75  C   UNL     1       2.648  11.362   2.194  1.00  0.00     0.198 A 
ATOM     76  F   UNL     1       4.197  10.406   0.701  1.00  0.00    -0.203 F 
ATOM     77  F   UNL     1       1.854  14.832   2.862  1.00  0.00    -0.200 F 
ATOM     78  C   UNL     1       2.050  12.482   2.751  1.00  0.00     0.200 A 
ATOM     79  F   UNL     1       2.302  10.138   2.616  1.00  0.00    -0.200 F 
ATOM     80  F   UNL     1       1.141  12.344   3.725  1.00  0.00    -0.200 F 
ENDBRANCH  46  70
BRANCH  58  81
ATOM     81  C   UNL     1      10.434  15.394   0.876  1.00  0.00     0.064 A 
ATOM     82  C   UNL     1      10.988  14.609   1.897  1.00  0.00     0.173 A 
ATOM     83  C   UNL     1      10.706  16.771   0.884  1.00  0.00     0.173 A 
ATOM     84  F   UNL     1      10.744  13.290   1.942  1.00  0.00    -0.203 F 
ATOM     85  C   UNL     1      11.766  15.183   2.899  1.00  0.00     0.198 A 
ATOM     86  C   UNL     1      11.507  17.337   1.872  1.00  0.00     0.198 A 
ATOM     87  F   UNL     1      10.205  17.565  -0.074  1.00  0.00    -0.203 F 
ATOM     88  F   UNL     1      12.249  14.420   3.890  1.00  0.00    -0.200 F 
ATOM     89  C   UNL     1      12.031  16.544   2.881  1.00  0.00     0.200 A 
ATOM     90  F   UNL     1      11.773  18.650   1.846  1.00  0.00    -0.200 F 
ATOM     91  F   UNL     1      12.786  17.093   3.843  1.00  0.00    -0.200 F 
ENDBRANCH  58  81
ENDBRANCH  32  33
ENDBRANCH  25  27
ENDBRANCH  24  25
ENDBRANCH  23  24
ENDBRANCH  22  23
ENDBRANCH   1  22
TORSDOF 16
