REMARK SMILES O=C(CC[N@@H+]1C[C@@H](c2ccccc2)[C@@H]2[C@H]1[C@H]1CC[N@H+]2CC1)OCCOCCOC(=O)c1ccc(-c2c3nc(c(-c4c(F)c(F)c(F)c(F)c4F)c4ccc([nH]4)c(-c4c(F)c(F)c(F)c(F)c4F)c4nc(c(-c5c(F)c(F)c(F)c(F)c5F)c5ccc2[nH]5)C=C4)C=C3)cc1
REMARK SMILES IDX 24 1 23 2 22 3 2 4 1 5 3 6 4 7 5 8 6 9 15 10 7 12 14 13
REMARK SMILES IDX 16 14 19 15 17 16 21 17 18 18 20 19 8 21 9 22 13 23 10 24
REMARK SMILES IDX 12 25 11 26 25 27 26 28 27 29 28 30 29 31 30 32 31 33 32 34
REMARK SMILES IDX 93 35 33 36 92 37 34 38 35 39 36 40 86 41 37 42 91 43 85 44
REMARK SMILES IDX 87 45 38 46 90 47 84 48 83 49 39 51 71 52 51 53 70 54 52 55
REMARK SMILES IDX 55 56 69 57 88 58 53 59 54 60 68 62 89 63 56 64 40 65 41 66
REMARK SMILES IDX 49 67 42 68 43 69 47 70 50 71 44 72 45 73 48 74 46 75 72 76
REMARK SMILES IDX 73 77 81 78 74 79 75 80 79 81 82 82 76 83 77 84 80 85 78 86
REMARK SMILES IDX 57 87 58 88 66 89 59 90 60 91 64 92 67 93 61 94 62 95 65 96
REMARK SMILES IDX 63 97
REMARK H PARENT 5 11 19 20 87 50 55 61
REMARK Flexibility Score: inf
ROOT
ATOM      1  C   UNL     1       3.600   1.620  -0.416  1.00  0.00     0.202 C 
ENDROOT
BRANCH   1   2
ATOM      2  C   UNL     1       3.459   0.401  -1.305  1.00  0.00     0.261 C 
BRANCH   2   3
ATOM      3  O   UNL     1       2.262  -0.349  -1.085  1.00  0.00    -0.463 OA
BRANCH   3   4
ATOM      4  C   UNL     1       1.949  -1.027   0.034  1.00  0.00     0.311 C 
ATOM      5  O   UNL     1       0.757  -1.249   0.262  1.00  0.00    -0.252 OA
BRANCH   4   6
ATOM      6  C   UNL     1       3.003  -1.523   1.006  1.00  0.00     0.184 C 
BRANCH   6   7
ATOM      7  C   UNL     1       4.049  -2.477   0.456  1.00  0.00     0.274 C 
BRANCH   7   8
ATOM      8  N   UNL     1       5.238  -1.857  -0.159  1.00  0.00    -0.326 N 
ATOM      9  C   UNL     1       5.677  -2.711  -1.310  1.00  0.00     0.277 C 
ATOM     10  C   UNL     1       6.385  -1.570   0.760  1.00  0.00     0.247 C 
ATOM     11  H   UNL     1       4.943  -0.929  -0.463  1.00  0.00     0.348 HD
ATOM     12  C   UNL     1       7.195  -2.693  -1.589  1.00  0.00     0.139 C 
ATOM     13  C   UNL     1       7.782  -2.362  -0.204  1.00  0.00     0.256 C 
ATOM     14  C   UNL     1       6.903   0.190   1.124  1.00  0.00     0.065 C 
ATOM     15  N   UNL     1       9.224  -1.690   0.003  1.00  0.00    -0.327 N 
ATOM     16  C   UNL     1       7.513  -0.129  -0.084  1.00  0.00     0.071 C 
ATOM     17  C   UNL     1       8.569   0.978   1.025  1.00  0.00     0.071 C 
ATOM     18  C   UNL     1       8.592  -1.195   1.124  1.00  0.00     0.263 C 
ATOM     19  C   UNL     1       9.687  -0.131  -0.068  1.00  0.00     0.263 C 
ATOM     20  H   UNL     1       9.935  -2.286  -0.421  1.00  0.00     0.348 HD
BRANCH  12  21
ATOM     21  C   UNL     1       7.716  -1.926  -2.799  1.00  0.00    -0.033 A 
ATOM     22  C   UNL     1       7.205  -0.702  -3.259  1.00  0.00     0.004 A 
ATOM     23  C   UNL     1       8.814  -2.469  -3.489  1.00  0.00     0.004 A 
ATOM     24  C   UNL     1       7.828  -0.001  -4.296  1.00  0.00     0.000 A 
ATOM     25  C   UNL     1       9.402  -1.798  -4.563  1.00  0.00     0.000 A 
ATOM     26  C   UNL     1       8.926  -0.550  -4.950  1.00  0.00     0.000 A 
ENDBRANCH  12  21
ENDBRANCH   7   8
ENDBRANCH   6   7
ENDBRANCH   4   6
ENDBRANCH   3   4
ENDBRANCH   2   3
ENDBRANCH   1   2
BRANCH   1  27
ATOM     27  O   UNL     1       3.569   1.356   0.981  1.00  0.00    -0.374 OA
BRANCH  27  28
ATOM     28  C   UNL     1       2.479   1.972   1.670  1.00  0.00     0.202 C 
BRANCH  28  29
ATOM     29  C   UNL     1       2.732   3.442   2.034  1.00  0.00     0.261 C 
BRANCH  29  30
ATOM     30  O   UNL     1       3.150   4.210   0.894  1.00  0.00    -0.460 OA
BRANCH  30  31
ATOM     31  C   UNL     1       4.498   4.336   0.744  1.00  0.00     0.338 C 
ATOM     32  O   UNL     1       5.359   4.026   1.539  1.00  0.00    -0.246 OA
BRANCH  31  33
ATOM     33  C   UNL     1       4.788   4.730  -0.659  1.00  0.00     0.060 A 
ATOM     34  C   UNL     1       5.925   4.184  -1.281  1.00  0.00     0.016 A 
ATOM     35  C   UNL     1       3.939   5.577  -1.373  1.00  0.00     0.016 A 
ATOM     36  C   UNL     1       6.231   4.505  -2.604  1.00  0.00     0.010 A 
ATOM     37  C   UNL     1       4.253   5.911  -2.690  1.00  0.00     0.010 A 
ATOM     38  C   UNL     1       5.416   5.403  -3.300  1.00  0.00    -0.014 A 
BRANCH  38  39
ATOM     39  C   UNL     1       5.854   6.002  -4.582  1.00  0.00     0.031 A 
ATOM     40  C   UNL     1       6.423   7.390  -4.544  1.00  0.00     0.074 A 
ATOM     41  C   UNL     1       5.682   5.370  -5.754  1.00  0.00     0.049 A 
ATOM     42  N   UNL     1       6.665   8.223  -5.522  1.00  0.00    -0.248 NA
ATOM     43  C   UNL     1       6.737   7.918  -3.207  1.00  0.00     0.031 C 
ATOM     44  C   UNL     1       5.182   4.008  -5.916  1.00  0.00     0.029 A 
ATOM     45  N   UNL     1       5.870   5.820  -7.038  1.00  0.00    -0.354 N 
ATOM     46  C   UNL     1       7.124   9.385  -4.916  1.00  0.00     0.074 A 
ATOM     47  C   UNL     1       7.108   9.156  -3.488  1.00  0.00     0.031 C 
ATOM     48  C   UNL     1       5.059   3.747  -7.229  1.00  0.00     0.029 A 
ATOM     49  C   UNL     1       5.423   4.941  -7.992  1.00  0.00     0.049 A 
ATOM     50  H   UNL     1       6.285   6.687  -7.252  1.00  0.00     0.167 HD
ATOM     51  C   UNL     1       7.516  10.540  -5.502  1.00  0.00     0.037 A 
ATOM     52  C   UNL     1       5.274   5.105  -9.322  1.00  0.00     0.037 A 
ATOM     53  C   UNL     1       7.525  10.754  -6.925  1.00  0.00     0.049 A 
ATOM     54  C   UNL     1       5.659   6.418  -9.957  1.00  0.00     0.074 A 
ATOM     55  C   UNL     1       7.941  11.870  -7.627  1.00  0.00     0.029 A 
ATOM     56  N   UNL     1       7.080   9.832  -7.862  1.00  0.00    -0.354 N 
ATOM     57  N   UNL     1       6.115   7.509  -9.389  1.00  0.00    -0.248 NA
ATOM     58  C   UNL     1       5.508   6.523 -11.415  1.00  0.00     0.031 C 
ATOM     59  C   UNL     1       7.683  11.651  -8.984  1.00  0.00     0.029 A 
ATOM     60  C   UNL     1       7.178  10.368  -9.136  1.00  0.00     0.049 A 
ATOM     61  H   UNL     1       6.745   8.930  -7.653  1.00  0.00     0.167 HD
ATOM     62  C   UNL     1       6.335   8.416 -10.419  1.00  0.00     0.074 A 
ATOM     63  C   UNL     1       5.962   7.748 -11.648  1.00  0.00     0.031 C 
ATOM     64  C   UNL     1       6.812   9.685 -10.352  1.00  0.00     0.037 A 
BRANCH  51  65
ATOM     65  C   UNL     1       7.907  11.674  -4.597  1.00  0.00     0.064 A 
ATOM     66  C   UNL     1       9.053  11.623  -3.789  1.00  0.00     0.173 A 
ATOM     67  C   UNL     1       7.110  12.827  -4.529  1.00  0.00     0.173 A 
ATOM     68  F   UNL     1       9.843  10.539  -3.803  1.00  0.00    -0.203 F 
ATOM     69  C   UNL     1       9.359  12.662  -2.912  1.00  0.00     0.198 A 
ATOM     70  C   UNL     1       7.440  13.880  -3.681  1.00  0.00     0.198 A 
ATOM     71  F   UNL     1       6.005  12.931  -5.282  1.00  0.00    -0.203 F 
ATOM     72  F   UNL     1      10.416  12.557  -2.095  1.00  0.00    -0.200 F 
ATOM     73  C   UNL     1       8.555  13.791  -2.863  1.00  0.00     0.200 A 
ATOM     74  F   UNL     1       6.670  14.976  -3.646  1.00  0.00    -0.200 F 
ATOM     75  F   UNL     1       8.848  14.788  -2.017  1.00  0.00    -0.200 F 
ENDBRANCH  51  65
BRANCH  52  76
ATOM     76  C   UNL     1       4.700   3.999 -10.132  1.00  0.00     0.064 A 
ATOM     77  C   UNL     1       5.489   3.276 -11.036  1.00  0.00     0.173 A 
ATOM     78  C   UNL     1       3.354   3.624  -9.997  1.00  0.00     0.173 A 
ATOM     79  F   UNL     1       6.773   3.614 -11.221  1.00  0.00    -0.203 F 
ATOM     80  C   UNL     1       4.954   2.222 -11.776  1.00  0.00     0.198 A 
ATOM     81  C   UNL     1       2.828   2.552 -10.715  1.00  0.00     0.198 A 
ATOM     82  F   UNL     1       2.555   4.285  -9.146  1.00  0.00    -0.203 F 
ATOM     83  F   UNL     1       5.723   1.568 -12.657  1.00  0.00    -0.200 F 
ATOM     84  C   UNL     1       3.627   1.855 -11.607  1.00  0.00     0.200 A 
ATOM     85  F   UNL     1       1.549   2.192 -10.537  1.00  0.00    -0.200 F 
ATOM     86  F   UNL     1       3.119   0.830 -12.305  1.00  0.00    -0.200 F 
ENDBRANCH  52  76
BRANCH  64  87
ATOM     87  C   UNL     1       7.013  10.429 -11.642  1.00  0.00     0.064 A 
ATOM     88  C   UNL     1       5.937  10.918 -12.395  1.00  0.00     0.173 A 
ATOM     89  C   UNL     1       8.313  10.731 -12.083  1.00  0.00     0.173 A 
ATOM     90  F   UNL     1       4.676  10.648 -12.025  1.00  0.00    -0.203 F 
ATOM     91  C   UNL     1       6.153  11.671 -13.547  1.00  0.00     0.198 A 
ATOM     92  C   UNL     1       8.524  11.511 -13.216  1.00  0.00     0.198 A 
ATOM     93  F   UNL     1       9.378  10.294 -11.394  1.00  0.00    -0.203 F 
ATOM     94  F   UNL     1       5.109  12.101 -14.270  1.00  0.00    -0.200 F 
ATOM     95  C   UNL     1       7.445  11.977 -13.950  1.00  0.00     0.200 A 
ATOM     96  F   UNL     1       9.774  11.820 -13.591  1.00  0.00    -0.200 F 
ATOM     97  F   UNL     1       7.650  12.720 -15.046  1.00  0.00    -0.200 F 
ENDBRANCH  64  87
ENDBRANCH  38  39
ENDBRANCH  31  33
ENDBRANCH  30  31
ENDBRANCH  29  30
ENDBRANCH  28  29
ENDBRANCH  27  28
ENDBRANCH   1  27
TORSDOF 17
