REMARK SMILES Cc1ccc(NC(=O)c2ccccc2NC(=O)[C@H]2CCCC[C@H]2C(=O)OCCOCCOC(=O)c2ccc(-c3c4nc(c(-c5c(F)c(F)c(F)c(F)c5F)c5ccc([nH]5)c(-c5c(F)c(F)c(F)c(F)c5F)c5nc(c(-c6c(F)c(F)c(F)c(F)c6F)c6ccc3[nH]6)C=C5)C=C4)cc2)cc1
REMARK SMILES IDX 28 1 27 2 26 3 24 4 25 5 23 6 18 7 19 8 20 9 22 10 21 11
REMARK SMILES IDX 16 12 15 13 17 15 14 16 9 17 10 18 11 19 13 20 12 21 7 22
REMARK SMILES IDX 6 23 8 25 5 26 1 27 2 28 3 29 99 30 4 31 98 32 29 33 30 34
REMARK SMILES IDX 31 35 32 36 33 37 34 38 35 39 36 40 97 41 37 42 96 43 38 44
REMARK SMILES IDX 39 45 40 46 90 47 41 48 95 49 89 50 91 51 42 52 94 53 88 54
REMARK SMILES IDX 87 55 43 57 75 58 55 59 74 60 56 61 59 62 73 63 92 64 57 65
REMARK SMILES IDX 58 66 72 68 93 69 60 70 44 71 45 72 53 73 46 74 47 75 51 76
REMARK SMILES IDX 54 77 48 78 49 79 52 80 50 81 76 82 77 83 85 84 78 85 79 86
REMARK SMILES IDX 83 87 86 88 80 89 81 90 84 91 82 92 61 93 62 94 70 95 63 96
REMARK SMILES IDX 64 97 68 98 71 99 65 100 66 101 69 102 67 103
REMARK H PARENT 15 14 6 24 91 56 59 67
REMARK Flexibility Score: inf
ROOT
ATOM      1  C   UNL     1      -0.214   1.114   4.663  1.00  0.00     0.202 C 
ENDROOT
BRANCH   1   2
ATOM      2  C   UNL     1      -0.096   0.312   5.910  1.00  0.00     0.261 C 
BRANCH   2   3
ATOM      3  O   UNL     1      -0.322  -1.078   5.733  1.00  0.00    -0.463 OA
BRANCH   3   4
ATOM      4  C   UNL     1      -1.589  -1.478   5.461  1.00  0.00     0.309 C 
ATOM      5  O   UNL     1      -2.609  -0.935   5.825  1.00  0.00    -0.252 OA
BRANCH   4   6
ATOM      6  C   UNL     1      -1.530  -2.708   4.583  1.00  0.00     0.111 C 
ATOM      7  C   UNL     1      -0.518  -2.535   3.408  1.00  0.00     0.093 C 
ATOM      8  C   UNL     1      -0.427  -3.832   2.599  1.00  0.00     0.014 C 
ATOM      9  C   UNL     1      -0.195  -5.059   3.487  1.00  0.00     0.001 C 
ATOM     10  C   UNL     1      -1.350  -3.962   5.434  1.00  0.00     0.016 C 
ATOM     11  C   UNL     1      -1.266  -5.206   4.561  1.00  0.00     0.001 C 
BRANCH   7  12
ATOM     12  C   UNL     1       0.915  -2.135   3.792  1.00  0.00     0.228 C 
ATOM     13  N   UNL     1       1.622  -1.118   3.210  1.00  0.00    -0.325 N 
ATOM     14  H   UNL     1       2.458  -0.946   3.701  1.00  0.00     0.169 HD
ATOM     15  O   UNL     1       1.483  -2.721   4.723  1.00  0.00    -0.274 OA
BRANCH  13  16
ATOM     16  C   UNL     1       1.498  -0.238   2.099  1.00  0.00     0.054 A 
ATOM     17  C   UNL     1       2.371   0.880   1.959  1.00  0.00     0.063 A 
ATOM     18  C   UNL     1       2.068   1.877   1.000  1.00  0.00     0.016 A 
ATOM     19  C   UNL     1       0.971   1.763   0.156  1.00  0.00     0.001 A 
ATOM     20  C   UNL     1       0.468  -0.378   1.159  1.00  0.00     0.027 A 
ATOM     21  C   UNL     1       0.189   0.622   0.218  1.00  0.00     0.002 A 
BRANCH  17  22
ATOM     22  C   UNL     1       3.544   1.244   2.818  1.00  0.00     0.257 C 
ATOM     23  N   UNL     1       4.448   0.357   3.353  1.00  0.00    -0.322 N 
ATOM     24  H   UNL     1       5.073   0.768   3.993  1.00  0.00     0.170 HD
ATOM     25  O   UNL     1       3.695   2.434   3.109  1.00  0.00    -0.269 OA
BRANCH  23  26
ATOM     26  C   UNL     1       4.656  -1.013   3.167  1.00  0.00     0.041 A 
ATOM     27  C   UNL     1       3.928  -5.215   3.403  1.00  0.00     0.044 C 
ATOM     28  C   UNL     1       4.333  -3.778   3.273  1.00  0.00    -0.051 A 
ATOM     29  C   UNL     1       4.078  -3.083   2.086  1.00  0.00     0.005 A 
ATOM     30  C   UNL     1       4.904  -3.100   4.352  1.00  0.00     0.005 A 
ATOM     31  C   UNL     1       4.261  -1.701   2.025  1.00  0.00     0.026 A 
ATOM     32  C   UNL     1       5.105  -1.724   4.282  1.00  0.00     0.026 A 
ENDBRANCH  23  26
ENDBRANCH  17  22
ENDBRANCH  13  16
ENDBRANCH   7  12
ENDBRANCH   4   6
ENDBRANCH   3   4
ENDBRANCH   2   3
ENDBRANCH   1   2
BRANCH   1  33
ATOM     33  O   UNL     1      -1.571   1.440   4.436  1.00  0.00    -0.374 OA
BRANCH  33  34
ATOM     34  C   UNL     1      -1.790   2.106   3.201  1.00  0.00     0.202 C 
BRANCH  34  35
ATOM     35  C   UNL     1      -0.865   3.317   2.966  1.00  0.00     0.261 C 
BRANCH  35  36
ATOM     36  O   UNL     1      -1.097   4.322   3.980  1.00  0.00    -0.460 OA
BRANCH  36  37
ATOM     37  C   UNL     1      -0.116   4.485   4.915  1.00  0.00     0.338 C 
ATOM     38  O   UNL     1       1.064   4.685   4.671  1.00  0.00    -0.246 OA
BRANCH  37  39
ATOM     39  C   UNL     1      -0.629   4.079   6.261  1.00  0.00     0.060 A 
ATOM     40  C   UNL     1       0.258   3.833   7.331  1.00  0.00     0.016 A 
ATOM     41  C   UNL     1      -1.924   3.583   6.321  1.00  0.00     0.016 A 
ATOM     42  C   UNL     1      -0.106   2.956   8.371  1.00  0.00     0.010 A 
ATOM     43  C   UNL     1      -2.200   2.599   7.242  1.00  0.00     0.010 A 
ATOM     44  C   UNL     1      -1.301   2.257   8.271  1.00  0.00    -0.014 A 
BRANCH  44  45
ATOM     45  C   UNL     1      -1.742   1.095   9.066  1.00  0.00     0.031 A 
ATOM     46  C   UNL     1      -3.071   1.237   9.719  1.00  0.00     0.074 A 
ATOM     47  C   UNL     1      -1.167  -0.141   8.977  1.00  0.00     0.049 A 
ATOM     48  N   UNL     1      -3.576   0.355  10.501  1.00  0.00    -0.248 NA
ATOM     49  C   UNL     1      -3.948   2.404   9.575  1.00  0.00     0.031 C 
ATOM     50  C   UNL     1      -1.779  -1.450   9.257  1.00  0.00     0.029 A 
ATOM     51  N   UNL     1       0.140  -0.514   8.608  1.00  0.00    -0.354 N 
ATOM     52  C   UNL     1      -4.903   0.652  10.684  1.00  0.00     0.074 A 
ATOM     53  C   UNL     1      -5.060   1.988  10.184  1.00  0.00     0.031 C 
ATOM     54  C   UNL     1      -0.817  -2.382   9.394  1.00  0.00     0.029 A 
ATOM     55  C   UNL     1       0.454  -1.690   9.318  1.00  0.00     0.049 A 
ATOM     56  H   UNL     1       0.725  -0.042   7.973  1.00  0.00     0.167 HD
ATOM     57  C   UNL     1      -5.705  -0.343  11.148  1.00  0.00     0.037 A 
ATOM     58  C   UNL     1       1.491  -1.717  10.197  1.00  0.00     0.037 A 
ATOM     59  C   UNL     1      -4.878  -1.468  11.608  1.00  0.00     0.049 A 
ATOM     60  C   UNL     1       0.929  -1.981  11.559  1.00  0.00     0.074 A 
ATOM     61  C   UNL     1      -4.614  -2.735  11.118  1.00  0.00     0.029 A 
ATOM     62  N   UNL     1      -3.896  -1.213  12.570  1.00  0.00    -0.354 N 
ATOM     63  N   UNL     1      -0.320  -1.736  11.852  1.00  0.00    -0.248 NA
ATOM     64  C   UNL     1       1.652  -2.616  12.652  1.00  0.00     0.031 C 
ATOM     65  C   UNL     1      -3.413  -3.197  11.740  1.00  0.00     0.029 A 
ATOM     66  C   UNL     1      -2.970  -2.235  12.638  1.00  0.00     0.049 A 
ATOM     67  H   UNL     1      -3.868  -0.404  13.130  1.00  0.00     0.167 HD
ATOM     68  C   UNL     1      -0.605  -2.236  13.081  1.00  0.00     0.074 A 
ATOM     69  C   UNL     1       0.669  -2.744  13.562  1.00  0.00     0.031 C 
ATOM     70  C   UNL     1      -1.865  -2.183  13.597  1.00  0.00     0.037 A 
BRANCH  57  71
ATOM     71  C   UNL     1      -7.219  -0.376  11.082  1.00  0.00     0.064 A 
ATOM     72  C   UNL     1      -7.918  -1.473  11.631  1.00  0.00     0.173 A 
ATOM     73  C   UNL     1      -8.043   0.571  10.434  1.00  0.00     0.173 A 
ATOM     74  F   UNL     1      -7.271  -2.466  12.257  1.00  0.00    -0.203 F 
ATOM     75  C   UNL     1      -9.310  -1.603  11.545  1.00  0.00     0.198 A 
ATOM     76  C   UNL     1      -9.438   0.464  10.389  1.00  0.00     0.198 A 
ATOM     77  F   UNL     1      -7.551   1.616   9.766  1.00  0.00    -0.203 F 
ATOM     78  F   UNL     1      -9.908  -2.691  12.051  1.00  0.00    -0.200 F 
ATOM     79  C   UNL     1     -10.072  -0.628  10.937  1.00  0.00     0.200 A 
ATOM     80  F   UNL     1     -10.157   1.423   9.786  1.00  0.00    -0.200 F 
ATOM     81  F   UNL     1     -11.404  -0.745  10.863  1.00  0.00    -0.200 F 
ENDBRANCH  57  71
BRANCH  58  82
ATOM     82  C   UNL     1       2.574  -0.779   9.765  1.00  0.00     0.064 A 
ATOM     83  C   UNL     1       3.142  -1.057   8.498  1.00  0.00     0.173 A 
ATOM     84  C   UNL     1       2.614   0.551  10.203  1.00  0.00     0.173 A 
ATOM     85  F   UNL     1       3.157  -2.317   8.033  1.00  0.00    -0.203 F 
ATOM     86  C   UNL     1       3.482  -0.027   7.624  1.00  0.00     0.198 A 
ATOM     87  C   UNL     1       3.036   1.573   9.342  1.00  0.00     0.198 A 
ATOM     88  F   UNL     1       2.101   0.887  11.394  1.00  0.00    -0.203 F 
ATOM     89  F   UNL     1       3.744  -0.296   6.340  1.00  0.00    -0.200 F 
ATOM     90  C   UNL     1       3.402   1.288   8.035  1.00  0.00     0.200 A 
ATOM     91  F   UNL     1       2.959   2.854   9.732  1.00  0.00    -0.200 F 
ATOM     92  F   UNL     1       3.608   2.276   7.152  1.00  0.00    -0.200 F 
ENDBRANCH  58  82
BRANCH  70  93
ATOM     93  C   UNL     1      -2.146  -2.131  15.075  1.00  0.00     0.064 A 
ATOM     94  C   UNL     1      -1.181  -1.772  16.033  1.00  0.00     0.173 A 
ATOM     95  C   UNL     1      -3.466  -2.263  15.564  1.00  0.00     0.173 A 
ATOM     96  F   UNL     1       0.076  -1.459  15.691  1.00  0.00    -0.203 F 
ATOM     97  C   UNL     1      -1.490  -1.653  17.386  1.00  0.00     0.198 A 
ATOM     98  C   UNL     1      -3.786  -2.055  16.903  1.00  0.00     0.198 A 
ATOM     99  F   UNL     1      -4.497  -2.554  14.758  1.00  0.00    -0.203 F 
ATOM    100  F   UNL     1      -0.515  -1.378  18.263  1.00  0.00    -0.200 F 
ATOM    101  C   UNL     1      -2.794  -1.781  17.819  1.00  0.00     0.200 A 
ATOM    102  F   UNL     1      -5.068  -2.099  17.291  1.00  0.00    -0.200 F 
ATOM    103  F   UNL     1      -3.096  -1.613  19.112  1.00  0.00    -0.200 F 
ENDBRANCH  70  93
ENDBRANCH  44  45
ENDBRANCH  37  39
ENDBRANCH  36  37
ENDBRANCH  35  36
ENDBRANCH  34  35
ENDBRANCH  33  34
ENDBRANCH   1  33
TORSDOF 18
