REMARK SMILES Cc1cc(C(=O)OCCOCCOC(=O)c2ccc(-c3c4nc(c(-c5c(F)c(F)c(F)c(F)c5F)c5ccc([nH]5)c(-c5c(F)c(F)c(F)c(F)c5F)c5nc(c(-c6c(F)c(F)c(F)c(F)c6F)c6ccc3[nH]6)C=C5)C=C4)cc2)c(C)n1[C@@H]1C[N@H+]2CC[C@@H]1CC2
REMARK SMILES IDX 11 1 10 2 9 3 8 4 7 5 5 6 6 7 4 8 1 9 2 10 3 11 81 12 79 13
REMARK SMILES IDX 80 14 82 15 83 16 87 17 84 18 88 19 86 20 89 21 85 22 12 24
REMARK SMILES IDX 13 25 14 26 15 27 16 28 17 29 78 30 18 31 77 32 19 33 20 34
REMARK SMILES IDX 21 35 71 36 22 37 76 38 70 39 72 40 23 41 75 42 69 43 68 44
REMARK SMILES IDX 24 46 56 47 36 48 55 49 37 50 40 51 54 52 73 53 38 54 39 55
REMARK SMILES IDX 53 57 74 58 41 59 25 60 26 61 34 62 27 63 28 64 32 65 35 66
REMARK SMILES IDX 29 67 30 68 33 69 31 70 57 71 58 72 66 73 59 74 60 75 64 76
REMARK SMILES IDX 67 77 61 78 62 79 65 80 63 81 42 82 43 83 51 84 44 85 45 86
REMARK SMILES IDX 49 87 52 88 46 89 47 90 50 91 48 92
REMARK H PARENT 84 23 72 45 40 56
REMARK Flexibility Score: inf
ROOT
ATOM      1  C   UNL     1      -0.059   3.523   4.898  1.00  0.00     0.202 C 
ENDROOT
BRANCH   1   2
ATOM      2  O   UNL     1      -1.067   4.484   5.262  1.00  0.00    -0.374 OA
BRANCH   2   3
ATOM      3  C   UNL     1      -2.402   3.992   5.380  1.00  0.00     0.202 C 
BRANCH   3   4
ATOM      4  C   UNL     1      -3.202   3.945   4.064  1.00  0.00     0.261 C 
BRANCH   4   5
ATOM      5  O   UNL     1      -2.534   3.150   3.079  1.00  0.00    -0.460 OA
BRANCH   5   6
ATOM      6  C   UNL     1      -1.888   3.833   2.091  1.00  0.00     0.340 C 
ATOM      7  O   UNL     1      -2.033   5.037   1.858  1.00  0.00    -0.246 OA
BRANCH   6   8
ATOM      8  C   UNL     1      -0.956   2.972   1.369  1.00  0.00     0.081 A 
ATOM      9  C   UNL     1       0.149  -0.321   0.122  1.00  0.00     0.064 C 
ATOM     10  C   UNL     1       0.007   1.110   0.499  1.00  0.00     0.016 A 
ATOM     11  C   UNL     1      -0.967   1.564   1.362  1.00  0.00     0.038 A 
ATOM     12  N   UNL     1       0.727   2.212   0.043  1.00  0.00    -0.339 N 
ATOM     13  C   UNL     1       0.141   3.361   0.602  1.00  0.00     0.030 A 
ATOM     14  C   UNL     1       0.612   4.775   0.427  1.00  0.00     0.065 C 
BRANCH  12  15
ATOM     15  C   UNL     1       1.811   2.246  -0.947  1.00  0.00     0.145 C 
ATOM     16  C   UNL     1       1.491   1.607  -2.319  1.00  0.00     0.288 C 
ATOM     17  C   UNL     1       3.244   1.818  -0.509  1.00  0.00     0.029 C 
ATOM     18  N   UNL     1       2.624   0.791  -2.831  1.00  0.00    -0.333 N 
ATOM     19  C   UNL     1       4.210   2.307  -1.623  1.00  0.00     0.067 C 
ATOM     20  C   UNL     1       3.420   0.294  -0.514  1.00  0.00     0.067 C 
ATOM     21  C   UNL     1       3.819   1.654  -2.965  1.00  0.00     0.262 C 
ATOM     22  C   UNL     1       2.927  -0.278  -1.854  1.00  0.00     0.262 C 
ATOM     23  H   UNL     1       2.377   0.388  -3.735  1.00  0.00     0.348 HD
ENDBRANCH  12  15
ENDBRANCH   6   8
ENDBRANCH   5   6
ENDBRANCH   4   5
ENDBRANCH   3   4
ENDBRANCH   2   3
ENDBRANCH   1   2
BRANCH   1  24
ATOM     24  C   UNL     1       0.620   2.773   6.076  1.00  0.00     0.261 C 
BRANCH  24  25
ATOM     25  O   UNL     1       0.458   1.305   6.143  1.00  0.00    -0.460 OA
BRANCH  25  26
ATOM     26  C   UNL     1       0.031   0.797   7.341  1.00  0.00     0.338 C 
ATOM     27  O   UNL     1      -0.526   1.483   8.193  1.00  0.00    -0.246 OA
BRANCH  26  28
ATOM     28  C   UNL     1       0.217  -0.706   7.595  1.00  0.00     0.060 A 
ATOM     29  C   UNL     1      -0.853  -1.364   8.174  1.00  0.00     0.016 A 
ATOM     30  C   UNL     1       1.393  -1.486   7.513  1.00  0.00     0.016 A 
ATOM     31  C   UNL     1      -0.746  -2.720   8.615  1.00  0.00     0.010 A 
ATOM     32  C   UNL     1       1.512  -2.871   8.058  1.00  0.00     0.010 A 
ATOM     33  C   UNL     1       0.441  -3.550   8.666  1.00  0.00    -0.014 A 
BRANCH  33  34
ATOM     34  C   UNL     1       0.364  -4.941   9.592  1.00  0.00     0.031 A 
ATOM     35  C   UNL     1      -0.744  -4.637  10.540  1.00  0.00     0.074 A 
ATOM     36  C   UNL     1       0.977  -6.162   9.947  1.00  0.00     0.049 A 
ATOM     37  N   UNL     1      -0.615  -3.604  11.324  1.00  0.00    -0.248 NA
ATOM     38  C   UNL     1      -2.116  -5.125  10.388  1.00  0.00     0.031 C 
ATOM     39  C   UNL     1       2.257  -6.723   9.479  1.00  0.00     0.029 A 
ATOM     40  N   UNL     1       0.597  -7.223  10.865  1.00  0.00    -0.354 N 
ATOM     41  C   UNL     1      -1.818  -3.433  11.953  1.00  0.00     0.074 A 
ATOM     42  C   UNL     1      -2.747  -4.279  11.215  1.00  0.00     0.031 C 
ATOM     43  C   UNL     1       2.477  -7.989   9.953  1.00  0.00     0.029 A 
ATOM     44  C   UNL     1       1.409  -8.428  10.854  1.00  0.00     0.049 A 
ATOM     45  H   UNL     1      -0.175  -7.129  11.468  1.00  0.00     0.167 HD
ATOM     46  C   UNL     1      -1.736  -3.176  13.288  1.00  0.00     0.037 A 
ATOM     47  C   UNL     1       1.308  -9.640  11.556  1.00  0.00     0.037 A 
ATOM     48  C   UNL     1      -1.997  -4.364  14.048  1.00  0.00     0.049 A 
ATOM     49  C   UNL     1       0.596  -9.342  12.803  1.00  0.00     0.074 A 
ATOM     50  C   UNL     1      -2.944  -5.362  13.924  1.00  0.00     0.029 A 
ATOM     51  N   UNL     1      -0.938  -4.909  14.735  1.00  0.00    -0.354 N 
ATOM     52  N   UNL     1       1.213  -8.802  13.809  1.00  0.00    -0.248 NA
ATOM     53  C   UNL     1      -0.774  -9.771  13.064  1.00  0.00     0.031 C 
ATOM     54  C   UNL     1      -2.201  -6.559  14.023  1.00  0.00     0.029 A 
ATOM     55  C   UNL     1      -0.967  -6.277  14.595  1.00  0.00     0.049 A 
ATOM     56  H   UNL     1      -0.266  -4.401  15.246  1.00  0.00     0.167 HD
ATOM     57  C   UNL     1       0.197  -8.349  14.579  1.00  0.00     0.074 A 
ATOM     58  C   UNL     1      -0.938  -9.193  14.257  1.00  0.00     0.031 C 
ATOM     59  C   UNL     1       0.237  -7.024  14.851  1.00  0.00     0.037 A 
BRANCH  46  60
ATOM     60  C   UNL     1      -0.678  -2.148  13.610  1.00  0.00     0.064 A 
ATOM     61  C   UNL     1      -1.080  -0.853  13.950  1.00  0.00     0.173 A 
ATOM     62  C   UNL     1       0.700  -2.355  13.377  1.00  0.00     0.173 A 
ATOM     63  F   UNL     1      -2.363  -0.606  14.251  1.00  0.00    -0.203 F 
ATOM     64  C   UNL     1      -0.165   0.201  13.966  1.00  0.00     0.198 A 
ATOM     65  C   UNL     1       1.592  -1.290  13.310  1.00  0.00     0.198 A 
ATOM     66  F   UNL     1       1.186  -3.594  13.188  1.00  0.00    -0.203 F 
ATOM     67  F   UNL     1      -0.569   1.429  14.317  1.00  0.00    -0.200 F 
ATOM     68  C   UNL     1       1.157  -0.009  13.599  1.00  0.00     0.200 A 
ATOM     69  F   UNL     1       2.868  -1.506  12.956  1.00  0.00    -0.200 F 
ATOM     70  F   UNL     1       2.015   1.019  13.542  1.00  0.00    -0.200 F 
ENDBRANCH  46  60
BRANCH  47  71
ATOM     71  C   UNL     1       1.824 -11.123  11.662  1.00  0.00     0.064 A 
ATOM     72  C   UNL     1       1.895 -11.816  12.931  1.00  0.00     0.173 A 
ATOM     73  C   UNL     1       1.833 -11.998  10.568  1.00  0.00     0.173 A 
ATOM     74  F   UNL     1       1.951 -11.153  14.094  1.00  0.00    -0.203 F 
ATOM     75  C   UNL     1       1.840 -13.214  13.080  1.00  0.00     0.198 A 
ATOM     76  C   UNL     1       1.820 -13.414  10.721  1.00  0.00     0.198 A 
ATOM     77  F   UNL     1       1.764 -11.509   9.324  1.00  0.00    -0.203 F 
ATOM     78  F   UNL     1       1.772 -13.762  14.306  1.00  0.00    -0.200 F 
ATOM     79  C   UNL     1       1.782 -14.017  11.970  1.00  0.00     0.200 A 
ATOM     80  F   UNL     1       1.771 -14.203   9.637  1.00  0.00    -0.200 F 
ATOM     81  F   UNL     1       1.660 -15.348  12.101  1.00  0.00    -0.200 F 
ENDBRANCH  47  71
BRANCH  59  82
ATOM     82  C   UNL     1       1.592  -6.436  15.218  1.00  0.00     0.064 A 
ATOM     83  C   UNL     1       2.820  -6.599  14.528  1.00  0.00     0.173 A 
ATOM     84  C   UNL     1       1.659  -5.704  16.413  1.00  0.00     0.173 A 
ATOM     85  F   UNL     1       2.894  -7.162  13.313  1.00  0.00    -0.203 F 
ATOM     86  C   UNL     1       4.031  -6.146  15.060  1.00  0.00     0.198 A 
ATOM     87  C   UNL     1       2.859  -5.196  16.907  1.00  0.00     0.198 A 
ATOM     88  F   UNL     1       0.537  -5.455  17.106  1.00  0.00    -0.203 F 
ATOM     89  F   UNL     1       5.183  -6.387  14.414  1.00  0.00    -0.200 F 
ATOM     90  C   UNL     1       4.049  -5.442  16.248  1.00  0.00     0.200 A 
ATOM     91  F   UNL     1       2.853  -4.462  18.027  1.00  0.00    -0.200 F 
ATOM     92  F   UNL     1       5.204  -4.983  16.747  1.00  0.00    -0.200 F 
ENDBRANCH  59  82
ENDBRANCH  33  34
ENDBRANCH  26  28
ENDBRANCH  25  26
ENDBRANCH  24  25
ENDBRANCH   1  24
TORSDOF 15
