REMARK SMILES C[C@H]1[C@H](C(=O)OCCOCCOC(=O)c2ccc(-c3c4nc(c(-c5c(F)c(F)c(F)c(F)c5F)c5ccc([nH]5)c(-c5c(F)c(F)c(F)c(F)c5F)c5nc(c(-c6c(F)c(F)c(F)c(F)c6F)c6ccc3[nH]6)C=C5)C=C4)cc2)CCN1C(=O)COc1ccccc1F
REMARK SMILES IDX 8 1 7 2 6 3 4 4 5 5 3 6 1 7 2 8 80 9 78 10 79 11 81 12 82 13
REMARK SMILES IDX 83 14 84 15 85 16 86 17 90 18 87 19 89 20 91 21 88 22 9 23
REMARK SMILES IDX 10 24 11 25 12 26 13 27 14 28 15 29 16 30 77 31 17 32 76 33
REMARK SMILES IDX 18 34 19 35 20 36 70 37 21 38 75 39 69 40 71 41 22 42 74 43
REMARK SMILES IDX 68 44 67 45 23 47 55 48 35 49 54 50 36 51 39 52 53 53 72 54
REMARK SMILES IDX 37 55 38 56 52 58 73 59 40 60 24 61 25 62 33 63 26 64 27 65
REMARK SMILES IDX 31 66 34 67 28 68 29 69 32 70 30 71 56 72 57 73 65 74 58 75
REMARK SMILES IDX 59 76 63 77 66 78 60 79 61 80 64 81 62 82 41 83 42 84 50 85
REMARK SMILES IDX 43 86 44 87 48 88 51 89 45 90 46 91 49 92 47 93
REMARK H PARENT 71 46 39 57
REMARK Flexibility Score: inf
ROOT
ATOM      1  C   UNL     1       0.465   3.822   3.405  1.00  0.00     0.202 C 
ENDROOT
BRANCH   1   2
ATOM      2  C   UNL     1      -0.866   3.461   2.740  1.00  0.00     0.261 C 
BRANCH   2   3
ATOM      3  O   UNL     1      -0.758   2.265   1.945  1.00  0.00    -0.463 OA
BRANCH   3   4
ATOM      4  C   UNL     1      -0.932   2.423   0.607  1.00  0.00     0.311 C 
ATOM      5  O   UNL     1      -1.213   3.479   0.054  1.00  0.00    -0.252 OA
BRANCH   4   6
ATOM      6  C   UNL     1      -0.804   1.128  -0.156  1.00  0.00     0.123 C 
ATOM      7  C   UNL     1       1.533   0.289  -0.488  1.00  0.00     0.032 C 
ATOM      8  C   UNL     1       0.263   0.126   0.349  1.00  0.00     0.096 C 
ATOM      9  N   UNL     1      -0.393  -1.187   0.220  1.00  0.00    -0.336 N 
ATOM     10  C   UNL     1      -2.120   0.365  -0.110  1.00  0.00     0.039 C 
ATOM     11  C   UNL     1      -1.697  -1.054  -0.405  1.00  0.00     0.121 C 
BRANCH   9  12
ATOM     12  C   UNL     1      -0.015  -2.429   0.693  1.00  0.00     0.260 C 
ATOM     13  O   UNL     1      -0.835  -3.347   0.813  1.00  0.00    -0.271 OA
BRANCH  12  14
ATOM     14  C   UNL     1       1.444  -2.691   1.083  1.00  0.00     0.329 C 
BRANCH  14  15
ATOM     15  O   UNL     1       2.526  -2.405   0.218  1.00  0.00    -0.481 OA
BRANCH  15  16
ATOM     16  C   UNL     1       2.684  -3.145  -0.919  1.00  0.00     0.155 A 
ATOM     17  C   UNL     1       4.010  -3.470  -1.225  1.00  0.00     0.049 A 
ATOM     18  C   UNL     1       1.697  -3.454  -1.856  1.00  0.00     0.165 A 
ATOM     19  C   UNL     1       4.334  -4.103  -2.431  1.00  0.00     0.004 A 
ATOM     20  C   UNL     1       2.013  -4.085  -3.059  1.00  0.00     0.043 A 
ATOM     21  F   UNL     1       0.424  -3.087  -1.692  1.00  0.00    -0.203 F 
ATOM     22  C   UNL     1       3.334  -4.408  -3.350  1.00  0.00     0.003 A 
ENDBRANCH  15  16
ENDBRANCH  14  15
ENDBRANCH  12  14
ENDBRANCH   9  12
ENDBRANCH   4   6
ENDBRANCH   3   4
ENDBRANCH   2   3
ENDBRANCH   1   2
BRANCH   1  23
ATOM     23  O   UNL     1       1.512   4.241   2.530  1.00  0.00    -0.374 OA
BRANCH  23  24
ATOM     24  C   UNL     1       2.191   3.229   1.789  1.00  0.00     0.202 C 
BRANCH  24  25
ATOM     25  C   UNL     1       3.252   2.429   2.552  1.00  0.00     0.261 C 
BRANCH  25  26
ATOM     26  O   UNL     1       2.674   1.646   3.613  1.00  0.00    -0.460 OA
BRANCH  26  27
ATOM     27  C   UNL     1       3.033   2.044   4.855  1.00  0.00     0.338 C 
ATOM     28  O   UNL     1       3.854   2.905   5.148  1.00  0.00    -0.246 OA
BRANCH  27  29
ATOM     29  C   UNL     1       2.184   1.411   5.880  1.00  0.00     0.060 A 
ATOM     30  C   UNL     1       1.618   2.256   6.842  1.00  0.00     0.016 A 
ATOM     31  C   UNL     1       2.039   0.025   5.980  1.00  0.00     0.016 A 
ATOM     32  C   UNL     1       0.980   1.718   7.955  1.00  0.00     0.010 A 
ATOM     33  C   UNL     1       1.398  -0.516   7.103  1.00  0.00     0.010 A 
ATOM     34  C   UNL     1       0.916   0.328   8.120  1.00  0.00    -0.014 A 
BRANCH  34  35
ATOM     35  C   UNL     1       0.523  -0.206   9.448  1.00  0.00     0.031 A 
ATOM     36  C   UNL     1       1.603  -0.591  10.424  1.00  0.00     0.074 A 
ATOM     37  C   UNL     1      -0.768  -0.257   9.819  1.00  0.00     0.049 A 
ATOM     38  N   UNL     1       1.499  -0.994  11.665  1.00  0.00    -0.248 NA
ATOM     39  C   UNL     1       2.989  -0.506   9.935  1.00  0.00     0.031 C 
ATOM     40  C   UNL     1      -1.902   0.118   8.978  1.00  0.00     0.029 A 
ATOM     41  N   UNL     1      -1.338  -0.634  11.009  1.00  0.00    -0.354 N 
ATOM     42  C   UNL     1       2.800  -1.205  12.104  1.00  0.00     0.074 A 
ATOM     43  C   UNL     1       3.676  -0.924  10.988  1.00  0.00     0.031 C 
ATOM     44  C   UNL     1      -3.037  -0.043   9.682  1.00  0.00     0.029 A 
ATOM     45  C   UNL     1      -2.708  -0.545  11.015  1.00  0.00     0.049 A 
ATOM     46  H   UNL     1      -0.814  -0.939  11.785  1.00  0.00     0.167 HD
ATOM     47  C   UNL     1       3.230  -1.581  13.332  1.00  0.00     0.037 A 
ATOM     48  C   UNL     1      -3.592  -0.836  11.988  1.00  0.00     0.037 A 
ATOM     49  C   UNL     1       2.363  -1.857  14.447  1.00  0.00     0.049 A 
ATOM     50  C   UNL     1      -3.091  -1.298  13.332  1.00  0.00     0.074 A 
ATOM     51  C   UNL     1       2.703  -2.235  15.734  1.00  0.00     0.029 A 
ATOM     52  N   UNL     1       0.979  -1.789  14.403  1.00  0.00    -0.354 N 
ATOM     53  N   UNL     1      -1.859  -1.460  13.747  1.00  0.00    -0.248 NA
ATOM     54  C   UNL     1      -4.109  -1.603  14.348  1.00  0.00     0.031 C 
ATOM     55  C   UNL     1       1.522  -2.435  16.458  1.00  0.00     0.029 A 
ATOM     56  C   UNL     1       0.449  -2.136  15.635  1.00  0.00     0.049 A 
ATOM     57  H   UNL     1       0.450  -1.531  13.613  1.00  0.00     0.167 HD
ATOM     58  C   UNL     1      -1.951  -1.858  15.075  1.00  0.00     0.074 A 
ATOM     59  C   UNL     1      -3.361  -1.899  15.401  1.00  0.00     0.031 C 
ATOM     60  C   UNL     1      -0.957  -2.163  15.946  1.00  0.00     0.037 A 
BRANCH  47  61
ATOM     61  C   UNL     1       4.709  -1.734  13.528  1.00  0.00     0.064 A 
ATOM     62  C   UNL     1       5.561  -0.621  13.595  1.00  0.00     0.173 A 
ATOM     63  C   UNL     1       5.279  -3.007  13.677  1.00  0.00     0.173 A 
ATOM     64  F   UNL     1       5.067   0.617  13.443  1.00  0.00    -0.203 F 
ATOM     65  C   UNL     1       6.932  -0.779  13.779  1.00  0.00     0.198 A 
ATOM     66  C   UNL     1       6.647  -3.160  13.887  1.00  0.00     0.198 A 
ATOM     67  F   UNL     1       4.508  -4.103  13.623  1.00  0.00    -0.203 F 
ATOM     68  F   UNL     1       7.733   0.296  13.795  1.00  0.00    -0.200 F 
ATOM     69  C   UNL     1       7.473  -2.047  13.931  1.00  0.00     0.200 A 
ATOM     70  F   UNL     1       7.167  -4.385  14.042  1.00  0.00    -0.200 F 
ATOM     71  F   UNL     1       8.792  -2.197  14.111  1.00  0.00    -0.200 F 
ENDBRANCH  47  61
BRANCH  48  72
ATOM     72  C   UNL     1      -5.048  -0.690  11.733  1.00  0.00     0.064 A 
ATOM     73  C   UNL     1      -5.798   0.312  12.365  1.00  0.00     0.173 A 
ATOM     74  C   UNL     1      -5.723  -1.563  10.868  1.00  0.00     0.173 A 
ATOM     75  F   UNL     1      -5.202   1.155  13.221  1.00  0.00    -0.203 F 
ATOM     76  C   UNL     1      -7.171   0.424  12.154  1.00  0.00     0.198 A 
ATOM     77  C   UNL     1      -7.090  -1.434  10.638  1.00  0.00     0.198 A 
ATOM     78  F   UNL     1      -5.050  -2.540  10.242  1.00  0.00    -0.203 F 
ATOM     79  F   UNL     1      -7.873   1.361  12.805  1.00  0.00    -0.200 F 
ATOM     80  C   UNL     1      -7.815  -0.446  11.287  1.00  0.00     0.200 A 
ATOM     81  F   UNL     1      -7.707  -2.271   9.792  1.00  0.00    -0.200 F 
ATOM     82  F   UNL     1      -9.135  -0.338  11.084  1.00  0.00    -0.200 F 
ENDBRANCH  48  72
BRANCH  60  83
ATOM     83  C   UNL     1      -1.359  -2.533  17.345  1.00  0.00     0.064 A 
ATOM     84  C   UNL     1      -1.969  -3.762  17.634  1.00  0.00     0.173 A 
ATOM     85  C   UNL     1      -1.103  -1.658  18.411  1.00  0.00     0.173 A 
ATOM     86  F   UNL     1      -2.247  -4.627  16.648  1.00  0.00    -0.203 F 
ATOM     87  C   UNL     1      -2.337  -4.088  18.937  1.00  0.00     0.198 A 
ATOM     88  C   UNL     1      -1.446  -2.000  19.716  1.00  0.00     0.198 A 
ATOM     89  F   UNL     1      -0.514  -0.474  18.189  1.00  0.00    -0.203 F 
ATOM     90  F   UNL     1      -2.965  -5.247  19.184  1.00  0.00    -0.200 F 
ATOM     91  C   UNL     1      -2.070  -3.210  19.977  1.00  0.00     0.200 A 
ATOM     92  F   UNL     1      -1.177  -1.155  20.722  1.00  0.00    -0.200 F 
ATOM     93  F   UNL     1      -2.423  -3.527  21.231  1.00  0.00    -0.200 F 
ENDBRANCH  60  83
ENDBRANCH  34  35
ENDBRANCH  27  29
ENDBRANCH  26  27
ENDBRANCH  25  26
ENDBRANCH  24  25
ENDBRANCH  23  24
ENDBRANCH   1  23
TORSDOF 18
