REMARK SMILES O=C(/C=C/c1ccccc1Oc1cccc(Cl)c1)OCCOCCOC(=O)c1ccc(-c2c3nc(c(-c4c(F)c(F)c(F)c(F)c4F)c4ccc([nH]4)c(-c4c(F)c(F)c(F)c(F)c4F)c4nc(c(-c5c(F)c(F)c(F)c(F)c5F)c5ccc2[nH]5)C=C4)C=C3)cc1
REMARK SMILES IDX 21 1 20 2 19 3 2 4 1 5 3 6 4 7 5 8 6 9 10 10 7 11 9 12 8 13
REMARK SMILES IDX 11 14 12 15 13 16 18 17 14 18 16 19 15 20 17 21 22 22 23 23
REMARK SMILES IDX 24 24 25 25 26 26 27 27 28 28 29 29 90 30 30 31 89 32 31 33
REMARK SMILES IDX 32 34 33 35 83 36 34 37 88 38 82 39 84 40 35 41 87 42 81 43
REMARK SMILES IDX 80 44 36 46 68 47 48 48 67 49 49 50 52 51 66 52 85 53 50 54
REMARK SMILES IDX 51 55 65 57 86 58 53 59 37 60 38 61 46 62 39 63 40 64 44 65
REMARK SMILES IDX 47 66 41 67 42 68 45 69 43 70 69 71 70 72 78 73 71 74 72 75
REMARK SMILES IDX 76 76 79 77 73 78 74 79 77 80 75 81 54 82 55 83 63 84 56 85
REMARK SMILES IDX 57 86 61 87 64 88 58 89 59 90 62 91 60 92
REMARK H PARENT 84 45 52 56
REMARK Flexibility Score: inf
ROOT
ATOM      1  C   UNL     1       4.834   1.018   1.352  1.00  0.00     0.202 C 
ENDROOT
BRANCH   1   2
ATOM      2  C   UNL     1       4.468   1.178  -0.123  1.00  0.00     0.261 C 
BRANCH   2   3
ATOM      3  O   UNL     1       3.080   0.991  -0.434  1.00  0.00    -0.460 OA
BRANCH   3   4
ATOM      4  C   UNL     1       2.385  -0.143  -0.210  1.00  0.00     0.330 C 
ATOM      5  O   UNL     1       1.171  -0.102  -0.032  1.00  0.00    -0.247 OA
BRANCH   4   6
ATOM      6  C   UNL     1       3.087  -1.433  -0.089  1.00  0.00     0.094 C 
ATOM      7  C   UNL     1       4.227  -1.770  -0.701  1.00  0.00     0.019 C 
BRANCH   7   8
ATOM      8  C   UNL     1       4.833  -3.088  -0.588  1.00  0.00     0.017 A 
ATOM      9  C   UNL     1       5.875  -3.192   0.356  1.00  0.00     0.012 A 
ATOM     10  C   UNL     1       4.507  -4.184  -1.405  1.00  0.00     0.134 A 
ATOM     11  C   UNL     1       6.609  -4.368   0.482  1.00  0.00     0.001 A 
ATOM     12  C   UNL     1       5.250  -5.364  -1.251  1.00  0.00     0.048 A 
ATOM     13  C   UNL     1       6.296  -5.455  -0.325  1.00  0.00     0.004 A 
BRANCH  10  14
ATOM     14  O   UNL     1       3.543  -4.282  -2.400  1.00  0.00    -0.457 OA
BRANCH  14  15
ATOM     15  C   UNL     1       2.708  -3.230  -2.682  1.00  0.00     0.128 A 
ATOM     16  C   UNL     1       1.399  -3.256  -2.191  1.00  0.00     0.047 A 
ATOM     17  C   UNL     1       3.150  -2.154  -3.457  1.00  0.00     0.067 A 
ATOM     18  C   UNL     1       0.560  -2.158  -2.395  1.00  0.00     0.005 A 
ATOM     19  C   UNL     1       2.320  -1.044  -3.618  1.00  0.00     0.044 A 
ATOM     20  C   UNL     1       1.028  -1.041  -3.092  1.00  0.00     0.021 A 
ATOM     21  Cl  UNL     1       2.938   0.377  -4.369  1.00  0.00    -0.084 Cl
ENDBRANCH  14  15
ENDBRANCH  10  14
ENDBRANCH   7   8
ENDBRANCH   4   6
ENDBRANCH   3   4
ENDBRANCH   2   3
ENDBRANCH   1   2
BRANCH   1  22
ATOM     22  O   UNL     1       4.594  -0.209   2.037  1.00  0.00    -0.374 OA
BRANCH  22  23
ATOM     23  C   UNL     1       3.371  -0.309   2.781  1.00  0.00     0.202 C 
BRANCH  23  24
ATOM     24  C   UNL     1       3.269   0.402   4.136  1.00  0.00     0.261 C 
BRANCH  24  25
ATOM     25  O   UNL     1       3.552   1.800   4.031  1.00  0.00    -0.460 OA
BRANCH  25  26
ATOM     26  C   UNL     1       4.843   2.121   4.285  1.00  0.00     0.338 C 
ATOM     27  O   UNL     1       5.704   1.404   4.770  1.00  0.00    -0.246 OA
BRANCH  26  28
ATOM     28  C   UNL     1       5.139   3.409   3.628  1.00  0.00     0.060 A 
ATOM     29  C   UNL     1       6.343   3.499   2.911  1.00  0.00     0.016 A 
ATOM     30  C   UNL     1       4.239   4.477   3.652  1.00  0.00     0.016 A 
ATOM     31  C   UNL     1       6.684   4.680   2.268  1.00  0.00     0.010 A 
ATOM     32  C   UNL     1       4.596   5.676   3.038  1.00  0.00     0.010 A 
ATOM     33  C   UNL     1       5.844   5.789   2.399  1.00  0.00    -0.014 A 
BRANCH  33  34
ATOM     34  C   UNL     1       6.413   7.129   2.162  1.00  0.00     0.031 A 
ATOM     35  C   UNL     1       6.984   7.844   3.354  1.00  0.00     0.074 A 
ATOM     36  C   UNL     1       6.449   7.667   0.935  1.00  0.00     0.049 A 
ATOM     37  N   UNL     1       7.474   9.050   3.447  1.00  0.00    -0.248 NA
ATOM     38  C   UNL     1       6.994   7.091   4.622  1.00  0.00     0.031 C 
ATOM     39  C   UNL     1       5.974   7.022  -0.287  1.00  0.00     0.029 A 
ATOM     40  N   UNL     1       6.899   8.892   0.522  1.00  0.00    -0.354 N 
ATOM     41  C   UNL     1       7.835   9.202   4.780  1.00  0.00     0.074 A 
ATOM     42  C   UNL     1       7.481   7.984   5.468  1.00  0.00     0.031 C 
ATOM     43  C   UNL     1       6.141   7.870  -1.316  1.00  0.00     0.029 A 
ATOM     44  C   UNL     1       6.697   9.126  -0.814  1.00  0.00     0.049 A 
ATOM     45  H   UNL     1       7.327   9.542   1.126  1.00  0.00     0.167 HD
ATOM     46  C   UNL     1       8.418  10.269   5.373  1.00  0.00     0.037 A 
ATOM     47  C   UNL     1       6.912  10.245  -1.530  1.00  0.00     0.037 A 
ATOM     48  C   UNL     1       8.758  11.474   4.670  1.00  0.00     0.049 A 
ATOM     49  C   UNL     1       7.488  11.451  -0.829  1.00  0.00     0.074 A 
ATOM     50  C   UNL     1       9.358  12.619   5.157  1.00  0.00     0.029 A 
ATOM     51  N   UNL     1       8.512  11.689   3.320  1.00  0.00    -0.354 N 
ATOM     52  N   UNL     1       7.844  11.591   0.427  1.00  0.00    -0.248 NA
ATOM     53  C   UNL     1       7.695  12.653  -1.647  1.00  0.00     0.031 C 
ATOM     54  C   UNL     1       9.420  13.550   4.116  1.00  0.00     0.029 A 
ATOM     55  C   UNL     1       8.923  12.961   2.963  1.00  0.00     0.049 A 
ATOM     56  H   UNL     1       8.106  11.034   2.708  1.00  0.00     0.167 HD
ATOM     57  C   UNL     1       8.344  12.881   0.544  1.00  0.00     0.074 A 
ATOM     58  C   UNL     1       8.259  13.477  -0.775  1.00  0.00     0.031 C 
ATOM     59  C   UNL     1       8.830  13.520   1.637  1.00  0.00     0.037 A 
BRANCH  46  60
ATOM     60  C   UNL     1       8.680  10.186   6.848  1.00  0.00     0.064 A 
ATOM     61  C   UNL     1       9.645   9.319   7.385  1.00  0.00     0.173 A 
ATOM     62  C   UNL     1       7.957  10.992   7.740  1.00  0.00     0.173 A 
ATOM     63  F   UNL     1      10.347   8.508   6.579  1.00  0.00    -0.203 F 
ATOM     64  C   UNL     1       9.858   9.245   8.759  1.00  0.00     0.198 A 
ATOM     65  C   UNL     1       8.196  10.940   9.111  1.00  0.00     0.198 A 
ATOM     66  F   UNL     1       7.017  11.833   7.282  1.00  0.00    -0.203 F 
ATOM     67  F   UNL     1      10.746   8.370   9.252  1.00  0.00    -0.200 F 
ATOM     68  C   UNL     1       9.140  10.062   9.620  1.00  0.00     0.200 A 
ATOM     69  F   UNL     1       7.508  11.738   9.939  1.00  0.00    -0.200 F 
ATOM     70  F   UNL     1       9.351   9.996  10.941  1.00  0.00    -0.200 F 
ENDBRANCH  46  60
BRANCH  47  71
ATOM     71  C   UNL     1       6.567  10.285  -2.975  1.00  0.00     0.064 A 
ATOM     72  C   UNL     1       7.563  10.408  -3.954  1.00  0.00     0.173 A 
ATOM     73  C   UNL     1       5.234  10.213  -3.408  1.00  0.00     0.173 A 
ATOM     74  F   UNL     1       8.850  10.502  -3.590  1.00  0.00    -0.203 F 
ATOM     75  C   UNL     1       7.238  10.479  -5.307  1.00  0.00     0.198 A 
ATOM     76  C   UNL     1       4.913  10.252  -4.763  1.00  0.00     0.198 A 
ATOM     77  F   UNL     1       4.242  10.095  -2.513  1.00  0.00    -0.203 F 
ATOM     78  F   UNL     1       8.206  10.646  -6.218  1.00  0.00    -0.200 F 
ATOM     79  C   UNL     1       5.914  10.394  -5.711  1.00  0.00     0.200 A 
ATOM     80  F   UNL     1       3.633  10.156  -5.149  1.00  0.00    -0.200 F 
ATOM     81  F   UNL     1       5.603  10.459  -7.013  1.00  0.00    -0.200 F 
ENDBRANCH  47  71
BRANCH  59  82
ATOM     82  C   UNL     1       9.346  14.917   1.444  1.00  0.00     0.064 A 
ATOM     83  C   UNL     1       8.486  15.994   1.187  1.00  0.00     0.173 A 
ATOM     84  C   UNL     1      10.719  15.186   1.565  1.00  0.00     0.173 A 
ATOM     85  F   UNL     1       7.167  15.788   1.051  1.00  0.00    -0.203 F 
ATOM     86  C   UNL     1       8.984  17.284   1.027  1.00  0.00     0.198 A 
ATOM     87  C   UNL     1      11.209  16.482   1.442  1.00  0.00     0.198 A 
ATOM     88  F   UNL     1      11.583  14.192   1.823  1.00  0.00    -0.203 F 
ATOM     89  F   UNL     1       8.151  18.289   0.726  1.00  0.00    -0.200 F 
ATOM     90  C   UNL     1      10.343  17.528   1.163  1.00  0.00     0.200 A 
ATOM     91  F   UNL     1      12.519  16.718   1.595  1.00  0.00    -0.200 F 
ATOM     92  F   UNL     1      10.819  18.772   1.019  1.00  0.00    -0.200 F 
ENDBRANCH  59  82
ENDBRANCH  33  34
ENDBRANCH  26  28
ENDBRANCH  25  26
ENDBRANCH  24  25
ENDBRANCH  23  24
ENDBRANCH  22  23
ENDBRANCH   1  22
TORSDOF 17
