REMARK SMILES CC[C@H]1CCCCN1S(=O)(=O)CC(=O)OCCOCCOC(=O)c1ccc(-c2c3nc(c(-c4c(F)c(F)c(F)c(F)c4F)c4ccc([nH]4)c(-c4c(F)c(F)c(F)c(F)c4F)c4nc(c(-c5c(F)c(F)c(F)c(F)c5F)c5ccc2[nH]5)C=C4)C=C3)cc1
REMARK SMILES IDX 17 1 16 2 15 3 13 4 14 5 12 6 9 7 10 8 11 9 8 10 3 11 4 12
REMARK SMILES IDX 5 13 7 14 6 15 2 16 1 17 18 18 19 19 20 20 21 21 22 22 23 23
REMARK SMILES IDX 24 24 25 25 86 26 26 27 85 28 27 29 28 30 29 31 79 32 30 33
REMARK SMILES IDX 84 34 78 35 80 36 31 37 83 38 77 39 76 40 32 42 64 43 44 44
REMARK SMILES IDX 63 45 45 46 48 47 62 48 81 49 46 50 47 51 61 53 82 54 49 55
REMARK SMILES IDX 33 56 34 57 42 58 35 59 36 60 40 61 43 62 37 63 38 64 41 65
REMARK SMILES IDX 39 66 65 67 66 68 74 69 67 70 68 71 72 72 75 73 69 74 70 75
REMARK SMILES IDX 73 76 71 77 50 78 51 79 59 80 52 81 53 82 57 83 60 84 54 85
REMARK SMILES IDX 55 86 58 87 56 88
REMARK H PARENT 80 41 48 52
REMARK Flexibility Score: inf
ROOT
ATOM      1  C   UNL     1       6.101  -0.361   0.923  1.00  0.00     0.202 C 
ENDROOT
BRANCH   1   2
ATOM      2  C   UNL     1       6.254   0.849  -0.004  1.00  0.00     0.261 C 
BRANCH   2   3
ATOM      3  O   UNL     1       5.293   0.902  -1.078  1.00  0.00    -0.462 OA
BRANCH   3   4
ATOM      4  C   UNL     1       5.781   0.619  -2.305  1.00  0.00     0.322 C 
ATOM      5  O   UNL     1       6.944   0.268  -2.509  1.00  0.00    -0.251 OA
BRANCH   4   6
ATOM      6  C   UNL     1       4.886   0.834  -3.462  1.00  0.00     0.276 C 
BRANCH   6   7
ATOM      7  S   UNL     1       3.145   0.977  -3.244  1.00  0.00     0.225 S 
ATOM      8  O   UNL     1       2.651   1.368  -4.553  1.00  0.00    -0.212 OA
ATOM      9  O   UNL     1       2.845   1.808  -2.099  1.00  0.00    -0.212 OA
BRANCH   7  10
ATOM     10  N   UNL     1       2.495  -0.581  -2.943  1.00  0.00    -0.198 NA
ATOM     11  C   UNL     1       0.979  -0.558  -2.687  1.00  0.00     0.072 C 
ATOM     12  C   UNL     1       0.565  -1.918  -2.105  1.00  0.00     0.020 C 
ATOM     13  C   UNL     1       0.925  -3.069  -3.034  1.00  0.00     0.003 C 
ATOM     14  C   UNL     1       2.878  -1.670  -3.890  1.00  0.00     0.102 C 
ATOM     15  C   UNL     1       2.408  -3.034  -3.380  1.00  0.00     0.017 C 
BRANCH  11  16
ATOM     16  C   UNL     1       0.160  -0.160  -3.941  1.00  0.00     0.017 C 
ATOM     17  C   UNL     1      -1.352  -0.280  -3.794  1.00  0.00     0.005 C 
ENDBRANCH  11  16
ENDBRANCH   7  10
ENDBRANCH   6   7
ENDBRANCH   4   6
ENDBRANCH   3   4
ENDBRANCH   2   3
ENDBRANCH   1   2
BRANCH   1  18
ATOM     18  O   UNL     1       6.145  -1.643   0.303  1.00  0.00    -0.374 OA
BRANCH  18  19
ATOM     19  C   UNL     1       4.989  -2.064  -0.423  1.00  0.00     0.202 C 
BRANCH  19  20
ATOM     20  C   UNL     1       3.721  -2.257   0.407  1.00  0.00     0.261 C 
BRANCH  20  21
ATOM     21  O   UNL     1       3.224  -0.999   0.893  1.00  0.00    -0.460 OA
BRANCH  21  22
ATOM     22  C   UNL     1       2.543  -1.113   2.053  1.00  0.00     0.338 C 
ATOM     23  O   UNL     1       2.129  -2.144   2.566  1.00  0.00    -0.246 OA
BRANCH  22  24
ATOM     24  C   UNL     1       2.523   0.174   2.763  1.00  0.00     0.060 A 
ATOM     25  C   UNL     1       3.323   0.288   3.906  1.00  0.00     0.016 A 
ATOM     26  C   UNL     1       1.620   1.182   2.421  1.00  0.00     0.016 A 
ATOM     27  C   UNL     1       3.163   1.379   4.756  1.00  0.00     0.010 A 
ATOM     28  C   UNL     1       1.462   2.279   3.278  1.00  0.00     0.010 A 
ATOM     29  C   UNL     1       2.195   2.354   4.476  1.00  0.00    -0.014 A 
BRANCH  29  30
ATOM     30  C   UNL     1       1.873   3.350   5.529  1.00  0.00     0.031 A 
ATOM     31  C   UNL     1       0.706   3.105   6.447  1.00  0.00     0.074 A 
ATOM     32  C   UNL     1       2.674   4.412   5.731  1.00  0.00     0.049 A 
ATOM     33  N   UNL     1       0.345   3.754   7.526  1.00  0.00    -0.248 NA
ATOM     34  C   UNL     1      -0.172   1.974   6.106  1.00  0.00     0.031 C 
ATOM     35  C   UNL     1       3.835   4.756   4.915  1.00  0.00     0.029 A 
ATOM     36  N   UNL     1       2.639   5.383   6.700  1.00  0.00    -0.354 N 
ATOM     37  C   UNL     1      -0.788   3.105   7.998  1.00  0.00     0.074 A 
ATOM     38  C   UNL     1      -1.082   2.036   7.068  1.00  0.00     0.031 C 
ATOM     39  C   UNL     1       4.415   5.856   5.426  1.00  0.00     0.029 A 
ATOM     40  C   UNL     1       3.663   6.292   6.602  1.00  0.00     0.049 A 
ATOM     41  H   UNL     1       1.947   5.424   7.399  1.00  0.00     0.167 HD
ATOM     42  C   UNL     1      -1.509   3.364   9.116  1.00  0.00     0.037 A 
ATOM     43  C   UNL     1       3.966   7.348   7.381  1.00  0.00     0.037 A 
ATOM     44  C   UNL     1      -1.221   4.428  10.042  1.00  0.00     0.049 A 
ATOM     45  C   UNL     1       3.140   7.625   8.609  1.00  0.00     0.074 A 
ATOM     46  C   UNL     1      -1.881   4.759  11.213  1.00  0.00     0.029 A 
ATOM     47  N   UNL     1      -0.188   5.341   9.895  1.00  0.00    -0.354 N 
ATOM     48  N   UNL     1       2.109   6.968   9.080  1.00  0.00    -0.248 NA
ATOM     49  C   UNL     1       3.537   8.781   9.426  1.00  0.00     0.031 C 
ATOM     50  C   UNL     1      -1.272   5.897  11.754  1.00  0.00     0.029 A 
ATOM     51  C   UNL     1      -0.204   6.248  10.943  1.00  0.00     0.049 A 
ATOM     52  H   UNL     1       0.461   5.345   9.155  1.00  0.00     0.167 HD
ATOM     53  C   UNL     1       1.749   7.612  10.257  1.00  0.00     0.074 A 
ATOM     54  C   UNL     1       2.684   8.703  10.438  1.00  0.00     0.031 C 
ATOM     55  C   UNL     1       0.735   7.326  11.111  1.00  0.00     0.037 A 
BRANCH  42  56
ATOM     56  C   UNL     1      -2.692   2.483   9.395  1.00  0.00     0.064 A 
ATOM     57  C   UNL     1      -2.534   1.161   9.837  1.00  0.00     0.173 A 
ATOM     58  C   UNL     1      -3.997   2.977   9.253  1.00  0.00     0.173 A 
ATOM     59  F   UNL     1      -1.306   0.639   9.978  1.00  0.00    -0.203 F 
ATOM     60  C   UNL     1      -3.640   0.359  10.105  1.00  0.00     0.198 A 
ATOM     61  C   UNL     1      -5.100   2.180   9.545  1.00  0.00     0.198 A 
ATOM     62  F   UNL     1      -4.202   4.236   8.838  1.00  0.00    -0.203 F 
ATOM     63  F   UNL     1      -3.466  -0.913  10.489  1.00  0.00    -0.200 F 
ATOM     64  C   UNL     1      -4.921   0.870   9.965  1.00  0.00     0.200 A 
ATOM     65  F   UNL     1      -6.338   2.679   9.419  1.00  0.00    -0.200 F 
ATOM     66  F   UNL     1      -5.985   0.099  10.229  1.00  0.00    -0.200 F 
ENDBRANCH  42  56
BRANCH  43  67
ATOM     67  C   UNL     1       5.130   8.204   7.039  1.00  0.00     0.064 A 
ATOM     68  C   UNL     1       6.294   8.192   7.819  1.00  0.00     0.173 A 
ATOM     69  C   UNL     1       5.099   9.055   5.924  1.00  0.00     0.173 A 
ATOM     70  F   UNL     1       6.362   7.413   8.908  1.00  0.00    -0.203 F 
ATOM     71  C   UNL     1       7.378   9.009   7.505  1.00  0.00     0.198 A 
ATOM     72  C   UNL     1       6.193   9.852   5.597  1.00  0.00     0.198 A 
ATOM     73  F   UNL     1       4.007   9.103   5.147  1.00  0.00    -0.203 F 
ATOM     74  F   UNL     1       8.465   9.007   8.290  1.00  0.00    -0.200 F 
ATOM     75  C   UNL     1       7.329   9.833   6.391  1.00  0.00     0.200 A 
ATOM     76  F   UNL     1       6.145  10.639   4.514  1.00  0.00    -0.200 F 
ATOM     77  F   UNL     1       8.374  10.614   6.087  1.00  0.00    -0.200 F 
ENDBRANCH  43  67
BRANCH  55  78
ATOM     78  C   UNL     1       0.602   8.191  12.330  1.00  0.00     0.064 A 
ATOM     79  C   UNL     1       0.138   9.512  12.247  1.00  0.00     0.173 A 
ATOM     80  C   UNL     1       0.921   7.685  13.599  1.00  0.00     0.173 A 
ATOM     81  F   UNL     1      -0.168  10.046  11.055  1.00  0.00    -0.203 F 
ATOM     82  C   UNL     1       0.028  10.305  13.387  1.00  0.00     0.198 A 
ATOM     83  C   UNL     1       0.785   8.472  14.739  1.00  0.00     0.198 A 
ATOM     84  F   UNL     1       1.362   6.425  13.733  1.00  0.00    -0.203 F 
ATOM     85  F   UNL     1      -0.369  11.580  13.278  1.00  0.00    -0.200 F 
ATOM     86  C   UNL     1       0.347   9.783  14.632  1.00  0.00     0.200 A 
ATOM     87  F   UNL     1       1.083   7.963  15.943  1.00  0.00    -0.200 F 
ATOM     88  F   UNL     1       0.242  10.548  15.727  1.00  0.00    -0.200 F 
ENDBRANCH  55  78
ENDBRANCH  29  30
ENDBRANCH  22  24
ENDBRANCH  21  22
ENDBRANCH  20  21
ENDBRANCH  19  20
ENDBRANCH  18  19
ENDBRANCH   1  18
TORSDOF 17
