REMARK SMILES C[C@H](NC(=O)c1cccc(NC(=O)c2ccccc2C(=O)OCCOCCOC(=O)c2ccc(-c3c4nc(c(-c5c(F)c(F)c(F)c(F)c5F)c5ccc([nH]5)c(-c5c(F)c(F)c(F)c(F)c5F)c5nc(c(-c6c(F)c(F)c(F)c(F)c6F)c6ccc3[nH]6)C=C5)C=C4)cc2)c1)c1ccccc1
REMARK SMILES IDX 23 1 22 2 20 3 21 4 19 5 14 6 15 7 16 8 18 9 17 10 12 11
REMARK SMILES IDX 11 12 13 14 10 15 6 16 7 17 94 18 8 19 9 20 4 21 3 22 5 24
REMARK SMILES IDX 2 25 1 26 95 27 96 28 100 29 97 30 99 31 98 32 24 33 25 34
REMARK SMILES IDX 26 35 27 36 28 37 29 38 30 39 31 40 32 41 93 42 33 43 92 44
REMARK SMILES IDX 34 45 35 46 36 47 86 48 37 49 91 50 85 51 87 52 38 53 90 54
REMARK SMILES IDX 84 55 83 56 39 58 71 59 51 60 70 61 52 62 55 63 69 64 88 65
REMARK SMILES IDX 53 66 54 67 68 69 89 70 56 71 40 72 41 73 49 74 42 75 43 76
REMARK SMILES IDX 47 77 50 78 44 79 45 80 48 81 46 82 72 83 73 84 81 85 74 86
REMARK SMILES IDX 75 87 79 88 82 89 76 90 77 91 80 92 78 93 57 94 58 95 66 96
REMARK SMILES IDX 59 97 60 98 64 99 67 100 61 101 62 102 65 103 63 104
REMARK H PARENT 11 13 3 23 87 57 55 68
REMARK Flexibility Score: inf
ROOT
ATOM      1  C   UNL     1      -0.439  -3.623  -2.445  1.00  0.00     0.261 C 
ENDROOT
BRANCH   1   2
ATOM      2  O   UNL     1       0.074  -4.940  -2.625  1.00  0.00    -0.460 OA
BRANCH   2   3
ATOM      3  C   UNL     1      -0.060  -5.723  -1.533  1.00  0.00     0.339 C 
ATOM      4  O   UNL     1      -0.795  -5.524  -0.576  1.00  0.00    -0.246 OA
BRANCH   3   5
ATOM      5  C   UNL     1       0.768  -6.931  -1.664  1.00  0.00     0.072 A 
ATOM      6  C   UNL     1       2.088  -6.935  -2.139  1.00  0.00     0.054 A 
ATOM      7  C   UNL     1       2.756  -8.169  -2.251  1.00  0.00     0.015 A 
ATOM      8  C   UNL     1       2.151  -9.357  -1.830  1.00  0.00     0.001 A 
ATOM      9  C   UNL     1       0.176  -8.126  -1.214  1.00  0.00     0.016 A 
ATOM     10  C   UNL     1       0.867  -9.333  -1.294  1.00  0.00     0.001 A 
BRANCH   6  11
ATOM     11  C   UNL     1       2.856  -5.747  -2.590  1.00  0.00     0.256 C 
ATOM     12  N   UNL     1       3.007  -4.577  -1.870  1.00  0.00    -0.322 N 
ATOM     13  H   UNL     1       3.515  -3.885  -2.351  1.00  0.00     0.170 HD
ATOM     14  O   UNL     1       3.394  -5.816  -3.698  1.00  0.00    -0.269 OA
BRANCH  12  15
ATOM     15  C   UNL     1       2.584  -4.173  -0.591  1.00  0.00     0.042 A 
ATOM     16  C   UNL     1       1.775  -2.328   0.777  1.00  0.00     0.041 A 
ATOM     17  C   UNL     1       1.297  -3.259   1.709  1.00  0.00     0.014 A 
ATOM     18  C   UNL     1       2.467  -2.790  -0.349  1.00  0.00     0.040 A 
ATOM     19  C   UNL     1       1.549  -4.619   1.544  1.00  0.00     0.003 A 
ATOM     20  C   UNL     1       2.222  -5.069   0.411  1.00  0.00     0.026 A 
BRANCH  16  21
ATOM     21  C   UNL     1       1.696  -0.908   1.183  1.00  0.00     0.251 C 
ATOM     22  N   UNL     1       1.204   0.130   0.449  1.00  0.00    -0.346 N 
ATOM     23  H   UNL     1       1.373   0.982   0.911  1.00  0.00     0.164 HD
ATOM     24  O   UNL     1       2.103  -0.639   2.317  1.00  0.00    -0.269 OA
BRANCH  22  25
ATOM     25  C   UNL     1       0.503   0.370  -0.809  1.00  0.00     0.109 C 
ATOM     26  C   UNL     1       1.061  -0.331  -2.033  1.00  0.00     0.036 C 
BRANCH  25  27
ATOM     27  C   UNL     1      -1.008   0.266  -0.714  1.00  0.00    -0.026 A 
ATOM     28  C   UNL     1      -1.800   1.344  -1.157  1.00  0.00     0.006 A 
ATOM     29  C   UNL     1      -1.663  -0.888  -0.270  1.00  0.00     0.006 A 
ATOM     30  C   UNL     1      -3.194   1.256  -1.190  1.00  0.00     0.000 A 
ATOM     31  C   UNL     1      -3.060  -0.982  -0.318  1.00  0.00     0.000 A 
ATOM     32  C   UNL     1      -3.824   0.084  -0.787  1.00  0.00     0.000 A 
ENDBRANCH  25  27
ENDBRANCH  22  25
ENDBRANCH  16  21
ENDBRANCH  12  15
ENDBRANCH   6  11
ENDBRANCH   3   5
ENDBRANCH   2   3
ENDBRANCH   1   2
BRANCH   1  33
ATOM     33  C   UNL     1      -1.830  -3.307  -2.996  1.00  0.00     0.202 C 
BRANCH  33  34
ATOM     34  O   UNL     1      -2.847  -4.286  -2.986  1.00  0.00    -0.374 OA
BRANCH  34  35
ATOM     35  C   UNL     1      -2.603  -5.527  -3.628  1.00  0.00     0.202 C 
BRANCH  35  36
ATOM     36  C   UNL     1      -2.104  -5.564  -5.083  1.00  0.00     0.261 C 
BRANCH  36  37
ATOM     37  O   UNL     1      -0.989  -4.708  -5.390  1.00  0.00    -0.460 OA
BRANCH  37  38
ATOM     38  C   UNL     1      -1.289  -3.631  -6.159  1.00  0.00     0.338 C 
ATOM     39  O   UNL     1      -2.385  -3.300  -6.578  1.00  0.00    -0.246 OA
BRANCH  38  40
ATOM     40  C   UNL     1      -0.096  -2.783  -6.333  1.00  0.00     0.060 A 
ATOM     41  C   UNL     1      -0.119  -1.461  -5.862  1.00  0.00     0.016 A 
ATOM     42  C   UNL     1       0.974  -3.245  -7.097  1.00  0.00     0.016 A 
ATOM     43  C   UNL     1       0.914  -0.580  -6.193  1.00  0.00     0.010 A 
ATOM     44  C   UNL     1       1.995  -2.359  -7.443  1.00  0.00     0.010 A 
ATOM     45  C   UNL     1       1.949  -1.014  -7.029  1.00  0.00    -0.014 A 
BRANCH  45  46
ATOM     46  C   UNL     1       2.873  -0.046  -7.669  1.00  0.00     0.031 A 
ATOM     47  C   UNL     1       2.568   0.406  -9.070  1.00  0.00     0.074 A 
ATOM     48  C   UNL     1       3.990   0.372  -7.053  1.00  0.00     0.049 A 
ATOM     49  N   UNL     1       3.306   1.086  -9.909  1.00  0.00    -0.248 NA
ATOM     50  C   UNL     1       1.249   0.023  -9.599  1.00  0.00     0.031 C 
ATOM     51  C   UNL     1       4.365   0.060  -5.677  1.00  0.00     0.029 A 
ATOM     52  N   UNL     1       5.032   1.131  -7.527  1.00  0.00    -0.354 N 
ATOM     53  C   UNL     1       2.557   1.183 -11.074  1.00  0.00     0.074 A 
ATOM     54  C   UNL     1       1.312   0.484 -10.839  1.00  0.00     0.031 C 
ATOM     55  C   UNL     1       5.568   0.604  -5.422  1.00  0.00     0.029 A 
ATOM     56  C   UNL     1       6.067   1.256  -6.634  1.00  0.00     0.049 A 
ATOM     57  H   UNL     1       5.037   1.544  -8.420  1.00  0.00     0.167 HD
ATOM     58  C   UNL     1       2.884   1.792 -12.239  1.00  0.00     0.037 A 
ATOM     59  C   UNL     1       7.290   1.800  -6.795  1.00  0.00     0.037 A 
ATOM     60  C   UNL     1       4.127   2.481 -12.465  1.00  0.00     0.049 A 
ATOM     61  C   UNL     1       7.673   2.388  -8.132  1.00  0.00     0.074 A 
ATOM     62  C   UNL     1       4.544   3.157 -13.597  1.00  0.00     0.029 A 
ATOM     63  N   UNL     1       5.161   2.562 -11.544  1.00  0.00    -0.354 N 
ATOM     64  N   UNL     1       6.958   2.497  -9.225  1.00  0.00    -0.248 NA
ATOM     65  C   UNL     1       9.038   2.921  -8.257  1.00  0.00     0.031 C 
ATOM     66  C   UNL     1       5.858   3.586 -13.388  1.00  0.00     0.029 A 
ATOM     67  C   UNL     1       6.231   3.247 -12.096  1.00  0.00     0.049 A 
ATOM     68  H   UNL     1       5.139   2.189 -10.634  1.00  0.00     0.167 HD
ATOM     69  C   UNL     1       7.763   3.154 -10.148  1.00  0.00     0.074 A 
ATOM     70  C   UNL     1       9.028   3.408  -9.491  1.00  0.00     0.031 C 
ATOM     71  C   UNL     1       7.474   3.523 -11.420  1.00  0.00     0.037 A 
BRANCH  58  72
ATOM     72  C   UNL     1       1.905   1.689 -13.373  1.00  0.00     0.064 A 
ATOM     73  C   UNL     1       0.657   2.329 -13.343  1.00  0.00     0.173 A 
ATOM     74  C   UNL     1       2.228   0.939 -14.515  1.00  0.00     0.173 A 
ATOM     75  F   UNL     1       0.293   3.050 -12.272  1.00  0.00    -0.203 F 
ATOM     76  C   UNL     1      -0.247   2.186 -14.393  1.00  0.00     0.198 A 
ATOM     77  C   UNL     1       1.337   0.829 -15.579  1.00  0.00     0.198 A 
ATOM     78  F   UNL     1       3.411   0.312 -14.602  1.00  0.00    -0.203 F 
ATOM     79  F   UNL     1      -1.460   2.752 -14.313  1.00  0.00    -0.200 F 
ATOM     80  C   UNL     1       0.095   1.442 -15.512  1.00  0.00     0.200 A 
ATOM     81  F   UNL     1       1.678   0.124 -16.666  1.00  0.00    -0.200 F 
ATOM     82  F   UNL     1      -0.775   1.306 -16.521  1.00  0.00    -0.200 F 
ENDBRANCH  58  72
BRANCH  59  83
ATOM     83  C   UNL     1       8.249   1.819  -5.659  1.00  0.00     0.064 A 
ATOM     84  C   UNL     1       8.609   3.030  -5.050  1.00  0.00     0.173 A 
ATOM     85  C   UNL     1       8.827   0.642  -5.161  1.00  0.00     0.173 A 
ATOM     86  F   UNL     1       8.102   4.184  -5.507  1.00  0.00    -0.203 F 
ATOM     87  C   UNL     1       9.519   3.064  -3.996  1.00  0.00     0.198 A 
ATOM     88  C   UNL     1       9.716   0.674  -4.088  1.00  0.00     0.198 A 
ATOM     89  F   UNL     1       8.519  -0.542  -5.710  1.00  0.00    -0.203 F 
ATOM     90  F   UNL     1       9.876   4.239  -3.460  1.00  0.00    -0.200 F 
ATOM     91  C   UNL     1      10.066   1.886  -3.510  1.00  0.00     0.200 A 
ATOM     92  F   UNL     1      10.232  -0.467  -3.614  1.00  0.00    -0.200 F 
ATOM     93  F   UNL     1      10.935   1.918  -2.491  1.00  0.00    -0.200 F 
ENDBRANCH  59  83
BRANCH  71  94
ATOM     94  C   UNL     1       8.501   4.317 -12.178  1.00  0.00     0.064 A 
ATOM     95  C   UNL     1       9.675   3.736 -12.676  1.00  0.00     0.173 A 
ATOM     96  C   UNL     1       8.250   5.663 -12.493  1.00  0.00     0.173 A 
ATOM     97  F   UNL     1       9.970   2.458 -12.393  1.00  0.00    -0.203 F 
ATOM     98  C   UNL     1      10.563   4.475 -13.457  1.00  0.00     0.198 A 
ATOM     99  C   UNL     1       9.122   6.388 -13.299  1.00  0.00     0.198 A 
ATOM    100  F   UNL     1       7.137   6.265 -12.046  1.00  0.00    -0.203 F 
ATOM    101  F   UNL     1      11.694   3.908 -13.900  1.00  0.00    -0.200 F 
ATOM    102  C   UNL     1      10.279   5.794 -13.778  1.00  0.00     0.200 A 
ATOM    103  F   UNL     1       8.835   7.656 -13.623  1.00  0.00    -0.200 F 
ATOM    104  F   UNL     1      11.121   6.494 -14.551  1.00  0.00    -0.200 F 
ENDBRANCH  71  94
ENDBRANCH  45  46
ENDBRANCH  38  40
ENDBRANCH  37  38
ENDBRANCH  36  37
ENDBRANCH  35  36
ENDBRANCH  34  35
ENDBRANCH  33  34
ENDBRANCH   1  33
TORSDOF 19
