REMARK SMILES CC1CC[NH+](CC2(CC(=O)OCCOCCOC(=O)c3ccc(-c4c5nc(c(-c6c(F)c(F)c(F)c(F)c6F)c6ccc([nH]6)c(-c6c(F)c(F)c(F)c(F)c6F)c6nc(c(-c7c(F)c(F)c(F)c(F)c7F)c7ccc4[nH]7)C=C6)C=C5)cc3)CCCCC2)CC1
REMARK SMILES IDX 13 1 12 2 11 3 9 4 10 5 8 6 7 7 83 8 87 9 84 10 86 11 85 12
REMARK SMILES IDX 6 13 5 14 1 15 2 16 3 17 89 18 4 19 88 20 14 22 15 23 16 24
REMARK SMILES IDX 17 25 18 26 19 27 20 28 21 29 82 30 22 31 81 32 23 33 24 34
REMARK SMILES IDX 25 35 75 36 26 37 80 38 74 39 76 40 27 41 79 42 73 43 72 44
REMARK SMILES IDX 28 46 60 47 40 48 59 49 41 50 44 51 58 52 77 53 42 54 43 55
REMARK SMILES IDX 57 57 78 58 45 59 29 60 30 61 38 62 31 63 32 64 36 65 39 66
REMARK SMILES IDX 33 67 34 68 37 69 35 70 61 71 62 72 70 73 63 74 64 75 68 76
REMARK SMILES IDX 71 77 65 78 66 79 69 80 67 81 46 82 47 83 55 84 48 85 49 86
REMARK SMILES IDX 53 87 56 88 50 89 51 90 54 91 52 92
REMARK H PARENT 5 21 76 45 44 56
REMARK Flexibility Score: inf
ROOT
ATOM      1  C   UNL     1       2.490   3.718  -4.716  1.00  0.00     0.202 C 
ENDROOT
BRANCH   1   2
ATOM      2  C   UNL     1       1.377   3.120  -5.582  1.00  0.00     0.261 C 
BRANCH   2   3
ATOM      3  O   UNL     1       0.619   2.148  -4.834  1.00  0.00    -0.463 OA
BRANCH   3   4
ATOM      4  C   UNL     1       0.885   0.841  -5.051  1.00  0.00     0.306 C 
ATOM      5  O   UNL     1       1.663   0.423  -5.900  1.00  0.00    -0.252 OA
BRANCH   4   6
ATOM      6  C   UNL     1       0.047  -0.086  -4.194  1.00  0.00     0.135 C 
BRANCH   6   7
ATOM      7  C   UNL     1      -0.258   0.192  -2.673  1.00  0.00     0.030 C 
ATOM      8  C   UNL     1      -1.312  -0.871  -2.258  1.00  0.00     0.013 C 
ATOM      9  C   UNL     1      -0.853   1.603  -2.438  1.00  0.00     0.013 C 
ATOM     10  C   UNL     1      -2.705  -0.663  -2.850  1.00  0.00     0.001 C 
ATOM     11  C   UNL     1      -2.230   1.804  -3.063  1.00  0.00     0.001 C 
ATOM     12  C   UNL     1      -3.213   0.746  -2.571  1.00  0.00     0.000 C 
BRANCH   7  13
ATOM     13  C   UNL     1       1.049  -0.013  -1.812  1.00  0.00     0.269 C 
BRANCH  13  14
ATOM     14  N   UNL     1       1.017  -0.156  -0.360  1.00  0.00    -0.334 N 
ATOM     15  C   UNL     1      -2.518  -0.888   1.778  1.00  0.00     0.008 C 
ATOM     16  C   UNL     1      -1.003  -0.643   1.704  1.00  0.00    -0.003 C 
ATOM     17  C   UNL     1      -0.756   0.741   1.087  1.00  0.00     0.065 C 
ATOM     18  C   UNL     1      -0.322  -1.808   0.959  1.00  0.00     0.065 C 
ATOM     19  C   UNL     1       0.647   0.929   0.517  1.00  0.00     0.262 C 
ATOM     20  C   UNL     1       1.001  -1.463   0.268  1.00  0.00     0.262 C 
ATOM     21  H   UNL     1       2.000   0.050  -0.539  1.00  0.00     0.348 HD
ENDBRANCH  13  14
ENDBRANCH   7  13
ENDBRANCH   6   7
ENDBRANCH   4   6
ENDBRANCH   3   4
ENDBRANCH   2   3
ENDBRANCH   1   2
BRANCH   1  22
ATOM     22  O   UNL     1       3.699   2.955  -4.700  1.00  0.00    -0.374 OA
BRANCH  22  23
ATOM     23  C   UNL     1       3.732   1.862  -3.782  1.00  0.00     0.202 C 
BRANCH  23  24
ATOM     24  C   UNL     1       4.259   2.229  -2.393  1.00  0.00     0.261 C 
BRANCH  24  25
ATOM     25  O   UNL     1       3.381   3.175  -1.754  1.00  0.00    -0.460 OA
BRANCH  25  26
ATOM     26  C   UNL     1       3.910   4.410  -1.603  1.00  0.00     0.338 C 
ATOM     27  O   UNL     1       5.064   4.750  -1.798  1.00  0.00    -0.246 OA
BRANCH  26  28
ATOM     28  C   UNL     1       2.850   5.393  -1.309  1.00  0.00     0.060 A 
ATOM     29  C   UNL     1       2.847   6.555  -2.087  1.00  0.00     0.016 A 
ATOM     30  C   UNL     1       1.948   5.246  -0.251  1.00  0.00     0.016 A 
ATOM     31  C   UNL     1       1.996   7.607  -1.764  1.00  0.00     0.010 A 
ATOM     32  C   UNL     1       1.088   6.307   0.071  1.00  0.00     0.010 A 
ATOM     33  C   UNL     1       1.142   7.510  -0.656  1.00  0.00    -0.014 A 
BRANCH  33  34
ATOM     34  C   UNL     1       0.428   8.737  -0.217  1.00  0.00     0.031 A 
ATOM     35  C   UNL     1       0.979   9.548   0.925  1.00  0.00     0.074 A 
ATOM     36  C   UNL     1      -0.633   9.192  -0.907  1.00  0.00     0.049 A 
ATOM     37  N   UNL     1       0.602  10.721   1.368  1.00  0.00    -0.248 NA
ATOM     38  C   UNL     1       2.110   8.963   1.662  1.00  0.00     0.031 C 
ATOM     39  C   UNL     1      -1.249   8.515  -2.047  1.00  0.00     0.029 A 
ATOM     40  N   UNL     1      -1.363  10.346  -0.764  1.00  0.00    -0.354 N 
ATOM     41  C   UNL     1       1.454  11.020   2.423  1.00  0.00     0.074 A 
ATOM     42  C   UNL     1       2.339   9.887   2.585  1.00  0.00     0.031 C 
ATOM     43  C   UNL     1      -2.254   9.275  -2.513  1.00  0.00     0.029 A 
ATOM     44  C   UNL     1      -2.362  10.483  -1.696  1.00  0.00     0.049 A 
ATOM     45  H   UNL     1      -1.187  11.011  -0.061  1.00  0.00     0.167 HD
ATOM     46  C   UNL     1       1.508  12.145   3.177  1.00  0.00     0.037 A 
ATOM     47  C   UNL     1      -3.259  11.473  -1.873  1.00  0.00     0.037 A 
ATOM     48  C   UNL     1       0.634  13.278   3.018  1.00  0.00     0.049 A 
ATOM     49  C   UNL     1      -3.212  12.689  -0.986  1.00  0.00     0.074 A 
ATOM     50  C   UNL     1       0.636  14.474   3.716  1.00  0.00     0.029 A 
ATOM     51  N   UNL     1      -0.405  13.352   2.103  1.00  0.00    -0.354 N 
ATOM     52  N   UNL     1      -2.370  12.982  -0.025  1.00  0.00    -0.248 NA
ATOM     53  C   UNL     1      -4.238  13.716  -1.216  1.00  0.00     0.031 C 
ATOM     54  C   UNL     1      -0.434  15.251   3.257  1.00  0.00     0.029 A 
ATOM     55  C   UNL     1      -1.071  14.560   2.240  1.00  0.00     0.049 A 
ATOM     56  H   UNL     1      -0.636  12.650   1.452  1.00  0.00     0.167 HD
ATOM     57  C   UNL     1      -2.749  14.232   0.448  1.00  0.00     0.074 A 
ATOM     58  C   UNL     1      -3.885  14.652  -0.346  1.00  0.00     0.031 C 
ATOM     59  C   UNL     1      -2.205  14.966   1.450  1.00  0.00     0.037 A 
BRANCH  46  60
ATOM     60  C   UNL     1       2.545  12.203   4.260  1.00  0.00     0.064 A 
ATOM     61  C   UNL     1       3.907  12.365   3.966  1.00  0.00     0.173 A 
ATOM     62  C   UNL     1       2.167  12.142   5.609  1.00  0.00     0.173 A 
ATOM     63  F   UNL     1       4.321  12.417   2.690  1.00  0.00    -0.203 F 
ATOM     64  C   UNL     1       4.855  12.441   4.983  1.00  0.00     0.198 A 
ATOM     65  C   UNL     1       3.114  12.245   6.624  1.00  0.00     0.198 A 
ATOM     66  F   UNL     1       0.876  11.994   5.944  1.00  0.00    -0.203 F 
ATOM     67  F   UNL     1       6.155  12.556   4.679  1.00  0.00    -0.200 F 
ATOM     68  C   UNL     1       4.457  12.389   6.311  1.00  0.00     0.200 A 
ATOM     69  F   UNL     1       2.727  12.206   7.907  1.00  0.00    -0.200 F 
ATOM     70  F   UNL     1       5.370  12.471   7.289  1.00  0.00    -0.200 F 
ENDBRANCH  46  60
BRANCH  47  71
ATOM     71  C   UNL     1      -4.281  11.359  -2.945  1.00  0.00     0.064 A 
ATOM     72  C   UNL     1      -4.252  12.195  -4.070  1.00  0.00     0.173 A 
ATOM     73  C   UNL     1      -5.320  10.421  -2.855  1.00  0.00     0.173 A 
ATOM     74  F   UNL     1      -3.293  13.126  -4.187  1.00  0.00    -0.203 F 
ATOM     75  C   UNL     1      -5.232  12.107  -5.056  1.00  0.00     0.198 A 
ATOM     76  C   UNL     1      -6.283  10.315  -3.855  1.00  0.00     0.198 A 
ATOM     77  F   UNL     1      -5.393   9.600  -1.797  1.00  0.00    -0.203 F 
ATOM     78  F   UNL     1      -5.207  12.947  -6.099  1.00  0.00    -0.200 F 
ATOM     79  C   UNL     1      -6.243  11.163  -4.951  1.00  0.00     0.200 A 
ATOM     80  F   UNL     1      -7.252   9.395  -3.754  1.00  0.00    -0.200 F 
ATOM     81  F   UNL     1      -7.183  11.077  -5.902  1.00  0.00    -0.200 F 
ENDBRANCH  47  71
BRANCH  59  82
ATOM     82  C   UNL     1      -2.824  16.304   1.738  1.00  0.00     0.064 A 
ATOM     83  C   UNL     1      -4.084  16.415   2.344  1.00  0.00     0.173 A 
ATOM     84  C   UNL     1      -2.137  17.488   1.430  1.00  0.00     0.173 A 
ATOM     85  F   UNL     1      -4.787  15.312   2.645  1.00  0.00    -0.203 F 
ATOM     86  C   UNL     1      -4.647  17.662   2.604  1.00  0.00     0.198 A 
ATOM     87  C   UNL     1      -2.690  18.733   1.718  1.00  0.00     0.198 A 
ATOM     88  F   UNL     1      -0.925  17.439   0.857  1.00  0.00    -0.203 F 
ATOM     89  F   UNL     1      -5.874  17.743   3.137  1.00  0.00    -0.200 F 
ATOM     90  C   UNL     1      -3.948  18.819   2.297  1.00  0.00     0.200 A 
ATOM     91  F   UNL     1      -2.008  19.851   1.432  1.00  0.00    -0.200 F 
ATOM     92  F   UNL     1      -4.490  20.018   2.550  1.00  0.00    -0.200 F 
ENDBRANCH  59  82
ENDBRANCH  33  34
ENDBRANCH  26  28
ENDBRANCH  25  26
ENDBRANCH  24  25
ENDBRANCH  23  24
ENDBRANCH  22  23
ENDBRANCH   1  22
TORSDOF 17
