REMARK SMILES O=C(OCCOCCOC(=O)[C@@H]1CCCN(C(=O)[C@H]2CC=CCC2)C1)c1ccc(-c2c3nc(c(-c4c(F)c(F)c(F)c(F)c4F)c4ccc([nH]4)c(-c4c(F)c(F)c(F)c(F)c4F)c4nc(c(-c5c(F)c(F)c(F)c(F)c5F)c5ccc2[nH]5)C=C4)C=C3)cc1
REMARK SMILES IDX 6 1 5 2 4 3 3 4 2 5 1 6 26 7 27 8 88 9 28 10 87 11 29 12
REMARK SMILES IDX 30 13 31 14 81 15 32 16 86 17 80 18 82 19 33 20 85 21 79 22
REMARK SMILES IDX 78 23 34 25 66 26 46 27 65 28 47 29 50 30 64 31 83 32 48 33
REMARK SMILES IDX 49 34 63 36 84 37 51 38 35 39 36 40 44 41 37 42 38 43 42 44
REMARK SMILES IDX 45 45 39 46 40 47 43 48 41 49 67 50 68 51 76 52 69 53 70 54
REMARK SMILES IDX 74 55 77 56 71 57 72 58 75 59 73 60 52 61 53 62 61 63 54 64
REMARK SMILES IDX 55 65 59 66 62 67 56 68 57 69 60 70 58 71 7 72 8 73 9 74
REMARK SMILES IDX 10 75 11 76 12 77 13 78 25 79 14 80 16 81 15 82 17 83 18 84
REMARK SMILES IDX 19 85 20 86 24 87 21 88 23 89 22 90
REMARK H PARENT 82 24 50 35
REMARK Flexibility Score: inf
ROOT
ATOM      1  O   UNL     1       2.507  -0.228  -1.706  1.00  0.00    -0.374 OA
ENDROOT
BRANCH   1   2
ATOM      2  C   UNL     1       2.801  -1.330  -0.853  1.00  0.00     0.202 C 
BRANCH   2   3
ATOM      3  C   UNL     1       1.952  -1.333   0.416  1.00  0.00     0.261 C 
BRANCH   3   4
ATOM      4  O   UNL     1       2.151  -0.090   1.101  1.00  0.00    -0.460 OA
BRANCH   4   5
ATOM      5  C   UNL     1       1.270   0.890   0.761  1.00  0.00     0.338 C 
ATOM      6  O   UNL     1       0.157   0.781   0.306  1.00  0.00    -0.246 OA
BRANCH   5   7
ATOM      7  C   UNL     1       2.028   2.143   0.885  1.00  0.00     0.060 A 
ATOM      8  C   UNL     1       2.990   2.400  -0.089  1.00  0.00     0.016 A 
ATOM      9  C   UNL     1       1.873   2.990   1.979  1.00  0.00     0.016 A 
ATOM     10  C   UNL     1       3.882   3.439   0.081  1.00  0.00     0.010 A 
ATOM     11  C   UNL     1       2.720   4.098   2.098  1.00  0.00     0.010 A 
ATOM     12  C   UNL     1       3.750   4.314   1.163  1.00  0.00    -0.014 A 
BRANCH  12  13
ATOM     13  C   UNL     1       4.738   5.410   1.315  1.00  0.00     0.031 A 
ATOM     14  C   UNL     1       5.576   5.496   2.556  1.00  0.00     0.074 A 
ATOM     15  C   UNL     1       4.946   6.271   0.300  1.00  0.00     0.049 A 
ATOM     16  N   UNL     1       6.337   6.473   2.974  1.00  0.00    -0.248 NA
ATOM     17  C   UNL     1       5.547   4.332   3.456  1.00  0.00     0.031 C 
ATOM     18  C   UNL     1       4.272   6.224  -0.999  1.00  0.00     0.029 A 
ATOM     19  N   UNL     1       5.816   7.323   0.179  1.00  0.00    -0.354 N 
ATOM     20  C   UNL     1       6.798   6.085   4.224  1.00  0.00     0.074 A 
ATOM     21  C   UNL     1       6.264   4.766   4.483  1.00  0.00     0.031 C 
ATOM     22  C   UNL     1       4.822   7.132  -1.816  1.00  0.00     0.029 A 
ATOM     23  C   UNL     1       5.777   7.925  -1.056  1.00  0.00     0.049 A 
ATOM     24  H   UNL     1       6.411   7.619   0.906  1.00  0.00     0.167 HD
ATOM     25  C   UNL     1       7.574   6.793   5.079  1.00  0.00     0.037 A 
ATOM     26  C   UNL     1       6.397   9.030  -1.506  1.00  0.00     0.037 A 
ATOM     27  C   UNL     1       8.146   8.075   4.757  1.00  0.00     0.049 A 
ATOM     28  C   UNL     1       7.239   9.808  -0.539  1.00  0.00     0.074 A 
ATOM     29  C   UNL     1       8.912   8.911   5.550  1.00  0.00     0.029 A 
ATOM     30  N   UNL     1       8.031   8.695   3.518  1.00  0.00    -0.354 N 
ATOM     31  N   UNL     1       7.545   9.524   0.704  1.00  0.00    -0.248 NA
ATOM     32  C   UNL     1       7.779  11.086  -1.017  1.00  0.00     0.031 C 
ATOM     33  C   UNL     1       9.235  10.048   4.799  1.00  0.00     0.029 A 
ATOM     34  C   UNL     1       8.709   9.902   3.525  1.00  0.00     0.049 A 
ATOM     35  H   UNL     1       7.539   8.328   2.748  1.00  0.00     0.167 HD
ATOM     36  C   UNL     1       8.301  10.589   1.165  1.00  0.00     0.074 A 
ATOM     37  C   UNL     1       8.437  11.511   0.053  1.00  0.00     0.031 C 
ATOM     38  C   UNL     1       8.821  10.797   2.400  1.00  0.00     0.037 A 
BRANCH  25  39
ATOM     39  C   UNL     1       7.765   6.235   6.460  1.00  0.00     0.064 A 
ATOM     40  C   UNL     1       8.555   5.106   6.717  1.00  0.00     0.173 A 
ATOM     41  C   UNL     1       7.119   6.841   7.550  1.00  0.00     0.173 A 
ATOM     42  F   UNL     1       9.178   4.473   5.711  1.00  0.00    -0.203 F 
ATOM     43  C   UNL     1       8.662   4.584   8.006  1.00  0.00     0.198 A 
ATOM     44  C   UNL     1       7.251   6.335   8.840  1.00  0.00     0.198 A 
ATOM     45  F   UNL     1       6.350   7.925   7.363  1.00  0.00    -0.203 F 
ATOM     46  F   UNL     1       9.371   3.466   8.218  1.00  0.00    -0.200 F 
ATOM     47  C   UNL     1       8.014   5.200   9.066  1.00  0.00     0.200 A 
ATOM     48  F   UNL     1       6.630   6.939   9.863  1.00  0.00    -0.200 F 
ATOM     49  F   UNL     1       8.111   4.692  10.302  1.00  0.00    -0.200 F 
ENDBRANCH  25  39
BRANCH  26  50
ATOM     50  C   UNL     1       6.176   9.486  -2.904  1.00  0.00     0.064 A 
ATOM     51  C   UNL     1       7.218   9.477  -3.840  1.00  0.00     0.173 A 
ATOM     52  C   UNL     1       4.908   9.898  -3.347  1.00  0.00     0.173 A 
ATOM     53  F   UNL     1       8.455   9.125  -3.462  1.00  0.00    -0.203 F 
ATOM     54  C   UNL     1       6.998   9.851  -5.165  1.00  0.00     0.198 A 
ATOM     55  C   UNL     1       4.681  10.235  -4.679  1.00  0.00     0.198 A 
ATOM     56  F   UNL     1       3.876   9.935  -2.490  1.00  0.00    -0.203 F 
ATOM     57  F   UNL     1       8.018   9.863  -6.034  1.00  0.00    -0.200 F 
ATOM     58  C   UNL     1       5.727  10.215  -5.587  1.00  0.00     0.200 A 
ATOM     59  F   UNL     1       3.448  10.569  -5.082  1.00  0.00    -0.200 F 
ATOM     60  F   UNL     1       5.513  10.552  -6.866  1.00  0.00    -0.200 F 
ENDBRANCH  26  50
BRANCH  38  61
ATOM     61  C   UNL     1       9.598  12.062   2.593  1.00  0.00     0.064 A 
ATOM     62  C   UNL     1       8.956  13.305   2.702  1.00  0.00     0.173 A 
ATOM     63  C   UNL     1      10.996  12.027   2.691  1.00  0.00     0.173 A 
ATOM     64  F   UNL     1       7.622  13.387   2.595  1.00  0.00    -0.203 F 
ATOM     65  C   UNL     1       9.692  14.472   2.878  1.00  0.00     0.198 A 
ATOM     66  C   UNL     1      11.726  13.193   2.893  1.00  0.00     0.198 A 
ATOM     67  F   UNL     1      11.651  10.860   2.596  1.00  0.00    -0.203 F 
ATOM     68  F   UNL     1       9.065  15.655   2.933  1.00  0.00    -0.200 F 
ATOM     69  C   UNL     1      11.075  14.415   2.979  1.00  0.00     0.200 A 
ATOM     70  F   UNL     1      13.060  13.136   2.999  1.00  0.00    -0.200 F 
ATOM     71  F   UNL     1      11.782  15.540   3.150  1.00  0.00    -0.200 F 
ENDBRANCH  38  61
ENDBRANCH  12  13
ENDBRANCH   5   7
ENDBRANCH   4   5
ENDBRANCH   3   4
ENDBRANCH   2   3
ENDBRANCH   1   2
BRANCH   1  72
ATOM     72  C   UNL     1       1.470  -0.481  -2.646  1.00  0.00     0.202 C 
BRANCH  72  73
ATOM     73  C   UNL     1       2.070  -0.876  -3.994  1.00  0.00     0.261 C 
BRANCH  73  74
ATOM     74  O   UNL     1       3.156  -1.805  -3.789  1.00  0.00    -0.463 OA
BRANCH  74  75
ATOM     75  C   UNL     1       4.356  -1.411  -4.288  1.00  0.00     0.310 C 
ATOM     76  O   UNL     1       4.495  -0.496  -5.093  1.00  0.00    -0.252 OA
BRANCH  75  77
ATOM     77  C   UNL     1       5.526  -2.277  -3.838  1.00  0.00     0.119 C 
ATOM     78  C   UNL     1       5.277  -3.421  -2.843  1.00  0.00     0.019 C 
ATOM     79  C   UNL     1       6.687  -1.378  -3.420  1.00  0.00     0.134 C 
ATOM     80  C   UNL     1       5.710  -3.212  -1.386  1.00  0.00     0.022 C 
ATOM     81  N   UNL     1       6.632  -0.989  -2.008  1.00  0.00    -0.342 N 
ATOM     82  C   UNL     1       6.732  -2.112  -1.099  1.00  0.00     0.119 C 
BRANCH  81  83
ATOM     83  C   UNL     1       6.601   0.360  -1.697  1.00  0.00     0.226 C 
ATOM     84  O   UNL     1       6.375   1.188  -2.592  1.00  0.00    -0.275 OA
BRANCH  83  85
ATOM     85  C   UNL     1       6.903   0.937  -0.297  1.00  0.00     0.083 C 
ATOM     86  C   UNL     1       5.903   0.656   0.825  1.00  0.00     0.040 C 
ATOM     87  C   UNL     1       8.371   0.854   0.131  1.00  0.00     0.018 C 
ATOM     88  C   UNL     1       6.384  -0.221   1.939  1.00  0.00    -0.030 C 
ATOM     89  C   UNL     1       8.720  -0.309   1.056  1.00  0.00     0.028 C 
ATOM     90  C   UNL     1       7.646  -0.657   2.041  1.00  0.00    -0.031 C 
ENDBRANCH  83  85
ENDBRANCH  81  83
ENDBRANCH  75  77
ENDBRANCH  74  75
ENDBRANCH  73  74
ENDBRANCH  72  73
ENDBRANCH   1  72
TORSDOF 16
