REMARK SMILES O=C(OCCOCCOC(=O)[C@@H]1CC[C@@H](CN2C(=O)CC3(CCCC3)CC2=O)O1)c1ccc(-c2c3nc(c(-c4c(F)c(F)c(F)c(F)c4F)c4ccc([nH]4)c(-c4c(F)c(F)c(F)c(F)c4F)c4nc(c(-c5c(F)c(F)c(F)c(F)c5F)c5ccc2[nH]5)C=C4)C=C3)cc1
REMARK SMILES IDX 6 1 5 2 4 3 3 4 2 5 1 6 30 7 31 8 92 9 32 10 91 11 33 12
REMARK SMILES IDX 34 13 35 14 85 15 36 16 90 17 84 18 86 19 37 20 89 21 83 22
REMARK SMILES IDX 82 23 38 25 70 26 50 27 69 28 51 29 54 30 68 31 87 32 52 33
REMARK SMILES IDX 53 34 67 36 88 37 55 38 39 39 40 40 48 41 41 42 42 43 46 44
REMARK SMILES IDX 49 45 43 46 44 47 47 48 45 49 71 50 72 51 80 52 73 53 74 54
REMARK SMILES IDX 78 55 81 56 75 57 76 58 79 59 77 60 56 61 57 62 65 63 58 64
REMARK SMILES IDX 59 65 63 66 66 67 60 68 61 69 64 70 62 71 7 72 8 73 9 74
REMARK SMILES IDX 10 75 11 76 12 77 13 78 29 79 14 80 15 81 16 82 17 83 18 84
REMARK SMILES IDX 27 85 19 86 20 87 26 88 28 89 21 90 22 91 25 92 23 93 24 94
REMARK H PARENT 86 24 54 35
REMARK Flexibility Score: inf
ROOT
ATOM      1  O   UNL     1       4.044   0.195  -1.626  1.00  0.00    -0.374 OA
ENDROOT
BRANCH   1   2
ATOM      2  C   UNL     1       4.419  -1.068  -1.062  1.00  0.00     0.202 C 
BRANCH   2   3
ATOM      3  C   UNL     1       4.321  -1.176   0.465  1.00  0.00     0.261 C 
BRANCH   3   4
ATOM      4  O   UNL     1       2.959  -0.985   0.897  1.00  0.00    -0.460 OA
BRANCH   4   5
ATOM      5  C   UNL     1       2.329   0.173   1.191  1.00  0.00     0.338 C 
ATOM      6  O   UNL     1       1.107   0.160   1.355  1.00  0.00    -0.246 OA
BRANCH   5   7
ATOM      7  C   UNL     1       3.041   1.470   1.377  1.00  0.00     0.060 A 
ATOM      8  C   UNL     1       4.249   1.809   0.770  1.00  0.00     0.016 A 
ATOM      9  C   UNL     1       2.413   2.438   2.181  1.00  0.00     0.016 A 
ATOM     10  C   UNL     1       4.857   3.024   0.987  1.00  0.00     0.010 A 
ATOM     11  C   UNL     1       3.004   3.686   2.388  1.00  0.00     0.010 A 
ATOM     12  C   UNL     1       4.241   3.962   1.801  1.00  0.00    -0.014 A 
BRANCH  12  13
ATOM     13  C   UNL     1       5.046   5.141   2.129  1.00  0.00     0.031 A 
ATOM     14  C   UNL     1       5.765   5.140   3.437  1.00  0.00     0.074 A 
ATOM     15  C   UNL     1       5.292   6.044   1.165  1.00  0.00     0.049 A 
ATOM     16  N   UNL     1       6.556   6.041   3.949  1.00  0.00    -0.248 NA
ATOM     17  C   UNL     1       5.589   3.941   4.276  1.00  0.00     0.031 C 
ATOM     18  C   UNL     1       4.766   5.978  -0.202  1.00  0.00     0.029 A 
ATOM     19  N   UNL     1       6.087   7.153   1.166  1.00  0.00    -0.354 N 
ATOM     20  C   UNL     1       6.936   5.538   5.184  1.00  0.00     0.074 A 
ATOM     21  C   UNL     1       6.300   4.252   5.346  1.00  0.00     0.031 C 
ATOM     22  C   UNL     1       5.280   6.991  -0.916  1.00  0.00     0.029 A 
ATOM     23  C   UNL     1       6.098   7.814  -0.035  1.00  0.00     0.049 A 
ATOM     24  H   UNL     1       6.602   7.449   1.952  1.00  0.00     0.167 HD
ATOM     25  C   UNL     1       7.738   6.126   6.100  1.00  0.00     0.037 A 
ATOM     26  C   UNL     1       6.683   8.981  -0.356  1.00  0.00     0.037 A 
ATOM     27  C   UNL     1       8.347   7.410   5.884  1.00  0.00     0.049 A 
ATOM     28  C   UNL     1       7.465   9.677   0.724  1.00  0.00     0.074 A 
ATOM     29  C   UNL     1       9.114   8.166   6.746  1.00  0.00     0.029 A 
ATOM     30  N   UNL     1       8.243   8.129   4.696  1.00  0.00    -0.354 N 
ATOM     31  N   UNL     1       7.745   9.262   1.939  1.00  0.00    -0.248 NA
ATOM     32  C   UNL     1       7.996  11.004   0.402  1.00  0.00     0.031 C 
ATOM     33  C   UNL     1       9.423   9.370   6.101  1.00  0.00     0.029 A 
ATOM     34  C   UNL     1       8.912   9.334   4.810  1.00  0.00     0.049 A 
ATOM     35  H   UNL     1       7.765   7.823   3.891  1.00  0.00     0.167 HD
ATOM     36  C   UNL     1       8.505  10.263   2.521  1.00  0.00     0.074 A 
ATOM     37  C   UNL     1       8.652  11.300   1.515  1.00  0.00     0.031 C 
ATOM     38  C   UNL     1       9.036  10.327   3.769  1.00  0.00     0.037 A 
BRANCH  25  39
ATOM     39  C   UNL     1       7.874   5.432   7.424  1.00  0.00     0.064 A 
ATOM     40  C   UNL     1       8.548   4.209   7.570  1.00  0.00     0.173 A 
ATOM     41  C   UNL     1       7.235   5.964   8.555  1.00  0.00     0.173 A 
ATOM     42  F   UNL     1       9.146   3.637   6.514  1.00  0.00    -0.203 F 
ATOM     43  C   UNL     1       8.534   3.523   8.784  1.00  0.00     0.198 A 
ATOM     44  C   UNL     1       7.252   5.292   9.775  1.00  0.00     0.198 A 
ATOM     45  F   UNL     1       6.567   7.124   8.471  1.00  0.00    -0.203 F 
ATOM     46  F   UNL     1       9.110   2.316   8.876  1.00  0.00    -0.200 F 
ATOM     47  C   UNL     1       7.888   4.066   9.884  1.00  0.00     0.200 A 
ATOM     48  F   UNL     1       6.629   5.821  10.837  1.00  0.00    -0.200 F 
ATOM     49  F   UNL     1       7.858   3.396  11.045  1.00  0.00    -0.200 F 
ENDBRANCH  25  39
BRANCH  26  50
ATOM     50  C   UNL     1       6.503   9.565  -1.711  1.00  0.00     0.064 A 
ATOM     51  C   UNL     1       7.588   9.742  -2.579  1.00  0.00     0.173 A 
ATOM     52  C   UNL     1       5.234   9.954  -2.172  1.00  0.00     0.173 A 
ATOM     53  F   UNL     1       8.824   9.405  -2.184  1.00  0.00    -0.203 F 
ATOM     54  C   UNL     1       7.414  10.296  -3.848  1.00  0.00     0.198 A 
ATOM     55  C   UNL     1       5.056  10.478  -3.451  1.00  0.00     0.198 A 
ATOM     56  F   UNL     1       4.158   9.810  -1.385  1.00  0.00    -0.203 F 
ATOM     57  F   UNL     1       8.475  10.493  -4.642  1.00  0.00    -0.200 F 
ATOM     58  C   UNL     1       6.148  10.657  -4.285  1.00  0.00     0.200 A 
ATOM     59  F   UNL     1       3.828  10.809  -3.873  1.00  0.00    -0.200 F 
ATOM     60  F   UNL     1       5.981  11.183  -5.506  1.00  0.00    -0.200 F 
ENDBRANCH  26  50
BRANCH  38  61
ATOM     61  C   UNL     1       9.867  11.534   4.083  1.00  0.00     0.064 A 
ATOM     62  C   UNL     1       9.294  12.800   4.265  1.00  0.00     0.173 A 
ATOM     63  C   UNL     1      11.254  11.403   4.250  1.00  0.00     0.173 A 
ATOM     64  F   UNL     1       7.974  12.976   4.099  1.00  0.00    -0.203 F 
ATOM     65  C   UNL     1      10.086  13.900   4.577  1.00  0.00     0.198 A 
ATOM     66  C   UNL     1      12.036  12.497   4.599  1.00  0.00     0.198 A 
ATOM     67  F   UNL     1      11.845  10.209   4.094  1.00  0.00    -0.203 F 
ATOM     68  F   UNL     1       9.528  15.113   4.693  1.00  0.00    -0.200 F 
ATOM     69  C   UNL     1      11.454  13.746   4.753  1.00  0.00     0.200 A 
ATOM     70  F   UNL     1      13.354  12.343   4.788  1.00  0.00    -0.200 F 
ATOM     71  F   UNL     1      12.213  14.805   5.066  1.00  0.00    -0.200 F 
ENDBRANCH  38  61
ENDBRANCH  12  13
ENDBRANCH   5   7
ENDBRANCH   4   5
ENDBRANCH   3   4
ENDBRANCH   2   3
ENDBRANCH   1   2
BRANCH   1  72
ATOM     72  C   UNL     1       2.672   0.307  -2.014  1.00  0.00     0.202 C 
BRANCH  72  73
ATOM     73  C   UNL     1       2.522   0.204  -3.529  1.00  0.00     0.261 C 
BRANCH  73  74
ATOM     74  O   UNL     1       2.927  -1.111  -3.942  1.00  0.00    -0.461 OA
BRANCH  74  75
ATOM     75  C   UNL     1       4.197  -1.206  -4.423  1.00  0.00     0.335 C 
ATOM     76  O   UNL     1       4.899  -0.264  -4.770  1.00  0.00    -0.249 OA
BRANCH  75  77
ATOM     77  C   UNL     1       4.704  -2.644  -4.370  1.00  0.00     0.228 C 
ATOM     78  C   UNL     1       3.798  -3.713  -4.934  1.00  0.00     0.047 C 
ATOM     79  O   UNL     1       4.979  -3.057  -3.026  1.00  0.00    -0.361 OA
ATOM     80  C   UNL     1       4.365  -4.954  -4.267  1.00  0.00     0.037 C 
ATOM     81  C   UNL     1       4.663  -4.453  -2.859  1.00  0.00     0.139 C 
BRANCH  81  82
ATOM     82  C   UNL     1       5.819  -5.147  -2.095  1.00  0.00     0.160 C 
BRANCH  82  83
ATOM     83  N   UNL     1       7.091  -4.765  -2.703  1.00  0.00    -0.280 N 
ATOM     84  C   UNL     1       7.717  -5.653  -3.546  1.00  0.00     0.229 C 
ATOM     85  C   UNL     1       7.667  -3.567  -2.316  1.00  0.00     0.229 C 
ATOM     86  O   UNL     1       7.552  -6.871  -3.491  1.00  0.00    -0.274 OA
ATOM     87  C   UNL     1       8.483  -5.030  -4.681  1.00  0.00     0.108 C 
ATOM     88  C   UNL     1       8.377  -2.821  -3.419  1.00  0.00     0.108 C 
ATOM     89  O   UNL     1       7.521  -3.067  -1.201  1.00  0.00    -0.274 OA
ATOM     90  C   UNL     1       9.176  -3.693  -4.390  1.00  0.00    -0.012 C 
ATOM     91  C   UNL     1       9.361  -2.945  -5.745  1.00  0.00     0.008 C 
ATOM     92  C   UNL     1      10.615  -3.911  -3.866  1.00  0.00     0.008 C 
ATOM     93  C   UNL     1      10.838  -2.612  -5.851  1.00  0.00     0.001 C 
ATOM     94  C   UNL     1      11.510  -3.737  -5.086  1.00  0.00     0.001 C 
ENDBRANCH  82  83
ENDBRANCH  81  82
ENDBRANCH  75  77
ENDBRANCH  74  75
ENDBRANCH  73  74
ENDBRANCH  72  73
ENDBRANCH   1  72
TORSDOF 16
