REMARK SMILES O=C(OCCOCCOC(=O)[C@@H]1CCC[N@@H+]1CC(=O)N1CCSc2ccccc21)c1ccc(-c2c3nc(c(-c4c(F)c(F)c(F)c(F)c4F)c4ccc([nH]4)c(-c4c(F)c(F)c(F)c(F)c4F)c4nc(c(-c5c(F)c(F)c(F)c(F)c5F)c5ccc2[nH]5)C=C4)C=C3)cc1
REMARK SMILES IDX 7 1 6 2 5 3 4 4 3 5 2 6 1 7 30 8 31 9 92 10 32 11 91 12
REMARK SMILES IDX 33 13 34 14 35 15 85 16 36 17 90 18 84 19 86 20 37 21 89 22
REMARK SMILES IDX 83 23 82 24 38 26 70 27 50 28 69 29 51 30 54 31 68 32 87 33
REMARK SMILES IDX 52 34 53 35 67 37 88 38 55 39 39 40 40 41 48 42 41 43 42 44
REMARK SMILES IDX 46 45 49 46 43 47 44 48 47 49 45 50 71 51 72 52 80 53 73 54
REMARK SMILES IDX 74 55 78 56 81 57 75 58 76 59 79 60 77 61 56 62 57 63 65 64
REMARK SMILES IDX 58 65 59 66 63 67 66 68 60 69 61 70 64 71 62 72 8 73 9 74
REMARK SMILES IDX 10 75 11 76 12 77 13 78 16 79 14 80 15 81 17 83 18 84 19 85
REMARK SMILES IDX 20 86 21 87 29 88 22 89 24 90 28 91 23 92 25 93 27 94 26 95
REMARK H PARENT 86 25 54 36 16 82
REMARK Flexibility Score: inf
ROOT
ATOM      1  C   UNL     1       1.853   1.632   0.361  1.00  0.00     0.202 C 
ENDROOT
BRANCH   1   2
ATOM      2  O   UNL     1       3.079   1.045  -0.088  1.00  0.00    -0.374 OA
BRANCH   2   3
ATOM      3  C   UNL     1       3.122   0.805  -1.496  1.00  0.00     0.202 C 
BRANCH   3   4
ATOM      4  C   UNL     1       3.673  -0.593  -1.792  1.00  0.00     0.261 C 
BRANCH   4   5
ATOM      5  O   UNL     1       2.939  -1.719  -1.262  1.00  0.00    -0.460 OA
BRANCH   5   6
ATOM      6  C   UNL     1       2.125  -1.553  -0.188  1.00  0.00     0.338 C 
ATOM      7  O   UNL     1       0.922  -1.427  -0.273  1.00  0.00    -0.246 OA
BRANCH   6   8
ATOM      8  C   UNL     1       2.821  -1.788   1.111  1.00  0.00     0.060 A 
ATOM      9  C   UNL     1       2.112  -2.419   2.139  1.00  0.00     0.016 A 
ATOM     10  C   UNL     1       4.128  -1.352   1.351  1.00  0.00     0.016 A 
ATOM     11  C   UNL     1       2.720  -2.631   3.379  1.00  0.00     0.010 A 
ATOM     12  C   UNL     1       4.737  -1.552   2.585  1.00  0.00     0.010 A 
ATOM     13  C   UNL     1       4.039  -2.205   3.600  1.00  0.00    -0.014 A 
BRANCH  13  14
ATOM     14  C   UNL     1       4.758  -2.577   4.832  1.00  0.00     0.031 A 
ATOM     15  C   UNL     1       4.976  -1.592   5.935  1.00  0.00     0.074 A 
ATOM     16  C   UNL     1       5.276  -3.817   4.887  1.00  0.00     0.049 A 
ATOM     17  N   UNL     1       5.495  -1.794   7.118  1.00  0.00    -0.248 NA
ATOM     18  C   UNL     1       4.579  -0.199   5.679  1.00  0.00     0.031 C 
ATOM     19  C   UNL     1       5.203  -4.799   3.802  1.00  0.00     0.029 A 
ATOM     20  N   UNL     1       5.968  -4.461   5.876  1.00  0.00    -0.354 N 
ATOM     21  C   UNL     1       5.462  -0.564   7.760  1.00  0.00     0.074 A 
ATOM     22  C   UNL     1       4.923   0.393   6.817  1.00  0.00     0.031 C 
ATOM     23  C   UNL     1       5.806  -5.930   4.193  1.00  0.00     0.029 A 
ATOM     24  C   UNL     1       6.305  -5.751   5.552  1.00  0.00     0.049 A 
ATOM     25  H   UNL     1       6.200  -4.040   6.735  1.00  0.00     0.167 HD
ATOM     26  C   UNL     1       5.831  -0.284   9.031  1.00  0.00     0.037 A 
ATOM     27  C   UNL     1       6.926  -6.692   6.286  1.00  0.00     0.037 A 
ATOM     28  C   UNL     1       6.377  -1.263   9.937  1.00  0.00     0.049 A 
ATOM     29  C   UNL     1       7.292  -6.364   7.704  1.00  0.00     0.074 A 
ATOM     30  C   UNL     1       6.712  -1.114  11.271  1.00  0.00     0.029 A 
ATOM     31  N   UNL     1       6.683  -2.573   9.590  1.00  0.00    -0.354 N 
ATOM     32  N   UNL     1       7.126  -5.237   8.355  1.00  0.00    -0.248 NA
ATOM     33  C   UNL     1       7.905  -7.434   8.498  1.00  0.00     0.031 C 
ATOM     34  C   UNL     1       7.263  -2.318  11.718  1.00  0.00     0.029 A 
ATOM     35  C   UNL     1       7.227  -3.234  10.678  1.00  0.00     0.049 A 
ATOM     36  H   UNL     1       6.535  -2.972   8.703  1.00  0.00     0.167 HD
ATOM     37  C   UNL     1       7.598  -5.465   9.637  1.00  0.00     0.074 A 
ATOM     38  C   UNL     1       8.040  -6.845   9.679  1.00  0.00     0.031 C 
ATOM     39  C   UNL     1       7.662  -4.609  10.685  1.00  0.00     0.037 A 
BRANCH  26  40
ATOM     40  C   UNL     1       5.628   1.111   9.547  1.00  0.00     0.064 A 
ATOM     41  C   UNL     1       4.344   1.597   9.834  1.00  0.00     0.173 A 
ATOM     42  C   UNL     1       6.724   1.921   9.880  1.00  0.00     0.173 A 
ATOM     43  F   UNL     1       3.261   0.863   9.534  1.00  0.00    -0.203 F 
ATOM     44  C   UNL     1       4.164   2.840  10.435  1.00  0.00     0.198 A 
ATOM     45  C   UNL     1       6.542   3.155  10.502  1.00  0.00     0.198 A 
ATOM     46  F   UNL     1       7.975   1.501   9.637  1.00  0.00    -0.203 F 
ATOM     47  F   UNL     1       2.926   3.287  10.691  1.00  0.00    -0.200 F 
ATOM     48  C   UNL     1       5.263   3.612  10.780  1.00  0.00     0.200 A 
ATOM     49  F   UNL     1       7.606   3.893  10.849  1.00  0.00    -0.200 F 
ATOM     50  F   UNL     1       5.089   4.795  11.385  1.00  0.00    -0.200 F 
ENDBRANCH  26  40
BRANCH  27  51
ATOM     51  C   UNL     1       7.143  -8.039   5.703  1.00  0.00     0.064 A 
ATOM     52  C   UNL     1       6.375  -9.133   6.123  1.00  0.00     0.173 A 
ATOM     53  C   UNL     1       8.061  -8.245   4.663  1.00  0.00     0.173 A 
ATOM     54  F   UNL     1       5.488  -8.986   7.118  1.00  0.00    -0.203 F 
ATOM     55  C   UNL     1       6.521 -10.385   5.529  1.00  0.00     0.198 A 
ATOM     56  C   UNL     1       8.189  -9.491   4.053  1.00  0.00     0.198 A 
ATOM     57  F   UNL     1       8.806  -7.225   4.213  1.00  0.00    -0.203 F 
ATOM     58  F   UNL     1       5.788 -11.419   5.963  1.00  0.00    -0.200 F 
ATOM     59  C   UNL     1       7.421 -10.561   4.488  1.00  0.00     0.200 A 
ATOM     60  F   UNL     1       9.043  -9.652   3.033  1.00  0.00    -0.200 F 
ATOM     61  F   UNL     1       7.546 -11.760   3.904  1.00  0.00    -0.200 F 
ENDBRANCH  27  51
BRANCH  39  62
ATOM     62  C   UNL     1       8.235  -5.135  11.966  1.00  0.00     0.064 A 
ATOM     63  C   UNL     1       9.614  -5.333  12.114  1.00  0.00     0.173 A 
ATOM     64  C   UNL     1       7.408  -5.358  13.077  1.00  0.00     0.173 A 
ATOM     65  F   UNL     1      10.440  -5.143  11.074  1.00  0.00    -0.203 F 
ATOM     66  C   UNL     1      10.147  -5.744  13.332  1.00  0.00     0.198 A 
ATOM     67  C   UNL     1       7.947  -5.744  14.299  1.00  0.00     0.198 A 
ATOM     68  F   UNL     1       6.083  -5.173  12.982  1.00  0.00    -0.203 F 
ATOM     69  F   UNL     1      11.465  -5.952  13.448  1.00  0.00    -0.200 F 
ATOM     70  C   UNL     1       9.315  -5.938  14.425  1.00  0.00     0.200 A 
ATOM     71  F   UNL     1       7.146  -5.917  15.359  1.00  0.00    -0.200 F 
ATOM     72  F   UNL     1       9.833  -6.314  15.603  1.00  0.00    -0.200 F 
ENDBRANCH  39  62
ENDBRANCH  13  14
ENDBRANCH   6   8
ENDBRANCH   5   6
ENDBRANCH   4   5
ENDBRANCH   3   4
ENDBRANCH   2   3
ENDBRANCH   1   2
BRANCH   1  73
ATOM     73  C   UNL     1       1.949   3.142   0.554  1.00  0.00     0.261 C 
BRANCH  73  74
ATOM     74  O   UNL     1       2.583   3.796  -0.555  1.00  0.00    -0.459 OA
BRANCH  74  75
ATOM     75  C   UNL     1       3.936   3.935  -0.408  1.00  0.00     0.365 C 
ATOM     76  O   UNL     1       4.576   3.423   0.502  1.00  0.00    -0.245 OA
BRANCH  75  77
ATOM     77  C   UNL     1       4.510   4.830  -1.507  1.00  0.00     0.295 C 
ATOM     78  C   UNL     1       5.248   4.167  -2.660  1.00  0.00     0.083 C 
ATOM     79  N   UNL     1       5.420   5.894  -1.028  1.00  0.00    -0.315 N 
ATOM     80  C   UNL     1       6.069   5.295  -3.269  1.00  0.00     0.068 C 
ATOM     81  C   UNL     1       6.062   6.421  -2.236  1.00  0.00     0.263 C 
ATOM     82  H   UNL     1       4.851   6.584  -0.538  1.00  0.00     0.349 HD
BRANCH  79  83
ATOM     83  C   UNL     1       6.330   5.643   0.120  1.00  0.00     0.364 C 
BRANCH  83  84
ATOM     84  C   UNL     1       7.558   4.742  -0.116  1.00  0.00     0.282 C 
ATOM     85  O   UNL     1       8.459   5.063  -0.896  1.00  0.00    -0.268 OA
BRANCH  84  86
ATOM     86  N   UNL     1       7.596   3.528   0.585  1.00  0.00    -0.306 N 
ATOM     87  C   UNL     1       7.271   2.357  -0.213  1.00  0.00     0.137 C 
ATOM     88  C   UNL     1       8.475   3.343   1.714  1.00  0.00     0.057 A 
ATOM     89  C   UNL     1       6.988   1.087   0.554  1.00  0.00     0.097 C 
ATOM     90  C   UNL     1       8.942   2.063   2.113  1.00  0.00     0.031 A 
ATOM     91  C   UNL     1       8.879   4.450   2.477  1.00  0.00     0.027 A 
ATOM     92  S   UNL     1       8.511   0.522   1.310  1.00  0.00    -0.122 SA
ATOM     93  C   UNL     1       9.811   1.926   3.206  1.00  0.00     0.017 A 
ATOM     94  C   UNL     1       9.722   4.295   3.587  1.00  0.00     0.002 A 
ATOM     95  C   UNL     1      10.195   3.037   3.945  1.00  0.00     0.001 A 
ENDBRANCH  84  86
ENDBRANCH  83  84
ENDBRANCH  79  83
ENDBRANCH  75  77
ENDBRANCH  74  75
ENDBRANCH  73  74
ENDBRANCH   1  73
TORSDOF 17
