REMARK SMILES O=C(OCCOCCOC(=O)[C@@H]1[C@@H](C(=O)NCCCn2ccnc2)[C@@H]2C=C[C@H]1C2)c1ccc(-c2c3nc(c(-c4c(F)c(F)c(F)c(F)c4F)c4ccc([nH]4)c(-c4c(F)c(F)c(F)c(F)c4F)c4nc(c(-c5c(F)c(F)c(F)c(F)c5F)c5ccc2[nH]5)C=C4)C=C3)cc1
REMARK SMILES IDX 7 1 6 2 5 3 4 4 3 5 2 6 1 7 30 8 31 9 92 10 32 11 91 12
REMARK SMILES IDX 33 13 34 14 35 15 85 16 36 17 90 18 84 19 86 20 37 21 89 22
REMARK SMILES IDX 83 23 82 24 38 26 70 27 50 28 69 29 51 30 54 31 68 32 87 33
REMARK SMILES IDX 52 34 53 35 67 37 88 38 55 39 39 40 40 41 48 42 41 43 42 44
REMARK SMILES IDX 46 45 49 46 43 47 44 48 47 49 45 50 71 51 72 52 80 53 73 54
REMARK SMILES IDX 74 55 78 56 81 57 75 58 76 59 79 60 77 61 56 62 57 63 65 64
REMARK SMILES IDX 58 65 59 66 63 67 66 68 60 69 61 70 64 71 62 72 8 73 9 74
REMARK SMILES IDX 10 75 11 76 12 77 13 78 28 79 25 80 27 81 29 82 26 83 14 84
REMARK SMILES IDX 15 85 16 86 17 88 18 89 19 90 20 91 21 92 24 93 22 94 23 95
REMARK H PARENT 86 25 54 36 16 87
REMARK Flexibility Score: inf
ROOT
ATOM      1  C   UNL     1       3.019   0.733  -2.028  1.00  0.00     0.202 C 
ENDROOT
BRANCH   1   2
ATOM      2  O   UNL     1       4.149   1.226  -1.292  1.00  0.00    -0.374 OA
BRANCH   2   3
ATOM      3  C   UNL     1       5.088   0.304  -0.741  1.00  0.00     0.202 C 
BRANCH   3   4
ATOM      4  C   UNL     1       4.719  -0.365   0.592  1.00  0.00     0.261 C 
BRANCH   4   5
ATOM      5  O   UNL     1       3.397  -0.920   0.577  1.00  0.00    -0.460 OA
BRANCH   5   6
ATOM      6  C   UNL     1       2.192  -0.353   0.801  1.00  0.00     0.338 C 
ATOM      7  O   UNL     1       1.177  -0.922   0.436  1.00  0.00    -0.246 OA
BRANCH   6   8
ATOM      8  C   UNL     1       2.074   0.891   1.592  1.00  0.00     0.060 A 
ATOM      9  C   UNL     1       3.131   1.741   1.877  1.00  0.00     0.016 A 
ATOM     10  C   UNL     1       0.825   1.131   2.181  1.00  0.00     0.016 A 
ATOM     11  C   UNL     1       3.080   2.525   2.999  1.00  0.00     0.010 A 
ATOM     12  C   UNL     1       0.713   2.060   3.198  1.00  0.00     0.010 A 
ATOM     13  C   UNL     1       1.873   2.657   3.681  1.00  0.00    -0.014 A 
BRANCH  13  14
ATOM     14  C   UNL     1       1.890   3.573   4.807  1.00  0.00     0.031 A 
ATOM     15  C   UNL     1       2.475   4.908   4.494  1.00  0.00     0.074 A 
ATOM     16  C   UNL     1       1.365   3.261   6.003  1.00  0.00     0.049 A 
ATOM     17  N   UNL     1       3.425   5.537   5.107  1.00  0.00    -0.248 NA
ATOM     18  C   UNL     1       2.041   5.549   3.237  1.00  0.00     0.031 C 
ATOM     19  C   UNL     1       0.564   2.088   6.356  1.00  0.00     0.029 A 
ATOM     20  N   UNL     1       1.324   4.020   7.131  1.00  0.00    -0.354 N 
ATOM     21  C   UNL     1       3.597   6.729   4.407  1.00  0.00     0.074 A 
ATOM     22  C   UNL     1       2.839   6.613   3.192  1.00  0.00     0.031 C 
ATOM     23  C   UNL     1      -0.100   2.345   7.502  1.00  0.00     0.029 A 
ATOM     24  C   UNL     1       0.322   3.641   8.007  1.00  0.00     0.049 A 
ATOM     25  H   UNL     1       1.945   4.763   7.307  1.00  0.00     0.167 HD
ATOM     26  C   UNL     1       4.140   7.824   5.000  1.00  0.00     0.037 A 
ATOM     27  C   UNL     1      -0.204   4.402   8.995  1.00  0.00     0.037 A 
ATOM     28  C   UNL     1       5.020   7.457   6.079  1.00  0.00     0.049 A 
ATOM     29  C   UNL     1       0.756   5.496   9.290  1.00  0.00     0.074 A 
ATOM     30  C   UNL     1       6.161   6.681   6.177  1.00  0.00     0.029 A 
ATOM     31  N   UNL     1       4.603   7.652   7.371  1.00  0.00    -0.354 N 
ATOM     32  N   UNL     1       1.911   5.326   9.871  1.00  0.00    -0.248 NA
ATOM     33  C   UNL     1       0.603   6.754   8.571  1.00  0.00     0.031 C 
ATOM     34  C   UNL     1       6.086   6.063   7.460  1.00  0.00     0.029 A 
ATOM     35  C   UNL     1       4.922   6.521   8.075  1.00  0.00     0.049 A 
ATOM     36  H   UNL     1       4.157   8.455   7.727  1.00  0.00     0.167 HD
ATOM     37  C   UNL     1       2.757   6.231   9.246  1.00  0.00     0.074 A 
ATOM     38  C   UNL     1       1.875   7.159   8.548  1.00  0.00     0.031 C 
ATOM     39  C   UNL     1       4.092   5.975   9.119  1.00  0.00     0.037 A 
BRANCH  26  40
ATOM     40  C   UNL     1       3.515   9.198   4.873  1.00  0.00     0.064 A 
ATOM     41  C   UNL     1       4.131  10.284   5.526  1.00  0.00     0.173 A 
ATOM     42  C   UNL     1       2.189   9.429   4.437  1.00  0.00     0.173 A 
ATOM     43  F   UNL     1       5.391  10.185   5.974  1.00  0.00    -0.203 F 
ATOM     44  C   UNL     1       3.429  11.451   5.837  1.00  0.00     0.198 A 
ATOM     45  C   UNL     1       1.509  10.614   4.705  1.00  0.00     0.198 A 
ATOM     46  F   UNL     1       1.451   8.493   3.833  1.00  0.00    -0.203 F 
ATOM     47  F   UNL     1       4.009  12.391   6.595  1.00  0.00    -0.200 F 
ATOM     48  C   UNL     1       2.113  11.607   5.443  1.00  0.00     0.200 A 
ATOM     49  F   UNL     1       0.232  10.740   4.319  1.00  0.00    -0.200 F 
ATOM     50  F   UNL     1       1.412  12.686   5.813  1.00  0.00    -0.200 F 
ENDBRANCH  26  40
BRANCH  27  51
ATOM     51  C   UNL     1      -1.604   4.405   9.475  1.00  0.00     0.064 A 
ATOM     52  C   UNL     1      -1.941   5.002  10.698  1.00  0.00     0.173 A 
ATOM     53  C   UNL     1      -2.680   4.031   8.643  1.00  0.00     0.173 A 
ATOM     54  F   UNL     1      -0.979   5.439  11.523  1.00  0.00    -0.203 F 
ATOM     55  C   UNL     1      -3.273   5.219  11.063  1.00  0.00     0.198 A 
ATOM     56  C   UNL     1      -4.008   4.228   9.018  1.00  0.00     0.198 A 
ATOM     57  F   UNL     1      -2.470   3.550   7.410  1.00  0.00    -0.203 F 
ATOM     58  F   UNL     1      -3.555   5.849  12.212  1.00  0.00    -0.200 F 
ATOM     59  C   UNL     1      -4.305   4.834  10.223  1.00  0.00     0.200 A 
ATOM     60  F   UNL     1      -4.993   3.880   8.178  1.00  0.00    -0.200 F 
ATOM     61  F   UNL     1      -5.579   5.082  10.553  1.00  0.00    -0.200 F 
ENDBRANCH  27  51
BRANCH  39  62
ATOM     62  C   UNL     1       4.669   4.862   9.942  1.00  0.00     0.064 A 
ATOM     63  C   UNL     1       4.275   3.518   9.827  1.00  0.00     0.173 A 
ATOM     64  C   UNL     1       5.740   5.151  10.798  1.00  0.00     0.173 A 
ATOM     65  F   UNL     1       3.339   3.147   8.943  1.00  0.00    -0.203 F 
ATOM     66  C   UNL     1       4.881   2.522  10.588  1.00  0.00     0.198 A 
ATOM     67  C   UNL     1       6.371   4.148  11.527  1.00  0.00     0.198 A 
ATOM     68  F   UNL     1       6.202   6.408  10.898  1.00  0.00    -0.203 F 
ATOM     69  F   UNL     1       4.469   1.250  10.481  1.00  0.00    -0.200 F 
ATOM     70  C   UNL     1       5.931   2.837  11.435  1.00  0.00     0.200 A 
ATOM     71  F   UNL     1       7.420   4.448  12.305  1.00  0.00    -0.200 F 
ATOM     72  F   UNL     1       6.536   1.873  12.143  1.00  0.00    -0.200 F 
ENDBRANCH  39  62
ENDBRANCH  13  14
ENDBRANCH   6   8
ENDBRANCH   5   6
ENDBRANCH   4   5
ENDBRANCH   3   4
ENDBRANCH   2   3
ENDBRANCH   1   2
BRANCH   1  73
ATOM     73  C   UNL     1       3.227  -0.349  -3.093  1.00  0.00     0.261 C 
BRANCH  73  74
ATOM     74  O   UNL     1       3.722  -1.571  -2.516  1.00  0.00    -0.463 OA
BRANCH  74  75
ATOM     75  C   UNL     1       4.564  -2.273  -3.315  1.00  0.00     0.310 C 
ATOM     76  O   UNL     1       4.755  -2.019  -4.499  1.00  0.00    -0.252 OA
BRANCH  75  77
ATOM     77  C   UNL     1       5.365  -3.331  -2.584  1.00  0.00     0.119 C 
ATOM     78  C   UNL     1       4.931  -4.794  -2.869  1.00  0.00     0.100 C 
ATOM     79  C   UNL     1       5.390  -3.291  -1.041  1.00  0.00     0.027 C 
ATOM     80  C   UNL     1       5.058  -5.455  -1.475  1.00  0.00     0.025 C 
ATOM     81  C   UNL     1       4.075  -3.695  -0.417  1.00  0.00    -0.027 C 
ATOM     82  C   UNL     1       6.129  -4.595  -0.772  1.00  0.00     0.017 C 
ATOM     83  C   UNL     1       3.880  -4.995  -0.663  1.00  0.00    -0.027 C 
BRANCH  78  84
ATOM     84  C   UNL     1       5.719  -5.362  -4.034  1.00  0.00     0.224 C 
ATOM     85  O   UNL     1       5.337  -5.124  -5.185  1.00  0.00    -0.275 OA
ATOM     86  N   UNL     1       6.879  -6.049  -3.940  1.00  0.00    -0.356 N 
ATOM     87  H   UNL     1       7.325  -6.169  -4.809  1.00  0.00     0.163 HD
BRANCH  86  88
ATOM     88  C   UNL     1       7.610  -6.648  -2.842  1.00  0.00     0.117 C 
BRANCH  88  89
ATOM     89  C   UNL     1       7.671  -8.167  -2.957  1.00  0.00     0.043 C 
BRANCH  89  90
ATOM     90  C   UNL     1       8.745  -8.651  -3.925  1.00  0.00     0.125 C 
BRANCH  90  91
ATOM     91  N   UNL     1      10.066  -8.201  -3.531  1.00  0.00    -0.337 N 
ATOM     92  C   UNL     1      10.749  -7.145  -4.064  1.00  0.00     0.107 A 
ATOM     93  C   UNL     1      10.773  -8.655  -2.455  1.00  0.00     0.199 A 
ATOM     94  C   UNL     1      11.835  -6.976  -3.238  1.00  0.00     0.130 A 
ATOM     95  N   UNL     1      11.842  -7.921  -2.244  1.00  0.00    -0.245 NA
ENDBRANCH  90  91
ENDBRANCH  89  90
ENDBRANCH  88  89
ENDBRANCH  86  88
ENDBRANCH  78  84
ENDBRANCH  75  77
ENDBRANCH  74  75
ENDBRANCH  73  74
ENDBRANCH   1  73
TORSDOF 19
