REMARK SMILES CC[C@]1(C(=O)OCCOCCOC(=O)c2ccc(-c3c4nc(c(-c5c(F)c(F)c(F)c(F)c5F)c5ccc([nH]5)c(-c5c(F)c(F)c(F)c(F)c5F)c5nc(c(-c6c(F)c(F)c(F)c(F)c6F)c6ccc3[nH]6)C=C5)C=C4)cc2)CCCN(S(=O)(=O)CCOC(C)C)C1
REMARK SMILES IDX 7 1 6 2 4 3 5 4 3 5 78 6 91 7 79 8 81 9 80 10 2 11 1 12
REMARK SMILES IDX 82 13 83 14 84 15 85 16 86 17 87 18 88 19 89 20 90 21 8 22
REMARK SMILES IDX 9 23 10 24 11 25 12 26 13 27 14 28 15 29 16 30 77 31 17 32
REMARK SMILES IDX 76 33 18 34 19 35 20 36 70 37 21 38 75 39 69 40 71 41 22 42
REMARK SMILES IDX 74 43 68 44 67 45 23 47 55 48 35 49 54 50 36 51 39 52 53 53
REMARK SMILES IDX 72 54 37 55 38 56 52 58 73 59 40 60 24 61 25 62 33 63 26 64
REMARK SMILES IDX 27 65 31 66 34 67 28 68 29 69 32 70 30 71 56 72 57 73 65 74
REMARK SMILES IDX 58 75 59 76 63 77 66 78 60 79 61 80 64 81 62 82 41 83 42 84
REMARK SMILES IDX 50 85 43 86 44 87 48 88 51 89 45 90 46 91 49 92 47 93
REMARK H PARENT 71 46 39 57
REMARK Flexibility Score: inf
ROOT
ATOM      1  C   UNL     1       0.813   3.587  -3.118  1.00  0.00     0.261 C 
ENDROOT
BRANCH   1   2
ATOM      2  O   UNL     1       1.328   3.404  -1.789  1.00  0.00    -0.463 OA
BRANCH   2   3
ATOM      3  C   UNL     1       0.465   2.757  -0.966  1.00  0.00     0.313 C 
ATOM      4  O   UNL     1      -0.609   2.293  -1.342  1.00  0.00    -0.252 OA
BRANCH   3   5
ATOM      5  C   UNL     1       0.870   2.788   0.508  1.00  0.00     0.082 C 
ATOM      6  C   UNL     1       2.359   2.677   0.888  1.00  0.00     0.021 C 
ATOM      7  C   UNL     1       0.426   4.223   0.871  1.00  0.00     0.121 C 
ATOM      8  C   UNL     1       2.545   2.967   2.391  1.00  0.00     0.018 C 
ATOM      9  N   UNL     1       0.669   4.629   2.286  1.00  0.00    -0.201 NA
ATOM     10  C   UNL     1       2.055   4.363   2.771  1.00  0.00     0.102 C 
BRANCH   5  11
ATOM     11  C   UNL     1       0.074   1.616   1.172  1.00  0.00     0.017 C 
ATOM     12  C   UNL     1       0.425   0.212   0.651  1.00  0.00     0.005 C 
ENDBRANCH   5  11
BRANCH   9  13
ATOM     13  S   UNL     1       0.137   6.256   2.602  1.00  0.00     0.216 S 
ATOM     14  O   UNL     1       1.293   7.028   2.984  1.00  0.00    -0.212 OA
ATOM     15  O   UNL     1      -0.691   6.685   1.486  1.00  0.00    -0.212 OA
BRANCH  13  16
ATOM     16  C   UNL     1      -0.903   6.050   4.049  1.00  0.00     0.182 C 
BRANCH  16  17
ATOM     17  C   UNL     1      -2.387   5.950   3.718  1.00  0.00     0.178 C 
BRANCH  17  18
ATOM     18  O   UNL     1      -3.046   4.864   4.379  1.00  0.00    -0.378 OA
BRANCH  18  19
ATOM     19  C   UNL     1      -3.213   3.640   3.658  1.00  0.00     0.112 C 
ATOM     20  C   UNL     1      -4.096   3.757   2.410  1.00  0.00     0.038 C 
ATOM     21  C   UNL     1      -1.886   2.999   3.328  1.00  0.00     0.038 C 
ENDBRANCH  18  19
ENDBRANCH  17  18
ENDBRANCH  16  17
ENDBRANCH  13  16
ENDBRANCH   9  13
ENDBRANCH   3   5
ENDBRANCH   2   3
ENDBRANCH   1   2
BRANCH   1  22
ATOM     22  C   UNL     1       1.456   2.696  -4.184  1.00  0.00     0.202 C 
BRANCH  22  23
ATOM     23  O   UNL     1       1.583   1.301  -3.958  1.00  0.00    -0.374 OA
BRANCH  23  24
ATOM     24  C   UNL     1       2.301   0.828  -2.827  1.00  0.00     0.202 C 
BRANCH  24  25
ATOM     25  C   UNL     1       3.761   1.251  -2.600  1.00  0.00     0.261 C 
BRANCH  25  26
ATOM     26  O   UNL     1       3.991   2.670  -2.598  1.00  0.00    -0.460 OA
BRANCH  26  27
ATOM     27  C   UNL     1       4.686   3.125  -3.669  1.00  0.00     0.338 C 
ATOM     28  O   UNL     1       5.117   2.473  -4.605  1.00  0.00    -0.246 OA
BRANCH  27  29
ATOM     29  C   UNL     1       4.749   4.595  -3.656  1.00  0.00     0.060 A 
ATOM     30  C   UNL     1       4.154   5.291  -4.717  1.00  0.00     0.016 A 
ATOM     31  C   UNL     1       5.530   5.263  -2.713  1.00  0.00     0.016 A 
ATOM     32  C   UNL     1       4.377   6.656  -4.867  1.00  0.00     0.010 A 
ATOM     33  C   UNL     1       5.768   6.631  -2.874  1.00  0.00     0.010 A 
ATOM     34  C   UNL     1       5.228   7.321  -3.975  1.00  0.00    -0.014 A 
BRANCH  34  35
ATOM     35  C   UNL     1       5.697   8.687  -4.302  1.00  0.00     0.031 A 
ATOM     36  C   UNL     1       7.046   8.853  -4.945  1.00  0.00     0.074 A 
ATOM     37  C   UNL     1       4.919   9.755  -4.060  1.00  0.00     0.049 A 
ATOM     38  N   UNL     1       7.689   9.948  -5.260  1.00  0.00    -0.248 NA
ATOM     39  C   UNL     1       7.768   7.614  -5.278  1.00  0.00     0.031 C 
ATOM     40  C   UNL     1       3.573   9.708  -3.494  1.00  0.00     0.029 A 
ATOM     41  N   UNL     1       5.159  11.092  -4.256  1.00  0.00    -0.354 N 
ATOM     42  C   UNL     1       8.892   9.531  -5.817  1.00  0.00     0.074 A 
ATOM     43  C   UNL     1       8.903   8.086  -5.774  1.00  0.00     0.031 C 
ATOM     44  C   UNL     1       3.108  10.963  -3.373  1.00  0.00     0.029 A 
ATOM     45  C   UNL     1       4.139  11.899  -3.819  1.00  0.00     0.049 A 
ATOM     46  H   UNL     1       5.982  11.438  -4.669  1.00  0.00     0.167 HD
ATOM     47  C   UNL     1       9.892  10.290  -6.324  1.00  0.00     0.037 A 
ATOM     48  C   UNL     1       4.063  13.243  -3.761  1.00  0.00     0.037 A 
ATOM     49  C   UNL     1       9.872  11.728  -6.364  1.00  0.00     0.049 A 
ATOM     50  C   UNL     1       5.224  14.065  -4.259  1.00  0.00     0.074 A 
ATOM     51  C   UNL     1      10.832  12.593  -6.858  1.00  0.00     0.029 A 
ATOM     52  N   UNL     1       8.833  12.514  -5.885  1.00  0.00    -0.354 N 
ATOM     53  N   UNL     1       6.356  13.667  -4.790  1.00  0.00    -0.248 NA
ATOM     54  C   UNL     1       5.095  15.525  -4.152  1.00  0.00     0.031 C 
ATOM     55  C   UNL     1      10.396  13.903  -6.634  1.00  0.00     0.029 A 
ATOM     56  C   UNL     1       9.139  13.854  -6.053  1.00  0.00     0.049 A 
ATOM     57  H   UNL     1       8.002  12.169  -5.486  1.00  0.00     0.167 HD
ATOM     58  C   UNL     1       7.056  14.822  -5.110  1.00  0.00     0.074 A 
ATOM     59  C   UNL     1       6.218  15.938  -4.722  1.00  0.00     0.031 C 
ATOM     60  C   UNL     1       8.282  14.950  -5.676  1.00  0.00     0.037 A 
BRANCH  47  61
ATOM     61  C   UNL     1      11.105   9.579  -6.850  1.00  0.00     0.064 A 
ATOM     62  C   UNL     1      11.069   8.837  -8.040  1.00  0.00     0.173 A 
ATOM     63  C   UNL     1      12.330   9.667  -6.170  1.00  0.00     0.173 A 
ATOM     64  F   UNL     1       9.921   8.708  -8.721  1.00  0.00    -0.203 F 
ATOM     65  C   UNL     1      12.208   8.191  -8.517  1.00  0.00     0.198 A 
ATOM     66  C   UNL     1      13.472   9.044  -6.664  1.00  0.00     0.198 A 
ATOM     67  F   UNL     1      12.420  10.366  -5.028  1.00  0.00    -0.203 F 
ATOM     68  F   UNL     1      12.138   7.450  -9.631  1.00  0.00    -0.200 F 
ATOM     69  C   UNL     1      13.409   8.301  -7.833  1.00  0.00     0.200 A 
ATOM     70  F   UNL     1      14.635   9.161  -6.008  1.00  0.00    -0.200 F 
ATOM     71  F   UNL     1      14.505   7.684  -8.296  1.00  0.00    -0.200 F 
ENDBRANCH  47  61
BRANCH  48  72
ATOM     72  C   UNL     1       2.853  13.896  -3.198  1.00  0.00     0.064 A 
ATOM     73  C   UNL     1       1.994  14.649  -4.009  1.00  0.00     0.173 A 
ATOM     74  C   UNL     1       2.543  13.799  -1.833  1.00  0.00     0.173 A 
ATOM     75  F   UNL     1       2.263  14.794  -5.315  1.00  0.00    -0.203 F 
ATOM     76  C   UNL     1       0.882  15.297  -3.474  1.00  0.00     0.198 A 
ATOM     77  C   UNL     1       1.415  14.422  -1.304  1.00  0.00     0.198 A 
ATOM     78  F   UNL     1       3.335  13.093  -1.012  1.00  0.00    -0.203 F 
ATOM     79  F   UNL     1       0.106  16.052  -4.263  1.00  0.00    -0.200 F 
ATOM     80  C   UNL     1       0.590  15.178  -2.124  1.00  0.00     0.200 A 
ATOM     81  F   UNL     1       1.131  14.296  -0.001  1.00  0.00    -0.200 F 
ATOM     82  F   UNL     1      -0.479  15.801  -1.610  1.00  0.00    -0.200 F 
ENDBRANCH  48  72
BRANCH  60  83
ATOM     83  C   UNL     1       8.770  16.341  -5.960  1.00  0.00     0.064 A 
ATOM     84  C   UNL     1       9.177  17.206  -4.934  1.00  0.00     0.173 A 
ATOM     85  C   UNL     1       8.876  16.796  -7.284  1.00  0.00     0.173 A 
ATOM     86  F   UNL     1       9.082  16.824  -3.651  1.00  0.00    -0.203 F 
ATOM     87  C   UNL     1       9.648  18.484  -5.222  1.00  0.00     0.198 A 
ATOM     88  C   UNL     1       9.377  18.062  -7.569  1.00  0.00     0.198 A 
ATOM     89  F   UNL     1       8.508  16.004  -8.302  1.00  0.00    -0.203 F 
ATOM     90  F   UNL     1       9.988  19.311  -4.223  1.00  0.00    -0.200 F 
ATOM     91  C   UNL     1       9.756  18.908  -6.538  1.00  0.00     0.200 A 
ATOM     92  F   UNL     1       9.495  18.463  -8.842  1.00  0.00    -0.200 F 
ATOM     93  F   UNL     1      10.219  20.135  -6.813  1.00  0.00    -0.200 F 
ENDBRANCH  60  83
ENDBRANCH  34  35
ENDBRANCH  27  29
ENDBRANCH  26  27
ENDBRANCH  25  26
ENDBRANCH  24  25
ENDBRANCH  23  24
ENDBRANCH  22  23
ENDBRANCH   1  22
TORSDOF 20
