REMARK SMILES Cc1ccc(N[C@H](CC(=O)c2ccccc2)C(=O)OCCOCCOC(=O)c2ccc(-c3c4nc(c(-c5c(F)c(F)c(F)c(F)c5F)c5ccc([nH]5)c(-c5c(F)c(F)c(F)c(F)c5F)c5nc(c(-c6c(F)c(F)c(F)c(F)c6F)c6ccc3[nH]6)C=C5)C=C4)cc2)cc1Cl
REMARK SMILES IDX 21 1 20 2 19 3 17 4 18 5 7 6 6 7 5 9 1 10 2 11 3 12 92 13
REMARK SMILES IDX 4 14 91 15 93 16 8 17 9 18 10 19 11 20 12 21 16 22 13 23
REMARK SMILES IDX 15 24 14 25 22 26 23 27 24 28 25 29 26 30 27 31 28 32 29 33
REMARK SMILES IDX 90 34 30 35 89 36 31 37 32 38 33 39 83 40 34 41 88 42 82 43
REMARK SMILES IDX 84 44 35 45 87 46 81 47 80 48 36 50 68 51 48 52 67 53 49 54
REMARK SMILES IDX 52 55 66 56 85 57 50 58 51 59 65 61 86 62 53 63 37 64 38 65
REMARK SMILES IDX 46 66 39 67 40 68 44 69 47 70 41 71 42 72 45 73 43 74 69 75
REMARK SMILES IDX 70 76 78 77 71 78 72 79 76 80 79 81 73 82 74 83 77 84 75 85
REMARK SMILES IDX 54 86 55 87 63 88 56 89 57 90 61 91 64 92 58 93 59 94 62 95
REMARK SMILES IDX 60 96
REMARK H PARENT 6 8 84 49 52 60
REMARK Flexibility Score: inf
ROOT
ATOM      1  C   UNL     1      -3.453  -5.585  -3.703  1.00  0.00     0.202 C 
ENDROOT
BRANCH   1   2
ATOM      2  C   UNL     1      -3.378  -6.166  -2.289  1.00  0.00     0.261 C 
BRANCH   2   3
ATOM      3  O   UNL     1      -3.354  -5.133  -1.285  1.00  0.00    -0.462 OA
BRANCH   3   4
ATOM      4  C   UNL     1      -2.308  -5.172  -0.412  1.00  0.00     0.329 C 
ATOM      5  O   UNL     1      -1.420  -6.019  -0.420  1.00  0.00    -0.250 OA
BRANCH   4   6
ATOM      6  C   UNL     1      -2.415  -4.103   0.700  1.00  0.00     0.197 C 
BRANCH   6   7
ATOM      7  N   UNL     1      -3.260  -4.680   1.771  1.00  0.00    -0.372 N 
ATOM      8  H   UNL     1      -3.595  -5.596   1.633  1.00  0.00     0.161 HD
BRANCH   7   9
ATOM      9  C   UNL     1      -3.621  -4.048   2.947  1.00  0.00     0.036 A 
ATOM     10  C   UNL     1      -4.618  -2.130   6.715  1.00  0.00     0.046 C 
ATOM     11  C   UNL     1      -4.311  -2.795   5.405  1.00  0.00    -0.032 A 
ATOM     12  C   UNL     1      -3.534  -3.959   5.385  1.00  0.00     0.007 A 
ATOM     13  C   UNL     1      -4.733  -2.264   4.182  1.00  0.00     0.046 A 
ATOM     14  C   UNL     1      -3.193  -4.571   4.172  1.00  0.00     0.026 A 
ATOM     15  C   UNL     1      -4.402  -2.894   2.977  1.00  0.00     0.046 A 
ATOM     16  Cl  UNL     1      -5.667  -0.811   4.093  1.00  0.00    -0.084 Cl
ENDBRANCH   7   9
ENDBRANCH   6   7
BRANCH   6  17
ATOM     17  C   UNL     1      -2.835  -2.745   0.142  1.00  0.00     0.118 C 
BRANCH  17  18
ATOM     18  C   UNL     1      -2.042  -1.510   0.562  1.00  0.00     0.165 C 
ATOM     19  O   UNL     1      -1.854  -0.593  -0.239  1.00  0.00    -0.294 OA
BRANCH  18  20
ATOM     20  C   UNL     1      -1.606  -1.287   1.960  1.00  0.00     0.018 A 
ATOM     21  C   UNL     1      -2.174  -0.222   2.668  1.00  0.00     0.012 A 
ATOM     22  C   UNL     1      -0.592  -2.048   2.547  1.00  0.00     0.012 A 
ATOM     23  C   UNL     1      -1.792   0.019   3.990  1.00  0.00     0.001 A 
ATOM     24  C   UNL     1      -0.227  -1.816   3.874  1.00  0.00     0.001 A 
ATOM     25  C   UNL     1      -0.833  -0.791   4.598  1.00  0.00     0.000 A 
ENDBRANCH  18  20
ENDBRANCH  17  18
ENDBRANCH   6  17
ENDBRANCH   4   6
ENDBRANCH   3   4
ENDBRANCH   2   3
ENDBRANCH   1   2
BRANCH   1  26
ATOM     26  O   UNL     1      -2.278  -4.941  -4.191  1.00  0.00    -0.374 OA
BRANCH  26  27
ATOM     27  C   UNL     1      -1.917  -3.688  -3.614  1.00  0.00     0.202 C 
BRANCH  27  28
ATOM     28  C   UNL     1      -2.758  -2.469  -4.024  1.00  0.00     0.261 C 
BRANCH  28  29
ATOM     29  O   UNL     1      -4.152  -2.605  -3.690  1.00  0.00    -0.460 OA
BRANCH  29  30
ATOM     30  C   UNL     1      -4.983  -2.674  -4.759  1.00  0.00     0.338 C 
ATOM     31  O   UNL     1      -4.684  -2.571  -5.941  1.00  0.00    -0.246 OA
BRANCH  30  32
ATOM     32  C   UNL     1      -6.340  -3.070  -4.341  1.00  0.00     0.060 A 
ATOM     33  C   UNL     1      -6.886  -4.215  -4.935  1.00  0.00     0.016 A 
ATOM     34  C   UNL     1      -7.108  -2.284  -3.481  1.00  0.00     0.016 A 
ATOM     35  C   UNL     1      -8.219  -4.552  -4.711  1.00  0.00     0.010 A 
ATOM     36  C   UNL     1      -8.452  -2.618  -3.264  1.00  0.00     0.010 A 
ATOM     37  C   UNL     1      -9.023  -3.732  -3.907  1.00  0.00    -0.014 A 
BRANCH  37  38
ATOM     38  C   UNL     1     -10.489  -3.966  -3.874  1.00  0.00     0.031 A 
ATOM     39  C   UNL     1     -11.382  -3.141  -4.761  1.00  0.00     0.074 A 
ATOM     40  C   UNL     1     -11.017  -4.937  -3.108  1.00  0.00     0.049 A 
ATOM     41  N   UNL     1     -12.685  -3.171  -4.888  1.00  0.00    -0.248 NA
ATOM     42  C   UNL     1     -10.716  -2.153  -5.624  1.00  0.00     0.031 C 
ATOM     43  C   UNL     1     -10.257  -5.831  -2.237  1.00  0.00     0.029 A 
ATOM     44  N   UNL     1     -12.322  -5.330  -2.939  1.00  0.00    -0.354 N 
ATOM     45  C   UNL     1     -12.993  -2.215  -5.848  1.00  0.00     0.074 A 
ATOM     46  C   UNL     1     -11.746  -1.597  -6.245  1.00  0.00     0.031 C 
ATOM     47  C   UNL     1     -11.111  -6.660  -1.612  1.00  0.00     0.029 A 
ATOM     48  C   UNL     1     -12.478  -6.337  -2.020  1.00  0.00     0.049 A 
ATOM     49  H   UNL     1     -13.074  -4.927  -3.432  1.00  0.00     0.167 HD
ATOM     50  C   UNL     1     -14.203  -1.892  -6.362  1.00  0.00     0.037 A 
ATOM     51  C   UNL     1     -13.599  -6.915  -1.545  1.00  0.00     0.037 A 
ATOM     52  C   UNL     1     -15.446  -2.498  -5.965  1.00  0.00     0.049 A 
ATOM     53  C   UNL     1     -14.941  -6.486  -2.081  1.00  0.00     0.074 A 
ATOM     54  C   UNL     1     -16.724  -2.228  -6.423  1.00  0.00     0.029 A 
ATOM     55  N   UNL     1     -15.566  -3.497  -5.011  1.00  0.00    -0.354 N 
ATOM     56  N   UNL     1     -15.220  -5.591  -2.997  1.00  0.00    -0.248 NA
ATOM     57  C   UNL     1     -16.125  -7.155  -1.520  1.00  0.00     0.031 C 
ATOM     58  C   UNL     1     -17.622  -3.037  -5.718  1.00  0.00     0.029 A 
ATOM     59  C   UNL     1     -16.899  -3.843  -4.855  1.00  0.00     0.049 A 
ATOM     60  H   UNL     1     -14.816  -3.901  -4.519  1.00  0.00     0.167 HD
ATOM     61  C   UNL     1     -16.602  -5.606  -3.138  1.00  0.00     0.074 A 
ATOM     62  C   UNL     1     -17.105  -6.611  -2.226  1.00  0.00     0.031 C 
ATOM     63  C   UNL     1     -17.384  -4.853  -3.950  1.00  0.00     0.037 A 
BRANCH  50  64
ATOM     64  C   UNL     1     -14.245  -0.818  -7.409  1.00  0.00     0.064 A 
ATOM     65  C   UNL     1     -13.788  -1.052  -8.715  1.00  0.00     0.173 A 
ATOM     66  C   UNL     1     -14.788   0.442  -7.118  1.00  0.00     0.173 A 
ATOM     67  F   UNL     1     -13.248  -2.236  -9.039  1.00  0.00    -0.203 F 
ATOM     68  C   UNL     1     -13.857  -0.056  -9.686  1.00  0.00     0.198 A 
ATOM     69  C   UNL     1     -14.879   1.426  -8.098  1.00  0.00     0.198 A 
ATOM     70  F   UNL     1     -15.243   0.713  -5.885  1.00  0.00    -0.203 F 
ATOM     71  F   UNL     1     -13.381  -0.289 -10.917  1.00  0.00    -0.200 F 
ATOM     72  C   UNL     1     -14.409   1.179  -9.379  1.00  0.00     0.200 A 
ATOM     73  F   UNL     1     -15.423   2.615  -7.803  1.00  0.00    -0.200 F 
ATOM     74  F   UNL     1     -14.483   2.132 -10.317  1.00  0.00    -0.200 F 
ENDBRANCH  50  64
BRANCH  51  75
ATOM     75  C   UNL     1     -13.507  -7.950  -0.483  1.00  0.00     0.064 A 
ATOM     76  C   UNL     1     -13.839  -9.288  -0.737  1.00  0.00     0.173 A 
ATOM     77  C   UNL     1     -13.114  -7.612   0.821  1.00  0.00     0.173 A 
ATOM     78  F   UNL     1     -14.248  -9.655  -1.961  1.00  0.00    -0.203 F 
ATOM     79  C   UNL     1     -13.803 -10.243   0.277  1.00  0.00     0.198 A 
ATOM     80  C   UNL     1     -13.050  -8.573   1.827  1.00  0.00     0.198 A 
ATOM     81  F   UNL     1     -12.789  -6.345   1.117  1.00  0.00    -0.203 F 
ATOM     82  F   UNL     1     -14.175 -11.504   0.019  1.00  0.00    -0.200 F 
ATOM     83  C   UNL     1     -13.403  -9.886   1.556  1.00  0.00     0.200 A 
ATOM     84  F   UNL     1     -12.654  -8.226   3.059  1.00  0.00    -0.200 F 
ATOM     85  F   UNL     1     -13.370 -10.805   2.531  1.00  0.00    -0.200 F 
ENDBRANCH  51  75
BRANCH  63  86
ATOM     86  C   UNL     1     -18.863  -5.108  -3.916  1.00  0.00     0.064 A 
ATOM     87  C   UNL     1     -19.654  -4.705  -2.831  1.00  0.00     0.173 A 
ATOM     88  C   UNL     1     -19.503  -5.724  -5.003  1.00  0.00     0.173 A 
ATOM     89  F   UNL     1     -19.088  -4.124  -1.762  1.00  0.00    -0.203 F 
ATOM     90  C   UNL     1     -21.029  -4.930  -2.824  1.00  0.00     0.198 A 
ATOM     91  C   UNL     1     -20.880  -5.923  -5.005  1.00  0.00     0.198 A 
ATOM     92  F   UNL     1     -18.792  -6.122  -6.069  1.00  0.00    -0.203 F 
ATOM     93  F   UNL     1     -21.759  -4.576  -1.758  1.00  0.00    -0.200 F 
ATOM     94  C   UNL     1     -21.641  -5.533  -3.913  1.00  0.00     0.200 A 
ATOM     95  F   UNL     1     -21.472  -6.494  -6.063  1.00  0.00    -0.200 F 
ATOM     96  F   UNL     1     -22.965  -5.743  -3.908  1.00  0.00    -0.200 F 
ENDBRANCH  63  86
ENDBRANCH  37  38
ENDBRANCH  30  32
ENDBRANCH  29  30
ENDBRANCH  28  29
ENDBRANCH  27  28
ENDBRANCH  26  27
ENDBRANCH   1  26
TORSDOF 19
