REMARK SMILES O=C(OCCOCCOC(=O)c1cc(Br)ccc1OC(=O)c1ccc(F)cc1)c1ccc(-c2c3nc(c(-c4c(F)c(F)c(F)c(F)c4F)c4ccc([nH]4)c(-c4c(F)c(F)c(F)c(F)c4F)c4nc(c(-c5c(F)c(F)c(F)c(F)c5F)c5ccc2[nH]5)C=C4)C=C3)cc1
REMARK SMILES IDX 7 1 6 2 5 3 4 4 3 5 2 6 1 7 29 8 30 9 91 10 31 11 90 12
REMARK SMILES IDX 32 13 33 14 34 15 84 16 35 17 89 18 83 19 85 20 36 21 88 22
REMARK SMILES IDX 82 23 81 24 37 26 69 27 49 28 68 29 50 30 53 31 67 32 86 33
REMARK SMILES IDX 51 34 52 35 66 37 87 38 54 39 38 40 39 41 47 42 40 43 41 44
REMARK SMILES IDX 45 45 48 46 42 47 43 48 46 49 44 50 70 51 71 52 79 53 72 54
REMARK SMILES IDX 73 55 77 56 80 57 74 58 75 59 78 60 76 61 55 62 56 63 64 64
REMARK SMILES IDX 57 65 58 66 62 67 65 68 59 69 60 70 63 71 61 72 8 73 9 74
REMARK SMILES IDX 10 75 11 76 12 77 13 78 18 79 14 80 17 81 15 82 16 83 19 84
REMARK SMILES IDX 20 85 21 86 22 87 23 88 28 89 24 90 27 91 25 92 26 93
REMARK H PARENT 85 25 53 36
REMARK Flexibility Score: inf
ROOT
ATOM      1  C   UNL     1       1.859   2.451  -0.636  1.00  0.00     0.202 C 
ENDROOT
BRANCH   1   2
ATOM      2  O   UNL     1       2.829   1.438  -0.397  1.00  0.00    -0.374 OA
BRANCH   2   3
ATOM      3  C   UNL     1       3.102   0.548  -1.473  1.00  0.00     0.202 C 
BRANCH   3   4
ATOM      4  C   UNL     1       3.003  -0.899  -0.991  1.00  0.00     0.261 C 
BRANCH   4   5
ATOM      5  O   UNL     1       1.729  -1.120  -0.366  1.00  0.00    -0.460 OA
BRANCH   5   6
ATOM      6  C   UNL     1       1.439  -0.808   0.921  1.00  0.00     0.338 C 
ATOM      7  O   UNL     1       0.271  -0.645   1.266  1.00  0.00    -0.246 OA
BRANCH   6   8
ATOM      8  C   UNL     1       2.481  -0.846   1.987  1.00  0.00     0.060 A 
ATOM      9  C   UNL     1       3.638  -0.063   1.996  1.00  0.00     0.016 A 
ATOM     10  C   UNL     1       2.184  -1.607   3.126  1.00  0.00     0.016 A 
ATOM     11  C   UNL     1       4.494  -0.051   3.092  1.00  0.00     0.010 A 
ATOM     12  C   UNL     1       3.013  -1.558   4.251  1.00  0.00     0.010 A 
ATOM     13  C   UNL     1       4.170  -0.768   4.242  1.00  0.00    -0.014 A 
BRANCH  13  14
ATOM     14  C   UNL     1       5.059  -0.677   5.421  1.00  0.00     0.031 A 
ATOM     15  C   UNL     1       5.837  -1.883   5.845  1.00  0.00     0.074 A 
ATOM     16  C   UNL     1       5.212   0.504   6.052  1.00  0.00     0.049 A 
ATOM     17  N   UNL     1       6.581  -2.056   6.905  1.00  0.00    -0.248 NA
ATOM     18  C   UNL     1       5.774  -3.052   4.953  1.00  0.00     0.031 C 
ATOM     19  C   UNL     1       4.577   1.762   5.650  1.00  0.00     0.029 A 
ATOM     20  N   UNL     1       5.967   0.851   7.143  1.00  0.00    -0.354 N 
ATOM     21  C   UNL     1       7.052  -3.358   6.822  1.00  0.00     0.074 A 
ATOM     22  C   UNL     1       6.506  -3.936   5.614  1.00  0.00     0.031 C 
ATOM     23  C   UNL     1       5.008   2.749   6.450  1.00  0.00     0.029 A 
ATOM     24  C   UNL     1       5.872   2.181   7.478  1.00  0.00     0.049 A 
ATOM     25  H   UNL     1       6.524   0.209   7.639  1.00  0.00     0.167 HD
ATOM     26  C   UNL     1       7.864  -4.005   7.688  1.00  0.00     0.037 A 
ATOM     27  C   UNL     1       6.395   2.853   8.521  1.00  0.00     0.037 A 
ATOM     28  C   UNL     1       8.394  -3.404   8.881  1.00  0.00     0.049 A 
ATOM     29  C   UNL     1       7.208   2.082   9.525  1.00  0.00     0.074 A 
ATOM     30  C   UNL     1       9.162  -3.983   9.874  1.00  0.00     0.029 A 
ATOM     31  N   UNL     1       8.212  -2.073   9.235  1.00  0.00    -0.354 N 
ATOM     32  N   UNL     1       7.575   0.823   9.495  1.00  0.00    -0.248 NA
ATOM     33  C   UNL     1       7.653   2.809  10.721  1.00  0.00     0.031 C 
ATOM     34  C   UNL     1       9.408  -3.013  10.851  1.00  0.00     0.029 A 
ATOM     35  C   UNL     1       8.840  -1.815  10.441  1.00  0.00     0.049 A 
ATOM     36  H   UNL     1       7.712  -1.411   8.705  1.00  0.00     0.167 HD
ATOM     37  C   UNL     1       8.298   0.606  10.658  1.00  0.00     0.074 A 
ATOM     38  C   UNL     1       8.338   1.872  11.364  1.00  0.00     0.031 C 
ATOM     39  C   UNL     1       8.868  -0.538  11.109  1.00  0.00     0.037 A 
BRANCH  26  40
ATOM     40  C   UNL     1       8.173  -5.444   7.401  1.00  0.00     0.064 A 
ATOM     41  C   UNL     1       7.596  -6.458   8.179  1.00  0.00     0.173 A 
ATOM     42  C   UNL     1       9.040  -5.822   6.365  1.00  0.00     0.173 A 
ATOM     43  F   UNL     1       6.756  -6.149   9.178  1.00  0.00    -0.203 F 
ATOM     44  C   UNL     1       7.880  -7.799   7.935  1.00  0.00     0.198 A 
ATOM     45  C   UNL     1       9.301  -7.166   6.107  1.00  0.00     0.198 A 
ATOM     46  F   UNL     1       9.598  -4.891   5.578  1.00  0.00    -0.203 F 
ATOM     47  F   UNL     1       7.328  -8.750   8.702  1.00  0.00    -0.200 F 
ATOM     48  C   UNL     1       8.727  -8.152   6.896  1.00  0.00     0.200 A 
ATOM     49  F   UNL     1      10.096  -7.508   5.084  1.00  0.00    -0.200 F 
ATOM     50  F   UNL     1       8.982  -9.444   6.648  1.00  0.00    -0.200 F 
ENDBRANCH  26  40
BRANCH  27  51
ATOM     51  C   UNL     1       6.130   4.310   8.686  1.00  0.00     0.064 A 
ATOM     52  C   UNL     1       4.834   4.799   8.914  1.00  0.00     0.173 A 
ATOM     53  C   UNL     1       7.168   5.248   8.602  1.00  0.00     0.173 A 
ATOM     54  F   UNL     1       3.802   3.947   9.012  1.00  0.00    -0.203 F 
ATOM     55  C   UNL     1       4.582   6.165   9.018  1.00  0.00     0.198 A 
ATOM     56  C   UNL     1       6.921   6.614   8.740  1.00  0.00     0.198 A 
ATOM     57  F   UNL     1       8.431   4.835   8.415  1.00  0.00    -0.203 F 
ATOM     58  F   UNL     1       3.328   6.602   9.194  1.00  0.00    -0.200 F 
ATOM     59  C   UNL     1       5.627   7.072   8.937  1.00  0.00     0.200 A 
ATOM     60  F   UNL     1       7.938   7.486   8.691  1.00  0.00    -0.200 F 
ATOM     61  F   UNL     1       5.388   8.386   9.054  1.00  0.00    -0.200 F 
ENDBRANCH  27  51
BRANCH  39  62
ATOM     62  C   UNL     1       9.603  -0.474  12.413  1.00  0.00     0.064 A 
ATOM     63  C   UNL     1      11.001  -0.578  12.442  1.00  0.00     0.173 A 
ATOM     64  C   UNL     1       8.917  -0.411  13.634  1.00  0.00     0.173 A 
ATOM     65  F   UNL     1      11.698  -0.649  11.298  1.00  0.00    -0.203 F 
ATOM     66  C   UNL     1      11.686  -0.645  13.651  1.00  0.00     0.198 A 
ATOM     67  C   UNL     1       9.608  -0.451  14.841  1.00  0.00     0.198 A 
ATOM     68  F   UNL     1       7.580  -0.298  13.653  1.00  0.00    -0.203 F 
ATOM     69  F   UNL     1      13.019  -0.787  13.657  1.00  0.00    -0.200 F 
ATOM     70  C   UNL     1      10.990  -0.580  14.848  1.00  0.00     0.200 A 
ATOM     71  F   UNL     1       8.937  -0.366  15.998  1.00  0.00    -0.200 F 
ATOM     72  F   UNL     1      11.651  -0.643  16.012  1.00  0.00    -0.200 F 
ENDBRANCH  39  62
ENDBRANCH  13  14
ENDBRANCH   6   8
ENDBRANCH   5   6
ENDBRANCH   4   5
ENDBRANCH   3   4
ENDBRANCH   2   3
ENDBRANCH   1   2
BRANCH   1  73
ATOM     73  C   UNL     1       2.541   3.813  -0.740  1.00  0.00     0.261 C 
BRANCH  73  74
ATOM     74  O   UNL     1       3.420   3.824  -1.876  1.00  0.00    -0.460 OA
BRANCH  74  75
ATOM     75  C   UNL     1       4.714   3.464  -1.642  1.00  0.00     0.342 C 
ATOM     76  O   UNL     1       5.241   3.279  -0.568  1.00  0.00    -0.246 OA
BRANCH  75  77
ATOM     77  C   UNL     1       5.327   3.160  -2.959  1.00  0.00     0.103 A 
ATOM     78  C   UNL     1       4.918   3.870  -4.098  1.00  0.00     0.035 A 
ATOM     79  C   UNL     1       6.223   2.091  -3.100  1.00  0.00     0.145 A 
ATOM     80  C   UNL     1       5.367   3.480  -5.358  1.00  0.00     0.019 A 
ATOM     81  C   UNL     1       6.671   1.703  -4.367  1.00  0.00     0.049 A 
ATOM     82  Br  UNL     1       4.736   4.386  -6.892  1.00  0.00    -0.051 Br
ATOM     83  C   UNL     1       6.238   2.400  -5.498  1.00  0.00     0.019 A 
BRANCH  79  84
ATOM     84  O   UNL     1       6.518   1.240  -2.020  1.00  0.00    -0.422 OA
BRANCH  84  85
ATOM     85  C   UNL     1       7.749   1.431  -1.416  1.00  0.00     0.343 C 
ATOM     86  O   UNL     1       8.590   2.261  -1.720  1.00  0.00    -0.246 OA
BRANCH  85  87
ATOM     87  C   UNL     1       7.961   0.368  -0.386  1.00  0.00     0.060 A 
ATOM     88  C   UNL     1       9.271   0.078   0.021  1.00  0.00     0.019 A 
ATOM     89  C   UNL     1       6.898  -0.357   0.174  1.00  0.00     0.019 A 
ATOM     90  C   UNL     1       9.514  -0.928   0.963  1.00  0.00     0.040 A 
ATOM     91  C   UNL     1       7.143  -1.365   1.113  1.00  0.00     0.040 A 
ATOM     92  C   UNL     1       8.448  -1.641   1.500  1.00  0.00     0.123 A 
ATOM     93  F   UNL     1       8.676  -2.604   2.401  1.00  0.00    -0.207 F 
ENDBRANCH  85  87
ENDBRANCH  84  85
ENDBRANCH  79  84
ENDBRANCH  75  77
ENDBRANCH  74  75
ENDBRANCH  73  74
ENDBRANCH   1  73
TORSDOF 17
