REMARK SMILES CC1=Nc2c(c(C)nn2-c2ccc(F)cc2)[C@H](c2ccc(C(=O)OCCOCCOC(=O)c3ccc(-c4c5nc(c(-c6c(F)c(F)c(F)c(F)c6F)c6ccc([nH]6)c(-c6c(F)c(F)c(F)c(F)c6F)c6nc(c(-c7c(F)c(F)c(F)c(F)c7F)c7ccc4[nH]7)C=C6)C=C5)cc3)cc2)S1
REMARK SMILES IDX 27 1 26 2 25 3 24 4 22 5 23 6 21 7 18 8 19 9 97 10 20 11
REMARK SMILES IDX 96 12 17 13 1 14 2 15 3 16 98 17 4 18 5 19 9 20 6 21 8 22
REMARK SMILES IDX 7 23 10 24 11 25 16 26 12 27 15 28 13 29 14 30 28 31 29 32
REMARK SMILES IDX 30 33 31 34 32 35 33 36 34 37 95 38 35 39 94 40 36 41 37 42
REMARK SMILES IDX 38 43 88 44 39 45 93 46 87 47 89 48 40 49 92 50 86 51 85 52
REMARK SMILES IDX 41 54 73 55 53 56 72 57 54 58 57 59 71 60 90 61 55 62 56 63
REMARK SMILES IDX 70 65 91 66 58 67 42 68 43 69 51 70 44 71 45 72 49 73 52 74
REMARK SMILES IDX 46 75 47 76 50 77 48 78 74 79 75 80 83 81 76 82 77 83 81 84
REMARK SMILES IDX 84 85 78 86 79 87 82 88 80 89 59 90 60 91 68 92 61 93 62 94
REMARK SMILES IDX 66 95 69 96 63 97 64 98 67 99 65 100
REMARK H PARENT 89 53 57 64
REMARK Flexibility Score: inf
ROOT
ATOM      1  O   UNL     1      -0.474   4.732   9.552  1.00  0.00    -0.374 OA
ENDROOT
BRANCH   1   2
ATOM      2  C   UNL     1      -0.357   3.377   9.979  1.00  0.00     0.202 C 
BRANCH   2   3
ATOM      3  C   UNL     1      -1.196   2.301   9.284  1.00  0.00     0.261 C 
BRANCH   3   4
ATOM      4  O   UNL     1      -0.935   2.205   7.874  1.00  0.00    -0.460 OA
BRANCH   4   5
ATOM      5  C   UNL     1      -1.964   2.640   7.106  1.00  0.00     0.338 C 
ATOM      6  O   UNL     1      -3.055   3.019   7.503  1.00  0.00    -0.246 OA
BRANCH   5   7
ATOM      7  C   UNL     1      -1.573   2.778   5.687  1.00  0.00     0.060 A 
ATOM      8  C   UNL     1      -1.242   3.022   2.892  1.00  0.00    -0.030 A 
ATOM      9  C   UNL     1      -1.992   3.960   3.622  1.00  0.00     0.006 A 
ATOM     10  C   UNL     1      -0.579   2.010   3.618  1.00  0.00     0.006 A 
ATOM     11  C   UNL     1      -2.146   3.849   4.998  1.00  0.00     0.016 A 
ATOM     12  C   UNL     1      -0.751   1.878   5.009  1.00  0.00     0.016 A 
BRANCH   8  13
ATOM     13  C   UNL     1      -1.290   3.110   1.369  1.00  0.00     0.119 C 
ATOM     14  C   UNL     1       0.907  -0.045  -0.172  1.00  0.00     0.075 C 
ATOM     15  C   UNL     1       0.431   1.361   0.077  1.00  0.00     0.074 C 
ATOM     16  N   UNL     1       1.273   2.328  -0.096  1.00  0.00    -0.227 NA
ATOM     17  S   UNL     1      -1.264   1.498   0.516  1.00  0.00    -0.098 SA
ATOM     18  C   UNL     1       0.871   3.588   0.189  1.00  0.00     0.161 A 
ATOM     19  C   UNL     1      -0.222   4.023   0.904  1.00  0.00     0.038 A 
ATOM     20  N   UNL     1       1.588   4.720  -0.163  1.00  0.00    -0.215 N 
ATOM     21  C   UNL     1      -0.071   5.437   0.960  1.00  0.00     0.067 A 
ATOM     22  N   UNL     1       1.092   5.834   0.427  1.00  0.00    -0.171 NA
ATOM     23  C   UNL     1      -0.992   6.463   1.514  1.00  0.00     0.069 C 
BRANCH  20  24
ATOM     24  C   UNL     1       2.693   4.785  -1.041  1.00  0.00     0.067 A 
ATOM     25  C   UNL     1       2.677   4.046  -2.235  1.00  0.00     0.031 A 
ATOM     26  C   UNL     1       3.804   5.561  -0.694  1.00  0.00     0.031 A 
ATOM     27  C   UNL     1       3.791   4.066  -3.072  1.00  0.00     0.041 A 
ATOM     28  C   UNL     1       4.935   5.529  -1.511  1.00  0.00     0.041 A 
ATOM     29  C   UNL     1       4.917   4.786  -2.690  1.00  0.00     0.123 A 
ATOM     30  F   UNL     1       6.006   4.760  -3.468  1.00  0.00    -0.207 F 
ENDBRANCH  20  24
ENDBRANCH   8  13
ENDBRANCH   5   7
ENDBRANCH   4   5
ENDBRANCH   3   4
ENDBRANCH   2   3
ENDBRANCH   1   2
BRANCH   1  31
ATOM     31  C   UNL     1      -0.042   5.124   8.254  1.00  0.00     0.202 C 
BRANCH  31  32
ATOM     32  C   UNL     1       1.447   5.107   7.943  1.00  0.00     0.261 C 
BRANCH  32  33
ATOM     33  O   UNL     1       2.011   3.820   8.126  1.00  0.00    -0.460 OA
BRANCH  33  34
ATOM     34  C   UNL     1       2.700   3.687   9.283  1.00  0.00     0.338 C 
ATOM     35  O   UNL     1       2.695   4.435  10.241  1.00  0.00    -0.246 OA
BRANCH  34  36
ATOM     36  C   UNL     1       3.619   2.554   9.139  1.00  0.00     0.060 A 
ATOM     37  C   UNL     1       4.536   2.398  10.178  1.00  0.00     0.016 A 
ATOM     38  C   UNL     1       3.817   1.999   7.867  1.00  0.00     0.016 A 
ATOM     39  C   UNL     1       5.793   1.954   9.854  1.00  0.00     0.010 A 
ATOM     40  C   UNL     1       5.079   1.581   7.539  1.00  0.00     0.010 A 
ATOM     41  C   UNL     1       6.069   1.667   8.513  1.00  0.00    -0.014 A 
BRANCH  41  42
ATOM     42  C   UNL     1       7.425   1.326   8.162  1.00  0.00     0.031 A 
ATOM     43  C   UNL     1       7.755  -0.046   8.593  1.00  0.00     0.074 A 
ATOM     44  C   UNL     1       8.218   2.147   7.450  1.00  0.00     0.049 A 
ATOM     45  N   UNL     1       8.534  -0.394   9.560  1.00  0.00    -0.248 NA
ATOM     46  C   UNL     1       6.941  -1.144   8.044  1.00  0.00     0.031 C 
ATOM     47  C   UNL     1       7.869   3.400   6.777  1.00  0.00     0.029 A 
ATOM     48  N   UNL     1       9.521   1.969   7.106  1.00  0.00    -0.354 N 
ATOM     49  C   UNL     1       8.475  -1.781   9.587  1.00  0.00     0.074 A 
ATOM     50  C   UNL     1       7.319  -2.157   8.823  1.00  0.00     0.031 C 
ATOM     51  C   UNL     1       8.865   3.741   5.925  1.00  0.00     0.029 A 
ATOM     52  C   UNL     1       9.967   2.811   6.093  1.00  0.00     0.049 A 
ATOM     53  H   UNL     1      10.100   1.300   7.537  1.00  0.00     0.167 HD
ATOM     54  C   UNL     1       9.566  -2.503   9.955  1.00  0.00     0.037 A 
ATOM     55  C   UNL     1      11.129   2.656   5.406  1.00  0.00     0.037 A 
ATOM     56  C   UNL     1      10.486  -1.689  10.711  1.00  0.00     0.049 A 
ATOM     57  C   UNL     1      12.008   1.786   6.236  1.00  0.00     0.074 A 
ATOM     58  C   UNL     1      10.414  -0.993  11.902  1.00  0.00     0.029 A 
ATOM     59  N   UNL     1      11.575  -1.182  10.046  1.00  0.00    -0.354 N 
ATOM     60  N   UNL     1      12.511   2.150   7.383  1.00  0.00    -0.248 NA
ATOM     61  C   UNL     1      11.927   0.349   6.015  1.00  0.00     0.031 C 
ATOM     62  C   UNL     1      11.176   0.193  11.690  1.00  0.00     0.029 A 
ATOM     63  C   UNL     1      11.729   0.129  10.410  1.00  0.00     0.049 A 
ATOM     64  H   UNL     1      12.147  -1.676   9.415  1.00  0.00     0.167 HD
ATOM     65  C   UNL     1      12.409   1.022   8.186  1.00  0.00     0.074 A 
ATOM     66  C   UNL     1      12.107  -0.074   7.269  1.00  0.00     0.031 C 
ATOM     67  C   UNL     1      12.284   1.139   9.540  1.00  0.00     0.037 A 
BRANCH  54  68
ATOM     68  C   UNL     1       9.991  -3.773   9.254  1.00  0.00     0.064 A 
ATOM     69  C   UNL     1       9.561  -4.165   7.965  1.00  0.00     0.173 A 
ATOM     70  C   UNL     1      11.107  -4.471   9.754  1.00  0.00     0.173 A 
ATOM     71  F   UNL     1       8.574  -3.548   7.308  1.00  0.00    -0.203 F 
ATOM     72  C   UNL     1      10.210  -5.150   7.226  1.00  0.00     0.198 A 
ATOM     73  C   UNL     1      11.789  -5.418   8.986  1.00  0.00     0.198 A 
ATOM     74  F   UNL     1      11.614  -4.173  10.959  1.00  0.00    -0.203 F 
ATOM     75  F   UNL     1       9.771  -5.441   5.993  1.00  0.00    -0.200 F 
ATOM     76  C   UNL     1      11.345  -5.751   7.721  1.00  0.00     0.200 A 
ATOM     77  F   UNL     1      12.924  -5.954   9.452  1.00  0.00    -0.200 F 
ATOM     78  F   UNL     1      12.032  -6.610   6.959  1.00  0.00    -0.200 F 
ENDBRANCH  54  68
BRANCH  55  79
ATOM     79  C   UNL     1      11.373   2.847   3.953  1.00  0.00     0.064 A 
ATOM     80  C   UNL     1      10.333   2.739   3.009  1.00  0.00     0.173 A 
ATOM     81  C   UNL     1      12.682   2.828   3.438  1.00  0.00     0.173 A 
ATOM     82  F   UNL     1       9.053   2.675   3.399  1.00  0.00    -0.203 F 
ATOM     83  C   UNL     1      10.586   2.585   1.644  1.00  0.00     0.198 A 
ATOM     84  C   UNL     1      12.934   2.667   2.070  1.00  0.00     0.198 A 
ATOM     85  F   UNL     1      13.734   2.881   4.269  1.00  0.00    -0.203 F 
ATOM     86  F   UNL     1       9.562   2.416   0.795  1.00  0.00    -0.200 F 
ATOM     87  C   UNL     1      11.886   2.532   1.177  1.00  0.00     0.200 A 
ATOM     88  F   UNL     1      14.197   2.578   1.628  1.00  0.00    -0.200 F 
ATOM     89  F   UNL     1      12.126   2.305  -0.122  1.00  0.00    -0.200 F 
ENDBRANCH  55  79
BRANCH  67  90
ATOM     90  C   UNL     1      12.535   2.487  10.156  1.00  0.00     0.064 A 
ATOM     91  C   UNL     1      13.523   2.581  11.144  1.00  0.00     0.173 A 
ATOM     92  C   UNL     1      11.732   3.620   9.932  1.00  0.00     0.173 A 
ATOM     93  F   UNL     1      14.286   1.515  11.432  1.00  0.00    -0.203 F 
ATOM     94  C   UNL     1      13.694   3.745  11.887  1.00  0.00     0.198 A 
ATOM     95  C   UNL     1      11.931   4.798  10.652  1.00  0.00     0.198 A 
ATOM     96  F   UNL     1      10.711   3.582   9.066  1.00  0.00    -0.203 F 
ATOM     97  F   UNL     1      14.603   3.776  12.871  1.00  0.00    -0.200 F 
ATOM     98  C   UNL     1      12.903   4.854  11.638  1.00  0.00     0.200 A 
ATOM     99  F   UNL     1      11.154   5.867  10.423  1.00  0.00    -0.200 F 
ATOM    100  F   UNL     1      13.059   5.967  12.369  1.00  0.00    -0.200 F 
ENDBRANCH  67  90
ENDBRANCH  41  42
ENDBRANCH  34  36
ENDBRANCH  33  34
ENDBRANCH  32  33
ENDBRANCH  31  32
ENDBRANCH   1  31
TORSDOF 16
