REMARK SMILES CC(C)CN(C)S(=O)(=O)c1ccc(C(=O)OCCOCCOC(=O)c2ccc(-c3c4nc(c(-c5c(F)c(F)c(F)c(F)c5F)c5ccc([nH]5)c(-c5c(F)c(F)c(F)c(F)c5F)c5nc(c(-c6c(F)c(F)c(F)c(F)c6F)c6ccc3[nH]6)C=C5)C=C4)cc2)cc1
REMARK SMILES IDX 18 1 17 2 16 3 14 4 15 5 13 6 10 7 11 8 89 9 12 10 88 11
REMARK SMILES IDX 7 12 8 13 9 14 5 15 6 16 4 17 2 18 1 19 3 20 19 21 20 22
REMARK SMILES IDX 21 23 22 24 23 25 24 26 25 27 26 28 87 29 27 30 86 31 28 32
REMARK SMILES IDX 29 33 30 34 80 35 31 36 85 37 79 38 81 39 32 40 84 41 78 42
REMARK SMILES IDX 77 43 33 45 65 46 45 47 64 48 46 49 49 50 63 51 82 52 47 53
REMARK SMILES IDX 48 54 62 56 83 57 50 58 34 59 35 60 43 61 36 62 37 63 41 64
REMARK SMILES IDX 44 65 38 66 39 67 42 68 40 69 66 70 67 71 75 72 68 73 69 74
REMARK SMILES IDX 73 75 76 76 70 77 71 78 74 79 72 80 51 81 52 82 60 83 53 84
REMARK SMILES IDX 54 85 58 86 61 87 55 88 56 89 59 90 57 91
REMARK H PARENT 81 44 49 55
REMARK Flexibility Score: inf
ROOT
ATOM      1  C   UNL     1      -3.950   5.026  -8.428  1.00  0.00     0.202 C 
ENDROOT
BRANCH   1   2
ATOM      2  C   UNL     1      -2.820   4.000  -8.552  1.00  0.00     0.261 C 
BRANCH   2   3
ATOM      3  O   UNL     1      -2.703   3.180  -7.378  1.00  0.00    -0.460 OA
BRANCH   3   4
ATOM      4  C   UNL     1      -1.599   3.443  -6.637  1.00  0.00     0.338 C 
ATOM      5  O   UNL     1      -0.673   4.180  -6.934  1.00  0.00    -0.246 OA
BRANCH   4   6
ATOM      6  C   UNL     1      -1.733   2.863  -5.286  1.00  0.00     0.060 A 
ATOM      7  C   UNL     1      -1.687   1.852  -2.690  1.00  0.00     0.082 A 
ATOM      8  C   UNL     1      -1.382   3.201  -2.925  1.00  0.00     0.022 A 
ATOM      9  C   UNL     1      -2.065   1.018  -3.747  1.00  0.00     0.022 A 
ATOM     10  C   UNL     1      -1.386   3.699  -4.220  1.00  0.00     0.017 A 
ATOM     11  C   UNL     1      -2.122   1.538  -5.052  1.00  0.00     0.017 A 
BRANCH   7  12
ATOM     12  S   UNL     1      -1.344   1.305  -1.030  1.00  0.00     0.242 S 
ATOM     13  O   UNL     1      -2.353   1.893  -0.174  1.00  0.00    -0.207 OA
ATOM     14  O   UNL     1       0.053   1.621  -0.849  1.00  0.00    -0.207 OA
BRANCH  12  15
ATOM     15  N   UNL     1      -1.546  -0.411  -0.962  1.00  0.00    -0.201 NA
ATOM     16  C   UNL     1      -3.003  -0.783  -1.011  1.00  0.00     0.124 C 
BRANCH  15  17
ATOM     17  C   UNL     1      -0.957  -1.031   0.295  1.00  0.00     0.105 C 
BRANCH  17  18
ATOM     18  C   UNL     1       0.517  -1.486   0.216  1.00  0.00    -0.002 C 
ATOM     19  C   UNL     1       1.546  -0.364   0.373  1.00  0.00     0.009 C 
ATOM     20  C   UNL     1       0.772  -2.492   1.353  1.00  0.00     0.009 C 
ENDBRANCH  17  18
ENDBRANCH  15  17
ENDBRANCH  12  15
ENDBRANCH   7  12
ENDBRANCH   4   6
ENDBRANCH   3   4
ENDBRANCH   2   3
ENDBRANCH   1   2
BRANCH   1  21
ATOM     21  O   UNL     1      -3.878   5.970  -7.363  1.00  0.00    -0.374 OA
BRANCH  21  22
ATOM     22  C   UNL     1      -4.226   5.532  -6.051  1.00  0.00     0.202 C 
BRANCH  22  23
ATOM     23  C   UNL     1      -5.710   5.295  -5.743  1.00  0.00     0.261 C 
BRANCH  23  24
ATOM     24  O   UNL     1      -6.249   4.173  -6.464  1.00  0.00    -0.460 OA
BRANCH  24  25
ATOM     25  C   UNL     1      -7.106   4.495  -7.461  1.00  0.00     0.338 C 
ATOM     26  O   UNL     1      -7.497   5.607  -7.781  1.00  0.00    -0.246 OA
BRANCH  25  27
ATOM     27  C   UNL     1      -7.385   3.296  -8.267  1.00  0.00     0.060 A 
ATOM     28  C   UNL     1      -7.108   3.338  -9.641  1.00  0.00     0.016 A 
ATOM     29  C   UNL     1      -7.982   2.174  -7.693  1.00  0.00     0.016 A 
ATOM     30  C   UNL     1      -7.467   2.270 -10.459  1.00  0.00     0.010 A 
ATOM     31  C   UNL     1      -8.353   1.110  -8.516  1.00  0.00     0.010 A 
ATOM     32  C   UNL     1      -8.130   1.169  -9.905  1.00  0.00    -0.014 A 
BRANCH  32  33
ATOM     33  C   UNL     1      -8.758   0.150 -10.776  1.00  0.00     0.031 A 
ATOM     34  C   UNL     1     -10.243   0.214 -10.991  1.00  0.00     0.074 A 
ATOM     35  C   UNL     1      -8.030  -0.833 -11.332  1.00  0.00     0.049 A 
ATOM     36  N   UNL     1     -11.043  -0.655 -11.551  1.00  0.00    -0.248 NA
ATOM     37  C   UNL     1     -10.919   1.422 -10.490  1.00  0.00     0.031 C 
ATOM     38  C   UNL     1      -6.578  -0.964 -11.242  1.00  0.00     0.029 A 
ATOM     39  N   UNL     1      -8.425  -1.926 -12.061  1.00  0.00    -0.354 N 
ATOM     40  C   UNL     1     -12.317  -0.113 -11.448  1.00  0.00     0.074 A 
ATOM     41  C   UNL     1     -12.188   1.149 -10.752  1.00  0.00     0.031 C 
ATOM     42  C   UNL     1      -6.205  -2.093 -11.868  1.00  0.00     0.029 A 
ATOM     43  C   UNL     1      -7.396  -2.785 -12.358  1.00  0.00     0.049 A 
ATOM     44  H   UNL     1      -9.356  -2.080 -12.343  1.00  0.00     0.167 HD
ATOM     45  C   UNL     1     -13.487  -0.625 -11.895  1.00  0.00     0.037 A 
ATOM     46  C   UNL     1      -7.424  -4.007 -12.924  1.00  0.00     0.037 A 
ATOM     47  C   UNL     1     -13.601  -1.880 -12.590  1.00  0.00     0.049 A 
ATOM     48  C   UNL     1      -8.749  -4.595 -13.343  1.00  0.00     0.074 A 
ATOM     49  C   UNL     1     -14.736  -2.486 -13.097  1.00  0.00     0.029 A 
ATOM     50  N   UNL     1     -12.536  -2.725 -12.868  1.00  0.00    -0.354 N 
ATOM     51  N   UNL     1      -9.952  -4.080 -13.248  1.00  0.00    -0.248 NA
ATOM     52  C   UNL     1      -8.720  -5.934 -13.948  1.00  0.00     0.031 C 
ATOM     53  C   UNL     1     -14.367  -3.725 -13.630  1.00  0.00     0.029 A 
ATOM     54  C   UNL     1     -12.992  -3.858 -13.521  1.00  0.00     0.049 A 
ATOM     55  H   UNL     1     -11.596  -2.545 -12.637  1.00  0.00     0.167 HD
ATOM     56  C   UNL     1     -10.813  -5.009 -13.820  1.00  0.00     0.074 A 
ATOM     57  C   UNL     1      -9.996  -6.120 -14.257  1.00  0.00     0.031 C 
ATOM     58  C   UNL     1     -12.158  -4.942 -13.977  1.00  0.00     0.037 A 
BRANCH  45  59
ATOM     59  C   UNL     1     -14.741   0.152 -11.616  1.00  0.00     0.064 A 
ATOM     60  C   UNL     1     -15.011   1.376 -12.247  1.00  0.00     0.173 A 
ATOM     61  C   UNL     1     -15.700  -0.351 -10.724  1.00  0.00     0.173 A 
ATOM     62  F   UNL     1     -14.121   1.909 -13.097  1.00  0.00    -0.203 F 
ATOM     63  C   UNL     1     -16.182   2.079 -11.974  1.00  0.00     0.198 A 
ATOM     64  C   UNL     1     -16.885   0.338 -10.480  1.00  0.00     0.198 A 
ATOM     65  F   UNL     1     -15.494  -1.518 -10.095  1.00  0.00    -0.203 F 
ATOM     66  F   UNL     1     -16.395   3.271 -12.549  1.00  0.00    -0.200 F 
ATOM     67  C   UNL     1     -17.121   1.556 -11.098  1.00  0.00     0.200 A 
ATOM     68  F   UNL     1     -17.797  -0.176  -9.644  1.00  0.00    -0.200 F 
ATOM     69  F   UNL     1     -18.251   2.230 -10.844  1.00  0.00    -0.200 F 
ENDBRANCH  45  59
BRANCH  46  70
ATOM     70  C   UNL     1      -6.162  -4.770 -13.111  1.00  0.00     0.064 A 
ATOM     71  C   UNL     1      -5.664  -5.037 -14.393  1.00  0.00     0.173 A 
ATOM     72  C   UNL     1      -5.438  -5.264 -12.015  1.00  0.00     0.173 A 
ATOM     73  F   UNL     1      -6.333  -4.607 -15.473  1.00  0.00    -0.203 F 
ATOM     74  C   UNL     1      -4.504  -5.787 -14.575  1.00  0.00     0.198 A 
ATOM     75  C   UNL     1      -4.260  -5.987 -12.197  1.00  0.00     0.198 A 
ATOM     76  F   UNL     1      -5.869  -5.037 -10.766  1.00  0.00    -0.203 F 
ATOM     77  F   UNL     1      -4.080  -6.072 -15.813  1.00  0.00    -0.200 F 
ATOM     78  C   UNL     1      -3.800  -6.256 -13.476  1.00  0.00     0.200 A 
ATOM     79  F   UNL     1      -3.576  -6.426 -11.132  1.00  0.00    -0.200 F 
ATOM     80  F   UNL     1      -2.683  -6.976 -13.651  1.00  0.00    -0.200 F 
ENDBRANCH  46  70
BRANCH  58  81
ATOM     81  C   UNL     1     -12.833  -6.061 -14.717  1.00  0.00     0.064 A 
ATOM     82  C   UNL     1     -13.000  -7.334 -14.153  1.00  0.00     0.173 A 
ATOM     83  C   UNL     1     -13.391  -5.826 -15.985  1.00  0.00     0.173 A 
ATOM     84  F   UNL     1     -12.475  -7.614 -12.951  1.00  0.00    -0.203 F 
ATOM     85  C   UNL     1     -13.685  -8.335 -14.838  1.00  0.00     0.198 A 
ATOM     86  C   UNL     1     -14.103  -6.818 -16.651  1.00  0.00     0.198 A 
ATOM     87  F   UNL     1     -13.267  -4.623 -16.565  1.00  0.00    -0.203 F 
ATOM     88  F   UNL     1     -13.800  -9.556 -14.298  1.00  0.00    -0.200 F 
ATOM     89  C   UNL     1     -14.245  -8.073 -16.080  1.00  0.00     0.200 A 
ATOM     90  F   UNL     1     -14.659  -6.556 -17.843  1.00  0.00    -0.200 F 
ATOM     91  F   UNL     1     -14.921  -9.032 -16.728  1.00  0.00    -0.200 F 
ENDBRANCH  58  81
ENDBRANCH  32  33
ENDBRANCH  25  27
ENDBRANCH  24  25
ENDBRANCH  23  24
ENDBRANCH  22  23
ENDBRANCH  21  22
ENDBRANCH   1  21
TORSDOF 18
