REMARK SMILES COc1ccc(NCc2ccc(C(=O)OCCOCCOC(=O)c3ccc(-c4c5nc(c(-c6c(F)c(F)c(F)c(F)c6F)c6ccc([nH]6)c(-c6c(F)c(F)c(F)c(F)c6F)c6nc(c(-c7c(F)c(F)c(F)c(F)c7F)c7ccc4[nH]7)C=C6)C=C5)cc3)cn2)cc1Br
REMARK SMILES IDX 17 1 16 2 15 3 13 4 14 5 12 6 9 7 10 8 88 9 11 10 87 11 8 12
REMARK SMILES IDX 7 13 6 15 3 16 4 17 90 18 5 19 89 20 91 21 2 22 1 23 18 24
REMARK SMILES IDX 19 25 20 26 21 27 22 28 23 29 24 30 25 31 86 32 26 33 85 34
REMARK SMILES IDX 27 35 28 36 29 37 79 38 30 39 84 40 78 41 80 42 31 43 83 44
REMARK SMILES IDX 77 45 76 46 32 48 64 49 44 50 63 51 45 52 48 53 62 54 81 55
REMARK SMILES IDX 46 56 47 57 61 59 82 60 49 61 33 62 34 63 42 64 35 65 36 66
REMARK SMILES IDX 40 67 43 68 37 69 38 70 41 71 39 72 65 73 66 74 74 75 67 76
REMARK SMILES IDX 68 77 72 78 75 79 69 80 70 81 73 82 71 83 50 84 51 85 59 86
REMARK SMILES IDX 52 87 53 88 57 89 60 90 54 91 55 92 58 93 56 94
REMARK H PARENT 7 14 80 47 48 58
REMARK Flexibility Score: inf
ROOT
ATOM      1  C   UNL     1       1.149  12.436   5.008  1.00  0.00     0.202 C 
ENDROOT
BRANCH   1   2
ATOM      2  C   UNL     1      -0.255  12.014   4.564  1.00  0.00     0.261 C 
BRANCH   2   3
ATOM      3  O   UNL     1      -0.198  10.895   3.662  1.00  0.00    -0.460 OA
BRANCH   3   4
ATOM      4  C   UNL     1      -0.583  11.164   2.393  1.00  0.00     0.339 C 
ATOM      5  O   UNL     1      -1.104  12.194   1.989  1.00  0.00    -0.246 OA
BRANCH   4   6
ATOM      6  C   UNL     1      -0.150  10.091   1.483  1.00  0.00     0.078 A 
ATOM      7  C   UNL     1       0.654   8.263  -0.421  1.00  0.00     0.059 A 
ATOM      8  C   UNL     1       0.344   7.819   0.868  1.00  0.00     0.026 A 
ATOM      9  N   UNL     1       0.592   9.577  -0.761  1.00  0.00    -0.259 NA
ATOM     10  C   UNL     1      -0.048   8.747   1.838  1.00  0.00     0.019 A 
ATOM     11  C   UNL     1       0.188  10.454   0.188  1.00  0.00     0.127 A 
BRANCH   7  12
ATOM     12  C   UNL     1       0.969   7.295  -1.546  1.00  0.00     0.169 C 
BRANCH  12  13
ATOM     13  N   UNL     1       1.853   6.216  -1.128  1.00  0.00    -0.379 N 
ATOM     14  H   UNL     1       2.740   6.471  -0.787  1.00  0.00     0.160 HD
BRANCH  13  15
ATOM     15  C   UNL     1       1.558   4.868  -1.167  1.00  0.00     0.036 A 
ATOM     16  C   UNL     1       1.089   2.077  -1.210  1.00  0.00     0.133 A 
ATOM     17  C   UNL     1       0.038   2.972  -1.391  1.00  0.00     0.050 A 
ATOM     18  C   UNL     1       2.382   2.565  -1.030  1.00  0.00     0.062 A 
ATOM     19  C   UNL     1       0.272   4.353  -1.360  1.00  0.00     0.029 A 
ATOM     20  C   UNL     1       2.604   3.948  -0.992  1.00  0.00     0.045 A 
ATOM     21  Br  UNL     1       3.888   1.423  -0.879  1.00  0.00    -0.047 Br
BRANCH  16  22
ATOM     22  O   UNL     1       0.795   0.744  -1.311  1.00  0.00    -0.496 OA
ATOM     23  C   UNL     1       0.719   0.127  -0.025  1.00  0.00     0.278 C 
ENDBRANCH  16  22
ENDBRANCH  13  15
ENDBRANCH  12  13
ENDBRANCH   7  12
ENDBRANCH   4   6
ENDBRANCH   3   4
ENDBRANCH   2   3
ENDBRANCH   1   2
BRANCH   1  24
ATOM     24  O   UNL     1       1.997  12.947   3.979  1.00  0.00    -0.374 OA
BRANCH  24  25
ATOM     25  C   UNL     1       2.674  11.990   3.161  1.00  0.00     0.202 C 
BRANCH  25  26
ATOM     26  C   UNL     1       3.946  11.378   3.757  1.00  0.00     0.261 C 
BRANCH  26  27
ATOM     27  O   UNL     1       3.657  10.569   4.912  1.00  0.00    -0.460 OA
BRANCH  27  28
ATOM     28  C   UNL     1       4.082  11.092   6.085  1.00  0.00     0.338 C 
ATOM     29  O   UNL     1       4.761  12.095   6.247  1.00  0.00    -0.246 OA
BRANCH  28  30
ATOM     30  C   UNL     1       3.471  10.373   7.218  1.00  0.00     0.060 A 
ATOM     31  C   UNL     1       2.878  11.151   8.220  1.00  0.00     0.016 A 
ATOM     32  C   UNL     1       3.547   8.984   7.351  1.00  0.00     0.016 A 
ATOM     33  C   UNL     1       2.425  10.552   9.392  1.00  0.00     0.010 A 
ATOM     34  C   UNL     1       3.093   8.383   8.532  1.00  0.00     0.010 A 
ATOM     35  C   UNL     1       2.575   9.171   9.575  1.00  0.00    -0.014 A 
BRANCH  35  36
ATOM     36  C   UNL     1       2.341   8.601  10.925  1.00  0.00     0.031 A 
ATOM     37  C   UNL     1       3.522   8.348  11.824  1.00  0.00     0.074 A 
ATOM     38  C   UNL     1       1.093   8.378  11.373  1.00  0.00     0.049 A 
ATOM     39  N   UNL     1       3.551   7.903  13.054  1.00  0.00    -0.248 NA
ATOM     40  C   UNL     1       4.849   8.640  11.259  1.00  0.00     0.031 C 
ATOM     41  C   UNL     1      -0.130   8.612  10.610  1.00  0.00     0.029 A 
ATOM     42  N   UNL     1       0.653   7.910  12.585  1.00  0.00    -0.354 N 
ATOM     43  C   UNL     1       4.893   7.862  13.409  1.00  0.00     0.074 A 
ATOM     44  C   UNL     1       5.651   8.291  12.254  1.00  0.00     0.031 C 
ATOM     45  C   UNL     1      -1.188   8.287  11.374  1.00  0.00     0.029 A 
ATOM     46  C   UNL     1      -0.713   7.803  12.669  1.00  0.00     0.049 A 
ATOM     47  H   UNL     1       1.258   7.672  13.324  1.00  0.00     0.167 HD
ATOM     48  C   UNL     1       5.445   7.514  14.597  1.00  0.00     0.037 A 
ATOM     49  C   UNL     1      -1.489   7.359  13.677  1.00  0.00     0.037 A 
ATOM     50  C   UNL     1       4.692   7.092  15.748  1.00  0.00     0.049 A 
ATOM     51  C   UNL     1      -0.847   6.926  14.970  1.00  0.00     0.074 A 
ATOM     52  C   UNL     1       5.158   6.737  17.002  1.00  0.00     0.029 A 
ATOM     53  N   UNL     1       3.312   6.963  15.784  1.00  0.00    -0.354 N 
ATOM     54  N   UNL     1       0.420   6.923  15.307  1.00  0.00    -0.248 NA
ATOM     55  C   UNL     1      -1.748   6.444  16.026  1.00  0.00     0.031 C 
ATOM     56  C   UNL     1       4.063   6.347  17.782  1.00  0.00     0.029 A 
ATOM     57  C   UNL     1       2.911   6.510  17.031  1.00  0.00     0.049 A 
ATOM     58  H   UNL     1       2.706   7.164  15.034  1.00  0.00     0.167 HD
ATOM     59  C   UNL     1       0.466   6.467  16.618  1.00  0.00     0.074 A 
ATOM     60  C   UNL     1      -0.902   6.219  17.021  1.00  0.00     0.031 C 
ATOM     61  C   UNL     1       1.544   6.270  17.417  1.00  0.00     0.037 A 
BRANCH  48  62
ATOM     62  C   UNL     1       6.941   7.558  14.703  1.00  0.00     0.064 A 
ATOM     63  C   UNL     1       7.643   8.772  14.743  1.00  0.00     0.173 A 
ATOM     64  C   UNL     1       7.681   6.369  14.794  1.00  0.00     0.173 A 
ATOM     65  F   UNL     1       6.983   9.936  14.643  1.00  0.00    -0.203 F 
ATOM     66  C   UNL     1       9.032   8.794  14.846  1.00  0.00     0.198 A 
ATOM     67  C   UNL     1       9.067   6.395  14.926  1.00  0.00     0.198 A 
ATOM     68  F   UNL     1       7.059   5.181  14.763  1.00  0.00    -0.203 F 
ATOM     69  F   UNL     1       9.684   9.964  14.837  1.00  0.00    -0.200 F 
ATOM     70  C   UNL     1       9.741   7.606  14.944  1.00  0.00     0.200 A 
ATOM     71  F   UNL     1       9.750   5.247  15.031  1.00  0.00    -0.200 F 
ATOM     72  F   UNL     1      11.077   7.629  15.049  1.00  0.00    -0.200 F 
ENDBRANCH  48  62
BRANCH  49  73
ATOM     73  C   UNL     1      -2.964   7.301  13.507  1.00  0.00     0.064 A 
ATOM     74  C   UNL     1      -3.811   8.153  14.230  1.00  0.00     0.173 A 
ATOM     75  C   UNL     1      -3.557   6.377  12.634  1.00  0.00     0.173 A 
ATOM     76  F   UNL     1      -3.292   9.036  15.096  1.00  0.00    -0.203 F 
ATOM     77  C   UNL     1      -5.196   8.069  14.100  1.00  0.00     0.198 A 
ATOM     78  C   UNL     1      -4.940   6.313  12.485  1.00  0.00     0.198 A 
ATOM     79  F   UNL     1      -2.790   5.539  11.922  1.00  0.00    -0.203 F 
ATOM     80  F   UNL     1      -5.985   8.862  14.837  1.00  0.00    -0.200 F 
ATOM     81  C   UNL     1      -5.759   7.154  13.223  1.00  0.00     0.200 A 
ATOM     82  F   UNL     1      -5.479   5.435  11.629  1.00  0.00    -0.200 F 
ATOM     83  F   UNL     1      -7.091   7.075  13.098  1.00  0.00    -0.200 F 
ENDBRANCH  49  73
BRANCH  61  84
ATOM     84  C   UNL     1       1.284   5.791  18.817  1.00  0.00     0.064 A 
ATOM     85  C   UNL     1       0.849   4.483  19.079  1.00  0.00     0.173 A 
ATOM     86  C   UNL     1       1.495   6.644  19.911  1.00  0.00     0.173 A 
ATOM     87  F   UNL     1       0.619   3.633  18.068  1.00  0.00    -0.203 F 
ATOM     88  C   UNL     1       0.605   4.058  20.383  1.00  0.00     0.198 A 
ATOM     89  C   UNL     1       1.279   6.206  21.215  1.00  0.00     0.198 A 
ATOM     90  F   UNL     1       1.918   7.902  19.716  1.00  0.00    -0.203 F 
ATOM     91  F   UNL     1       0.138   2.821  20.605  1.00  0.00    -0.200 F 
ATOM     92  C   UNL     1       0.825   4.917  21.449  1.00  0.00     0.200 A 
ATOM     93  F   UNL     1       1.506   7.034  22.244  1.00  0.00    -0.200 F 
ATOM     94  F   UNL     1       0.591   4.506  22.703  1.00  0.00    -0.200 F 
ENDBRANCH  61  84
ENDBRANCH  35  36
ENDBRANCH  28  30
ENDBRANCH  27  28
ENDBRANCH  26  27
ENDBRANCH  25  26
ENDBRANCH  24  25
ENDBRANCH   1  24
TORSDOF 18
