REMARK SMILES Cc1nc(S[C@@H](C(=O)OCCOCCOC(=O)c2ccc(-c3c4nc(c(-c5c(F)c(F)c(F)c(F)c5F)c5ccc([nH]5)c(-c5c(F)c(F)c(F)c(F)c5F)c5nc(c(-c6c(F)c(F)c(F)c(F)c6F)c6ccc3[nH]6)C=C5)C=C4)cc2)c2ccccc2)nc2ccccc12
REMARK SMILES IDX 12 1 11 2 10 3 9 4 7 5 8 6 6 7 5 8 4 9 1 10 2 11 3 12 93 13
REMARK SMILES IDX 88 14 92 15 87 16 89 17 91 18 90 19 81 20 82 21 86 22 83 23
REMARK SMILES IDX 85 24 84 25 13 26 14 27 15 28 16 29 17 30 18 31 19 32 80 33
REMARK SMILES IDX 20 34 79 35 21 36 22 37 23 38 73 39 24 40 78 41 72 42 74 43
REMARK SMILES IDX 25 44 77 45 71 46 70 47 26 49 58 50 38 51 57 52 39 53 42 54
REMARK SMILES IDX 56 55 75 56 40 57 41 58 55 60 76 61 43 62 27 63 28 64 36 65
REMARK SMILES IDX 29 66 30 67 34 68 37 69 31 70 32 71 35 72 33 73 59 74 60 75
REMARK SMILES IDX 68 76 61 77 62 78 66 79 69 80 63 81 64 82 67 83 65 84 44 85
REMARK SMILES IDX 45 86 53 87 46 88 47 89 51 90 54 91 48 92 49 93 52 94 50 95
REMARK H PARENT 74 48 42 59
REMARK Flexibility Score: inf
ROOT
ATOM      1  O   UNL     1       5.012   1.246   1.242  1.00  0.00    -0.374 OA
ENDROOT
BRANCH   1   2
ATOM      2  C   UNL     1       5.701   2.433   1.629  1.00  0.00     0.202 C 
BRANCH   2   3
ATOM      3  C   UNL     1       5.829   3.565   0.604  1.00  0.00     0.261 C 
BRANCH   3   4
ATOM      4  O   UNL     1       4.559   4.050   0.119  1.00  0.00    -0.462 OA
BRANCH   4   5
ATOM      5  C   UNL     1       4.424   4.037  -1.239  1.00  0.00     0.324 C 
ATOM      6  O   UNL     1       5.348   3.725  -1.992  1.00  0.00    -0.251 OA
BRANCH   5   7
ATOM      7  C   UNL     1       3.064   4.480  -1.787  1.00  0.00     0.194 C 
BRANCH   7   8
ATOM      8  S   UNL     1       1.798   5.009  -0.591  1.00  0.00    -0.066 SA
BRANCH   8   9
ATOM      9  C   UNL     1       0.651   3.676  -0.334  1.00  0.00     0.189 A 
ATOM     10  C   UNL     1       0.467   0.048  -0.711  1.00  0.00     0.067 C 
ATOM     11  C   UNL     1       0.106   1.437  -0.263  1.00  0.00     0.050 A 
ATOM     12  N   UNL     1       0.911   2.429  -0.735  1.00  0.00    -0.227 NA
ATOM     13  C   UNL     1      -0.932   1.668   0.655  1.00  0.00     0.022 A 
ATOM     14  C   UNL     1      -1.133   3.014   0.975  1.00  0.00     0.075 A 
ATOM     15  C   UNL     1      -1.718   0.674   1.298  1.00  0.00     0.012 A 
ATOM     16  N   UNL     1      -0.369   3.997   0.482  1.00  0.00    -0.222 NA
ATOM     17  C   UNL     1      -2.129   3.338   1.891  1.00  0.00     0.029 A 
ATOM     18  C   UNL     1      -2.682   1.022   2.243  1.00  0.00     0.001 A 
ATOM     19  C   UNL     1      -2.898   2.361   2.531  1.00  0.00     0.002 A 
ENDBRANCH   8   9
ENDBRANCH   7   8
BRANCH   7  20
ATOM     20  C   UNL     1       2.607   3.670  -2.989  1.00  0.00    -0.023 A 
ATOM     21  C   UNL     1       2.767   2.274  -3.041  1.00  0.00     0.005 A 
ATOM     22  C   UNL     1       2.083   4.321  -4.115  1.00  0.00     0.005 A 
ATOM     23  C   UNL     1       2.410   1.550  -4.176  1.00  0.00     0.000 A 
ATOM     24  C   UNL     1       1.744   3.597  -5.259  1.00  0.00     0.000 A 
ATOM     25  C   UNL     1       1.905   2.213  -5.288  1.00  0.00     0.000 A 
ENDBRANCH   7  20
ENDBRANCH   5   7
ENDBRANCH   4   5
ENDBRANCH   3   4
ENDBRANCH   2   3
ENDBRANCH   1   2
BRANCH   1  26
ATOM     26  C   UNL     1       3.641   1.358   0.882  1.00  0.00     0.202 C 
BRANCH  26  27
ATOM     27  C   UNL     1       2.627   1.681   1.980  1.00  0.00     0.261 C 
BRANCH  27  28
ATOM     28  O   UNL     1       3.045   2.674   2.899  1.00  0.00    -0.460 OA
BRANCH  28  29
ATOM     29  C   UNL     1       3.306   2.200   4.133  1.00  0.00     0.338 C 
ATOM     30  O   UNL     1       3.217   1.057   4.546  1.00  0.00    -0.246 OA
BRANCH  29  31
ATOM     31  C   UNL     1       3.890   3.308   4.884  1.00  0.00     0.060 A 
ATOM     32  C   UNL     1       3.230   4.536   4.965  1.00  0.00     0.016 A 
ATOM     33  C   UNL     1       5.137   3.098   5.477  1.00  0.00     0.016 A 
ATOM     34  C   UNL     1       3.820   5.565   5.683  1.00  0.00     0.010 A 
ATOM     35  C   UNL     1       5.715   4.122   6.211  1.00  0.00     0.010 A 
ATOM     36  C   UNL     1       5.048   5.348   6.333  1.00  0.00    -0.014 A 
BRANCH  36  37
ATOM     37  C   UNL     1       5.574   6.376   7.249  1.00  0.00     0.031 A 
ATOM     38  C   UNL     1       6.776   7.181   6.885  1.00  0.00     0.074 A 
ATOM     39  C   UNL     1       4.938   6.543   8.422  1.00  0.00     0.049 A 
ATOM     40  N   UNL     1       7.334   8.159   7.546  1.00  0.00    -0.248 NA
ATOM     41  C   UNL     1       7.451   6.838   5.624  1.00  0.00     0.031 C 
ATOM     42  C   UNL     1       3.781   5.759   8.865  1.00  0.00     0.029 A 
ATOM     43  N   UNL     1       5.155   7.425   9.445  1.00  0.00    -0.354 N 
ATOM     44  C   UNL     1       8.414   8.563   6.776  1.00  0.00     0.074 A 
ATOM     45  C   UNL     1       8.473   7.683   5.629  1.00  0.00     0.031 C 
ATOM     46  C   UNL     1       3.359   6.230  10.046  1.00  0.00     0.029 A 
ATOM     47  C   UNL     1       4.237   7.318  10.460  1.00  0.00     0.049 A 
ATOM     48  H   UNL     1       5.896   8.073   9.452  1.00  0.00     0.167 HD
ATOM     49  C   UNL     1       9.255   9.597   7.004  1.00  0.00     0.037 A 
ATOM     50  C   UNL     1       4.119   8.029  11.596  1.00  0.00     0.037 A 
ATOM     51  C   UNL     1       9.170  10.451   8.159  1.00  0.00     0.049 A 
ATOM     52  C   UNL     1       5.101   9.138  11.846  1.00  0.00     0.074 A 
ATOM     53  C   UNL     1       9.944  11.552   8.475  1.00  0.00     0.029 A 
ATOM     54  N   UNL     1       8.258  10.290   9.195  1.00  0.00    -0.354 N 
ATOM     55  N   UNL     1       6.066   9.574  11.072  1.00  0.00    -0.248 NA
ATOM     56  C   UNL     1       4.984   9.852  13.123  1.00  0.00     0.031 C 
ATOM     57  C   UNL     1       9.538  12.023   9.727  1.00  0.00     0.029 A 
ATOM     58  C   UNL     1       8.477  11.247  10.171  1.00  0.00     0.049 A 
ATOM     59  H   UNL     1       7.559   9.597   9.229  1.00  0.00     0.167 HD
ATOM     60  C   UNL     1       6.669  10.614  11.761  1.00  0.00     0.074 A 
ATOM     61  C   UNL     1       5.941  10.764  13.006  1.00  0.00     0.031 C 
ATOM     62  C   UNL     1       7.735  11.369  11.402  1.00  0.00     0.037 A 
BRANCH  49  63
ATOM     63  C   UNL     1      10.322   9.871   5.986  1.00  0.00     0.064 A 
ATOM     64  C   UNL     1      10.005  10.368   4.713  1.00  0.00     0.173 A 
ATOM     65  C   UNL     1      11.677   9.693   6.302  1.00  0.00     0.173 A 
ATOM     66  F   UNL     1       8.724  10.547   4.357  1.00  0.00    -0.203 F 
ATOM     67  C   UNL     1      11.004  10.657   3.787  1.00  0.00     0.198 A 
ATOM     68  C   UNL     1      12.675  10.011   5.383  1.00  0.00     0.198 A 
ATOM     69  F   UNL     1      12.037   9.225   7.507  1.00  0.00    -0.203 F 
ATOM     70  F   UNL     1      10.674  11.093   2.563  1.00  0.00    -0.200 F 
ATOM     71  C   UNL     1      12.338  10.487   4.125  1.00  0.00     0.200 A 
ATOM     72  F   UNL     1      13.964   9.860   5.717  1.00  0.00    -0.200 F 
ATOM     73  F   UNL     1      13.298  10.780   3.238  1.00  0.00    -0.200 F 
ENDBRANCH  49  63
BRANCH  50  74
ATOM     74  C   UNL     1       3.012   7.730  12.538  1.00  0.00     0.064 A 
ATOM     75  C   UNL     1       1.960   8.638  12.720  1.00  0.00     0.173 A 
ATOM     76  C   UNL     1       2.951   6.514  13.237  1.00  0.00     0.173 A 
ATOM     77  F   UNL     1       1.978   9.818  12.082  1.00  0.00    -0.203 F 
ATOM     78  C   UNL     1       0.895   8.345  13.569  1.00  0.00     0.198 A 
ATOM     79  C   UNL     1       1.871   6.210  14.062  1.00  0.00     0.198 A 
ATOM     80  F   UNL     1       3.926   5.605  13.090  1.00  0.00    -0.203 F 
ATOM     81  F   UNL     1      -0.084   9.244  13.745  1.00  0.00    -0.200 F 
ATOM     82  C   UNL     1       0.846   7.128  14.232  1.00  0.00     0.200 A 
ATOM     83  F   UNL     1       1.818   5.024  14.684  1.00  0.00    -0.200 F 
ATOM     84  F   UNL     1      -0.188   6.841  15.035  1.00  0.00    -0.200 F 
ENDBRANCH  50  74
BRANCH  62  85
ATOM     85  C   UNL     1       8.201  12.413  12.372  1.00  0.00     0.064 A 
ATOM     86  C   UNL     1       8.896  12.057  13.536  1.00  0.00     0.173 A 
ATOM     87  C   UNL     1       8.063  13.777  12.074  1.00  0.00     0.173 A 
ATOM     88  F   UNL     1       9.039  10.766  13.869  1.00  0.00    -0.203 F 
ATOM     89  C   UNL     1       9.440  13.031  14.367  1.00  0.00     0.198 A 
ATOM     90  C   UNL     1       8.635  14.747  12.892  1.00  0.00     0.198 A 
ATOM     91  F   UNL     1       7.413  14.166  10.967  1.00  0.00    -0.203 F 
ATOM     92  F   UNL     1      10.086  12.670  15.485  1.00  0.00    -0.200 F 
ATOM     93  C   UNL     1       9.324  14.373  14.036  1.00  0.00     0.200 A 
ATOM     94  F   UNL     1       8.540  16.042  12.560  1.00  0.00    -0.200 F 
ATOM     95  F   UNL     1       9.880  15.308  14.819  1.00  0.00    -0.200 F 
ENDBRANCH  62  85
ENDBRANCH  36  37
ENDBRANCH  29  31
ENDBRANCH  28  29
ENDBRANCH  27  28
ENDBRANCH  26  27
ENDBRANCH   1  26
TORSDOF 17
