REMARK SMILES O=C(OCCOCCOC(=O)[C@@H]1CCCC[C@@H]1Sc1ccncc1)c1ccc(-c2c3nc(c(-c4c(F)c(F)c(F)c(F)c4F)c4ccc([nH]4)c(-c4c(F)c(F)c(F)c(F)c4F)c4nc(c(-c5c(F)c(F)c(F)c(F)c5F)c5ccc2[nH]5)C=C4)C=C3)cc1
REMARK SMILES IDX 6 1 5 2 4 3 3 4 2 5 1 6 25 7 26 8 87 9 27 10 86 11 28 12
REMARK SMILES IDX 29 13 30 14 80 15 31 16 85 17 79 18 81 19 32 20 84 21 78 22
REMARK SMILES IDX 77 23 33 25 65 26 45 27 64 28 46 29 49 30 63 31 82 32 47 33
REMARK SMILES IDX 48 34 62 36 83 37 50 38 34 39 35 40 43 41 36 42 37 43 41 44
REMARK SMILES IDX 44 45 38 46 39 47 42 48 40 49 66 50 67 51 75 52 68 53 69 54
REMARK SMILES IDX 73 55 76 56 70 57 71 58 74 59 72 60 51 61 52 62 60 63 53 64
REMARK SMILES IDX 54 65 58 66 61 67 55 68 56 69 59 70 57 71 7 72 8 73 9 74
REMARK SMILES IDX 10 75 11 76 12 77 13 78 17 79 14 80 16 81 15 82 18 83 19 84
REMARK SMILES IDX 20 85 24 86 21 87 23 88 22 89
REMARK H PARENT 81 24 49 35
REMARK Flexibility Score: inf
ROOT
ATOM      1  O   UNL     1       4.079  -1.729   0.310  1.00  0.00    -0.374 OA
ENDROOT
BRANCH   1   2
ATOM      2  C   UNL     1       4.611  -0.646   1.074  1.00  0.00     0.202 C 
BRANCH   2   3
ATOM      3  C   UNL     1       4.205   0.782   0.673  1.00  0.00     0.261 C 
BRANCH   3   4
ATOM      4  O   UNL     1       2.790   0.899   0.453  1.00  0.00    -0.460 OA
BRANCH   4   5
ATOM      5  C   UNL     1       2.144   0.873  -0.740  1.00  0.00     0.338 C 
ATOM      6  O   UNL     1       0.933   1.079  -0.776  1.00  0.00    -0.246 OA
BRANCH   5   7
ATOM      7  C   UNL     1       2.849   0.591  -2.023  1.00  0.00     0.060 A 
ATOM      8  C   UNL     1       4.021  -0.154  -2.108  1.00  0.00     0.016 A 
ATOM      9  C   UNL     1       2.272   1.030  -3.223  1.00  0.00     0.016 A 
ATOM     10  C   UNL     1       4.644  -0.432  -3.293  1.00  0.00     0.010 A 
ATOM     11  C   UNL     1       2.873   0.726  -4.451  1.00  0.00     0.010 A 
ATOM     12  C   UNL     1       4.062  -0.011  -4.473  1.00  0.00    -0.014 A 
BRANCH  12  13
ATOM     13  C   UNL     1       4.862  -0.277  -5.667  1.00  0.00     0.031 A 
ATOM     14  C   UNL     1       5.690   0.841  -6.201  1.00  0.00     0.074 A 
ATOM     15  C   UNL     1       5.035  -1.556  -6.048  1.00  0.00     0.049 A 
ATOM     16  N   UNL     1       6.467   0.865  -7.244  1.00  0.00    -0.248 NA
ATOM     17  C   UNL     1       5.661   2.102  -5.435  1.00  0.00     0.031 C 
ATOM     18  C   UNL     1       4.431  -2.722  -5.389  1.00  0.00     0.029 A 
ATOM     19  N   UNL     1       5.817  -2.098  -7.026  1.00  0.00    -0.354 N 
ATOM     20  C   UNL     1       6.979   2.153  -7.291  1.00  0.00     0.074 A 
ATOM     21  C   UNL     1       6.447   2.878  -6.162  1.00  0.00     0.031 C 
ATOM     22  C   UNL     1       4.886  -3.841  -5.972  1.00  0.00     0.029 A 
ATOM     23  C   UNL     1       5.728  -3.466  -7.099  1.00  0.00     0.049 A 
ATOM     24  H   UNL     1       6.388  -1.560  -7.622  1.00  0.00     0.167 HD
ATOM     25  C   UNL     1       7.804   2.668  -8.227  1.00  0.00     0.037 A 
ATOM     26  C   UNL     1       6.232  -4.301  -8.023  1.00  0.00     0.037 A 
ATOM     27  C   UNL     1       8.301   1.889  -9.327  1.00  0.00     0.049 A 
ATOM     28  C   UNL     1       7.028  -3.677  -9.136  1.00  0.00     0.074 A 
ATOM     29  C   UNL     1       9.049   2.292 -10.414  1.00  0.00     0.029 A 
ATOM     30  N   UNL     1       8.090   0.519  -9.464  1.00  0.00    -0.354 N 
ATOM     31  N   UNL     1       7.399  -2.425  -9.284  1.00  0.00    -0.248 NA
ATOM     32  C   UNL     1       7.449  -4.562 -10.225  1.00  0.00     0.031 C 
ATOM     33  C   UNL     1       9.249   1.175 -11.233  1.00  0.00     0.029 A 
ATOM     34  C   UNL     1       8.679   0.063 -10.628  1.00  0.00     0.049 A 
ATOM     35  H   UNL     1       7.594  -0.042  -8.825  1.00  0.00     0.167 HD
ATOM     36  C   UNL     1       8.108  -2.371 -10.472  1.00  0.00     0.074 A 
ATOM     37  C   UNL     1       8.133  -3.726 -10.993  1.00  0.00     0.031 C 
ATOM     38  C   UNL     1       8.680  -1.306 -11.087  1.00  0.00     0.037 A 
BRANCH  25  39
ATOM     39  C   UNL     1       8.097   4.135  -8.142  1.00  0.00     0.064 A 
ATOM     40  C   UNL     1       8.909   4.682  -7.138  1.00  0.00     0.173 A 
ATOM     41  C   UNL     1       7.490   5.019  -9.048  1.00  0.00     0.173 A 
ATOM     42  F   UNL     1       9.478   3.886  -6.221  1.00  0.00    -0.203 F 
ATOM     43  C   UNL     1       9.080   6.061  -7.027  1.00  0.00     0.198 A 
ATOM     44  C   UNL     1       7.686   6.394  -8.952  1.00  0.00     0.198 A 
ATOM     45  F   UNL     1       6.688   4.550 -10.016  1.00  0.00    -0.203 F 
ATOM     46  F   UNL     1       9.804   6.566  -6.019  1.00  0.00    -0.200 F 
ATOM     47  C   UNL     1       8.471   6.915  -7.936  1.00  0.00     0.200 A 
ATOM     48  F   UNL     1       7.094   7.216  -9.829  1.00  0.00    -0.200 F 
ATOM     49  F   UNL     1       8.626   8.241  -7.820  1.00  0.00    -0.200 F 
ENDBRANCH  25  39
BRANCH  26  50
ATOM     50  C   UNL     1       5.924  -5.755  -7.983  1.00  0.00     0.064 A 
ATOM     51  C   UNL     1       6.936  -6.714  -7.842  1.00  0.00     0.173 A 
ATOM     52  C   UNL     1       4.603  -6.223  -8.099  1.00  0.00     0.173 A 
ATOM     53  F   UNL     1       8.216  -6.327  -7.747  1.00  0.00    -0.203 F 
ATOM     54  C   UNL     1       6.643  -8.078  -7.835  1.00  0.00     0.198 A 
ATOM     55  C   UNL     1       4.308  -7.584  -8.058  1.00  0.00     0.198 A 
ATOM     56  F   UNL     1       3.591  -5.354  -8.242  1.00  0.00    -0.203 F 
ATOM     57  F   UNL     1       7.636  -8.974  -7.749  1.00  0.00    -0.200 F 
ATOM     58  C   UNL     1       5.329  -8.512  -7.937  1.00  0.00     0.200 A 
ATOM     59  F   UNL     1       3.035  -7.994  -8.141  1.00  0.00    -0.200 F 
ATOM     60  F   UNL     1       5.049  -9.822  -7.929  1.00  0.00    -0.200 F 
ENDBRANCH  26  50
BRANCH  38  61
ATOM     61  C   UNL     1       9.411  -1.586 -12.362  1.00  0.00     0.064 A 
ATOM     62  C   UNL     1       8.730  -1.877 -13.551  1.00  0.00     0.173 A 
ATOM     63  C   UNL     1      10.811  -1.506 -12.399  1.00  0.00     0.173 A 
ATOM     64  F   UNL     1       7.392  -1.981 -13.556  1.00  0.00    -0.203 F 
ATOM     65  C   UNL     1       9.428  -2.101 -14.732  1.00  0.00     0.198 A 
ATOM     66  C   UNL     1      11.503  -1.696 -13.588  1.00  0.00     0.198 A 
ATOM     67  F   UNL     1      11.502  -1.222 -11.284  1.00  0.00    -0.203 F 
ATOM     68  F   UNL     1       8.763  -2.424 -15.850  1.00  0.00    -0.200 F 
ATOM     69  C   UNL     1      10.812  -1.999 -14.752  1.00  0.00     0.200 A 
ATOM     70  F   UNL     1      12.838  -1.581 -13.609  1.00  0.00    -0.200 F 
ATOM     71  F   UNL     1      11.482  -2.201 -15.894  1.00  0.00    -0.200 F 
ENDBRANCH  38  61
ENDBRANCH  12  13
ENDBRANCH   5   7
ENDBRANCH   4   5
ENDBRANCH   3   4
ENDBRANCH   2   3
ENDBRANCH   1   2
BRANCH   1  72
ATOM     72  C   UNL     1       2.721  -2.092   0.570  1.00  0.00     0.202 C 
BRANCH  72  73
ATOM     73  C   UNL     1       2.654  -3.500   1.159  1.00  0.00     0.261 C 
BRANCH  73  74
ATOM     74  O   UNL     1       3.036  -3.439   2.543  1.00  0.00    -0.463 OA
BRANCH  74  75
ATOM     75  C   UNL     1       4.364  -3.360   2.793  1.00  0.00     0.310 C 
ATOM     76  O   UNL     1       5.252  -3.671   2.004  1.00  0.00    -0.252 OA
BRANCH  75  77
ATOM     77  C   UNL     1       4.656  -2.853   4.191  1.00  0.00     0.112 C 
ATOM     78  C   UNL     1       4.256  -3.932   5.196  1.00  0.00     0.016 C 
ATOM     79  C   UNL     1       4.164  -1.424   4.583  1.00  0.00     0.066 C 
ATOM     80  C   UNL     1       4.742  -3.566   6.590  1.00  0.00     0.001 C 
ATOM     81  C   UNL     1       4.620  -1.117   6.018  1.00  0.00     0.016 C 
ATOM     82  C   UNL     1       4.227  -2.198   7.017  1.00  0.00     0.001 C 
BRANCH  79  83
ATOM     83  S   UNL     1       2.333  -1.179   4.410  1.00  0.00    -0.122 SA
BRANCH  83  84
ATOM     84  C   UNL     1       2.020   0.584   4.485  1.00  0.00     0.011 A 
ATOM     85  C   UNL     1       2.970   1.585   4.662  1.00  0.00     0.035 A 
ATOM     86  C   UNL     1       0.676   0.967   4.398  1.00  0.00     0.035 A 
ATOM     87  C   UNL     1       2.536   2.897   4.817  1.00  0.00     0.112 A 
ATOM     88  C   UNL     1       0.341   2.304   4.548  1.00  0.00     0.112 A 
ATOM     89  N   UNL     1       1.244   3.277   4.773  1.00  0.00    -0.265 NA
ENDBRANCH  83  84
ENDBRANCH  79  83
ENDBRANCH  75  77
ENDBRANCH  74  75
ENDBRANCH  73  74
ENDBRANCH  72  73
ENDBRANCH   1  72
TORSDOF 16
