REMARK SMILES C[C@@H]1Cc2ccccc2N1C(=O)CSc1ncc(C(=O)OCCOCCOC(=O)c2ccc(-c3c4nc(c(-c5c(F)c(F)c(F)c(F)c5F)c5ccc([nH]5)c(-c5c(F)c(F)c(F)c(F)c5F)c5nc(c(-c6c(F)c(F)c(F)c(F)c6F)c6ccc3[nH]6)C=C5)C=C4)cc2)n1-c1ccc(F)cc1
REMARK SMILES IDX 23 1 22 2 21 3 19 4 20 5 18 6 15 7 16 8 93 9 17 10 14 11
REMARK SMILES IDX 13 12 11 13 12 14 10 15 1 16 2 17 3 18 4 19 9 20 5 21 8 22
REMARK SMILES IDX 6 23 7 24 94 25 95 26 100 27 96 28 99 29 97 30 98 31 24 32
REMARK SMILES IDX 25 33 26 34 27 35 28 36 29 37 30 38 31 39 92 40 32 41 91 42
REMARK SMILES IDX 33 43 34 44 35 45 85 46 36 47 90 48 84 49 86 50 37 51 89 52
REMARK SMILES IDX 83 53 82 54 38 56 70 57 50 58 69 59 51 60 54 61 68 62 87 63
REMARK SMILES IDX 52 64 53 65 67 67 88 68 55 69 39 70 40 71 48 72 41 73 42 74
REMARK SMILES IDX 46 75 49 76 43 77 44 78 47 79 45 80 71 81 72 82 80 83 73 84
REMARK SMILES IDX 74 85 78 86 81 87 75 88 76 89 79 90 77 91 56 92 57 93 65 94
REMARK SMILES IDX 58 95 59 96 63 97 66 98 60 99 61 100 64 101 62 102
REMARK H PARENT 86 55 54 66
REMARK Flexibility Score: inf
ROOT
ATOM      1  C   UNL     1      -8.106   3.231  -4.963  1.00  0.00     0.202 C 
ENDROOT
BRANCH   1   2
ATOM      2  C   UNL     1      -7.106   2.784  -6.033  1.00  0.00     0.261 C 
BRANCH   2   3
ATOM      3  O   UNL     1      -5.827   2.456  -5.479  1.00  0.00    -0.459 OA
BRANCH   3   4
ATOM      4  C   UNL     1      -4.901   3.431  -5.668  1.00  0.00     0.357 C 
ATOM      5  O   UNL     1      -5.071   4.433  -6.360  1.00  0.00    -0.244 OA
BRANCH   4   6
ATOM      6  C   UNL     1      -3.716   3.169  -4.914  1.00  0.00     0.152 A 
ATOM      7  C   UNL     1      -1.708   3.542  -4.065  1.00  0.00     0.173 A 
ATOM      8  N   UNL     1      -1.859   2.241  -3.984  1.00  0.00    -0.230 NA
ATOM      9  N   UNL     1      -2.863   4.164  -4.482  1.00  0.00    -0.282 N 
ATOM     10  C   UNL     1      -3.118   1.998  -4.487  1.00  0.00     0.148 A 
BRANCH   7  11
ATOM     11  S   UNL     1      -0.312   4.461  -3.670  1.00  0.00    -0.078 SA
BRANCH  11  12
ATOM     12  C   UNL     1       1.029   3.276  -3.542  1.00  0.00     0.178 C 
BRANCH  12  13
ATOM     13  C   UNL     1       0.972   2.296  -2.391  1.00  0.00     0.237 C 
ATOM     14  O   UNL     1       1.209   1.105  -2.654  1.00  0.00    -0.274 OA
BRANCH  13  15
ATOM     15  N   UNL     1       0.769   2.676  -1.076  1.00  0.00    -0.308 N 
ATOM     16  C   UNL     1      -0.641   0.713  -0.312  1.00  0.00     0.032 C 
ATOM     17  C   UNL     1       0.559   1.627  -0.043  1.00  0.00     0.092 C 
ATOM     18  C   UNL     1       0.377   2.348   1.308  1.00  0.00     0.063 C 
ATOM     19  C   UNL     1       0.474   3.786   0.916  1.00  0.00    -0.022 A 
ATOM     20  C   UNL     1       0.793   3.934  -0.435  1.00  0.00     0.047 A 
ATOM     21  C   UNL     1       0.325   4.878   1.764  1.00  0.00     0.006 A 
ATOM     22  C   UNL     1       1.107   5.197  -0.911  1.00  0.00     0.026 A 
ATOM     23  C   UNL     1       0.532   6.154   1.249  1.00  0.00     0.000 A 
ATOM     24  C   UNL     1       0.942   6.311  -0.077  1.00  0.00     0.002 A 
ENDBRANCH  13  15
ENDBRANCH  12  13
ENDBRANCH  11  12
ENDBRANCH   7  11
BRANCH   9  25
ATOM     25  C   UNL     1      -3.192   5.534  -4.371  1.00  0.00     0.049 A 
ATOM     26  C   UNL     1      -2.672   6.449  -5.287  1.00  0.00     0.030 A 
ATOM     27  C   UNL     1      -4.087   5.933  -3.370  1.00  0.00     0.030 A 
ATOM     28  C   UNL     1      -3.075   7.782  -5.207  1.00  0.00     0.041 A 
ATOM     29  C   UNL     1      -4.489   7.265  -3.304  1.00  0.00     0.041 A 
ATOM     30  C   UNL     1      -3.982   8.176  -4.225  1.00  0.00     0.123 A 
ATOM     31  F   UNL     1      -4.370   9.456  -4.163  1.00  0.00    -0.207 F 
ENDBRANCH   9  25
ENDBRANCH   4   6
ENDBRANCH   3   4
ENDBRANCH   2   3
ENDBRANCH   1   2
BRANCH   1  32
ATOM     32  O   UNL     1      -7.719   4.235  -4.032  1.00  0.00    -0.374 OA
BRANCH  32  33
ATOM     33  C   UNL     1      -6.909   3.839  -2.921  1.00  0.00     0.202 C 
BRANCH  33  34
ATOM     34  C   UNL     1      -7.525   2.944  -1.833  1.00  0.00     0.261 C 
BRANCH  34  35
ATOM     35  O   UNL     1      -7.766   1.627  -2.340  1.00  0.00    -0.460 OA
BRANCH  35  36
ATOM     36  C   UNL     1      -8.962   1.089  -1.981  1.00  0.00     0.338 C 
ATOM     37  O   UNL     1      -9.610   1.323  -0.977  1.00  0.00    -0.246 OA
BRANCH  36  38
ATOM     38  C   UNL     1      -9.508   0.519  -3.228  1.00  0.00     0.060 A 
ATOM     39  C   UNL     1      -8.706  -0.281  -4.048  1.00  0.00     0.016 A 
ATOM     40  C   UNL     1     -10.686   1.109  -3.715  1.00  0.00     0.016 A 
ATOM     41  C   UNL     1      -9.046  -0.414  -5.388  1.00  0.00     0.010 A 
ATOM     42  C   UNL     1     -11.013   0.985  -5.061  1.00  0.00     0.010 A 
ATOM     43  C   UNL     1     -10.174   0.252  -5.904  1.00  0.00    -0.014 A 
BRANCH  43  44
ATOM     44  C   UNL     1     -10.510   0.000  -7.306  1.00  0.00     0.031 A 
ATOM     45  C   UNL     1     -10.923  -1.406  -7.582  1.00  0.00     0.074 A 
ATOM     46  C   UNL     1     -10.611   0.913  -8.292  1.00  0.00     0.049 A 
ATOM     47  N   UNL     1     -10.420  -2.249  -8.425  1.00  0.00    -0.248 NA
ATOM     48  C   UNL     1     -12.004  -1.952  -6.747  1.00  0.00     0.031 C 
ATOM     49  C   UNL     1     -10.594   2.372  -8.202  1.00  0.00     0.029 A 
ATOM     50  N   UNL     1     -10.852   0.685  -9.618  1.00  0.00    -0.354 N 
ATOM     51  C   UNL     1     -11.191  -3.404  -8.313  1.00  0.00     0.074 A 
ATOM     52  C   UNL     1     -12.092  -3.198  -7.209  1.00  0.00     0.031 C 
ATOM     53  C   UNL     1     -11.011   2.893  -9.381  1.00  0.00     0.029 A 
ATOM     54  C   UNL     1     -11.214   1.814 -10.336  1.00  0.00     0.049 A 
ATOM     55  H   UNL     1     -10.776  -0.206 -10.029  1.00  0.00     0.167 HD
ATOM     56  C   UNL     1     -11.141  -4.415  -9.221  1.00  0.00     0.037 A 
ATOM     57  C   UNL     1     -11.722   1.840 -11.592  1.00  0.00     0.037 A 
ATOM     58  C   UNL     1      -9.944  -4.382 -10.010  1.00  0.00     0.049 A 
ATOM     59  C   UNL     1     -11.395   0.551 -12.251  1.00  0.00     0.074 A 
ATOM     60  C   UNL     1      -8.595  -4.492  -9.732  1.00  0.00     0.029 A 
ATOM     61  N   UNL     1     -10.012  -3.930 -11.303  1.00  0.00    -0.354 N 
ATOM     62  N   UNL     1     -10.203   0.191 -12.633  1.00  0.00    -0.248 NA
ATOM     63  C   UNL     1     -12.380  -0.518 -12.182  1.00  0.00     0.031 C 
ATOM     64  C   UNL     1      -7.947  -3.650 -10.682  1.00  0.00     0.029 A 
ATOM     65  C   UNL     1      -8.945  -3.086 -11.475  1.00  0.00     0.049 A 
ATOM     66  H   UNL     1     -10.693  -4.165 -11.975  1.00  0.00     0.167 HD
ATOM     67  C   UNL     1     -10.180  -1.184 -12.465  1.00  0.00     0.074 A 
ATOM     68  C   UNL     1     -11.574  -1.574 -12.297  1.00  0.00     0.031 C 
ATOM     69  C   UNL     1      -9.015  -1.843 -12.203  1.00  0.00     0.037 A 
BRANCH  56  70
ATOM     70  C   UNL     1     -12.306  -5.307  -9.550  1.00  0.00     0.064 A 
ATOM     71  C   UNL     1     -12.100  -6.489 -10.287  1.00  0.00     0.173 A 
ATOM     72  C   UNL     1     -13.650  -4.906  -9.396  1.00  0.00     0.173 A 
ATOM     73  F   UNL     1     -10.859  -6.939 -10.525  1.00  0.00    -0.203 F 
ATOM     74  C   UNL     1     -13.162  -7.192 -10.862  1.00  0.00     0.198 A 
ATOM     75  C   UNL     1     -14.711  -5.641  -9.923  1.00  0.00     0.198 A 
ATOM     76  F   UNL     1     -13.977  -3.740  -8.824  1.00  0.00    -0.203 F 
ATOM     77  F   UNL     1     -12.911  -8.250 -11.645  1.00  0.00    -0.200 F 
ATOM     78  C   UNL     1     -14.465  -6.769 -10.679  1.00  0.00     0.200 A 
ATOM     79  F   UNL     1     -15.966  -5.204  -9.752  1.00  0.00    -0.200 F 
ATOM     80  F   UNL     1     -15.480  -7.415 -11.268  1.00  0.00    -0.200 F 
ENDBRANCH  56  70
BRANCH  57  81
ATOM     81  C   UNL     1     -12.717   2.774 -12.173  1.00  0.00     0.064 A 
ATOM     82  C   UNL     1     -12.915   2.847 -13.563  1.00  0.00     0.173 A 
ATOM     83  C   UNL     1     -13.690   3.398 -11.369  1.00  0.00     0.173 A 
ATOM     84  F   UNL     1     -12.062   2.240 -14.401  1.00  0.00    -0.203 F 
ATOM     85  C   UNL     1     -14.035   3.481 -14.112  1.00  0.00     0.198 A 
ATOM     86  C   UNL     1     -14.799   4.041 -11.919  1.00  0.00     0.198 A 
ATOM     87  F   UNL     1     -13.637   3.312 -10.033  1.00  0.00    -0.203 F 
ATOM     88  F   UNL     1     -14.227   3.468 -15.439  1.00  0.00    -0.200 F 
ATOM     89  C   UNL     1     -14.981   4.068 -13.289  1.00  0.00     0.200 A 
ATOM     90  F   UNL     1     -15.725   4.574 -11.109  1.00  0.00    -0.200 F 
ATOM     91  F   UNL     1     -16.085   4.620 -13.810  1.00  0.00    -0.200 F 
ENDBRANCH  57  81
BRANCH  69  92
ATOM     92  C   UNL     1      -7.726  -1.100 -12.398  1.00  0.00     0.064 A 
ATOM     93  C   UNL     1      -7.369   0.038 -11.655  1.00  0.00     0.173 A 
ATOM     94  C   UNL     1      -6.758  -1.649 -13.250  1.00  0.00     0.173 A 
ATOM     95  F   UNL     1      -8.201   0.554 -10.740  1.00  0.00    -0.203 F 
ATOM     96  C   UNL     1      -6.112   0.624 -11.796  1.00  0.00     0.198 A 
ATOM     97  C   UNL     1      -5.491  -1.083 -13.361  1.00  0.00     0.198 A 
ATOM     98  F   UNL     1      -7.025  -2.771 -13.937  1.00  0.00    -0.203 F 
ATOM     99  F   UNL     1      -5.796   1.714 -11.081  1.00  0.00    -0.200 F 
ATOM    100  C   UNL     1      -5.172   0.058 -12.642  1.00  0.00     0.200 A 
ATOM    101  F   UNL     1      -4.567  -1.663 -14.139  1.00  0.00    -0.200 F 
ATOM    102  F   UNL     1      -3.948   0.594 -12.741  1.00  0.00    -0.200 F 
ENDBRANCH  69  92
ENDBRANCH  43  44
ENDBRANCH  36  38
ENDBRANCH  35  36
ENDBRANCH  34  35
ENDBRANCH  33  34
ENDBRANCH  32  33
ENDBRANCH   1  32
TORSDOF 19
