REMARK SMILES O=C(OCCOCCOC(=O)[C@H]1O[C@@H](Oc2c(-c3cc(O)c(O)c(O)c3)oc3cc(O)cc(O)c3c2=O)[C@H](O)[C@@H](O)[C@@H]1O)c1ccc(-c2c3nc(c(-c4c(F)c(F)c(F)c(F)c4F)c4ccc([nH]4)c(-c4c(F)c(F)c(F)c(F)c4F)c4nc(c(-c5c(F)c(F)c(F)c(F)c5F)c5ccc2[nH]5)C=C4)C=C3)cc1
REMARK SMILES IDX 7 1 6 2 5 3 4 4 3 5 2 6 1 7 44 8 45 9 106 10 46 11 105 12
REMARK SMILES IDX 47 13 48 14 49 15 99 16 50 17 104 18 98 19 100 20 51 21
REMARK SMILES IDX 103 22 97 23 96 24 52 26 84 27 64 28 83 29 65 30 68 31 82 32
REMARK SMILES IDX 101 33 66 34 67 35 81 37 102 38 69 39 53 40 54 41 62 42
REMARK SMILES IDX 55 43 56 44 60 45 63 46 57 47 58 48 61 49 59 50 85 51 86 52
REMARK SMILES IDX 94 53 87 54 88 55 92 56 95 57 89 58 90 59 93 60 91 61 70 62
REMARK SMILES IDX 71 63 79 64 72 65 73 66 77 67 80 68 74 69 75 70 78 71 76 72
REMARK SMILES IDX 8 73 9 74 10 75 11 76 12 77 13 78 42 79 14 80 40 81 38 82
REMARK SMILES IDX 43 83 15 85 16 86 17 87 36 88 27 89 35 90 37 91 28 92 33 93
REMARK SMILES IDX 29 94 32 95 30 96 18 97 19 98 26 99 20 100 24 101 22 102
REMARK SMILES IDX 21 103 25 105 23 107 34 109 31 111 41 113 39 115
REMARK H PARENT 100 25 68 36 43 84 21 104 25 106 23 108 34 110 31 112 41 114
REMARK H PARENT 39 116
REMARK Flexibility Score: inf
ROOT
ATOM      1  C   UNL     1       4.069   4.631  -3.731  1.00  0.00     0.202 C 
ENDROOT
BRANCH   1   2
ATOM      2  O   UNL     1       4.426   3.336  -3.237  1.00  0.00    -0.374 OA
BRANCH   2   3
ATOM      3  C   UNL     1       5.750   3.207  -2.700  1.00  0.00     0.202 C 
BRANCH   3   4
ATOM      4  C   UNL     1       6.813   2.751  -3.701  1.00  0.00     0.261 C 
BRANCH   4   5
ATOM      5  O   UNL     1       6.928   3.706  -4.770  1.00  0.00    -0.460 OA
BRANCH   5   6
ATOM      6  C   UNL     1       6.251   3.724  -5.939  1.00  0.00     0.338 C 
ATOM      7  O   UNL     1       6.368   4.698  -6.679  1.00  0.00    -0.246 OA
BRANCH   6   8
ATOM      8  C   UNL     1       5.384   2.599  -6.395  1.00  0.00     0.060 A 
ATOM      9  C   UNL     1       4.730   1.711  -5.545  1.00  0.00     0.016 A 
ATOM     10  C   UNL     1       5.157   2.472  -7.775  1.00  0.00     0.016 A 
ATOM     11  C   UNL     1       3.913   0.716  -6.013  1.00  0.00     0.010 A 
ATOM     12  C   UNL     1       4.297   1.485  -8.268  1.00  0.00     0.010 A 
ATOM     13  C   UNL     1       3.676   0.610  -7.373  1.00  0.00    -0.014 A 
BRANCH  13  14
ATOM     14  C   UNL     1       2.865  -0.546  -7.754  1.00  0.00     0.031 A 
ATOM     15  C   UNL     1       3.583  -1.759  -8.242  1.00  0.00     0.074 A 
ATOM     16  C   UNL     1       1.576  -0.568  -7.368  1.00  0.00     0.049 A 
ATOM     17  N   UNL     1       3.101  -2.920  -8.582  1.00  0.00    -0.248 NA
ATOM     18  C   UNL     1       5.052  -1.663  -8.326  1.00  0.00     0.031 C 
ATOM     19  C   UNL     1       0.883   0.532  -6.683  1.00  0.00     0.029 A 
ATOM     20  N   UNL     1       0.643  -1.563  -7.422  1.00  0.00    -0.354 N 
ATOM     21  C   UNL     1       4.200  -3.683  -8.942  1.00  0.00     0.074 A 
ATOM     22  C   UNL     1       5.377  -2.861  -8.786  1.00  0.00     0.031 C 
ATOM     23  C   UNL     1      -0.357   0.137  -6.359  1.00  0.00     0.029 A 
ATOM     24  C   UNL     1      -0.571  -1.200  -6.893  1.00  0.00     0.049 A 
ATOM     25  H   UNL     1       0.823  -2.453  -7.803  1.00  0.00     0.167 HD
ATOM     26  C   UNL     1       4.204  -4.964  -9.370  1.00  0.00     0.037 A 
ATOM     27  C   UNL     1      -1.735  -1.872  -6.899  1.00  0.00     0.037 A 
ATOM     28  C   UNL     1       3.000  -5.736  -9.509  1.00  0.00     0.049 A 
ATOM     29  C   UNL     1      -1.726  -3.242  -7.523  1.00  0.00     0.074 A 
ATOM     30  C   UNL     1       2.832  -6.996 -10.047  1.00  0.00     0.029 A 
ATOM     31  N   UNL     1       1.746  -5.302  -9.091  1.00  0.00    -0.354 N 
ATOM     32  N   UNL     1      -0.709  -3.928  -7.993  1.00  0.00    -0.248 NA
ATOM     33  C   UNL     1      -3.017  -3.925  -7.634  1.00  0.00     0.031 C 
ATOM     34  C   UNL     1       1.468  -7.304  -9.997  1.00  0.00     0.029 A 
ATOM     35  C   UNL     1       0.794  -6.263  -9.372  1.00  0.00     0.049 A 
ATOM     36  H   UNL     1       1.564  -4.436  -8.658  1.00  0.00     0.167 HD
ATOM     37  C   UNL     1      -1.233  -5.128  -8.445  1.00  0.00     0.074 A 
ATOM     38  C   UNL     1      -2.655  -5.087  -8.155  1.00  0.00     0.031 C 
ATOM     39  C   UNL     1      -0.610  -6.168  -9.056  1.00  0.00     0.037 A 
BRANCH  26  40
ATOM     40  C   UNL     1       5.521  -5.537  -9.794  1.00  0.00     0.064 A 
ATOM     41  C   UNL     1       6.526  -5.861  -8.870  1.00  0.00     0.173 A 
ATOM     42  C   UNL     1       5.799  -5.719 -11.157  1.00  0.00     0.173 A 
ATOM     43  F   UNL     1       6.326  -5.665  -7.558  1.00  0.00    -0.203 F 
ATOM     44  C   UNL     1       7.769  -6.324  -9.298  1.00  0.00     0.198 A 
ATOM     45  C   UNL     1       7.032  -6.208 -11.579  1.00  0.00     0.198 A 
ATOM     46  F   UNL     1       4.880  -5.406 -12.082  1.00  0.00    -0.203 F 
ATOM     47  F   UNL     1       8.736  -6.568  -8.403  1.00  0.00    -0.200 F 
ATOM     48  C   UNL     1       8.018  -6.503 -10.651  1.00  0.00     0.200 A 
ATOM     49  F   UNL     1       7.271  -6.377 -12.887  1.00  0.00    -0.200 F 
ATOM     50  F   UNL     1       9.216  -6.942 -11.061  1.00  0.00    -0.200 F 
ENDBRANCH  26  40
BRANCH  27  51
ATOM     51  C   UNL     1      -2.988  -1.234  -6.410  1.00  0.00     0.064 A 
ATOM     52  C   UNL     1      -3.741  -1.788  -5.366  1.00  0.00     0.173 A 
ATOM     53  C   UNL     1      -3.492  -0.073  -7.023  1.00  0.00     0.173 A 
ATOM     54  F   UNL     1      -3.319  -2.905  -4.755  1.00  0.00    -0.203 F 
ATOM     55  C   UNL     1      -4.961  -1.232  -4.982  1.00  0.00     0.198 A 
ATOM     56  C   UNL     1      -4.691   0.504  -6.612  1.00  0.00     0.198 A 
ATOM     57  F   UNL     1      -2.821   0.504  -8.030  1.00  0.00    -0.203 F 
ATOM     58  F   UNL     1      -5.694  -1.825  -4.029  1.00  0.00    -0.200 F 
ATOM     59  C   UNL     1      -5.434  -0.085  -5.602  1.00  0.00     0.200 A 
ATOM     60  F   UNL     1      -5.132   1.621  -7.206  1.00  0.00    -0.200 F 
ATOM     61  F   UNL     1      -6.611   0.442  -5.240  1.00  0.00    -0.200 F 
ENDBRANCH  27  51
BRANCH  39  62
ATOM     62  C   UNL     1      -1.471  -7.341  -9.411  1.00  0.00     0.064 A 
ATOM     63  C   UNL     1      -2.425  -7.270 -10.436  1.00  0.00     0.173 A 
ATOM     64  C   UNL     1      -1.320  -8.557  -8.728  1.00  0.00     0.173 A 
ATOM     65  F   UNL     1      -2.615  -6.122 -11.104  1.00  0.00    -0.203 F 
ATOM     66  C   UNL     1      -3.224  -8.366 -10.740  1.00  0.00     0.198 A 
ATOM     67  C   UNL     1      -2.093  -9.662  -9.062  1.00  0.00     0.198 A 
ATOM     68  F   UNL     1      -0.414  -8.674  -7.746  1.00  0.00    -0.203 F 
ATOM     69  F   UNL     1      -4.176  -8.258 -11.677  1.00  0.00    -0.200 F 
ATOM     70  C   UNL     1      -3.053  -9.562 -10.059  1.00  0.00     0.200 A 
ATOM     71  F   UNL     1      -1.913 -10.822  -8.417  1.00  0.00    -0.200 F 
ATOM     72  F   UNL     1      -3.821 -10.619 -10.357  1.00  0.00    -0.200 F 
ENDBRANCH  39  62
ENDBRANCH  13  14
ENDBRANCH   6   8
ENDBRANCH   5   6
ENDBRANCH   4   5
ENDBRANCH   3   4
ENDBRANCH   2   3
ENDBRANCH   1   2
BRANCH   1  73
ATOM     73  C   UNL     1       3.009   5.246  -2.825  1.00  0.00     0.261 C 
BRANCH  73  74
ATOM     74  O   UNL     1       3.573   5.304  -1.512  1.00  0.00    -0.461 OA
BRANCH  74  75
ATOM     75  C   UNL     1       3.363   4.191  -0.761  1.00  0.00     0.338 C 
ATOM     76  O   UNL     1       2.491   3.343  -0.952  1.00  0.00    -0.249 OA
BRANCH  75  77
ATOM     77  C   UNL     1       4.356   4.111   0.387  1.00  0.00     0.263 C 
ATOM     78  O   UNL     1       5.751   3.983   0.051  1.00  0.00    -0.322 OA
ATOM     79  C   UNL     1       4.216   5.374   1.223  1.00  0.00     0.186 C 
ATOM     80  C   UNL     1       6.522   3.570   1.184  1.00  0.00     0.340 C 
ATOM     81  C   UNL     1       4.862   5.083   2.570  1.00  0.00     0.181 C 
ATOM     82  C   UNL     1       6.254   4.466   2.415  1.00  0.00     0.214 C 
BRANCH  79  83
ATOM     83  O   UNL     1       2.880   5.826   1.456  1.00  0.00    -0.387 OA
ATOM     84  H   UNL     1       2.396   5.154   1.962  1.00  0.00     0.211 HD
ENDBRANCH  79  83
BRANCH  80  85
ATOM     85  O   UNL     1       7.958   3.398   0.981  1.00  0.00    -0.454 OA
BRANCH  85  86
ATOM     86  C   UNL     1       8.778   4.122   0.128  1.00  0.00     0.214 A 
ATOM     87  C   UNL     1       9.288   5.357   0.357  1.00  0.00     0.181 A 
ATOM     88  C   UNL     1       9.457   3.342  -0.977  1.00  0.00     0.239 A 
ATOM     89  O   UNL     1      10.196   6.014  -0.444  1.00  0.00    -0.452 OA
ATOM     90  C   UNL     1      10.600   3.986  -1.695  1.00  0.00     0.111 A 
ATOM     91  O   UNL     1       9.076   2.205  -1.240  1.00  0.00    -0.285 OA
ATOM     92  C   UNL     1      10.889   5.309  -1.380  1.00  0.00     0.146 A 
ATOM     93  C   UNL     1      11.410   3.352  -2.654  1.00  0.00     0.134 A 
ATOM     94  C   UNL     1      11.931   6.003  -2.004  1.00  0.00     0.094 A 
ATOM     95  C   UNL     1      12.463   4.039  -3.285  1.00  0.00     0.093 A 
ATOM     96  C   UNL     1      12.710   5.366  -2.954  1.00  0.00     0.123 A 
BRANCH  87  97
ATOM     97  C   UNL     1       8.928   6.212   1.490  1.00  0.00     0.029 A 
ATOM     98  C   UNL     1       8.165   7.364   1.226  1.00  0.00     0.062 A 
ATOM     99  C   UNL     1       9.222   5.837   2.814  1.00  0.00     0.062 A 
ATOM    100  C   UNL     1       7.565   8.034   2.278  1.00  0.00     0.162 A 
ATOM    101  C   UNL     1       8.597   6.516   3.854  1.00  0.00     0.162 A 
ATOM    102  C   UNL     1       7.742   7.580   3.580  1.00  0.00     0.200 A 
BRANCH 100 103
ATOM    103  O   UNL     1       6.695   9.048   2.006  1.00  0.00    -0.504 OA
ATOM    104  H   UNL     1       6.584   9.346   1.125  1.00  0.00     0.293 HD
ENDBRANCH 100 103
BRANCH 101 105
ATOM    105  O   UNL     1       8.666   6.005   5.118  1.00  0.00    -0.504 OA
ATOM    106  H   UNL     1       8.248   6.453   5.828  1.00  0.00     0.293 HD
ENDBRANCH 101 105
BRANCH 102 107
ATOM    107  O   UNL     1       6.881   8.006   4.558  1.00  0.00    -0.502 OA
ATOM    108  H   UNL     1       6.298   8.720   4.390  1.00  0.00     0.293 HD
ENDBRANCH 102 107
ENDBRANCH  87  97
BRANCH  93 109
ATOM    109  O   UNL     1      11.203   2.044  -2.993  1.00  0.00    -0.507 OA
ATOM    110  H   UNL     1      11.749   1.634  -3.634  1.00  0.00     0.293 HD
ENDBRANCH  93 109
BRANCH  96 111
ATOM    111  O   UNL     1      13.713   6.084  -3.533  1.00  0.00    -0.508 OA
ATOM    112  H   UNL     1      13.852   6.977  -3.286  1.00  0.00     0.293 HD
ENDBRANCH  96 111
ENDBRANCH  85  86
ENDBRANCH  80  85
BRANCH  81 113
ATOM    113  O   UNL     1       4.955   6.321   3.326  1.00  0.00    -0.387 OA
ATOM    114  H   UNL     1       5.511   6.952   2.844  1.00  0.00     0.211 HD
ENDBRANCH  81 113
BRANCH  82 115
ATOM    115  O   UNL     1       6.609   3.792   3.626  1.00  0.00    -0.384 OA
ATOM    116  H   UNL     1       6.013   3.039   3.764  1.00  0.00     0.211 HD
ENDBRANCH  82 115
ENDBRANCH  75  77
ENDBRANCH  74  75
ENDBRANCH  73  74
ENDBRANCH   1  73
TORSDOF 25
