REMARK SMILES CC1=C(C)C[C@@H](C(=O)OCCOCCOC(=O)c2ccc(-c3c4nc(c(-c5c(F)c(F)c(F)c(F)c5F)c5ccc([nH]5)c(-c5c(F)c(F)c(F)c(F)c5F)c5nc(c(-c6c(F)c(F)c(F)c(F)c6F)c6ccc3[nH]6)C=C5)C=C4)cc2)[C@@H](C(=O)N2CCN(c3cccc(C(F)(F)F)c3)CC2)C1
REMARK SMILES IDX 11 1 10 2 9 3 7 4 8 5 6 6 1 7 2 8 3 9 100 10 4 11 5 12 81 13
REMARK SMILES IDX 82 14 83 15 84 16 85 17 99 18 86 19 98 20 87 21 88 22 89 23
REMARK SMILES IDX 97 24 90 25 92 26 91 27 93 28 94 29 95 30 96 31 12 32 13 33
REMARK SMILES IDX 14 34 15 35 16 36 17 37 18 38 19 39 80 40 20 41 79 42 21 43
REMARK SMILES IDX 22 44 23 45 73 46 24 47 78 48 72 49 74 50 25 51 77 52 71 53
REMARK SMILES IDX 70 54 26 56 58 57 38 58 57 59 39 60 42 61 56 62 75 63 40 64
REMARK SMILES IDX 41 65 55 67 76 68 43 69 27 70 28 71 36 72 29 73 30 74 34 75
REMARK SMILES IDX 37 76 31 77 32 78 35 79 33 80 59 81 60 82 68 83 61 84 62 85
REMARK SMILES IDX 66 86 69 87 63 88 64 89 67 90 65 91 44 92 45 93 53 94 46 95
REMARK SMILES IDX 47 96 51 97 54 98 48 99 49 100 52 101 50 102
REMARK H PARENT 74 55 42 66
REMARK Flexibility Score: inf
ROOT
ATOM      1  C   UNL     1       2.969  -0.757   6.433  1.00  0.00     0.202 C 
ENDROOT
BRANCH   1   2
ATOM      2  C   UNL     1       2.663  -1.946   5.520  1.00  0.00     0.261 C 
BRANCH   2   3
ATOM      3  O   UNL     1       1.757  -1.575   4.454  1.00  0.00    -0.463 OA
BRANCH   3   4
ATOM      4  C   UNL     1       0.466  -1.964   4.605  1.00  0.00     0.310 C 
ATOM      5  O   UNL     1       0.037  -2.595   5.565  1.00  0.00    -0.252 OA
BRANCH   4   6
ATOM      6  C   UNL     1      -0.394  -1.672   3.381  1.00  0.00     0.116 C 
ATOM      7  C   UNL     1       0.936  -0.177  -0.576  1.00  0.00     0.039 C 
ATOM      8  C   UNL     1       0.360  -0.821   0.654  1.00  0.00    -0.074 C 
ATOM      9  C   UNL     1       0.630  -2.085   1.035  1.00  0.00    -0.073 C 
ATOM     10  C   UNL     1      -0.660  -0.024   1.420  1.00  0.00     0.045 C 
ATOM     11  C   UNL     1       1.473  -3.050   0.245  1.00  0.00     0.039 C 
ATOM     12  C   UNL     1      -0.012  -2.671   2.270  1.00  0.00     0.046 C 
ATOM     13  C   UNL     1      -0.576  -0.200   2.940  1.00  0.00     0.097 C 
BRANCH  13  14
ATOM     14  C   UNL     1       0.320   0.813   3.645  1.00  0.00     0.227 C 
ATOM     15  O   UNL     1       0.296   0.944   4.865  1.00  0.00    -0.275 OA
ATOM     16  N   UNL     1       1.041   1.683   2.854  1.00  0.00    -0.339 N 
ATOM     17  C   UNL     1       2.493   1.663   3.018  1.00  0.00     0.141 C 
ATOM     18  C   UNL     1       0.494   3.040   2.747  1.00  0.00     0.141 C 
ATOM     19  C   UNL     1       3.221   2.461   1.919  1.00  0.00     0.138 C 
ATOM     20  C   UNL     1       1.179   3.858   1.643  1.00  0.00     0.138 C 
ATOM     21  N   UNL     1       2.639   3.809   1.812  1.00  0.00    -0.368 N 
BRANCH  21  22
ATOM     22  C   UNL     1       3.425   4.937   1.720  1.00  0.00     0.037 A 
ATOM     23  C   UNL     1       4.641   4.937   1.024  1.00  0.00     0.026 A 
ATOM     24  C   UNL     1       3.074   6.115   2.398  1.00  0.00     0.039 A 
ATOM     25  C   UNL     1       5.482   6.054   1.015  1.00  0.00     0.003 A 
ATOM     26  C   UNL     1       3.921   7.239   2.430  1.00  0.00     0.058 A 
ATOM     27  C   UNL     1       5.126   7.199   1.720  1.00  0.00     0.013 A 
BRANCH  26  28
ATOM     28  C   UNL     1       3.558   8.459   3.236  1.00  0.00     0.416 C 
ATOM     29  F   UNL     1       4.585   8.884   4.027  1.00  0.00    -0.166 F 
ATOM     30  F   UNL     1       3.216   9.522   2.460  1.00  0.00    -0.166 F 
ATOM     31  F   UNL     1       2.507   8.258   4.082  1.00  0.00    -0.166 F 
ENDBRANCH  26  28
ENDBRANCH  21  22
ENDBRANCH  13  14
ENDBRANCH   4   6
ENDBRANCH   3   4
ENDBRANCH   2   3
ENDBRANCH   1   2
BRANCH   1  32
ATOM     32  O   UNL     1       2.236  -0.742   7.660  1.00  0.00    -0.374 OA
BRANCH  32  33
ATOM     33  C   UNL     1       1.009  -0.014   7.624  1.00  0.00     0.202 C 
BRANCH  33  34
ATOM     34  C   UNL     1       1.140   1.513   7.801  1.00  0.00     0.261 C 
BRANCH  34  35
ATOM     35  O   UNL     1       2.161   2.116   6.984  1.00  0.00    -0.460 OA
BRANCH  35  36
ATOM     36  C   UNL     1       3.369   2.257   7.579  1.00  0.00     0.338 C 
ATOM     37  O   UNL     1       3.652   2.046   8.747  1.00  0.00    -0.246 OA
BRANCH  36  38
ATOM     38  C   UNL     1       4.390   2.577   6.556  1.00  0.00     0.060 A 
ATOM     39  C   UNL     1       5.598   1.869   6.577  1.00  0.00     0.016 A 
ATOM     40  C   UNL     1       4.187   3.567   5.597  1.00  0.00     0.016 A 
ATOM     41  C   UNL     1       6.617   2.174   5.666  1.00  0.00     0.010 A 
ATOM     42  C   UNL     1       5.200   3.846   4.671  1.00  0.00     0.010 A 
ATOM     43  C   UNL     1       6.442   3.187   4.714  1.00  0.00    -0.014 A 
BRANCH  43  44
ATOM     44  C   UNL     1       7.588   3.669   3.881  1.00  0.00     0.031 A 
ATOM     45  C   UNL     1       8.096   5.080   4.069  1.00  0.00     0.074 A 
ATOM     46  C   UNL     1       8.201   2.880   2.975  1.00  0.00     0.049 A 
ATOM     47  N   UNL     1       9.075   5.705   3.458  1.00  0.00    -0.248 NA
ATOM     48  C   UNL     1       7.389   5.909   5.058  1.00  0.00     0.031 C 
ATOM     49  C   UNL     1       7.827   1.505   2.649  1.00  0.00     0.029 A 
ATOM     50  N   UNL     1       9.287   3.128   2.164  1.00  0.00    -0.354 N 
ATOM     51  C   UNL     1       9.073   6.998   3.968  1.00  0.00     0.074 A 
ATOM     52  C   UNL     1       7.954   7.091   4.879  1.00  0.00     0.031 C 
ATOM     53  C   UNL     1       8.692   1.018   1.740  1.00  0.00     0.029 A 
ATOM     54  C   UNL     1       9.669   2.052   1.398  1.00  0.00     0.049 A 
ATOM     55  H   UNL     1       9.749   3.997   2.137  1.00  0.00     0.167 HD
ATOM     56  C   UNL     1       9.942   8.012   3.742  1.00  0.00     0.037 A 
ATOM     57  C   UNL     1      10.693   1.909   0.531  1.00  0.00     0.037 A 
ATOM     58  C   UNL     1      11.105   7.923   2.902  1.00  0.00     0.049 A 
ATOM     59  C   UNL     1      11.647   3.054   0.286  1.00  0.00     0.074 A 
ATOM     60  C   UNL     1      12.088   8.874   2.688  1.00  0.00     0.029 A 
ATOM     61  N   UNL     1      11.449   6.815   2.146  1.00  0.00    -0.354 N 
ATOM     62  N   UNL     1      11.677   4.243   0.835  1.00  0.00    -0.248 NA
ATOM     63  C   UNL     1      12.718   2.828  -0.700  1.00  0.00     0.031 C 
ATOM     64  C   UNL     1      13.002   8.360   1.764  1.00  0.00     0.029 A 
ATOM     65  C   UNL     1      12.615   7.070   1.440  1.00  0.00     0.049 A 
ATOM     66  H   UNL     1      10.941   5.972   2.113  1.00  0.00     0.167 HD
ATOM     67  C   UNL     1      12.788   4.886   0.298  1.00  0.00     0.074 A 
ATOM     68  C   UNL     1      13.409   3.957  -0.620  1.00  0.00     0.031 C 
ATOM     69  C   UNL     1      13.251   6.135   0.550  1.00  0.00     0.037 A 
BRANCH  56  70
ATOM     70  C   UNL     1       9.665   9.318   4.428  1.00  0.00     0.064 A 
ATOM     71  C   UNL     1       9.798   9.467   5.818  1.00  0.00     0.173 A 
ATOM     72  C   UNL     1       9.264  10.437   3.684  1.00  0.00     0.173 A 
ATOM     73  F   UNL     1      10.169   8.423   6.575  1.00  0.00    -0.203 F 
ATOM     74  C   UNL     1       9.494  10.673   6.441  1.00  0.00     0.198 A 
ATOM     75  C   UNL     1       8.997  11.653   4.306  1.00  0.00     0.198 A 
ATOM     76  F   UNL     1       9.131  10.351   2.351  1.00  0.00    -0.203 F 
ATOM     77  F   UNL     1       9.562  10.771   7.776  1.00  0.00    -0.200 F 
ATOM     78  C   UNL     1       9.098  11.766   5.685  1.00  0.00     0.200 A 
ATOM     79  F   UNL     1       8.633  12.714   3.572  1.00  0.00    -0.200 F 
ATOM     80  F   UNL     1       8.807  12.928   6.286  1.00  0.00    -0.200 F 
ENDBRANCH  56  70
BRANCH  57  81
ATOM     81  C   UNL     1      10.917   0.609  -0.158  1.00  0.00     0.064 A 
ATOM     82  C   UNL     1      12.033  -0.184   0.153  1.00  0.00     0.173 A 
ATOM     83  C   UNL     1      10.060   0.158  -1.171  1.00  0.00     0.173 A 
ATOM     84  F   UNL     1      12.899   0.221   1.093  1.00  0.00    -0.203 F 
ATOM     85  C   UNL     1      12.294  -1.365  -0.539  1.00  0.00     0.198 A 
ATOM     86  C   UNL     1      10.308  -1.037  -1.844  1.00  0.00     0.198 A 
ATOM     87  F   UNL     1       8.983   0.882  -1.510  1.00  0.00    -0.203 F 
ATOM     88  F   UNL     1      13.396  -2.074  -0.258  1.00  0.00    -0.200 F 
ATOM     89  C   UNL     1      11.429  -1.792  -1.535  1.00  0.00     0.200 A 
ATOM     90  F   UNL     1       9.467  -1.450  -2.802  1.00  0.00    -0.200 F 
ATOM     91  F   UNL     1      11.683  -2.925  -2.204  1.00  0.00    -0.200 F 
ENDBRANCH  57  81
BRANCH  69  92
ATOM     92  C   UNL     1      14.521   6.569  -0.126  1.00  0.00     0.064 A 
ATOM     93  C   UNL     1      14.566   6.866  -1.496  1.00  0.00     0.173 A 
ATOM     94  C   UNL     1      15.693   6.757   0.623  1.00  0.00     0.173 A 
ATOM     95  F   UNL     1      13.478   6.692  -2.261  1.00  0.00    -0.203 F 
ATOM     96  C   UNL     1      15.740   7.321  -2.092  1.00  0.00     0.198 A 
ATOM     97  C   UNL     1      16.857   7.239   0.030  1.00  0.00     0.198 A 
ATOM     98  F   UNL     1      15.704   6.494   1.939  1.00  0.00    -0.203 F 
ATOM     99  F   UNL     1      15.769   7.565  -3.410  1.00  0.00    -0.200 F 
ATOM    100  C   UNL     1      16.881   7.516  -1.328  1.00  0.00     0.200 A 
ATOM    101  F   UNL     1      17.954   7.440   0.774  1.00  0.00    -0.200 F 
ATOM    102  F   UNL     1      18.005   7.968  -1.901  1.00  0.00    -0.200 F 
ENDBRANCH  69  92
ENDBRANCH  43  44
ENDBRANCH  36  38
ENDBRANCH  35  36
ENDBRANCH  34  35
ENDBRANCH  33  34
ENDBRANCH  32  33
ENDBRANCH   1  32
TORSDOF 17
