REMARK SMILES O=C(Cc1ccccc1C(=O)OCCOCCOC(=O)c1ccc(-c2c3nc(c(-c4c(F)c(F)c(F)c(F)c4F)c4ccc([nH]4)c(-c4c(F)c(F)c(F)c(F)c4F)c4nc(c(-c5c(F)c(F)c(F)c(F)c5F)c5ccc2[nH]5)C=C4)C=C3)cc1)Nc1cccc(OC[C@@H]2CCCO2)c1
REMARK SMILES IDX 13 1 12 2 10 3 11 4 9 5 4 6 5 7 6 8 8 9 7 10 3 11 2 12 1 13
REMARK SMILES IDX 84 14 85 16 86 17 97 18 87 19 89 20 88 21 90 22 91 23 92 24
REMARK SMILES IDX 93 25 96 26 94 27 95 28 14 29 15 30 16 31 17 32 18 33 19 34
REMARK SMILES IDX 20 35 21 36 22 37 83 38 23 39 82 40 24 41 25 42 26 43 76 44
REMARK SMILES IDX 27 45 81 46 75 47 77 48 28 49 80 50 74 51 73 52 29 54 61 55
REMARK SMILES IDX 41 56 60 57 42 58 45 59 59 60 78 61 43 62 44 63 58 65 79 66
REMARK SMILES IDX 46 67 30 68 31 69 39 70 32 71 33 72 37 73 40 74 34 75 35 76
REMARK SMILES IDX 38 77 36 78 62 79 63 80 71 81 64 82 65 83 69 84 72 85 66 86
REMARK SMILES IDX 67 87 70 88 68 89 47 90 48 91 56 92 49 93 50 94 54 95 57 96
REMARK SMILES IDX 51 97 52 98 55 99 53 100
REMARK H PARENT 84 15 77 53 45 64
REMARK Flexibility Score: inf
ROOT
ATOM      1  C   UNL     1       0.028   2.678  -1.686  1.00  0.00     0.261 C 
ENDROOT
BRANCH   1   2
ATOM      2  O   UNL     1       1.304   2.000  -1.542  1.00  0.00    -0.460 OA
BRANCH   2   3
ATOM      3  C   UNL     1       2.153   2.158  -2.579  1.00  0.00     0.338 C 
ATOM      4  O   UNL     1       1.831   2.590  -3.679  1.00  0.00    -0.246 OA
BRANCH   3   5
ATOM      5  C   UNL     1       3.605   1.962  -2.248  1.00  0.00     0.063 A 
ATOM      6  C   UNL     1       4.231   0.861  -1.626  1.00  0.00    -0.024 A 
ATOM      7  C   UNL     1       5.606   0.665  -1.886  1.00  0.00     0.005 A 
ATOM      8  C   UNL     1       6.366   1.607  -2.579  1.00  0.00     0.000 A 
ATOM      9  C   UNL     1       4.413   2.965  -2.826  1.00  0.00     0.016 A 
ATOM     10  C   UNL     1       5.784   2.799  -2.976  1.00  0.00     0.001 A 
BRANCH   6  11
ATOM     11  C   UNL     1       3.559  -0.203  -0.804  1.00  0.00     0.136 C 
BRANCH  11  12
ATOM     12  C   UNL     1       3.736  -0.253   0.733  1.00  0.00     0.228 C 
ATOM     13  O   UNL     1       3.351  -1.296   1.275  1.00  0.00    -0.274 OA
ATOM     14  N   UNL     1       4.285   0.799   1.472  1.00  0.00    -0.326 N 
ATOM     15  H   UNL     1       4.974   1.348   1.034  1.00  0.00     0.169 HD
BRANCH  14  16
ATOM     16  C   UNL     1       3.918   1.151   2.845  1.00  0.00     0.044 A 
ATOM     17  C   UNL     1       4.496   2.189   3.553  1.00  0.00     0.026 A 
ATOM     18  C   UNL     1       2.691   0.724   3.360  1.00  0.00     0.072 A 
ATOM     19  C   UNL     1       3.830   2.724   4.689  1.00  0.00     0.006 A 
ATOM     20  C   UNL     1       1.978   1.185   4.473  1.00  0.00     0.121 A 
ATOM     21  C   UNL     1       2.586   2.228   5.144  1.00  0.00     0.046 A 
BRANCH  20  22
ATOM     22  O   UNL     1       0.619   1.014   4.649  1.00  0.00    -0.491 OA
BRANCH  22  23
ATOM     23  C   UNL     1      -0.081  -0.250   4.641  1.00  0.00     0.261 C 
BRANCH  23  24
ATOM     24  C   UNL     1      -1.184  -0.767   3.347  1.00  0.00     0.156 C 
ATOM     25  C   UNL     1      -0.878  -1.737   1.358  1.00  0.00     0.038 C 
ATOM     26  O   UNL     1      -1.923   0.930   2.843  1.00  0.00    -0.375 OA
ATOM     27  C   UNL     1      -1.340  -0.344   0.040  1.00  0.00     0.031 C 
ATOM     28  C   UNL     1      -2.035   1.159   0.997  1.00  0.00     0.161 C 
ENDBRANCH  23  24
ENDBRANCH  22  23
ENDBRANCH  20  22
ENDBRANCH  14  16
ENDBRANCH  11  12
ENDBRANCH   6  11
ENDBRANCH   3   5
ENDBRANCH   2   3
ENDBRANCH   1   2
BRANCH   1  29
ATOM     29  C   UNL     1      -0.189   3.809  -0.663  1.00  0.00     0.202 C 
BRANCH  29  30
ATOM     30  O   UNL     1       0.891   4.705  -0.501  1.00  0.00    -0.374 OA
BRANCH  30  31
ATOM     31  C   UNL     1       2.047   4.140   0.094  1.00  0.00     0.202 C 
BRANCH  31  32
ATOM     32  C   UNL     1       1.942   3.080   1.211  1.00  0.00     0.261 C 
BRANCH  32  33
ATOM     33  O   UNL     1       1.277   1.776   0.988  1.00  0.00    -0.460 OA
BRANCH  33  34
ATOM     34  C   UNL     1       0.263   1.518   1.884  1.00  0.00     0.338 C 
ATOM     35  O   UNL     1      -0.135   2.431   2.598  1.00  0.00    -0.246 OA
BRANCH  34  36
ATOM     36  C   UNL     1      -0.382  -0.040   1.889  1.00  0.00     0.060 A 
ATOM     37  C   UNL     1      -2.289  -0.714   1.887  1.00  0.00     0.016 A 
ATOM     38  C   UNL     1       0.723  -1.282   2.568  1.00  0.00     0.016 A 
ATOM     39  C   UNL     1      -2.681  -2.235   2.555  1.00  0.00     0.010 A 
ATOM     40  C   UNL     1       0.122  -2.723   3.160  1.00  0.00     0.010 A 
ATOM     41  C   UNL     1      -1.451  -3.130   3.176  1.00  0.00    -0.014 A 
BRANCH  41  42
ATOM     42  C   UNL     1      -1.797  -4.433   3.729  1.00  0.00     0.031 A 
ATOM     43  C   UNL     1      -1.743  -4.668   5.195  1.00  0.00     0.074 A 
ATOM     44  C   UNL     1      -2.231  -5.313   2.820  1.00  0.00     0.049 A 
ATOM     45  N   UNL     1      -2.274  -5.637   5.883  1.00  0.00    -0.248 NA
ATOM     46  C   UNL     1      -0.977  -3.711   6.008  1.00  0.00     0.031 C 
ATOM     47  C   UNL     1      -2.148  -5.118   1.373  1.00  0.00     0.029 A 
ATOM     48  N   UNL     1      -2.876  -6.497   2.953  1.00  0.00    -0.354 N 
ATOM     49  C   UNL     1      -1.921  -5.397   7.204  1.00  0.00     0.074 A 
ATOM     50  C   UNL     1      -1.103  -4.211   7.228  1.00  0.00     0.031 C 
ATOM     51  C   UNL     1      -2.876  -6.045   0.753  1.00  0.00     0.029 A 
ATOM     52  C   UNL     1      -3.327  -6.989   1.755  1.00  0.00     0.049 A 
ATOM     53  H   UNL     1      -3.007  -6.954   3.815  1.00  0.00     0.167 HD
ATOM     54  C   UNL     1      -2.249  -6.146   8.281  1.00  0.00     0.037 A 
ATOM     55  C   UNL     1      -4.001  -8.117   1.504  1.00  0.00     0.037 A 
ATOM     56  C   UNL     1      -2.971  -7.383   8.132  1.00  0.00     0.049 A 
ATOM     57  C   UNL     1      -4.344  -8.930   2.707  1.00  0.00     0.074 A 
ATOM     58  C   UNL     1      -3.364  -8.289   9.095  1.00  0.00     0.029 A 
ATOM     59  N   UNL     1      -3.370  -7.904   6.899  1.00  0.00    -0.354 N 
ATOM     60  N   UNL     1      -4.071  -8.675   3.969  1.00  0.00    -0.248 NA
ATOM     61  C   UNL     1      -5.071 -10.170   2.473  1.00  0.00     0.031 C 
ATOM     62  C   UNL     1      -3.919  -9.393   8.436  1.00  0.00     0.029 A 
ATOM     63  C   UNL     1      -3.970  -9.136   7.070  1.00  0.00     0.049 A 
ATOM     64  H   UNL     1      -3.242  -7.456   6.032  1.00  0.00     0.167 HD
ATOM     65  C   UNL     1      -4.594  -9.724   4.694  1.00  0.00     0.074 A 
ATOM     66  C   UNL     1      -5.232 -10.599   3.717  1.00  0.00     0.031 C 
ATOM     67  C   UNL     1      -4.556  -9.956   6.032  1.00  0.00     0.037 A 
BRANCH  54  68
ATOM     68  C   UNL     1      -1.755  -5.694   9.629  1.00  0.00     0.064 A 
ATOM     69  C   UNL     1      -2.179  -4.489  10.219  1.00  0.00     0.173 A 
ATOM     70  C   UNL     1      -0.815  -6.459  10.337  1.00  0.00     0.173 A 
ATOM     71  F   UNL     1      -3.056  -3.698   9.583  1.00  0.00    -0.203 F 
ATOM     72  C   UNL     1      -1.662  -4.060  11.442  1.00  0.00     0.198 A 
ATOM     73  C   UNL     1      -0.324  -6.043  11.574  1.00  0.00     0.198 A 
ATOM     74  F   UNL     1      -0.355  -7.609   9.823  1.00  0.00    -0.203 F 
ATOM     75  F   UNL     1      -2.038  -2.877  11.951  1.00  0.00    -0.200 F 
ATOM     76  C   UNL     1      -0.740  -4.840  12.122  1.00  0.00     0.200 A 
ATOM     77  F   UNL     1       0.565  -6.803  12.230  1.00  0.00    -0.200 F 
ATOM     78  F   UNL     1      -0.242  -4.426  13.295  1.00  0.00    -0.200 F 
ENDBRANCH  54  68
BRANCH  55  79
ATOM     79  C   UNL     1      -4.329  -8.467   0.102  1.00  0.00     0.064 A 
ATOM     80  C   UNL     1      -5.646  -8.452  -0.368  1.00  0.00     0.173 A 
ATOM     81  C   UNL     1      -3.305  -8.671  -0.842  1.00  0.00     0.173 A 
ATOM     82  F   UNL     1      -6.660  -8.244   0.485  1.00  0.00    -0.203 F 
ATOM     83  C   UNL     1      -5.928  -8.628  -1.723  1.00  0.00     0.198 A 
ATOM     84  C   UNL     1      -3.584  -8.802  -2.199  1.00  0.00     0.198 A 
ATOM     85  F   UNL     1      -2.020  -8.653  -0.454  1.00  0.00    -0.203 F 
ATOM     86  F   UNL     1      -7.199  -8.620  -2.147  1.00  0.00    -0.200 F 
ATOM     87  C   UNL     1      -4.897  -8.788  -2.638  1.00  0.00     0.200 A 
ATOM     88  F   UNL     1      -2.579  -8.900  -3.081  1.00  0.00    -0.200 F 
ATOM     89  F   UNL     1      -5.168  -8.916  -3.944  1.00  0.00    -0.200 F 
ENDBRANCH  55  79
BRANCH  67  90
ATOM     90  C   UNL     1      -5.267 -11.191   6.477  1.00  0.00     0.064 A 
ATOM     91  C   UNL     1      -4.787 -12.471   6.168  1.00  0.00     0.173 A 
ATOM     92  C   UNL     1      -6.455 -11.078   7.212  1.00  0.00     0.173 A 
ATOM     93  F   UNL     1      -3.663 -12.619   5.450  1.00  0.00    -0.203 F 
ATOM     94  C   UNL     1      -5.512 -13.599   6.528  1.00  0.00     0.198 A 
ATOM     95  C   UNL     1      -7.147 -12.209   7.615  1.00  0.00     0.198 A 
ATOM     96  F   UNL     1      -6.940  -9.869   7.535  1.00  0.00    -0.203 F 
ATOM     97  F   UNL     1      -5.093 -14.811   6.140  1.00  0.00    -0.200 F 
ATOM     98  C   UNL     1      -6.686 -13.467   7.257  1.00  0.00     0.200 A 
ATOM     99  F   UNL     1      -8.268 -12.081   8.338  1.00  0.00    -0.200 F 
ATOM    100  F   UNL     1      -7.385 -14.557   7.600  1.00  0.00    -0.200 F 
ENDBRANCH  67  90
ENDBRANCH  41  42
ENDBRANCH  34  36
ENDBRANCH  33  34
ENDBRANCH  32  33
ENDBRANCH  31  32
ENDBRANCH  30  31
ENDBRANCH  29  30
ENDBRANCH   1  29
TORSDOF 20
