REMARK SMILES COC(=O)CCS(=O)(=O)Nc1ccc(C(=O)OCCOCCOC(=O)c2ccc(-c3c4nc(c(-c5c(F)c(F)c(F)c(F)c5F)c5ccc([nH]5)c(-c5c(F)c(F)c(F)c(F)c5F)c5nc(c(-c6c(F)c(F)c(F)c(F)c6F)c6ccc3[nH]6)C=C5)C=C4)cc2)cc1
REMARK SMILES IDX 18 1 17 2 15 3 16 4 14 5 11 6 12 7 90 8 13 9 89 10 10 11
REMARK SMILES IDX 7 13 8 14 9 15 6 16 5 17 3 18 4 19 2 20 1 21 19 22 20 23
REMARK SMILES IDX 21 24 22 25 23 26 24 27 25 28 26 29 27 30 88 31 28 32 87 33
REMARK SMILES IDX 29 34 30 35 31 36 81 37 32 38 86 39 80 40 82 41 33 42 85 43
REMARK SMILES IDX 79 44 78 45 34 47 66 48 46 49 65 50 47 51 50 52 64 53 83 54
REMARK SMILES IDX 48 55 49 56 63 58 84 59 51 60 35 61 36 62 44 63 37 64 38 65
REMARK SMILES IDX 42 66 45 67 39 68 40 69 43 70 41 71 67 72 68 73 76 74 69 75
REMARK SMILES IDX 70 76 74 77 77 78 71 79 72 80 75 81 73 82 52 83 53 84 61 85
REMARK SMILES IDX 54 86 55 87 59 88 62 89 56 90 57 91 60 92 58 93
REMARK H PARENT 10 12 82 46 50 57
REMARK Flexibility Score: inf
ROOT
ATOM      1  C   UNL     1       5.583  -0.876   4.301  1.00  0.00     0.261 C 
ENDROOT
BRANCH   1   2
ATOM      2  O   UNL     1       4.927  -0.094   3.298  1.00  0.00    -0.460 OA
BRANCH   2   3
ATOM      3  C   UNL     1       5.482  -0.119   2.055  1.00  0.00     0.338 C 
ATOM      4  O   UNL     1       6.484  -0.701   1.704  1.00  0.00    -0.246 OA
BRANCH   3   5
ATOM      5  C   UNL     1       4.569   0.605   1.137  1.00  0.00     0.060 A 
ATOM      6  C   UNL     1       2.611   1.779  -0.503  1.00  0.00     0.049 A 
ATOM      7  C   UNL     1       3.448   0.778  -1.008  1.00  0.00     0.027 A 
ATOM      8  C   UNL     1       2.827   2.231   0.795  1.00  0.00     0.027 A 
ATOM      9  C   UNL     1       4.440   0.202  -0.197  1.00  0.00     0.018 A 
ATOM     10  C   UNL     1       3.777   1.640   1.620  1.00  0.00     0.018 A 
BRANCH   6  11
ATOM     11  N   UNL     1       1.400   2.068  -1.189  1.00  0.00    -0.284 N 
ATOM     12  H   UNL     1       0.920   1.293  -1.562  1.00  0.00     0.180 HD
BRANCH  11  13
ATOM     13  S   UNL     1       0.697   3.544  -1.439  1.00  0.00     0.233 S 
ATOM     14  O   UNL     1      -0.582   3.255  -2.055  1.00  0.00    -0.207 OA
ATOM     15  O   UNL     1       1.658   4.381  -2.125  1.00  0.00    -0.207 OA
BRANCH  13  16
ATOM     16  C   UNL     1       0.357   4.298   0.142  1.00  0.00     0.171 C 
BRANCH  16  17
ATOM     17  C   UNL     1      -0.624   3.601   1.066  1.00  0.00     0.141 C 
BRANCH  17  18
ATOM     18  C   UNL     1      -0.328   2.171   1.436  1.00  0.00     0.306 C 
ATOM     19  O   UNL     1       0.212   1.843   2.484  1.00  0.00    -0.252 OA
BRANCH  18  20
ATOM     20  O   UNL     1      -0.731   1.317   0.463  1.00  0.00    -0.469 OA
ATOM     21  C   UNL     1      -0.378  -0.051   0.688  1.00  0.00     0.282 C 
ENDBRANCH  18  20
ENDBRANCH  17  18
ENDBRANCH  16  17
ENDBRANCH  13  16
ENDBRANCH  11  13
ENDBRANCH   6  11
ENDBRANCH   3   5
ENDBRANCH   2   3
ENDBRANCH   1   2
BRANCH   1  22
ATOM     22  C   UNL     1       4.907  -2.233   4.509  1.00  0.00     0.202 C 
BRANCH  22  23
ATOM     23  O   UNL     1       4.807  -3.058   3.350  1.00  0.00    -0.374 OA
BRANCH  23  24
ATOM     24  C   UNL     1       3.653  -2.850   2.533  1.00  0.00     0.202 C 
BRANCH  24  25
ATOM     25  C   UNL     1       2.402  -3.625   2.964  1.00  0.00     0.261 C 
BRANCH  25  26
ATOM     26  O   UNL     1       1.869  -3.125   4.204  1.00  0.00    -0.460 OA
BRANCH  26  27
ATOM     27  C   UNL     1       2.131  -3.900   5.283  1.00  0.00     0.338 C 
ATOM     28  O   UNL     1       2.681  -4.987   5.299  1.00  0.00    -0.246 OA
BRANCH  27  29
ATOM     29  C   UNL     1       1.794  -3.173   6.521  1.00  0.00     0.060 A 
ATOM     30  C   UNL     1       2.766  -3.136   7.528  1.00  0.00     0.016 A 
ATOM     31  C   UNL     1       0.530  -2.617   6.734  1.00  0.00     0.016 A 
ATOM     32  C   UNL     1       2.456  -2.603   8.776  1.00  0.00     0.010 A 
ATOM     33  C   UNL     1       0.221  -2.081   7.989  1.00  0.00     0.010 A 
ATOM     34  C   UNL     1       1.169  -2.111   9.029  1.00  0.00    -0.014 A 
BRANCH  34  35
ATOM     35  C   UNL     1       0.784  -1.760  10.419  1.00  0.00     0.031 A 
ATOM     36  C   UNL     1      -0.074  -2.710  11.208  1.00  0.00     0.074 A 
ATOM     37  C   UNL     1       1.236  -0.628  10.987  1.00  0.00     0.049 A 
ATOM     38  N   UNL     1      -0.527  -2.603  12.432  1.00  0.00    -0.248 NA
ATOM     39  C   UNL     1      -0.479  -3.949  10.525  1.00  0.00     0.031 C 
ATOM     40  C   UNL     1       2.102   0.354  10.337  1.00  0.00     0.029 A 
ATOM     41  N   UNL     1       1.029  -0.116  12.243  1.00  0.00    -0.354 N 
ATOM     42  C   UNL     1      -1.272  -3.753  12.663  1.00  0.00     0.074 A 
ATOM     43  C   UNL     1      -1.244  -4.526  11.440  1.00  0.00     0.031 C 
ATOM     44  C   UNL     1       2.353   1.352  11.200  1.00  0.00     0.029 A 
ATOM     45  C   UNL     1       1.638   1.097  12.449  1.00  0.00     0.049 A 
ATOM     46  H   UNL     1       0.494  -0.574  12.931  1.00  0.00     0.167 HD
ATOM     47  C   UNL     1      -1.909  -4.135  13.796  1.00  0.00     0.037 A 
ATOM     48  C   UNL     1       1.607   1.915  13.519  1.00  0.00     0.037 A 
ATOM     49  C   UNL     1      -1.933  -3.362  15.011  1.00  0.00     0.049 A 
ATOM     50  C   UNL     1       0.832   1.498  14.742  1.00  0.00     0.074 A 
ATOM     51  C   UNL     1      -2.535  -3.670  16.219  1.00  0.00     0.029 A 
ATOM     52  N   UNL     1      -1.335  -2.120  15.170  1.00  0.00    -0.354 N 
ATOM     53  N   UNL     1       0.155   0.397  14.963  1.00  0.00    -0.248 NA
ATOM     54  C   UNL     1       0.824   2.440  15.871  1.00  0.00     0.031 C 
ATOM     55  C   UNL     1      -2.355  -2.588  17.087  1.00  0.00     0.029 A 
ATOM     56  C   UNL     1      -1.580  -1.636  16.446  1.00  0.00     0.049 A 
ATOM     57  H   UNL     1      -0.814  -1.651  14.478  1.00  0.00     0.167 HD
ATOM     58  C   UNL     1      -0.328   0.497  16.261  1.00  0.00     0.074 A 
ATOM     59  C   UNL     1       0.148   1.760  16.785  1.00  0.00     0.031 C 
ATOM     60  C   UNL     1      -1.096  -0.378  16.958  1.00  0.00     0.037 A 
BRANCH  47  61
ATOM     61  C   UNL     1      -2.658  -5.438  13.768  1.00  0.00     0.064 A 
ATOM     62  C   UNL     1      -1.995  -6.673  13.694  1.00  0.00     0.173 A 
ATOM     63  C   UNL     1      -4.059  -5.453  13.853  1.00  0.00     0.173 A 
ATOM     64  F   UNL     1      -0.658  -6.717  13.599  1.00  0.00    -0.203 F 
ATOM     65  C   UNL     1      -2.708  -7.870  13.678  1.00  0.00     0.198 A 
ATOM     66  C   UNL     1      -4.766  -6.652  13.871  1.00  0.00     0.198 A 
ATOM     67  F   UNL     1      -4.745  -4.302  13.931  1.00  0.00    -0.203 F 
ATOM     68  F   UNL     1      -2.055  -9.034  13.555  1.00  0.00    -0.200 F 
ATOM     69  C   UNL     1      -4.091  -7.859  13.775  1.00  0.00     0.200 A 
ATOM     70  F   UNL     1      -6.101  -6.640  13.980  1.00  0.00    -0.200 F 
ATOM     71  F   UNL     1      -4.774  -9.012  13.768  1.00  0.00    -0.200 F 
ENDBRANCH  47  61
BRANCH  48  72
ATOM     72  C   UNL     1       2.327   3.215  13.482  1.00  0.00     0.064 A 
ATOM     73  C   UNL     1       3.430   3.457  14.313  1.00  0.00     0.173 A 
ATOM     74  C   UNL     1       1.914   4.251  12.631  1.00  0.00     0.173 A 
ATOM     75  F   UNL     1       3.849   2.507  15.162  1.00  0.00    -0.203 F 
ATOM     76  C   UNL     1       4.076   4.691  14.311  1.00  0.00     0.198 A 
ATOM     77  C   UNL     1       2.582   5.473  12.605  1.00  0.00     0.198 A 
ATOM     78  F   UNL     1       0.864   4.073  11.815  1.00  0.00    -0.203 F 
ATOM     79  F   UNL     1       5.093   4.913  15.155  1.00  0.00    -0.200 F 
ATOM     80  C   UNL     1       3.656   5.696  13.453  1.00  0.00     0.200 A 
ATOM     81  F   UNL     1       2.182   6.436  11.763  1.00  0.00    -0.200 F 
ATOM     82  F   UNL     1       4.280   6.882  13.450  1.00  0.00    -0.200 F 
ENDBRANCH  48  72
BRANCH  60  83
ATOM     83  C   UNL     1      -1.431  -0.021  18.380  1.00  0.00     0.064 A 
ATOM     84  C   UNL     1      -2.295   1.039  18.696  1.00  0.00     0.173 A 
ATOM     85  C   UNL     1      -0.897  -0.767  19.443  1.00  0.00     0.173 A 
ATOM     86  F   UNL     1      -2.824   1.793  17.720  1.00  0.00    -0.203 F 
ATOM     87  C   UNL     1      -2.578   1.363  20.021  1.00  0.00     0.198 A 
ATOM     88  C   UNL     1      -1.212  -0.465  20.764  1.00  0.00     0.198 A 
ATOM     89  F   UNL     1      -0.074  -1.798  19.199  1.00  0.00    -0.203 F 
ATOM     90  F   UNL     1      -3.353   2.420  20.299  1.00  0.00    -0.200 F 
ATOM     91  C   UNL     1      -2.042   0.607  21.053  1.00  0.00     0.200 A 
ATOM     92  F   UNL     1      -0.708  -1.208  21.759  1.00  0.00    -0.200 F 
ATOM     93  F   UNL     1      -2.318   0.919  22.327  1.00  0.00    -0.200 F 
ENDBRANCH  60  83
ENDBRANCH  34  35
ENDBRANCH  27  29
ENDBRANCH  26  27
ENDBRANCH  25  26
ENDBRANCH  24  25
ENDBRANCH  23  24
ENDBRANCH  22  23
ENDBRANCH   1  22
TORSDOF 20
