REMARK SMILES O=C(OCCOCCOC(=O)c1cc(OCc2ccccc2C(F)(F)F)cs1)c1ccc(-c2c3nc(c(-c4c(F)c(F)c(F)c(F)c4F)c4ccc([nH]4)c(-c4c(F)c(F)c(F)c(F)c4F)c4nc(c(-c5c(F)c(F)c(F)c(F)c5F)c5ccc2[nH]5)C=C4)C=C3)cc1
REMARK SMILES IDX 7 1 6 2 5 3 4 4 3 5 2 6 1 7 29 8 30 9 91 10 31 11 90 12
REMARK SMILES IDX 32 13 33 14 34 15 84 16 35 17 89 18 83 19 85 20 36 21 88 22
REMARK SMILES IDX 82 23 81 24 37 26 69 27 49 28 68 29 50 30 53 31 67 32 86 33
REMARK SMILES IDX 51 34 52 35 66 37 87 38 54 39 38 40 39 41 47 42 40 43 41 44
REMARK SMILES IDX 45 45 48 46 42 47 43 48 46 49 44 50 70 51 71 52 79 53 72 54
REMARK SMILES IDX 73 55 77 56 80 57 74 58 75 59 78 60 76 61 55 62 56 63 64 64
REMARK SMILES IDX 57 65 58 66 62 67 65 68 59 69 60 70 63 71 61 72 8 73 9 74
REMARK SMILES IDX 10 75 11 76 12 77 13 78 28 79 14 80 27 81 15 82 16 83 17 84
REMARK SMILES IDX 18 85 22 86 19 87 21 88 20 89 23 90 24 91 25 92 26 93
REMARK H PARENT 85 25 53 36
REMARK Flexibility Score: inf
ROOT
ATOM      1  C   UNL     1       2.963  -1.346  -1.967  1.00  0.00     0.202 C 
ENDROOT
BRANCH   1   2
ATOM      2  O   UNL     1       4.219  -1.271  -1.284  1.00  0.00    -0.374 OA
BRANCH   2   3
ATOM      3  C   UNL     1       4.280  -1.926  -0.018  1.00  0.00     0.202 C 
BRANCH   3   4
ATOM      4  C   UNL     1       3.885  -1.031   1.158  1.00  0.00     0.261 C 
BRANCH   4   5
ATOM      5  O   UNL     1       2.509  -0.632   1.022  1.00  0.00    -0.460 OA
BRANCH   5   6
ATOM      6  C   UNL     1       2.005   0.603   0.802  1.00  0.00     0.338 C 
ATOM      7  O   UNL     1       0.789   0.767   0.886  1.00  0.00    -0.246 OA
BRANCH   6   8
ATOM      8  C   UNL     1       2.842   1.788   0.445  1.00  0.00     0.060 A 
ATOM      9  C   UNL     1       4.056   1.730  -0.243  1.00  0.00     0.016 A 
ATOM     10  C   UNL     1       2.303   3.055   0.728  1.00  0.00     0.016 A 
ATOM     11  C   UNL     1       4.755   2.886  -0.576  1.00  0.00     0.010 A 
ATOM     12  C   UNL     1       2.974   4.223   0.353  1.00  0.00     0.010 A 
ATOM     13  C   UNL     1       4.216   4.139  -0.286  1.00  0.00    -0.014 A 
BRANCH  13  14
ATOM     14  C   UNL     1       4.999   5.346  -0.614  1.00  0.00     0.031 A 
ATOM     15  C   UNL     1       5.715   6.066   0.486  1.00  0.00     0.074 A 
ATOM     16  C   UNL     1       5.132   5.724  -1.897  1.00  0.00     0.049 A 
ATOM     17  N   UNL     1       6.439   7.152   0.432  1.00  0.00    -0.248 NA
ATOM     18  C   UNL     1       5.611   5.475   1.830  1.00  0.00     0.031 C 
ATOM     19  C   UNL     1       4.541   5.030  -3.043  1.00  0.00     0.029 A 
ATOM     20  N   UNL     1       5.824   6.766  -2.457  1.00  0.00    -0.354 N 
ATOM     21  C   UNL     1       6.863   7.384   1.732  1.00  0.00     0.074 A 
ATOM     22  C   UNL     1       6.310   6.332   2.557  1.00  0.00     0.031 C 
ATOM     23  C   UNL     1       4.917   5.652  -4.172  1.00  0.00     0.029 A 
ATOM     24  C   UNL     1       5.727   6.816  -3.825  1.00  0.00     0.049 A 
ATOM     25  H   UNL     1       6.340   7.416  -1.928  1.00  0.00     0.167 HD
ATOM     26  C   UNL     1       7.641   8.391   2.191  1.00  0.00     0.037 A 
ATOM     27  C   UNL     1       6.222   7.719  -4.693  1.00  0.00     0.037 A 
ATOM     28  C   UNL     1       8.171   9.433   1.355  1.00  0.00     0.049 A 
ATOM     29  C   UNL     1       7.025   8.869  -4.147  1.00  0.00     0.074 A 
ATOM     30  C   UNL     1       8.914  10.543   1.715  1.00  0.00     0.029 A 
ATOM     31  N   UNL     1       8.010   9.486  -0.024  1.00  0.00    -0.354 N 
ATOM     32  N   UNL     1       7.377   9.116  -2.907  1.00  0.00    -0.248 NA
ATOM     33  C   UNL     1       7.485   9.873  -5.114  1.00  0.00     0.031 C 
ATOM     34  C   UNL     1       9.174  11.285   0.557  1.00  0.00     0.029 A 
ATOM     35  C   UNL     1       8.627  10.617  -0.529  1.00  0.00     0.049 A 
ATOM     36  H   UNL     1       7.528   8.817  -0.562  1.00  0.00     0.167 HD
ATOM     37  C   UNL     1       8.105  10.295  -2.943  1.00  0.00     0.074 A 
ATOM     38  C   UNL     1       8.165  10.703  -4.333  1.00  0.00     0.031 C 
ATOM     39  C   UNL     1       8.668  10.986  -1.922  1.00  0.00     0.037 A 
BRANCH  26  40
ATOM     40  C   UNL     1       7.897   8.431   3.667  1.00  0.00     0.064 A 
ATOM     41  C   UNL     1       8.768   7.524   4.290  1.00  0.00     0.173 A 
ATOM     42  C   UNL     1       7.231   9.364   4.475  1.00  0.00     0.173 A 
ATOM     43  F   UNL     1       9.407   6.595   3.564  1.00  0.00    -0.203 F 
ATOM     44  C   UNL     1       8.938   7.532   5.673  1.00  0.00     0.198 A 
ATOM     45  C   UNL     1       7.420   9.383   5.854  1.00  0.00     0.198 A 
ATOM     46  F   UNL     1       6.382  10.247   3.928  1.00  0.00    -0.203 F 
ATOM     47  F   UNL     1       9.730   6.620   6.254  1.00  0.00    -0.200 F 
ATOM     48  C   UNL     1       8.266   8.461   6.453  1.00  0.00     0.200 A 
ATOM     49  F   UNL     1       6.770  10.282   6.606  1.00  0.00    -0.200 F 
ATOM     50  F   UNL     1       8.420   8.458   7.784  1.00  0.00    -0.200 F 
ENDBRANCH  26  40
BRANCH  27  51
ATOM     51  C   UNL     1       5.950   7.583  -6.148  1.00  0.00     0.064 A 
ATOM     52  C   UNL     1       6.978   7.300  -7.056  1.00  0.00     0.173 A 
ATOM     53  C   UNL     1       4.651   7.730  -6.661  1.00  0.00     0.173 A 
ATOM     54  F   UNL     1       8.240   7.175  -6.621  1.00  0.00    -0.203 F 
ATOM     55  C   UNL     1       6.721   7.178  -8.421  1.00  0.00     0.198 A 
ATOM     56  C   UNL     1       4.391   7.580  -8.021  1.00  0.00     0.198 A 
ATOM     57  F   UNL     1       3.630   8.004  -5.836  1.00  0.00    -0.203 F 
ATOM     58  F   UNL     1       7.729   6.945  -9.273  1.00  0.00    -0.200 F 
ATOM     59  C   UNL     1       5.427   7.310  -8.902  1.00  0.00     0.200 A 
ATOM     60  F   UNL     1       3.136   7.697  -8.478  1.00  0.00    -0.200 F 
ATOM     61  F   UNL     1       5.179   7.186 -10.213  1.00  0.00    -0.200 F 
ENDBRANCH  27  51
BRANCH  39  62
ATOM     62  C   UNL     1       9.404  12.241  -2.277  1.00  0.00     0.064 A 
ATOM     63  C   UNL     1       8.718  13.418  -2.608  1.00  0.00     0.173 A 
ATOM     64  C   UNL     1      10.805  12.278  -2.236  1.00  0.00     0.173 A 
ATOM     65  F   UNL     1       7.378  13.424  -2.675  1.00  0.00    -0.203 F 
ATOM     66  C   UNL     1       9.413  14.588  -2.901  1.00  0.00     0.198 A 
ATOM     67  C   UNL     1      11.495  13.455  -2.507  1.00  0.00     0.198 A 
ATOM     68  F   UNL     1      11.501  11.176  -1.919  1.00  0.00    -0.203 F 
ATOM     69  F   UNL     1       8.741  15.694  -3.249  1.00  0.00    -0.200 F 
ATOM     70  C   UNL     1      10.799  14.607  -2.843  1.00  0.00     0.200 A 
ATOM     71  F   UNL     1      12.833  13.476  -2.442  1.00  0.00    -0.200 F 
ATOM     72  F   UNL     1      11.465  15.737  -3.118  1.00  0.00    -0.200 F 
ENDBRANCH  39  62
ENDBRANCH  13  14
ENDBRANCH   6   8
ENDBRANCH   5   6
ENDBRANCH   4   5
ENDBRANCH   3   4
ENDBRANCH   2   3
ENDBRANCH   1   2
BRANCH   1  73
ATOM     73  C   UNL     1       3.226  -1.327  -3.480  1.00  0.00     0.261 C 
BRANCH  73  74
ATOM     74  O   UNL     1       3.921  -2.531  -3.849  1.00  0.00    -0.459 OA
BRANCH  74  75
ATOM     75  C   UNL     1       5.267  -2.535  -3.592  1.00  0.00     0.348 C 
ATOM     76  O   UNL     1       5.983  -1.540  -3.586  1.00  0.00    -0.245 OA
BRANCH  75  77
ATOM     77  C   UNL     1       5.620  -3.876  -3.184  1.00  0.00     0.116 A 
ATOM     78  C   UNL     1       5.030  -5.060  -3.582  1.00  0.00     0.074 A 
ATOM     79  S   UNL     1       6.785  -4.149  -1.965  1.00  0.00    -0.133 S 
ATOM     80  C   UNL     1       5.283  -6.118  -2.667  1.00  0.00     0.131 A 
ATOM     81  C   UNL     1       6.264  -5.772  -1.763  1.00  0.00     0.112 A 
BRANCH  80  82
ATOM     82  O   UNL     1       4.692  -7.339  -2.583  1.00  0.00    -0.488 OA
BRANCH  82  83
ATOM     83  C   UNL     1       3.492  -7.513  -3.346  1.00  0.00     0.266 C 
BRANCH  83  84
ATOM     84  C   UNL     1       2.240  -7.140  -2.564  1.00  0.00     0.001 A 
ATOM     85  C   UNL     1       1.879  -5.775  -2.497  1.00  0.00     0.008 A 
ATOM     86  C   UNL     1       1.407  -8.080  -1.914  1.00  0.00     0.062 A 
ATOM     87  C   UNL     1       0.738  -5.342  -1.823  1.00  0.00     0.000 A 
ATOM     88  C   UNL     1       0.242  -7.619  -1.256  1.00  0.00     0.013 A 
ATOM     89  C   UNL     1      -0.087  -6.266  -1.206  1.00  0.00     0.001 A 
BRANCH  86  90
ATOM     90  C   UNL     1       1.624  -9.580  -1.913  1.00  0.00     0.416 C 
ATOM     91  F   UNL     1       1.357 -10.141  -0.698  1.00  0.00    -0.166 F 
ATOM     92  F   UNL     1       0.795 -10.207  -2.794  1.00  0.00    -0.166 F 
ATOM     93  F   UNL     1       2.880  -9.992  -2.227  1.00  0.00    -0.166 F 
ENDBRANCH  86  90
ENDBRANCH  83  84
ENDBRANCH  82  83
ENDBRANCH  80  82
ENDBRANCH  75  77
ENDBRANCH  74  75
ENDBRANCH  73  74
ENDBRANCH   1  73
TORSDOF 18
