REMARK SMILES Nc1cc(C(=O)OCCOCCOC(=O)c2ccc(-c3c4nc(c(-c5c(F)c(F)c(F)c(F)c5F)c5ccc([nH]5)c(-c5c(F)c(F)c(F)c(F)c5F)c5nc(c(-c6c(F)c(F)c(F)c(F)c6F)c6ccc3[nH]6)C=C5)C=C4)cc2)nc2ccc(F)cc12
REMARK SMILES IDX 11 1 10 2 9 3 8 4 7 5 5 6 6 7 4 8 2 9 3 10 86 11 80 12 85 13
REMARK SMILES IDX 79 14 81 15 83 16 82 17 84 18 1 19 12 22 13 23 14 24 15 25
REMARK SMILES IDX 16 26 17 27 78 28 18 29 77 30 19 31 20 32 21 33 71 34 22 35
REMARK SMILES IDX 76 36 70 37 72 38 23 39 75 40 69 41 68 42 24 44 56 45 36 46
REMARK SMILES IDX 55 47 37 48 40 49 54 50 73 51 38 52 39 53 53 55 74 56 41 57
REMARK SMILES IDX 25 58 26 59 34 60 27 61 28 62 32 63 35 64 29 65 30 66 33 67
REMARK SMILES IDX 31 68 57 69 58 70 66 71 59 72 60 73 64 74 67 75 61 76 62 77
REMARK SMILES IDX 65 78 63 79 42 80 43 81 51 82 44 83 45 84 49 85 52 86 46 87
REMARK SMILES IDX 47 88 50 89 48 90
REMARK H PARENT 1 20 1 21 72 43 40 54
REMARK Flexibility Score: inf
ROOT
ATOM      1  C   UNL     1      -0.688   0.838  -5.987  1.00  0.00     0.202 C 
ENDROOT
BRANCH   1   2
ATOM      2  O   UNL     1       0.079   1.477  -7.008  1.00  0.00    -0.374 OA
BRANCH   2   3
ATOM      3  C   UNL     1       1.494   1.318  -6.981  1.00  0.00     0.202 C 
BRANCH   3   4
ATOM      4  C   UNL     1       2.281   2.163  -5.974  1.00  0.00     0.261 C 
BRANCH   4   5
ATOM      5  O   UNL     1       1.905   1.867  -4.620  1.00  0.00    -0.459 OA
BRANCH   5   6
ATOM      6  C   UNL     1       1.199   2.854  -4.002  1.00  0.00     0.357 C 
ATOM      7  O   UNL     1       1.008   3.979  -4.434  1.00  0.00    -0.244 OA
BRANCH   6   8
ATOM      8  C   UNL     1       0.561   2.321  -2.763  1.00  0.00     0.151 A 
ATOM      9  C   UNL     1       0.550   0.984  -0.783  1.00  0.00     0.043 A 
ATOM     10  C   UNL     1       1.201   1.405  -1.944  1.00  0.00     0.062 A 
ATOM     11  C   UNL     1      -0.710   1.552  -0.455  1.00  0.00     0.026 A 
ATOM     12  C   UNL     1      -1.294   2.433  -1.395  1.00  0.00     0.073 A 
ATOM     13  C   UNL     1      -1.409   1.302   0.749  1.00  0.00     0.051 A 
ATOM     14  N   UNL     1      -0.681   2.801  -2.520  1.00  0.00    -0.241 NA
ATOM     15  C   UNL     1      -2.553   2.966  -1.149  1.00  0.00     0.032 A 
ATOM     16  C   UNL     1      -2.652   1.880   0.980  1.00  0.00     0.124 A 
ATOM     17  C   UNL     1      -3.241   2.697   0.033  1.00  0.00     0.041 A 
ATOM     18  F   UNL     1      -3.285   1.644   2.136  1.00  0.00    -0.207 F 
BRANCH   9  19
ATOM     19  N   UNL     1       1.218   0.109   0.074  1.00  0.00    -0.398 N 
ATOM     20  H   UNL     1       2.090  -0.266  -0.187  1.00  0.00     0.156 HD
ATOM     21  H   UNL     1       0.817  -0.134   0.939  1.00  0.00     0.156 HD
ENDBRANCH   9  19
ENDBRANCH   6   8
ENDBRANCH   5   6
ENDBRANCH   4   5
ENDBRANCH   3   4
ENDBRANCH   2   3
ENDBRANCH   1   2
BRANCH   1  22
ATOM     22  C   UNL     1      -0.885  -0.680  -6.103  1.00  0.00     0.261 C 
BRANCH  22  23
ATOM     23  O   UNL     1       0.345  -1.409  -5.942  1.00  0.00    -0.460 OA
BRANCH  23  24
ATOM     24  C   UNL     1       0.837  -1.969  -7.075  1.00  0.00     0.338 C 
ATOM     25  O   UNL     1       0.331  -1.970  -8.185  1.00  0.00    -0.246 OA
BRANCH  24  26
ATOM     26  C   UNL     1       2.216  -2.432  -6.824  1.00  0.00     0.060 A 
ATOM     27  C   UNL     1       2.508  -3.310  -5.780  1.00  0.00     0.016 A 
ATOM     28  C   UNL     1       3.230  -1.988  -7.684  1.00  0.00     0.016 A 
ATOM     29  C   UNL     1       3.821  -3.761  -5.614  1.00  0.00     0.010 A 
ATOM     30  C   UNL     1       4.539  -2.439  -7.516  1.00  0.00     0.010 A 
ATOM     31  C   UNL     1       4.842  -3.345  -6.490  1.00  0.00    -0.014 A 
BRANCH  31  32
ATOM     32  C   UNL     1       6.194  -3.951  -6.398  1.00  0.00     0.031 A 
ATOM     33  C   UNL     1       7.363  -3.182  -5.858  1.00  0.00     0.074 A 
ATOM     34  C   UNL     1       6.356  -5.224  -6.808  1.00  0.00     0.049 A 
ATOM     35  N   UNL     1       8.589  -3.592  -5.644  1.00  0.00    -0.248 NA
ATOM     36  C   UNL     1       7.133  -1.771  -5.513  1.00  0.00     0.031 C 
ATOM     37  C   UNL     1       5.298  -6.061  -7.375  1.00  0.00     0.029 A 
ATOM     38  N   UNL     1       7.458  -6.041  -6.796  1.00  0.00    -0.354 N 
ATOM     39  C   UNL     1       9.266  -2.505  -5.109  1.00  0.00     0.074 A 
ATOM     40  C   UNL     1       8.334  -1.397  -5.088  1.00  0.00     0.031 C 
ATOM     41  C   UNL     1       5.789  -7.287  -7.613  1.00  0.00     0.029 A 
ATOM     42  C   UNL     1       7.203  -7.313  -7.252  1.00  0.00     0.049 A 
ATOM     43  H   UNL     1       8.346  -5.745  -6.492  1.00  0.00     0.167 HD
ATOM     44  C   UNL     1      10.540  -2.450  -4.651  1.00  0.00     0.037 A 
ATOM     45  C   UNL     1       8.017  -8.381  -7.358  1.00  0.00     0.037 A 
ATOM     46  C   UNL     1      11.472  -3.549  -4.695  1.00  0.00     0.049 A 
ATOM     47  C   UNL     1       9.451  -8.259  -6.919  1.00  0.00     0.074 A 
ATOM     48  C   UNL     1      12.784  -3.584  -4.252  1.00  0.00     0.029 A 
ATOM     49  N   UNL     1      11.196  -4.805  -5.216  1.00  0.00    -0.354 N 
ATOM     50  N   UNL     1      10.062  -7.246  -6.356  1.00  0.00    -0.248 NA
ATOM     51  C   UNL     1      10.310  -9.434  -7.130  1.00  0.00     0.031 C 
ATOM     52  C   UNL     1      13.315  -4.842  -4.547  1.00  0.00     0.029 A 
ATOM     53  C   UNL     1      12.319  -5.612  -5.123  1.00  0.00     0.049 A 
ATOM     54  H   UNL     1      10.331  -5.081  -5.596  1.00  0.00     0.167 HD
ATOM     55  C   UNL     1      11.361  -7.670  -6.114  1.00  0.00     0.074 A 
ATOM     56  C   UNL     1      11.447  -9.040  -6.574  1.00  0.00     0.031 C 
ATOM     57  C   UNL     1      12.392  -6.982  -5.565  1.00  0.00     0.037 A 
BRANCH  44  58
ATOM     58  C   UNL     1      11.010  -1.169  -4.024  1.00  0.00     0.064 A 
ATOM     59  C   UNL     1      10.549  -0.775  -2.759  1.00  0.00     0.173 A 
ATOM     60  C   UNL     1      12.012  -0.394  -4.628  1.00  0.00     0.173 A 
ATOM     61  F   UNL     1       9.588  -1.480  -2.142  1.00  0.00    -0.203 F 
ATOM     62  C   UNL     1      11.069   0.349  -2.124  1.00  0.00     0.198 A 
ATOM     63  C   UNL     1      12.549   0.715  -3.978  1.00  0.00     0.198 A 
ATOM     64  F   UNL     1      12.496  -0.733  -5.832  1.00  0.00    -0.203 F 
ATOM     65  F   UNL     1      10.598   0.715  -0.924  1.00  0.00    -0.200 F 
ATOM     66  C   UNL     1      12.077   1.085  -2.727  1.00  0.00     0.200 A 
ATOM     67  F   UNL     1      13.537   1.414  -4.553  1.00  0.00    -0.200 F 
ATOM     68  F   UNL     1      12.597   2.150  -2.102  1.00  0.00    -0.200 F 
ENDBRANCH  44  58
BRANCH  45  69
ATOM     69  C   UNL     1       7.488  -9.675  -7.866  1.00  0.00     0.064 A 
ATOM     70  C   UNL     1       7.410 -10.795  -7.025  1.00  0.00     0.173 A 
ATOM     71  C   UNL     1       7.069  -9.828  -9.195  1.00  0.00     0.173 A 
ATOM     72  F   UNL     1       7.817 -10.705  -5.751  1.00  0.00    -0.203 F 
ATOM     73  C   UNL     1       6.956 -12.023  -7.501  1.00  0.00     0.198 A 
ATOM     74  C   UNL     1       6.583 -11.047  -9.661  1.00  0.00     0.198 A 
ATOM     75  F   UNL     1       7.120  -8.787 -10.040  1.00  0.00    -0.203 F 
ATOM     76  F   UNL     1       6.943 -13.089  -6.690  1.00  0.00    -0.200 F 
ATOM     77  C   UNL     1       6.537 -12.146  -8.817  1.00  0.00     0.200 A 
ATOM     78  F   UNL     1       6.165 -11.159 -10.929  1.00  0.00    -0.200 F 
ATOM     79  F   UNL     1       6.099 -13.327  -9.274  1.00  0.00    -0.200 F 
ENDBRANCH  45  69
BRANCH  57  80
ATOM     80  C   UNL     1      13.701  -7.700  -5.396  1.00  0.00     0.064 A 
ATOM     81  C   UNL     1      14.507  -8.028  -6.496  1.00  0.00     0.173 A 
ATOM     82  C   UNL     1      14.189  -7.997  -4.114  1.00  0.00     0.173 A 
ATOM     83  F   UNL     1      14.081  -7.778  -7.744  1.00  0.00    -0.203 F 
ATOM     84  C   UNL     1      15.744  -8.642  -6.320  1.00  0.00     0.198 A 
ATOM     85  C   UNL     1      15.441  -8.580  -3.940  1.00  0.00     0.198 A 
ATOM     86  F   UNL     1      13.462  -7.698  -3.027  1.00  0.00    -0.203 F 
ATOM     87  F   UNL     1      16.479  -8.982  -7.388  1.00  0.00    -0.200 F 
ATOM     88  C   UNL     1      16.215  -8.907  -5.043  1.00  0.00     0.200 A 
ATOM     89  F   UNL     1      15.903  -8.818  -2.705  1.00  0.00    -0.200 F 
ATOM     90  F   UNL     1      17.415  -9.479  -4.875  1.00  0.00    -0.200 F 
ENDBRANCH  57  80
ENDBRANCH  31  32
ENDBRANCH  24  26
ENDBRANCH  23  24
ENDBRANCH  22  23
ENDBRANCH   1  22
TORSDOF 15
