REMARK SMILES COc1ccc2c(c1)[C@@](NC=O)(C(=O)OCCOCCOC(=O)c1ccc(-c3c4nc(c(-c5c(F)c(F)c(F)c(F)c5F)c5ccc([nH]5)c(-c5c(F)c(F)c(F)c(F)c5F)c5nc(c(-c6c(F)c(F)c(F)c(F)c6F)c6ccc3[nH]6)C=C5)C=C4)cc1)CCC2
REMARK SMILES IDX 19 1 18 2 17 3 16 4 15 5 13 6 14 7 9 8 3 9 4 10 8 11 5 12
REMARK SMILES IDX 7 13 6 14 89 15 87 16 88 17 2 18 1 19 10 20 11 21 12 23
REMARK SMILES IDX 20 24 21 25 22 26 23 27 24 28 25 29 86 30 26 31 85 32 27 33
REMARK SMILES IDX 28 34 29 35 79 36 30 37 84 38 78 39 80 40 31 41 83 42 77 43
REMARK SMILES IDX 76 44 32 46 64 47 44 48 63 49 45 50 48 51 62 52 81 53 46 54
REMARK SMILES IDX 47 55 61 57 82 58 49 59 33 60 34 61 42 62 35 63 36 64 40 65
REMARK SMILES IDX 43 66 37 67 38 68 41 69 39 70 65 71 66 72 74 73 67 74 68 75
REMARK SMILES IDX 72 76 75 77 69 78 70 79 73 80 71 81 50 82 51 83 59 84 52 85
REMARK SMILES IDX 53 86 57 87 60 88 54 89 55 90 58 91 56 92
REMARK H PARENT 10 22 80 45 48 56
REMARK Flexibility Score: inf
ROOT
ATOM      1  C   UNL     1       7.346   1.885   2.459  1.00  0.00     0.202 C 
ENDROOT
BRANCH   1   2
ATOM      2  O   UNL     1       7.323   2.712   1.298  1.00  0.00    -0.374 OA
BRANCH   2   3
ATOM      3  C   UNL     1       6.693   3.987   1.400  1.00  0.00     0.202 C 
BRANCH   3   4
ATOM      4  C   UNL     1       5.163   4.023   1.344  1.00  0.00     0.261 C 
BRANCH   4   5
ATOM      5  O   UNL     1       4.567   3.438   2.514  1.00  0.00    -0.461 OA
BRANCH   5   6
ATOM      6  C   UNL     1       4.124   2.158   2.366  1.00  0.00     0.336 C 
ATOM      7  O   UNL     1       4.216   1.532   1.313  1.00  0.00    -0.249 OA
BRANCH   6   8
ATOM      8  C   UNL     1       3.479   1.574   3.690  1.00  0.00     0.164 C 
ATOM      9  C   UNL     1       0.106   1.276   1.930  1.00  0.00     0.119 A 
ATOM     10  C   UNL     1      -0.722   1.996   2.784  1.00  0.00     0.047 A 
ATOM     11  C   UNL     1       1.427   1.077   2.303  1.00  0.00     0.053 A 
ATOM     12  C   UNL     1      -0.242   2.471   4.012  1.00  0.00     0.008 A 
ATOM     13  C   UNL     1       1.960   1.645   3.481  1.00  0.00    -0.004 A 
ATOM     14  C   UNL     1       1.097   2.280   4.383  1.00  0.00    -0.042 A 
ATOM     15  C   UNL     1       1.579   2.790   5.717  1.00  0.00     0.036 C 
ATOM     16  C   UNL     1       3.926   2.372   4.948  1.00  0.00     0.046 C 
ATOM     17  C   UNL     1       2.939   2.212   6.106  1.00  0.00     0.008 C 
BRANCH   9  18
ATOM     18  O   UNL     1      -0.454   0.845   0.760  1.00  0.00    -0.497 OA
ATOM     19  C   UNL     1       0.381   0.061  -0.093  1.00  0.00     0.278 C 
ENDBRANCH   9  18
BRANCH   8  20
ATOM     20  N   UNL     1       3.804   0.145   3.916  1.00  0.00    -0.339 N 
ATOM     21  C   UNL     1       4.860  -0.560   3.430  1.00  0.00     0.338 C 
ATOM     22  H   UNL     1       3.178  -0.355   4.488  1.00  0.00     0.164 HD
ATOM     23  O   UNL     1       5.203  -1.636   3.899  1.00  0.00    -0.279 OA
ENDBRANCH   8  20
ENDBRANCH   6   8
ENDBRANCH   5   6
ENDBRANCH   4   5
ENDBRANCH   3   4
ENDBRANCH   2   3
ENDBRANCH   1   2
BRANCH   1  24
ATOM     24  C   UNL     1       8.422   2.160   3.510  1.00  0.00     0.261 C 
BRANCH  24  25
ATOM     25  O   UNL     1       8.318   3.490   4.036  1.00  0.00    -0.460 OA
BRANCH  25  26
ATOM     26  C   UNL     1       9.238   4.346   3.542  1.00  0.00     0.338 C 
ATOM     27  O   UNL     1      10.187   4.082   2.811  1.00  0.00    -0.246 OA
BRANCH  26  28
ATOM     28  C   UNL     1       8.845   5.728   3.848  1.00  0.00     0.060 A 
ATOM     29  C   UNL     1       8.821   6.636   2.782  1.00  0.00     0.016 A 
ATOM     30  C   UNL     1       8.558   6.143   5.151  1.00  0.00     0.016 A 
ATOM     31  C   UNL     1       8.577   7.981   3.022  1.00  0.00     0.010 A 
ATOM     32  C   UNL     1       8.324   7.498   5.393  1.00  0.00     0.010 A 
ATOM     33  C   UNL     1       8.379   8.424   4.336  1.00  0.00    -0.014 A 
BRANCH  33  34
ATOM     34  C   UNL     1       8.425   9.875   4.615  1.00  0.00     0.031 A 
ATOM     35  C   UNL     1       9.717  10.470   5.098  1.00  0.00     0.074 A 
ATOM     36  C   UNL     1       7.351  10.650   4.394  1.00  0.00     0.049 A 
ATOM     37  N   UNL     1       9.995  11.707   5.420  1.00  0.00    -0.248 NA
ATOM     38  C   UNL     1      10.851   9.542   5.240  1.00  0.00     0.031 C 
ATOM     39  C   UNL     1       6.065  10.182   3.882  1.00  0.00     0.029 A 
ATOM     40  N   UNL     1       7.175  11.997   4.576  1.00  0.00    -0.354 N 
ATOM     41  C   UNL     1      11.329  11.704   5.806  1.00  0.00     0.074 A 
ATOM     42  C   UNL     1      11.797  10.339   5.712  1.00  0.00     0.031 C 
ATOM     43  C   UNL     1       5.225  11.228   3.800  1.00  0.00     0.029 A 
ATOM     44  C   UNL     1       5.906  12.428   4.282  1.00  0.00     0.049 A 
ATOM     45  H   UNL     1       7.890  12.598   4.888  1.00  0.00     0.167 HD
ATOM     46  C   UNL     1      12.094  12.750   6.195  1.00  0.00     0.037 A 
ATOM     47  C   UNL     1       5.358  13.651   4.410  1.00  0.00     0.037 A 
ATOM     48  C   UNL     1      11.617  14.104   6.286  1.00  0.00     0.049 A 
ATOM     49  C   UNL     1       6.212  14.786   4.912  1.00  0.00     0.074 A 
ATOM     50  C   UNL     1      12.312  15.243   6.651  1.00  0.00     0.029 A 
ATOM     51  N   UNL     1      10.314  14.498   6.014  1.00  0.00    -0.354 N 
ATOM     52  N   UNL     1       7.478  14.783   5.253  1.00  0.00    -0.248 NA
ATOM     53  C   UNL     1       5.560  16.097   5.042  1.00  0.00     0.031 C 
ATOM     54  C   UNL     1      11.415  16.317   6.655  1.00  0.00     0.029 A 
ATOM     55  C   UNL     1      10.177  15.859   6.233  1.00  0.00     0.049 A 
ATOM     56  H   UNL     1       9.594  13.899   5.711  1.00  0.00     0.167 HD
ATOM     57  C   UNL     1       7.782  16.090   5.611  1.00  0.00     0.074 A 
ATOM     58  C   UNL     1       6.569  16.862   5.433  1.00  0.00     0.031 C 
ATOM     59  C   UNL     1       8.958  16.607   6.047  1.00  0.00     0.037 A 
BRANCH  46  60
ATOM     60  C   UNL     1      13.515  12.460   6.585  1.00  0.00     0.064 A 
ATOM     61  C   UNL     1      14.481  12.086   5.639  1.00  0.00     0.173 A 
ATOM     62  C   UNL     1      13.918  12.570   7.924  1.00  0.00     0.173 A 
ATOM     63  F   UNL     1      14.145  11.948   4.347  1.00  0.00    -0.203 F 
ATOM     64  C   UNL     1      15.790  11.804   6.024  1.00  0.00     0.198 A 
ATOM     65  C   UNL     1      15.234  12.317   8.301  1.00  0.00     0.198 A 
ATOM     66  F   UNL     1      13.034  12.924   8.870  1.00  0.00    -0.203 F 
ATOM     67  F   UNL     1      16.682  11.396   5.111  1.00  0.00    -0.200 F 
ATOM     68  C   UNL     1      16.167  11.926   7.353  1.00  0.00     0.200 A 
ATOM     69  F   UNL     1      15.598  12.446   9.584  1.00  0.00    -0.200 F 
ATOM     70  F   UNL     1      17.427  11.657   7.721  1.00  0.00    -0.200 F 
ENDBRANCH  46  60
BRANCH  47  71
ATOM     71  C   UNL     1       3.928  13.859   4.066  1.00  0.00     0.064 A 
ATOM     72  C   UNL     1       3.554  14.631   2.957  1.00  0.00     0.173 A 
ATOM     73  C   UNL     1       2.905  13.290   4.839  1.00  0.00     0.173 A 
ATOM     74  F   UNL     1       4.495  15.214   2.200  1.00  0.00    -0.203 F 
ATOM     75  C   UNL     1       2.212  14.836   2.644  1.00  0.00     0.198 A 
ATOM     76  C   UNL     1       1.565  13.472   4.508  1.00  0.00     0.198 A 
ATOM     77  F   UNL     1       3.210  12.542   5.910  1.00  0.00    -0.203 F 
ATOM     78  F   UNL     1       1.881  15.612   1.602  1.00  0.00    -0.200 F 
ATOM     79  C   UNL     1       1.218  14.251   3.415  1.00  0.00     0.200 A 
ATOM     80  F   UNL     1       0.609  12.893   5.248  1.00  0.00    -0.200 F 
ATOM     81  F   UNL     1      -0.072  14.443   3.108  1.00  0.00    -0.200 F 
ENDBRANCH  47  71
BRANCH  59  82
ATOM     82  C   UNL     1       8.999  18.081   6.329  1.00  0.00     0.064 A 
ATOM     83  C   UNL     1       8.351  18.637   7.442  1.00  0.00     0.173 A 
ATOM     84  C   UNL     1       9.733  18.942   5.498  1.00  0.00     0.173 A 
ATOM     85  F   UNL     1       7.625  17.859   8.259  1.00  0.00    -0.203 F 
ATOM     86  C   UNL     1       8.414  20.005   7.697  1.00  0.00     0.198 A 
ATOM     87  C   UNL     1       9.820  20.303   5.774  1.00  0.00     0.198 A 
ATOM     88  F   UNL     1      10.378  18.459   4.425  1.00  0.00    -0.203 F 
ATOM     89  F   UNL     1       7.746  20.521   8.737  1.00  0.00    -0.200 F 
ATOM     90  C   UNL     1       9.154  20.835   6.868  1.00  0.00     0.200 A 
ATOM     91  F   UNL     1      10.549  21.101   4.981  1.00  0.00    -0.200 F 
ATOM     92  F   UNL     1       9.220  22.149   7.120  1.00  0.00    -0.200 F 
ENDBRANCH  59  82
ENDBRANCH  33  34
ENDBRANCH  26  28
ENDBRANCH  25  26
ENDBRANCH  24  25
ENDBRANCH   1  24
TORSDOF 16
