REMARK SMILES C[C@@H](C(=O)OCCOCCOC(=O)c1ccc(-c2c3nc(c(-c4c(F)c(F)c(F)c(F)c4F)c4ccc([nH]4)c(-c4c(F)c(F)c(F)c(F)c4F)c4nc(c(-c5c(F)c(F)c(F)c(F)c5F)c5ccc2[nH]5)C=C4)C=C3)cc1)c1ccc2c3cc(Cl)ccc3n(C(=O)c3ccc(Cl)cc3)c2c1
REMARK SMILES IDX 7 1 6 2 5 3 3 4 4 5 2 6 1 7 77 8 78 9 99 10 79 11 98 12
REMARK SMILES IDX 80 13 88 14 81 15 87 16 82 17 86 18 83 19 85 20 84 21 89 22
REMARK SMILES IDX 90 23 91 24 92 25 97 26 93 27 96 28 94 29 95 30 8 31 9 32
REMARK SMILES IDX 10 33 11 34 12 35 13 36 14 37 15 38 76 39 16 40 75 41 17 42
REMARK SMILES IDX 18 43 19 44 69 45 20 46 74 47 68 48 70 49 21 50 73 51 67 52
REMARK SMILES IDX 66 53 22 55 54 56 34 57 53 58 35 59 38 60 52 61 71 62 36 63
REMARK SMILES IDX 37 64 51 66 72 67 39 68 23 69 24 70 32 71 25 72 26 73 30 74
REMARK SMILES IDX 33 75 27 76 28 77 31 78 29 79 55 80 56 81 64 82 57 83 58 84
REMARK SMILES IDX 62 85 65 86 59 87 60 88 63 89 61 90 40 91 41 92 49 93 42 94
REMARK SMILES IDX 43 95 47 96 50 97 44 98 45 99 48 100 46 101
REMARK H PARENT 70 54 38 65
REMARK Flexibility Score: inf
ROOT
ATOM      1  C   UNL     1       2.360  -2.748  -3.844  1.00  0.00     0.202 C 
ENDROOT
BRANCH   1   2
ATOM      2  C   UNL     1       2.290  -1.236  -4.076  1.00  0.00     0.261 C 
BRANCH   2   3
ATOM      3  O   UNL     1       2.039  -0.543  -2.838  1.00  0.00    -0.463 OA
BRANCH   3   4
ATOM      4  C   UNL     1       1.075   0.417  -2.890  1.00  0.00     0.313 C 
ATOM      5  O   UNL     1       0.571   0.823  -3.933  1.00  0.00    -0.252 OA
BRANCH   4   6
ATOM      6  C   UNL     1       0.664   0.934  -1.502  1.00  0.00     0.126 C 
ATOM      7  C   UNL     1       1.400   0.292  -0.322  1.00  0.00     0.025 C 
BRANCH   6   8
ATOM      8  C   UNL     1      -0.858   0.879  -1.373  1.00  0.00    -0.032 A 
ATOM      9  C   UNL     1      -1.611   1.985  -1.769  1.00  0.00     0.005 A 
ATOM     10  C   UNL     1      -1.528  -0.300  -1.000  1.00  0.00     0.032 A 
ATOM     11  C   UNL     1      -3.004   1.914  -1.854  1.00  0.00     0.011 A 
ATOM     12  C   UNL     1      -2.938  -0.381  -1.091  1.00  0.00     0.057 A 
ATOM     13  C   UNL     1      -3.673   0.712  -1.540  1.00  0.00     0.008 A 
ATOM     14  N   UNL     1      -3.828  -1.454  -0.868  1.00  0.00    -0.276 N 
ATOM     15  C   UNL     1      -5.039   0.330  -1.560  1.00  0.00     0.009 A 
ATOM     16  C   UNL     1      -5.135  -0.969  -1.042  1.00  0.00     0.057 A 
ATOM     17  C   UNL     1      -6.206   1.030  -1.937  1.00  0.00     0.031 A 
ATOM     18  C   UNL     1      -6.403  -1.518  -0.759  1.00  0.00     0.029 A 
ATOM     19  C   UNL     1      -7.451   0.450  -1.722  1.00  0.00     0.041 A 
ATOM     20  C   UNL     1      -7.551  -0.796  -1.118  1.00  0.00     0.023 A 
ATOM     21  Cl  UNL     1      -8.873   1.308  -2.173  1.00  0.00    -0.084 Cl
BRANCH  14  22
ATOM     22  C   UNL     1      -3.398  -2.768  -0.515  1.00  0.00     0.262 C 
ATOM     23  O   UNL     1      -2.274  -2.854  -0.011  1.00  0.00    -0.268 OA
BRANCH  22  24
ATOM     24  C   UNL     1      -4.085  -4.083  -0.712  1.00  0.00     0.040 A 
ATOM     25  C   UNL     1      -3.572  -5.184   0.007  1.00  0.00     0.015 A 
ATOM     26  C   UNL     1      -5.085  -4.321  -1.660  1.00  0.00     0.015 A 
ATOM     27  C   UNL     1      -4.055  -6.479  -0.197  1.00  0.00     0.021 A 
ATOM     28  C   UNL     1      -5.597  -5.617  -1.839  1.00  0.00     0.021 A 
ATOM     29  C   UNL     1      -5.075  -6.690  -1.115  1.00  0.00     0.041 A 
ATOM     30  Cl  UNL     1      -5.671  -8.281  -1.377  1.00  0.00    -0.084 Cl
ENDBRANCH  22  24
ENDBRANCH  14  22
ENDBRANCH   6   8
ENDBRANCH   4   6
ENDBRANCH   3   4
ENDBRANCH   2   3
ENDBRANCH   1   2
BRANCH   1  31
ATOM     31  O   UNL     1       1.133  -3.407  -3.522  1.00  0.00    -0.374 OA
BRANCH  31  32
ATOM     32  C   UNL     1       0.546  -3.117  -2.255  1.00  0.00     0.202 C 
BRANCH  32  33
ATOM     33  C   UNL     1       1.148  -3.825  -1.034  1.00  0.00     0.261 C 
BRANCH  33  34
ATOM     34  O   UNL     1       2.555  -3.567  -0.878  1.00  0.00    -0.460 OA
BRANCH  34  35
ATOM     35  C   UNL     1       3.354  -4.621  -1.160  1.00  0.00     0.338 C 
ATOM     36  O   UNL     1       3.010  -5.769  -1.425  1.00  0.00    -0.246 OA
BRANCH  35  37
ATOM     37  C   UNL     1       4.753  -4.183  -1.287  1.00  0.00     0.060 A 
ATOM     38  C   UNL     1       5.412  -4.474  -2.489  1.00  0.00     0.016 A 
ATOM     39  C   UNL     1       5.436  -3.572  -0.233  1.00  0.00     0.016 A 
ATOM     40  C   UNL     1       6.770  -4.202  -2.625  1.00  0.00     0.010 A 
ATOM     41  C   UNL     1       6.805  -3.309  -0.368  1.00  0.00     0.010 A 
ATOM     42  C   UNL     1       7.484  -3.656  -1.551  1.00  0.00    -0.014 A 
BRANCH  42  43
ATOM     43  C   UNL     1       8.964  -3.599  -1.621  1.00  0.00     0.031 A 
ATOM     44  C   UNL     1       9.767  -4.679  -0.949  1.00  0.00     0.074 A 
ATOM     45  C   UNL     1       9.585  -2.629  -2.314  1.00  0.00     0.049 A 
ATOM     46  N   UNL     1      11.065  -4.828  -0.874  1.00  0.00    -0.248 NA
ATOM     47  C   UNL     1       9.001  -5.736  -0.269  1.00  0.00     0.031 C 
ATOM     48  C   UNL     1       8.915  -1.556  -3.046  1.00  0.00     0.029 A 
ATOM     49  N   UNL     1      10.921  -2.392  -2.515  1.00  0.00    -0.354 N 
ATOM     50  C   UNL     1      11.270  -5.987  -0.136  1.00  0.00     0.074 A 
ATOM     51  C   UNL     1       9.966  -6.487   0.239  1.00  0.00     0.031 C 
ATOM     52  C   UNL     1       9.845  -0.770  -3.614  1.00  0.00     0.029 A 
ATOM     53  C   UNL     1      11.174  -1.266  -3.259  1.00  0.00     0.049 A 
ATOM     54  H   UNL     1      11.632  -2.973  -2.159  1.00  0.00     0.167 HD
ATOM     55  C   UNL     1      12.442  -6.583   0.191  1.00  0.00     0.037 A 
ATOM     56  C   UNL     1      12.346  -0.693  -3.596  1.00  0.00     0.037 A 
ATOM     57  C   UNL     1      13.738  -6.085  -0.190  1.00  0.00     0.049 A 
ATOM     58  C   UNL     1      13.636  -1.337  -3.156  1.00  0.00     0.074 A 
ATOM     59  C   UNL     1      14.982  -6.631   0.070  1.00  0.00     0.029 A 
ATOM     60  N   UNL     1      13.955  -4.918  -0.907  1.00  0.00    -0.354 N 
ATOM     61  N   UNL     1      13.822  -2.447  -2.483  1.00  0.00    -0.248 NA
ATOM     62  C   UNL     1      14.880  -0.647  -3.526  1.00  0.00     0.031 C 
ATOM     63  C   UNL     1      15.955  -5.765  -0.440  1.00  0.00     0.029 A 
ATOM     64  C   UNL     1      15.315  -4.710  -1.070  1.00  0.00     0.049 A 
ATOM     65  H   UNL     1      13.248  -4.325  -1.249  1.00  0.00     0.167 HD
ATOM     66  C   UNL     1      15.198  -2.605  -2.377  1.00  0.00     0.074 A 
ATOM     67  C   UNL     1      15.801  -1.483  -3.065  1.00  0.00     0.031 C 
ATOM     68  C   UNL     1      15.900  -3.591  -1.766  1.00  0.00     0.037 A 
BRANCH  55  69
ATOM     69  C   UNL     1      12.378  -7.826   1.030  1.00  0.00     0.064 A 
ATOM     70  C   UNL     1      11.909  -9.044   0.514  1.00  0.00     0.173 A 
ATOM     71  C   UNL     1      12.825  -7.805   2.360  1.00  0.00     0.173 A 
ATOM     72  F   UNL     1      11.458  -9.115  -0.747  1.00  0.00    -0.203 F 
ATOM     73  C   UNL     1      11.868 -10.188   1.307  1.00  0.00     0.198 A 
ATOM     74  C   UNL     1      12.810  -8.958   3.140  1.00  0.00     0.198 A 
ATOM     75  F   UNL     1      13.287  -6.668   2.900  1.00  0.00    -0.203 F 
ATOM     76  F   UNL     1      11.374 -11.330   0.808  1.00  0.00    -0.200 F 
ATOM     77  C   UNL     1      12.325 -10.146   2.616  1.00  0.00     0.200 A 
ATOM     78  F   UNL     1      13.264  -8.918   4.400  1.00  0.00    -0.200 F 
ATOM     79  F   UNL     1      12.292 -11.250   3.375  1.00  0.00    -0.200 F 
ENDBRANCH  55  69
BRANCH  56  80
ATOM     80  C   UNL     1      12.358   0.566  -4.386  1.00  0.00     0.064 A 
ATOM     81  C   UNL     1      12.847   0.592  -5.699  1.00  0.00     0.173 A 
ATOM     82  C   UNL     1      11.902   1.773  -3.836  1.00  0.00     0.173 A 
ATOM     83  F   UNL     1      13.320  -0.530  -6.260  1.00  0.00    -0.203 F 
ATOM     84  C   UNL     1      12.896   1.781  -6.426  1.00  0.00     0.198 A 
ATOM     85  C   UNL     1      11.923   2.955  -4.573  1.00  0.00     0.198 A 
ATOM     86  F   UNL     1      11.428   1.804  -2.582  1.00  0.00    -0.203 F 
ATOM     87  F   UNL     1      13.412   1.787  -7.662  1.00  0.00    -0.200 F 
ATOM     88  C   UNL     1      12.428   2.960  -5.865  1.00  0.00     0.200 A 
ATOM     89  F   UNL     1      11.460   4.089  -4.031  1.00  0.00    -0.200 F 
ATOM     90  F   UNL     1      12.473   4.101  -6.564  1.00  0.00    -0.200 F 
ENDBRANCH  56  80
BRANCH  68  91
ATOM     91  C   UNL     1      17.399  -3.526  -1.847  1.00  0.00     0.064 A 
ATOM     92  C   UNL     1      18.136  -2.572  -1.132  1.00  0.00     0.173 A 
ATOM     93  C   UNL     1      18.108  -4.460  -2.619  1.00  0.00     0.173 A 
ATOM     94  F   UNL     1      17.506  -1.648  -0.391  1.00  0.00    -0.203 F 
ATOM     95  C   UNL     1      19.526  -2.538  -1.207  1.00  0.00     0.198 A 
ATOM     96  C   UNL     1      19.499  -4.444  -2.666  1.00  0.00     0.198 A 
ATOM     97  F   UNL     1      17.451  -5.400  -3.316  1.00  0.00    -0.203 F 
ATOM     98  F   UNL     1      20.208  -1.586  -0.554  1.00  0.00    -0.200 F 
ATOM     99  C   UNL     1      20.207  -3.478  -1.967  1.00  0.00     0.200 A 
ATOM    100  F   UNL     1      20.155  -5.362  -3.389  1.00  0.00    -0.200 F 
ATOM    101  F   UNL     1      21.545  -3.449  -2.031  1.00  0.00    -0.200 F 
ENDBRANCH  68  91
ENDBRANCH  42  43
ENDBRANCH  35  37
ENDBRANCH  34  35
ENDBRANCH  33  34
ENDBRANCH  32  33
ENDBRANCH  31  32
ENDBRANCH   1  31
TORSDOF 17
