REMARK SMILES Cc1ccc(S(C)(=O)=O)cc1C(=O)NCCOCC(=O)OCCOCCOC(=O)c1ccc(-c2c3nc(c(-c4c(F)c(F)c(F)c(F)c4F)c4ccc([nH]4)c(-c4c(F)c(F)c(F)c(F)c4F)c4nc(c(-c5c(F)c(F)c(F)c(F)c5F)c5ccc2[nH]5)C=C4)C=C3)cc1
REMARK SMILES IDX 22 1 21 2 19 3 20 4 18 5 17 6 16 7 15 8 14 9 12 10 13 11
REMARK SMILES IDX 11 13 1 14 2 15 3 16 4 17 10 18 5 19 6 20 7 21 8 22 9 23
REMARK SMILES IDX 23 24 24 25 25 26 26 27 27 28 28 29 29 30 30 31 31 32 92 33
REMARK SMILES IDX 32 34 91 35 33 36 34 37 35 38 85 39 36 40 90 41 84 42 86 43
REMARK SMILES IDX 37 44 89 45 83 46 82 47 38 49 70 50 50 51 69 52 51 53 54 54
REMARK SMILES IDX 68 55 87 56 52 57 53 58 67 60 88 61 55 62 39 63 40 64 48 65
REMARK SMILES IDX 41 66 42 67 46 68 49 69 43 70 44 71 47 72 45 73 71 74 72 75
REMARK SMILES IDX 80 76 73 77 74 78 78 79 81 80 75 81 76 82 79 83 77 84 56 85
REMARK SMILES IDX 57 86 65 87 58 88 59 89 63 90 66 91 60 92 61 93 64 94 62 95
REMARK H PARENT 14 12 86 48 54 59
REMARK Flexibility Score: inf
ROOT
ATOM      1  C   UNL     1       4.769   2.496  -3.848  1.00  0.00     0.261 C 
ENDROOT
BRANCH   1   2
ATOM      2  O   UNL     1       5.339   2.931  -2.603  1.00  0.00    -0.462 OA
BRANCH   2   3
ATOM      3  C   UNL     1       4.574   3.708  -1.781  1.00  0.00     0.332 C 
ATOM      4  O   UNL     1       3.478   4.182  -2.040  1.00  0.00    -0.250 OA
BRANCH   3   5
ATOM      5  C   UNL     1       5.251   3.864  -0.425  1.00  0.00     0.282 C 
BRANCH   5   6
ATOM      6  O   UNL     1       5.715   2.669   0.191  1.00  0.00    -0.368 OA
BRANCH   6   7
ATOM      7  C   UNL     1       4.767   1.594   0.224  1.00  0.00     0.182 C 
BRANCH   7   8
ATOM      8  C   UNL     1       3.610   1.802   1.218  1.00  0.00     0.144 C 
BRANCH   8   9
ATOM      9  N   UNL     1       2.454   2.427   0.594  1.00  0.00    -0.350 N 
ATOM     10  C   UNL     1       1.158   2.116   0.309  1.00  0.00     0.251 C 
ATOM     11  O   UNL     1       0.501   3.097  -0.067  1.00  0.00    -0.269 OA
ATOM     12  H   UNL     1       2.671   3.338   0.289  1.00  0.00     0.163 HD
BRANCH  10  13
ATOM     13  C   UNL     1       0.432   0.792   0.366  1.00  0.00     0.044 A 
ATOM     14  C   UNL     1       2.346  -0.993   0.337  1.00  0.00     0.045 C 
ATOM     15  C   UNL     1       0.919  -0.534   0.316  1.00  0.00    -0.038 A 
ATOM     16  C   UNL     1      -0.006  -1.611   0.231  1.00  0.00     0.005 A 
ATOM     17  C   UNL     1      -1.379  -1.414   0.161  1.00  0.00     0.020 A 
ATOM     18  C   UNL     1      -0.984   0.960   0.303  1.00  0.00     0.034 A 
ATOM     19  C   UNL     1      -1.867  -0.119   0.183  1.00  0.00     0.067 A 
BRANCH  19  20
ATOM     20  S   UNL     1      -3.623   0.140   0.075  1.00  0.00     0.175 S 
ATOM     21  C   UNL     1      -4.102  -0.639  -1.448  1.00  0.00     0.163 C 
ATOM     22  O   UNL     1      -4.215  -0.598   1.168  1.00  0.00    -0.224 OA
ATOM     23  O   UNL     1      -3.855   1.567  -0.084  1.00  0.00    -0.224 OA
ENDBRANCH  19  20
ENDBRANCH  10  13
ENDBRANCH   8   9
ENDBRANCH   7   8
ENDBRANCH   6   7
ENDBRANCH   5   6
ENDBRANCH   3   5
ENDBRANCH   2   3
ENDBRANCH   1   2
BRANCH   1  24
ATOM     24  C   UNL     1       4.037   1.189  -3.736  1.00  0.00     0.202 C 
BRANCH  24  25
ATOM     25  O   UNL     1       2.740   1.552  -3.287  1.00  0.00    -0.374 OA
BRANCH  25  26
ATOM     26  C   UNL     1       1.944   0.514  -2.773  1.00  0.00     0.202 C 
BRANCH  26  27
ATOM     27  C   UNL     1       1.708  -0.663  -3.718  1.00  0.00     0.261 C 
BRANCH  27  28
ATOM     28  O   UNL     1       0.737  -0.355  -4.741  1.00  0.00    -0.460 OA
BRANCH  28  29
ATOM     29  C   UNL     1       1.228   0.115  -5.923  1.00  0.00     0.338 C 
ATOM     30  O   UNL     1       1.778  -0.572  -6.765  1.00  0.00    -0.246 OA
BRANCH  29  31
ATOM     31  C   UNL     1       1.099   1.597  -5.993  1.00  0.00     0.060 A 
ATOM     32  C   UNL     1       1.802   2.336  -6.958  1.00  0.00     0.016 A 
ATOM     33  C   UNL     1       0.498   2.255  -4.929  1.00  0.00     0.016 A 
ATOM     34  C   UNL     1       2.063   3.694  -6.736  1.00  0.00     0.010 A 
ATOM     35  C   UNL     1       0.931   3.524  -4.621  1.00  0.00     0.010 A 
ATOM     36  C   UNL     1       1.737   4.252  -5.508  1.00  0.00    -0.014 A 
BRANCH  36  37
ATOM     37  C   UNL     1       2.171   5.556  -4.999  1.00  0.00     0.031 A 
ATOM     38  C   UNL     1       1.109   6.497  -4.560  1.00  0.00     0.074 A 
ATOM     39  C   UNL     1       3.468   5.796  -4.669  1.00  0.00     0.049 A 
ATOM     40  N   UNL     1       1.352   7.657  -4.068  1.00  0.00    -0.248 NA
ATOM     41  C   UNL     1      -0.331   6.237  -4.667  1.00  0.00     0.031 C 
ATOM     42  C   UNL     1       3.988   6.748  -3.681  1.00  0.00     0.029 A 
ATOM     43  N   UNL     1       4.649   5.242  -5.193  1.00  0.00    -0.354 N 
ATOM     44  C   UNL     1       0.199   8.127  -3.494  1.00  0.00     0.074 A 
ATOM     45  C   UNL     1      -0.843   7.269  -3.989  1.00  0.00     0.031 C 
ATOM     46  C   UNL     1       5.303   6.940  -3.889  1.00  0.00     0.029 A 
ATOM     47  C   UNL     1       5.639   6.243  -5.116  1.00  0.00     0.049 A 
ATOM     48  H   UNL     1       4.763   4.331  -5.547  1.00  0.00     0.167 HD
ATOM     49  C   UNL     1       0.324   9.131  -2.584  1.00  0.00     0.037 A 
ATOM     50  C   UNL     1       6.175   6.738  -6.263  1.00  0.00     0.037 A 
ATOM     51  C   UNL     1       1.672   9.713  -2.659  1.00  0.00     0.049 A 
ATOM     52  C   UNL     1       5.780   8.183  -6.418  1.00  0.00     0.074 A 
ATOM     53  C   UNL     1       2.810   9.693  -1.874  1.00  0.00     0.029 A 
ATOM     54  N   UNL     1       2.079  10.204  -3.891  1.00  0.00    -0.354 N 
ATOM     55  N   UNL     1       4.995   8.792  -5.573  1.00  0.00    -0.248 NA
ATOM     56  C   UNL     1       6.175   9.048  -7.519  1.00  0.00     0.031 C 
ATOM     57  C   UNL     1       3.912  10.121  -2.693  1.00  0.00     0.029 A 
ATOM     58  C   UNL     1       3.434  10.445  -3.954  1.00  0.00     0.049 A 
ATOM     59  H   UNL     1       1.463  10.364  -4.643  1.00  0.00     0.167 HD
ATOM     60  C   UNL     1       4.767  10.068  -5.962  1.00  0.00     0.074 A 
ATOM     61  C   UNL     1       5.496  10.172  -7.221  1.00  0.00     0.031 C 
ATOM     62  C   UNL     1       4.000  10.920  -5.218  1.00  0.00     0.037 A 
BRANCH  49  63
ATOM     63  C   UNL     1      -0.715   9.544  -1.568  1.00  0.00     0.064 A 
ATOM     64  C   UNL     1      -0.485  10.681  -0.764  1.00  0.00     0.173 A 
ATOM     65  C   UNL     1      -1.891   8.827  -1.253  1.00  0.00     0.173 A 
ATOM     66  F   UNL     1       0.592  11.457  -0.953  1.00  0.00    -0.203 F 
ATOM     67  C   UNL     1      -1.346  11.055   0.273  1.00  0.00     0.198 A 
ATOM     68  C   UNL     1      -2.775   9.231  -0.247  1.00  0.00     0.198 A 
ATOM     69  F   UNL     1      -2.217   7.685  -1.865  1.00  0.00    -0.203 F 
ATOM     70  F   UNL     1      -1.045  12.117   1.034  1.00  0.00    -0.200 F 
ATOM     71  C   UNL     1      -2.495  10.336   0.527  1.00  0.00     0.200 A 
ATOM     72  F   UNL     1      -3.893   8.524  -0.021  1.00  0.00    -0.200 F 
ATOM     73  F   UNL     1      -3.321  10.697   1.518  1.00  0.00    -0.200 F 
ENDBRANCH  49  63
BRANCH  50  74
ATOM     74  C   UNL     1       6.270   5.654  -7.298  1.00  0.00     0.064 A 
ATOM     75  C   UNL     1       7.044   4.518  -6.949  1.00  0.00     0.173 A 
ATOM     76  C   UNL     1       5.256   5.463  -8.245  1.00  0.00     0.173 A 
ATOM     77  F   UNL     1       8.030   4.634  -6.043  1.00  0.00    -0.203 F 
ATOM     78  C   UNL     1       6.678   3.234  -7.354  1.00  0.00     0.198 A 
ATOM     79  C   UNL     1       4.929   4.174  -8.689  1.00  0.00     0.198 A 
ATOM     80  F   UNL     1       4.475   6.486  -8.615  1.00  0.00    -0.203 F 
ATOM     81  F   UNL     1       7.297   2.164  -6.831  1.00  0.00    -0.200 F 
ATOM     82  C   UNL     1       5.593   3.061  -8.191  1.00  0.00     0.200 A 
ATOM     83  F   UNL     1       3.874   3.997  -9.498  1.00  0.00    -0.200 F 
ATOM     84  F   UNL     1       5.144   1.827  -8.464  1.00  0.00    -0.200 F 
ENDBRANCH  50  74
BRANCH  62  85
ATOM     85  C   UNL     1       3.701  12.307  -5.690  1.00  0.00     0.064 A 
ATOM     86  C   UNL     1       4.689  13.126  -6.250  1.00  0.00     0.173 A 
ATOM     87  C   UNL     1       2.416  12.876  -5.562  1.00  0.00     0.173 A 
ATOM     88  F   UNL     1       5.969  12.726  -6.297  1.00  0.00    -0.203 F 
ATOM     89  C   UNL     1       4.382  14.378  -6.777  1.00  0.00     0.198 A 
ATOM     90  C   UNL     1       2.131  14.158  -6.013  1.00  0.00     0.198 A 
ATOM     91  F   UNL     1       1.385  12.199  -5.039  1.00  0.00    -0.203 F 
ATOM     92  F   UNL     1       5.329  15.077  -7.415  1.00  0.00    -0.200 F 
ATOM     93  C   UNL     1       3.104  14.894  -6.657  1.00  0.00     0.200 A 
ATOM     94  F   UNL     1       0.900  14.661  -5.845  1.00  0.00    -0.200 F 
ATOM     95  F   UNL     1       2.808  16.095  -7.167  1.00  0.00    -0.200 F 
ENDBRANCH  62  85
ENDBRANCH  36  37
ENDBRANCH  29  31
ENDBRANCH  28  29
ENDBRANCH  27  28
ENDBRANCH  26  27
ENDBRANCH  25  26
ENDBRANCH  24  25
ENDBRANCH   1  24
TORSDOF 20
