REMARK SMILES NC(=O)C1CC[NH+](Cc2ccc(C(=O)OCCOCCOC(=O)c3ccc(-c4c5nc(c(-c6c(F)c(F)c(F)c(F)c6F)c6ccc([nH]6)c(-c6c(F)c(F)c(F)c(F)c6F)c6nc(c(-c7c(F)c(F)c(F)c(F)c7F)c7ccc4[nH]7)C=C6)C=C5)cc3)cc2)CC1
REMARK SMILES IDX 17 1 16 2 15 3 13 4 14 5 12 6 9 7 10 8 88 9 11 10 87 11 8 12
REMARK SMILES IDX 7 13 4 14 5 15 90 16 6 17 89 18 2 20 1 21 3 24 18 25 19 26
REMARK SMILES IDX 20 27 21 28 22 29 23 30 24 31 25 32 86 33 26 34 85 35 27 36
REMARK SMILES IDX 28 37 29 38 79 39 30 40 84 41 78 42 80 43 31 44 83 45 77 46
REMARK SMILES IDX 76 47 32 49 64 50 44 51 63 52 45 53 48 54 62 55 81 56 46 57
REMARK SMILES IDX 47 58 61 60 82 61 49 62 33 63 34 64 42 65 35 66 36 67 40 68
REMARK SMILES IDX 43 69 37 70 38 71 41 72 39 73 65 74 66 75 74 76 67 77 68 78
REMARK SMILES IDX 72 79 75 80 69 81 70 82 73 83 71 84 50 85 51 86 59 87 52 88
REMARK SMILES IDX 53 89 57 90 60 91 54 92 55 93 58 94 56 95
REMARK H PARENT 7 19 1 22 1 23 80 48 48 59
REMARK Flexibility Score: inf
ROOT
ATOM      1  C   UNL     1      -6.613   2.512   4.797  1.00  0.00     0.202 C 
ENDROOT
BRANCH   1   2
ATOM      2  C   UNL     1      -6.103   1.669   3.624  1.00  0.00     0.261 C 
BRANCH   2   3
ATOM      3  O   UNL     1      -4.892   2.231   3.097  1.00  0.00    -0.460 OA
BRANCH   3   4
ATOM      4  C   UNL     1      -4.988   2.729   1.841  1.00  0.00     0.338 C 
ATOM      5  O   UNL     1      -5.926   2.577   1.071  1.00  0.00    -0.246 OA
BRANCH   4   6
ATOM      6  C   UNL     1      -3.841   3.626   1.552  1.00  0.00     0.060 A 
ATOM      7  C   UNL     1      -1.674   5.217   0.767  1.00  0.00     0.006 A 
ATOM      8  C   UNL     1      -2.899   5.306   0.089  1.00  0.00     0.010 A 
ATOM      9  C   UNL     1      -1.595   4.439   1.932  1.00  0.00     0.010 A 
ATOM     10  C   UNL     1      -3.974   4.511   0.477  1.00  0.00     0.016 A 
ATOM     11  C   UNL     1      -2.666   3.628   2.313  1.00  0.00     0.016 A 
BRANCH   7  12
ATOM     12  C   UNL     1      -0.424   5.798   0.129  1.00  0.00     0.299 C 
BRANCH  12  13
ATOM     13  N   UNL     1       0.392   4.826  -0.643  1.00  0.00    -0.331 N 
ATOM     14  C   UNL     1       1.237   2.161  -1.587  1.00  0.00     0.089 C 
ATOM     15  C   UNL     1       2.044   2.979  -0.575  1.00  0.00     0.075 C 
ATOM     16  C   UNL     1       0.430   3.116  -2.472  1.00  0.00     0.075 C 
ATOM     17  C   UNL     1       1.139   3.913   0.227  1.00  0.00     0.263 C 
ATOM     18  C   UNL     1      -0.404   4.104  -1.651  1.00  0.00     0.263 C 
ATOM     19  H   UNL     1       1.084   5.373  -1.154  1.00  0.00     0.348 HD
BRANCH  14  20
ATOM     20  C   UNL     1       0.351   1.120  -0.902  1.00  0.00     0.220 C 
ATOM     21  N   UNL     1       1.014   0.176  -0.174  1.00  0.00    -0.369 N 
ATOM     22  H   UNL     1       0.509  -0.527   0.296  1.00  0.00     0.159 HD
ATOM     23  H   UNL     1       1.996   0.198  -0.118  1.00  0.00     0.159 HD
ATOM     24  O   UNL     1      -0.870   1.071  -0.990  1.00  0.00    -0.275 OA
ENDBRANCH  14  20
ENDBRANCH  12  13
ENDBRANCH   7  12
ENDBRANCH   4   6
ENDBRANCH   3   4
ENDBRANCH   2   3
ENDBRANCH   1   2
BRANCH   1  25
ATOM     25  O   UNL     1      -7.064   3.830   4.478  1.00  0.00    -0.374 OA
BRANCH  25  26
ATOM     26  C   UNL     1      -6.067   4.834   4.285  1.00  0.00     0.202 C 
BRANCH  26  27
ATOM     27  C   UNL     1      -5.489   5.473   5.552  1.00  0.00     0.261 C 
BRANCH  27  28
ATOM     28  O   UNL     1      -4.816   4.512   6.383  1.00  0.00    -0.460 OA
BRANCH  28  29
ATOM     29  C   UNL     1      -5.474   4.205   7.524  1.00  0.00     0.338 C 
ATOM     30  O   UNL     1      -6.492   4.727   7.958  1.00  0.00    -0.246 OA
BRANCH  29  31
ATOM     31  C   UNL     1      -4.894   3.002   8.146  1.00  0.00     0.060 A 
ATOM     32  C   UNL     1      -5.780   1.974   8.486  1.00  0.00     0.016 A 
ATOM     33  C   UNL     1      -3.538   2.906   8.471  1.00  0.00     0.016 A 
ATOM     34  C   UNL     1      -5.329   0.877   9.214  1.00  0.00     0.010 A 
ATOM     35  C   UNL     1      -3.086   1.802   9.205  1.00  0.00     0.010 A 
ATOM     36  C   UNL     1      -3.989   0.805   9.617  1.00  0.00    -0.014 A 
BRANCH  36  37
ATOM     37  C   UNL     1      -3.597  -0.252  10.582  1.00  0.00     0.031 A 
ATOM     38  C   UNL     1      -3.491   0.086  12.043  1.00  0.00     0.074 A 
ATOM     39  C   UNL     1      -3.428  -1.521  10.169  1.00  0.00     0.049 A 
ATOM     40  N   UNL     1      -3.282  -0.705  13.066  1.00  0.00    -0.248 NA
ATOM     41  C   UNL     1      -3.642   1.505  12.402  1.00  0.00     0.031 C 
ATOM     42  C   UNL     1      -3.525  -1.976   8.784  1.00  0.00     0.029 A 
ATOM     43  N   UNL     1      -3.159  -2.662  10.883  1.00  0.00    -0.354 N 
ATOM     44  C   UNL     1      -3.281   0.117  14.186  1.00  0.00     0.074 A 
ATOM     45  C   UNL     1      -3.469   1.473  13.716  1.00  0.00     0.031 C 
ATOM     46  C   UNL     1      -3.335  -3.306   8.749  1.00  0.00     0.029 A 
ATOM     47  C   UNL     1      -3.088  -3.791  10.105  1.00  0.00     0.049 A 
ATOM     48  H   UNL     1      -3.028  -2.670  11.858  1.00  0.00     0.167 HD
ATOM     49  C   UNL     1      -3.150  -0.228  15.489  1.00  0.00     0.037 A 
ATOM     50  C   UNL     1      -2.858  -5.072  10.453  1.00  0.00     0.037 A 
ATOM     51  C   UNL     1      -2.969  -1.578  15.958  1.00  0.00     0.049 A 
ATOM     52  C   UNL     1      -2.679  -5.424  11.906  1.00  0.00     0.074 A 
ATOM     53  C   UNL     1      -2.857  -2.033  17.261  1.00  0.00     0.029 A 
ATOM     54  N   UNL     1      -2.865  -2.691  15.137  1.00  0.00    -0.354 N 
ATOM     55  N   UNL     1      -2.733  -4.648  12.961  1.00  0.00    -0.248 NA
ATOM     56  C   UNL     1      -2.423  -6.838  12.216  1.00  0.00     0.031 C 
ATOM     57  C   UNL     1      -2.635  -3.414  17.225  1.00  0.00     0.029 A 
ATOM     58  C   UNL     1      -2.664  -3.828  15.904  1.00  0.00     0.049 A 
ATOM     59  H   UNL     1      -2.925  -2.676  14.154  1.00  0.00     0.167 HD
ATOM     60  C   UNL     1      -2.554  -5.480  14.059  1.00  0.00     0.074 A 
ATOM     61  C   UNL     1      -2.402  -6.824  13.541  1.00  0.00     0.031 C 
ATOM     62  C   UNL     1      -2.523  -5.162  15.377  1.00  0.00     0.037 A 
BRANCH  49  63
ATOM     63  C   UNL     1      -3.175   0.877  16.506  1.00  0.00     0.064 A 
ATOM     64  C   UNL     1      -4.356   1.569  16.815  1.00  0.00     0.173 A 
ATOM     65  C   UNL     1      -2.009   1.223  17.205  1.00  0.00     0.173 A 
ATOM     66  F   UNL     1      -5.495   1.286  16.165  1.00  0.00    -0.203 F 
ATOM     67  C   UNL     1      -4.362   2.585  17.768  1.00  0.00     0.198 A 
ATOM     68  C   UNL     1      -2.025   2.219  18.178  1.00  0.00     0.198 A 
ATOM     69  F   UNL     1      -0.855   0.589  16.951  1.00  0.00    -0.203 F 
ATOM     70  F   UNL     1      -5.491   3.264  18.015  1.00  0.00    -0.200 F 
ATOM     71  C   UNL     1      -3.199   2.904  18.453  1.00  0.00     0.200 A 
ATOM     72  F   UNL     1      -0.903   2.518  18.847  1.00  0.00    -0.200 F 
ATOM     73  F   UNL     1      -3.208   3.876  19.375  1.00  0.00    -0.200 F 
ENDBRANCH  49  63
BRANCH  50  74
ATOM     74  C   UNL     1      -2.810  -6.126   9.406  1.00  0.00     0.064 A 
ATOM     75  C   UNL     1      -3.808  -7.107   9.320  1.00  0.00     0.173 A 
ATOM     76  C   UNL     1      -1.756  -6.184   8.483  1.00  0.00     0.173 A 
ATOM     77  F   UNL     1      -4.823  -7.108  10.197  1.00  0.00    -0.203 F 
ATOM     78  C   UNL     1      -3.744  -8.117   8.363  1.00  0.00     0.198 A 
ATOM     79  C   UNL     1      -1.708  -7.178   7.508  1.00  0.00     0.198 A 
ATOM     80  F   UNL     1      -0.776  -5.270   8.524  1.00  0.00    -0.203 F 
ATOM     81  F   UNL     1      -4.685  -9.070   8.333  1.00  0.00    -0.200 F 
ATOM     82  C   UNL     1      -2.697  -8.149   7.454  1.00  0.00     0.200 A 
ATOM     83  F   UNL     1      -0.700  -7.198   6.625  1.00  0.00    -0.200 F 
ATOM     84  F   UNL     1      -2.636  -9.119   6.532  1.00  0.00    -0.200 F 
ENDBRANCH  50  74
BRANCH  62  85
ATOM     85  C   UNL     1      -2.360  -6.291  16.354  1.00  0.00     0.064 A 
ATOM     86  C   UNL     1      -1.150  -6.989  16.484  1.00  0.00     0.173 A 
ATOM     87  C   UNL     1      -3.427  -6.668  17.184  1.00  0.00     0.173 A 
ATOM     88  F   UNL     1      -0.103  -6.676  15.704  1.00  0.00    -0.203 F 
ATOM     89  C   UNL     1      -1.026  -8.046  17.382  1.00  0.00     0.198 A 
ATOM     90  C   UNL     1      -3.289  -7.704  18.104  1.00  0.00     0.198 A 
ATOM     91  F   UNL     1      -4.603  -6.028  17.108  1.00  0.00    -0.203 F 
ATOM     92  F   UNL     1       0.122  -8.736  17.447  1.00  0.00    -0.200 F 
ATOM     93  C   UNL     1      -2.092  -8.399  18.195  1.00  0.00     0.200 A 
ATOM     94  F   UNL     1      -4.316  -8.035  18.898  1.00  0.00    -0.200 F 
ATOM     95  F   UNL     1      -1.971  -9.416  19.058  1.00  0.00    -0.200 F 
ENDBRANCH  62  85
ENDBRANCH  36  37
ENDBRANCH  29  31
ENDBRANCH  28  29
ENDBRANCH  27  28
ENDBRANCH  26  27
ENDBRANCH  25  26
ENDBRANCH   1  25
TORSDOF 17
