REMARK SMILES CS(=O)(=O)c1ccc(C2=NN(c3ccc(C(=O)OCCOCCOC(=O)c4ccc(-c5c6nc(c(-c7c(F)c(F)c(F)c(F)c7F)c7ccc([nH]7)c(-c7c(F)c(F)c(F)c(F)c7F)c7nc(c(-c8c(F)c(F)c(F)c(F)c8F)c8ccc5[nH]8)C=C7)C=C6)cc4)cc3)[C@H](c3cccs3)C2)cc1
REMARK SMILES IDX 20 1 19 2 18 3 16 4 17 5 15 6 12 7 13 8 91 9 14 10 90 11
REMARK SMILES IDX 11 12 9 13 10 14 98 15 92 16 8 17 5 18 6 19 100 20 7 21
REMARK SMILES IDX 99 22 2 23 1 24 3 25 4 26 93 27 94 28 97 29 95 30 96 31
REMARK SMILES IDX 21 32 22 33 23 34 24 35 25 36 26 37 27 38 28 39 89 40 29 41
REMARK SMILES IDX 88 42 30 43 31 44 32 45 82 46 33 47 87 48 81 49 83 50 34 51
REMARK SMILES IDX 86 52 80 53 79 54 35 56 67 57 47 58 66 59 48 60 51 61 65 62
REMARK SMILES IDX 84 63 49 64 50 65 64 67 85 68 52 69 36 70 37 71 45 72 38 73
REMARK SMILES IDX 39 74 43 75 46 76 40 77 41 78 44 79 42 80 68 81 69 82 77 83
REMARK SMILES IDX 70 84 71 85 75 86 78 87 72 88 73 89 76 90 74 91 53 92 54 93
REMARK SMILES IDX 62 94 55 95 56 96 60 97 63 98 57 99 58 100 61 101 59 102
REMARK H PARENT 83 55 51 66
REMARK Flexibility Score: inf
ROOT
ATOM      1  C   UNL     1       6.750 -14.253  -1.702  1.00  0.00     0.202 C 
ENDROOT
BRANCH   1   2
ATOM      2  C   UNL     1       6.793 -14.267  -0.172  1.00  0.00     0.261 C 
BRANCH   2   3
ATOM      3  O   UNL     1       5.834 -13.348   0.375  1.00  0.00    -0.460 OA
BRANCH   3   4
ATOM      4  C   UNL     1       6.363 -12.264   0.992  1.00  0.00     0.338 C 
ATOM      5  O   UNL     1       7.541 -12.084   1.266  1.00  0.00    -0.246 OA
BRANCH   4   6
ATOM      6  C   UNL     1       5.323 -11.229   1.205  1.00  0.00     0.060 A 
ATOM      7  C   UNL     1       3.475  -9.194   1.782  1.00  0.00     0.060 A 
ATOM      8  C   UNL     1       4.822  -8.885   1.570  1.00  0.00     0.029 A 
ATOM      9  C   UNL     1       3.052 -10.520   1.605  1.00  0.00     0.029 A 
ATOM     10  C   UNL     1       5.744  -9.896   1.298  1.00  0.00     0.018 A 
ATOM     11  C   UNL     1       3.965 -11.538   1.317  1.00  0.00     0.018 A 
BRANCH   7  12
ATOM     12  N   UNL     1       2.587  -8.245   2.302  1.00  0.00    -0.257 N 
ATOM     13  C   UNL     1       2.168  -6.185   2.659  1.00  0.00     0.071 C 
ATOM     14  N   UNL     1       2.462  -7.024   1.714  1.00  0.00    -0.176 NA
ATOM     15  C   UNL     1       2.219  -6.722   4.061  1.00  0.00     0.091 C 
ATOM     16  C   UNL     1       2.454  -8.206   3.771  1.00  0.00     0.154 C 
BRANCH  13  17
ATOM     17  C   UNL     1       1.786  -4.788   2.399  1.00  0.00    -0.002 A 
ATOM     18  C   UNL     1       0.930  -2.189   1.911  1.00  0.00     0.067 A 
ATOM     19  C   UNL     1       0.395  -3.242   1.163  1.00  0.00     0.021 A 
ATOM     20  C   UNL     1       1.885  -2.427   2.906  1.00  0.00     0.021 A 
ATOM     21  C   UNL     1       0.839  -4.543   1.398  1.00  0.00     0.011 A 
ATOM     22  C   UNL     1       2.310  -3.736   3.156  1.00  0.00     0.011 A 
BRANCH  18  23
ATOM     23  S   UNL     1       0.332  -0.538   1.622  1.00  0.00     0.175 S 
ATOM     24  C   UNL     1       1.023  -0.109   0.046  1.00  0.00     0.163 C 
ATOM     25  O   UNL     1       0.933   0.327   2.620  1.00  0.00    -0.224 OA
ATOM     26  O   UNL     1      -1.107  -0.629   1.483  1.00  0.00    -0.224 OA
ENDBRANCH  18  23
ENDBRANCH  13  17
BRANCH  16  27
ATOM     27  C   UNL     1       1.435  -9.178   4.329  1.00  0.00     0.030 A 
ATOM     28  C   UNL     1       1.679 -10.490   4.705  1.00  0.00     0.017 A 
ATOM     29  S   UNL     1      -0.233  -8.806   4.470  1.00  0.00    -0.147 S 
ATOM     30  C   UNL     1       0.499 -11.184   5.091  1.00  0.00     0.012 A 
ATOM     31  C   UNL     1      -0.610 -10.373   5.037  1.00  0.00     0.065 A 
ENDBRANCH  16  27
ENDBRANCH   7  12
ENDBRANCH   4   6
ENDBRANCH   3   4
ENDBRANCH   2   3
ENDBRANCH   1   2
BRANCH   1  32
ATOM     32  O   UNL     1       7.127 -13.027  -2.326  1.00  0.00    -0.374 OA
BRANCH  32  33
ATOM     33  C   UNL     1       6.131 -12.004  -2.405  1.00  0.00     0.202 C 
BRANCH  33  34
ATOM     34  C   UNL     1       5.106 -12.148  -3.535  1.00  0.00     0.261 C 
BRANCH  34  35
ATOM     35  O   UNL     1       4.251 -13.289  -3.340  1.00  0.00    -0.460 OA
BRANCH  35  36
ATOM     36  C   UNL     1       4.454 -14.308  -4.206  1.00  0.00     0.338 C 
ATOM     37  O   UNL     1       5.206 -14.327  -5.170  1.00  0.00    -0.246 OA
BRANCH  36  38
ATOM     38  C   UNL     1       3.751 -15.516  -3.736  1.00  0.00     0.060 A 
ATOM     39  C   UNL     1       4.493 -16.700  -3.645  1.00  0.00     0.016 A 
ATOM     40  C   UNL     1       2.382 -15.513  -3.456  1.00  0.00     0.016 A 
ATOM     41  C   UNL     1       3.860 -17.899  -3.325  1.00  0.00     0.010 A 
ATOM     42  C   UNL     1       1.746 -16.720  -3.142  1.00  0.00     0.010 A 
ATOM     43  C   UNL     1       2.475 -17.922  -3.110  1.00  0.00    -0.014 A 
BRANCH  43  44
ATOM     44  C   UNL     1       1.776 -19.225  -2.992  1.00  0.00     0.031 A 
ATOM     45  C   UNL     1       1.073 -19.788  -4.196  1.00  0.00     0.074 A 
ATOM     46  C   UNL     1       1.790 -19.912  -1.836  1.00  0.00     0.049 A 
ATOM     47  N   UNL     1       0.377 -20.890  -4.314  1.00  0.00    -0.248 NA
ATOM     48  C   UNL     1       1.169 -19.001  -5.436  1.00  0.00     0.031 C 
ATOM     49  C   UNL     1       2.467 -19.489  -0.613  1.00  0.00     0.029 A 
ATOM     50  N   UNL     1       1.210 -21.111  -1.505  1.00  0.00    -0.354 N 
ATOM     51  C   UNL     1      -0.051 -20.927  -5.635  1.00  0.00     0.074 A 
ATOM     52  C   UNL     1       0.437 -19.723  -6.272  1.00  0.00     0.031 C 
ATOM     53  C   UNL     1       2.256 -20.411   0.342  1.00  0.00     0.029 A 
ATOM     54  C   UNL     1       1.404 -21.471  -0.195  1.00  0.00     0.049 A 
ATOM     55  H   UNL     1       0.704 -21.660  -2.147  1.00  0.00     0.167 HD
ATOM     56  C   UNL     1      -0.777 -21.883  -6.261  1.00  0.00     0.037 A 
ATOM     57  C   UNL     1       0.929 -22.526   0.495  1.00  0.00     0.037 A 
ATOM     58  C   UNL     1      -1.259 -23.082  -5.626  1.00  0.00     0.049 A 
ATOM     59  C   UNL     1       0.065 -23.541  -0.208  1.00  0.00     0.074 A 
ATOM     60  C   UNL     1      -1.984 -24.121  -6.182  1.00  0.00     0.029 A 
ATOM     61  N   UNL     1      -1.069 -23.397  -4.289  1.00  0.00    -0.354 N 
ATOM     62  N   UNL     1      -0.312 -23.583  -1.463  1.00  0.00    -0.248 NA
ATOM     63  C   UNL     1      -0.439 -24.659   0.604  1.00  0.00     0.031 C 
ATOM     64  C   UNL     1      -2.276 -25.042  -5.170  1.00  0.00     0.029 A 
ATOM     65  C   UNL     1      -1.687 -24.602  -3.995  1.00  0.00     0.049 A 
ATOM     66  H   UNL     1      -0.570 -22.846  -3.644  1.00  0.00     0.167 HD
ATOM     67  C   UNL     1      -1.069 -24.740  -1.598  1.00  0.00     0.074 A 
ATOM     68  C   UNL     1      -1.088 -25.380  -0.299  1.00  0.00     0.031 C 
ATOM     69  C   UNL     1      -1.691 -25.230  -2.699  1.00  0.00     0.037 A 
BRANCH  56  70
ATOM     70  C   UNL     1      -1.114 -21.663  -7.706  1.00  0.00     0.064 A 
ATOM     71  C   UNL     1      -0.143 -21.762  -8.713  1.00  0.00     0.173 A 
ATOM     72  C   UNL     1      -2.434 -21.386  -8.092  1.00  0.00     0.173 A 
ATOM     73  F   UNL     1       1.136 -22.012  -8.395  1.00  0.00    -0.203 F 
ATOM     74  C   UNL     1      -0.477 -21.571 -10.052  1.00  0.00     0.198 A 
ATOM     75  C   UNL     1      -2.770 -21.222  -9.433  1.00  0.00     0.198 A 
ATOM     76  F   UNL     1      -3.402 -21.284  -7.168  1.00  0.00    -0.203 F 
ATOM     77  F   UNL     1       0.474 -21.629 -10.993  1.00  0.00    -0.200 F 
ATOM     78  C   UNL     1      -1.791 -21.308 -10.411  1.00  0.00     0.200 A 
ATOM     79  F   UNL     1      -4.042 -20.980  -9.779  1.00  0.00    -0.200 F 
ATOM     80  F   UNL     1      -2.112 -21.132 -11.700  1.00  0.00    -0.200 F 
ENDBRANCH  56  70
BRANCH  57  81
ATOM     81  C   UNL     1       1.247 -22.674   1.939  1.00  0.00     0.064 A 
ATOM     82  C   UNL     1       2.072 -23.711   2.396  1.00  0.00     0.173 A 
ATOM     83  C   UNL     1       0.714 -21.795   2.893  1.00  0.00     0.173 A 
ATOM     84  F   UNL     1       2.584 -24.593   1.525  1.00  0.00    -0.203 F 
ATOM     85  C   UNL     1       2.336 -23.874   3.755  1.00  0.00     0.198 A 
ATOM     86  C   UNL     1       1.002 -21.942   4.248  1.00  0.00     0.198 A 
ATOM     87  F   UNL     1      -0.083 -20.788   2.508  1.00  0.00    -0.203 F 
ATOM     88  F   UNL     1       3.088 -24.902   4.170  1.00  0.00    -0.200 F 
ATOM     89  C   UNL     1       1.805 -22.987   4.679  1.00  0.00     0.200 A 
ATOM     90  F   UNL     1       0.495 -21.076   5.136  1.00  0.00    -0.200 F 
ATOM     91  F   UNL     1       2.060 -23.143   5.985  1.00  0.00    -0.200 F 
ENDBRANCH  57  81
BRANCH  69  92
ATOM     92  C   UNL     1      -2.417 -26.537  -2.558  1.00  0.00     0.064 A 
ATOM     93  C   UNL     1      -3.626 -26.636  -1.853  1.00  0.00     0.173 A 
ATOM     94  C   UNL     1      -1.918 -27.695  -3.172  1.00  0.00     0.173 A 
ATOM     95  F   UNL     1      -4.138 -25.560  -1.236  1.00  0.00    -0.203 F 
ATOM     96  C   UNL     1      -4.295 -27.852  -1.749  1.00  0.00     0.198 A 
ATOM     97  C   UNL     1      -2.605 -28.903  -3.090  1.00  0.00     0.198 A 
ATOM     98  F   UNL     1      -0.769 -27.653  -3.864  1.00  0.00    -0.203 F 
ATOM     99  F   UNL     1      -5.425 -27.934  -1.032  1.00  0.00    -0.200 F 
ATOM    100  C   UNL     1      -3.788 -28.983  -2.373  1.00  0.00     0.200 A 
ATOM    101  F   UNL     1      -2.121 -29.991  -3.705  1.00  0.00    -0.200 F 
ATOM    102  F   UNL     1      -4.438 -30.151  -2.277  1.00  0.00    -0.200 F 
ENDBRANCH  69  92
ENDBRANCH  43  44
ENDBRANCH  36  38
ENDBRANCH  35  36
ENDBRANCH  34  35
ENDBRANCH  33  34
ENDBRANCH  32  33
ENDBRANCH   1  32
TORSDOF 18
