REMARK SMILES CC1(C(=O)N2CC(CC(=O)OCCOCCOC(=O)c3ccc(-c4c5nc(c(-c6c(F)c(F)c(F)c(F)c6F)c6ccc([nH]6)c(-c6c(F)c(F)c(F)c(F)c6F)c6nc(c(-c7c(F)c(F)c(F)c(F)c7F)c7ccc4[nH]7)C=C6)C=C5)cc3)C2)CCCC1
REMARK SMILES IDX 14 1 13 2 12 3 11 4 9 5 10 6 8 7 7 8 3 9 4 10 5 11 6 12
REMARK SMILES IDX 83 13 2 14 1 15 84 16 87 17 85 18 86 19 15 20 16 21 17 22
REMARK SMILES IDX 18 23 19 24 20 25 21 26 82 27 22 28 81 29 23 30 24 31 25 32
REMARK SMILES IDX 75 33 26 34 80 35 74 36 76 37 27 38 79 39 73 40 72 41 28 43
REMARK SMILES IDX 60 44 40 45 59 46 41 47 44 48 58 49 77 50 42 51 43 52 57 54
REMARK SMILES IDX 78 55 45 56 29 57 30 58 38 59 31 60 32 61 36 62 39 63 33 64
REMARK SMILES IDX 34 65 37 66 35 67 61 68 62 69 70 70 63 71 64 72 68 73 71 74
REMARK SMILES IDX 65 75 66 76 69 77 67 78 46 79 47 80 55 81 48 82 49 83 53 84
REMARK SMILES IDX 56 85 50 86 51 87 54 88 52 89
REMARK H PARENT 76 42 44 53
REMARK Flexibility Score: inf
ROOT
ATOM      1  O   UNL     1       9.224  -1.883   1.404  1.00  0.00    -0.374 OA
ENDROOT
BRANCH   1   2
ATOM      2  C   UNL     1       8.873  -2.251   0.071  1.00  0.00     0.202 C 
BRANCH   2   3
ATOM      3  C   UNL     1       8.014  -3.510  -0.078  1.00  0.00     0.261 C 
BRANCH   3   4
ATOM      4  O   UNL     1       6.691  -3.316   0.461  1.00  0.00    -0.463 OA
BRANCH   4   5
ATOM      5  C   UNL     1       6.272  -4.276   1.325  1.00  0.00     0.306 C 
ATOM      6  O   UNL     1       6.880  -5.309   1.576  1.00  0.00    -0.252 OA
BRANCH   5   7
ATOM      7  C   UNL     1       4.936  -3.972   1.949  1.00  0.00     0.130 C 
BRANCH   7   8
ATOM      8  C   UNL     1       4.475  -2.520   1.966  1.00  0.00     0.039 C 
ATOM      9  C   UNL     1       1.971  -0.418   1.562  1.00  0.00     0.228 C 
ATOM     10  O   UNL     1       2.026   0.341   2.528  1.00  0.00    -0.274 OA
ATOM     11  N   UNL     1       2.649  -1.618   1.543  1.00  0.00    -0.342 N 
ATOM     12  C   UNL     1       3.157  -2.316   2.715  1.00  0.00     0.125 C 
ATOM     13  C   UNL     1       3.795  -1.967   0.706  1.00  0.00     0.125 C 
BRANCH   9  14
ATOM     14  C   UNL     1       1.046  -0.168   0.359  1.00  0.00     0.047 C 
ATOM     15  C   UNL     1       1.828   0.006  -0.947  1.00  0.00     0.022 C 
ATOM     16  C   UNL     1       0.132   1.047   0.609  1.00  0.00     0.016 C 
ATOM     17  C   UNL     1       0.012  -1.305   0.261  1.00  0.00     0.016 C 
ATOM     18  C   UNL     1      -1.110   0.805  -0.244  1.00  0.00     0.001 C 
ATOM     19  C   UNL     1      -1.212  -0.706  -0.424  1.00  0.00     0.001 C 
ENDBRANCH   9  14
ENDBRANCH   7   8
ENDBRANCH   5   7
ENDBRANCH   4   5
ENDBRANCH   3   4
ENDBRANCH   2   3
ENDBRANCH   1   2
BRANCH   1  20
ATOM     20  C   UNL     1       8.200  -1.324   2.224  1.00  0.00     0.202 C 
BRANCH  20  21
ATOM     21  C   UNL     1       7.815   0.134   1.936  1.00  0.00     0.261 C 
BRANCH  21  22
ATOM     22  O   UNL     1       7.242   0.308   0.625  1.00  0.00    -0.460 OA
BRANCH  22  23
ATOM     23  C   UNL     1       7.980   1.070  -0.219  1.00  0.00     0.338 C 
ATOM     24  O   UNL     1       9.016   1.670   0.033  1.00  0.00    -0.246 OA
BRANCH  23  25
ATOM     25  C   UNL     1       7.462   0.955  -1.594  1.00  0.00     0.060 A 
ATOM     26  C   UNL     1       8.362   0.552  -2.592  1.00  0.00     0.016 A 
ATOM     27  C   UNL     1       6.153   1.309  -1.922  1.00  0.00     0.016 A 
ATOM     28  C   UNL     1       7.964   0.538  -3.927  1.00  0.00     0.010 A 
ATOM     29  C   UNL     1       5.759   1.304  -3.266  1.00  0.00     0.010 A 
ATOM     30  C   UNL     1       6.670   0.946  -4.276  1.00  0.00    -0.014 A 
BRANCH  30  31
ATOM     31  C   UNL     1       6.316   1.118  -5.707  1.00  0.00     0.031 A 
ATOM     32  C   UNL     1       6.372   2.491  -6.317  1.00  0.00     0.074 A 
ATOM     33  C   UNL     1       5.974   0.059  -6.462  1.00  0.00     0.049 A 
ATOM     34  N   UNL     1       6.064   2.874  -7.531  1.00  0.00    -0.248 NA
ATOM     35  C   UNL     1       6.838   3.577  -5.442  1.00  0.00     0.031 C 
ATOM     36  C   UNL     1       5.929  -1.326  -6.001  1.00  0.00     0.029 A 
ATOM     37  N   UNL     1       5.593  -0.010  -7.779  1.00  0.00    -0.354 N 
ATOM     38  C   UNL     1       6.296   4.243  -7.564  1.00  0.00     0.074 A 
ATOM     39  C   UNL     1       6.744   4.629  -6.243  1.00  0.00     0.031 C 
ATOM     40  C   UNL     1       5.529  -2.110  -7.017  1.00  0.00     0.029 A 
ATOM     41  C   UNL     1       5.258  -1.277  -8.188  1.00  0.00     0.049 A 
ATOM     42  H   UNL     1       5.562   0.774  -8.373  1.00  0.00     0.167 HD
ATOM     43  C   UNL     1       6.155   5.098  -8.605  1.00  0.00     0.037 A 
ATOM     44  C   UNL     1       4.768  -1.710  -9.366  1.00  0.00     0.037 A 
ATOM     45  C   UNL     1       5.711   4.715  -9.919  1.00  0.00     0.049 A 
ATOM     46  C   UNL     1       4.541  -0.724 -10.483  1.00  0.00     0.074 A 
ATOM     47  C   UNL     1       5.557   5.507 -11.044  1.00  0.00     0.029 A 
ATOM     48  N   UNL     1       5.341   3.429 -10.283  1.00  0.00    -0.354 N 
ATOM     49  N   UNL     1       4.782   0.564 -10.513  1.00  0.00    -0.248 NA
ATOM     50  C   UNL     1       3.970  -1.254 -11.730  1.00  0.00     0.031 C 
ATOM     51  C   UNL     1       5.048   4.710 -12.075  1.00  0.00     0.029 A 
ATOM     52  C   UNL     1       4.931   3.411 -11.606  1.00  0.00     0.049 A 
ATOM     53  H   UNL     1       5.366   2.644  -9.688  1.00  0.00     0.167 HD
ATOM     54  C   UNL     1       4.420   0.992 -11.783  1.00  0.00     0.074 A 
ATOM     55  C   UNL     1       3.951  -0.175 -12.500  1.00  0.00     0.031 C 
ATOM     56  C   UNL     1       4.472   2.241 -12.309  1.00  0.00     0.037 A 
BRANCH  43  57
ATOM     57  C   UNL     1       6.462   6.545  -8.358  1.00  0.00     0.064 A 
ATOM     58  C   UNL     1       7.779   7.002  -8.204  1.00  0.00     0.173 A 
ATOM     59  C   UNL     1       5.428   7.492  -8.316  1.00  0.00     0.173 A 
ATOM     60  F   UNL     1       8.802   6.133  -8.224  1.00  0.00    -0.203 F 
ATOM     61  C   UNL     1       8.048   8.352  -7.995  1.00  0.00     0.198 A 
ATOM     62  C   UNL     1       5.702   8.845  -8.132  1.00  0.00     0.198 A 
ATOM     63  F   UNL     1       4.152   7.107  -8.462  1.00  0.00    -0.203 F 
ATOM     64  F   UNL     1       9.311   8.762  -7.811  1.00  0.00    -0.200 F 
ATOM     65  C   UNL     1       7.011   9.273  -7.966  1.00  0.00     0.200 A 
ATOM     66  F   UNL     1       4.700   9.734  -8.115  1.00  0.00    -0.200 F 
ATOM     67  F   UNL     1       7.272  10.573  -7.772  1.00  0.00    -0.200 F 
ENDBRANCH  43  57
BRANCH  44  68
ATOM     68  C   UNL     1       4.436  -3.147  -9.547  1.00  0.00     0.064 A 
ATOM     69  C   UNL     1       5.181  -3.958 -10.413  1.00  0.00     0.173 A 
ATOM     70  C   UNL     1       3.354  -3.732  -8.872  1.00  0.00     0.173 A 
ATOM     71  F   UNL     1       6.207  -3.437 -11.101  1.00  0.00    -0.203 F 
ATOM     72  C   UNL     1       4.848  -5.298 -10.607  1.00  0.00     0.198 A 
ATOM     73  C   UNL     1       3.038  -5.077  -9.047  1.00  0.00     0.198 A 
ATOM     74  F   UNL     1       2.607  -2.996  -8.035  1.00  0.00    -0.203 F 
ATOM     75  F   UNL     1       5.550  -6.041 -11.473  1.00  0.00    -0.200 F 
ATOM     76  C   UNL     1       3.781  -5.857  -9.920  1.00  0.00     0.200 A 
ATOM     77  F   UNL     1       2.013  -5.615  -8.373  1.00  0.00    -0.200 F 
ATOM     78  F   UNL     1       3.463  -7.145 -10.106  1.00  0.00    -0.200 F 
ENDBRANCH  44  68
BRANCH  56  79
ATOM     79  C   UNL     1       4.040   2.409 -13.736  1.00  0.00     0.064 A 
ATOM     80  C   UNL     1       2.688   2.355 -14.106  1.00  0.00     0.173 A 
ATOM     81  C   UNL     1       4.985   2.680 -14.738  1.00  0.00     0.173 A 
ATOM     82  F   UNL     1       1.748   2.084 -13.188  1.00  0.00    -0.203 F 
ATOM     83  C   UNL     1       2.301   2.547 -15.429  1.00  0.00     0.198 A 
ATOM     84  C   UNL     1       4.592   2.898 -16.055  1.00  0.00     0.198 A 
ATOM     85  F   UNL     1       6.290   2.748 -14.435  1.00  0.00    -0.203 F 
ATOM     86  F   UNL     1       1.007   2.452 -15.767  1.00  0.00    -0.200 F 
ATOM     87  C   UNL     1       3.251   2.826 -16.401  1.00  0.00     0.200 A 
ATOM     88  F   UNL     1       5.510   3.179 -16.990  1.00  0.00    -0.200 F 
ATOM     89  F   UNL     1       2.874   3.020 -17.672  1.00  0.00    -0.200 F 
ENDBRANCH  56  79
ENDBRANCH  30  31
ENDBRANCH  23  25
ENDBRANCH  22  23
ENDBRANCH  21  22
ENDBRANCH  20  21
ENDBRANCH   1  20
TORSDOF 16
