REMARK SMILES COc1cccc(-c2nn(-c3cc4c(cc3C(N)=O)OCO4)cc2C(=O)OCCOCCOC(=O)c2ccc(-c3c4nc(c(-c5c(F)c(F)c(F)c(F)c5F)c5ccc([nH]5)c(-c5c(F)c(F)c(F)c(F)c5F)c5nc(c(-c6c(F)c(F)c(F)c(F)c6F)c6ccc3[nH]6)C=C5)C=C4)cc2)c1
REMARK SMILES IDX 30 1 29 2 28 3 27 4 25 5 26 6 24 7 8 8 9 9 10 10 23 11 7 12
REMARK SMILES IDX 3 13 4 14 99 15 5 16 6 17 2 18 1 19 11 20 12 21 16 22 13 23
REMARK SMILES IDX 15 24 14 25 22 26 20 27 21 28 17 29 18 30 19 31 31 34 32 35
REMARK SMILES IDX 33 36 34 37 35 38 36 39 37 40 98 41 38 42 97 43 39 44 40 45
REMARK SMILES IDX 41 46 91 47 42 48 96 49 90 50 92 51 43 52 95 53 89 54 88 55
REMARK SMILES IDX 44 57 76 58 56 59 75 60 57 61 60 62 74 63 93 64 58 65 59 66
REMARK SMILES IDX 73 68 94 69 61 70 45 71 46 72 54 73 47 74 48 75 52 76 55 77
REMARK SMILES IDX 49 78 50 79 53 80 51 81 77 82 78 83 86 84 79 85 80 86 84 87
REMARK SMILES IDX 87 88 81 89 82 90 85 91 83 92 62 93 63 94 71 95 64 96 65 97
REMARK SMILES IDX 69 98 72 99 66 100 67 101 70 102 68 103
REMARK H PARENT 18 32 18 33 92 56 60 67
REMARK Flexibility Score: inf
ROOT
ATOM      1  O   UNL     1       1.063  -1.056  -7.684  1.00  0.00    -0.374 OA
ENDROOT
BRANCH   1   2
ATOM      2  C   UNL     1       2.158  -0.339  -8.254  1.00  0.00     0.202 C 
BRANCH   2   3
ATOM      3  C   UNL     1       3.162   0.343  -7.322  1.00  0.00     0.261 C 
BRANCH   3   4
ATOM      4  O   UNL     1       3.965  -0.605  -6.602  1.00  0.00    -0.460 OA
BRANCH   4   5
ATOM      5  C   UNL     1       3.729  -0.660  -5.255  1.00  0.00     0.342 C 
ATOM      6  O   UNL     1       2.950   0.062  -4.656  1.00  0.00    -0.246 OA
BRANCH   5   7
ATOM      7  C   UNL     1       4.434  -1.750  -4.622  1.00  0.00     0.106 A 
ATOM      8  C   UNL     1       4.016  -2.578  -3.542  1.00  0.00     0.107 A 
ATOM      9  N   UNL     1       5.020  -3.377  -3.135  1.00  0.00    -0.167 NA
ATOM     10  N   UNL     1       6.097  -2.881  -3.800  1.00  0.00    -0.239 N 
ATOM     11  C   UNL     1       5.697  -2.206  -4.928  1.00  0.00     0.131 A 
BRANCH   8  12
ATOM     12  C   UNL     1       2.671  -2.649  -2.981  1.00  0.00     0.007 A 
ATOM     13  C   UNL     1       0.975  -1.836  -1.457  1.00  0.00     0.119 A 
ATOM     14  C   UNL     1       0.015  -2.608  -2.116  1.00  0.00     0.046 A 
ATOM     15  C   UNL     1       2.304  -1.853  -1.890  1.00  0.00     0.056 A 
ATOM     16  C   UNL     1       0.375  -3.411  -3.196  1.00  0.00     0.005 A 
ATOM     17  C   UNL     1       1.706  -3.449  -3.609  1.00  0.00     0.011 A 
BRANCH  13  18
ATOM     18  O   UNL     1       0.512  -1.150  -0.367  1.00  0.00    -0.497 OA
ATOM     19  C   UNL     1       1.113   0.119  -0.144  1.00  0.00     0.278 C 
ENDBRANCH  13  18
ENDBRANCH   8  12
BRANCH  10  20
ATOM     20  C   UNL     1       7.431  -3.120  -3.382  1.00  0.00     0.081 A 
ATOM     21  C   UNL     1       7.709  -4.356  -2.761  1.00  0.00     0.079 A 
ATOM     22  C   UNL     1       8.469  -2.155  -3.580  1.00  0.00     0.069 A 
ATOM     23  C   UNL     1       9.020  -4.626  -2.436  1.00  0.00     0.167 A 
ATOM     24  C   UNL     1       9.800  -2.538  -3.346  1.00  0.00     0.066 A 
ATOM     25  C   UNL     1      10.034  -3.756  -2.753  1.00  0.00     0.166 A 
ATOM     26  O   UNL     1       9.483  -5.724  -1.780  1.00  0.00    -0.454 OA
ATOM     27  O   UNL     1      11.253  -4.201  -2.344  1.00  0.00    -0.454 OA
ATOM     28  C   UNL     1      10.852  -5.330  -1.542  1.00  0.00     0.468 C 
BRANCH  22  29
ATOM     29  C   UNL     1       8.183  -0.684  -3.773  1.00  0.00     0.251 C 
ATOM     30  N   UNL     1       9.213   0.211  -3.675  1.00  0.00    -0.366 N 
ATOM     31  O   UNL     1       7.064  -0.214  -3.922  1.00  0.00    -0.269 OA
ATOM     32  H   UNL     1      10.135  -0.112  -3.554  1.00  0.00     0.159 HD
ATOM     33  H   UNL     1       9.033   1.177  -3.726  1.00  0.00     0.159 HD
ENDBRANCH  22  29
ENDBRANCH  10  20
ENDBRANCH   5   7
ENDBRANCH   4   5
ENDBRANCH   3   4
ENDBRANCH   2   3
ENDBRANCH   1   2
BRANCH   1  34
ATOM     34  C   UNL     1       1.292  -2.167  -6.828  1.00  0.00     0.202 C 
BRANCH  34  35
ATOM     35  C   UNL     1       1.849  -3.455  -7.418  1.00  0.00     0.261 C 
BRANCH  35  36
ATOM     36  O   UNL     1       2.955  -3.240  -8.271  1.00  0.00    -0.460 OA
BRANCH  36  37
ATOM     37  C   UNL     1       2.596  -3.162  -9.572  1.00  0.00     0.338 C 
ATOM     38  O   UNL     1       1.480  -2.995 -10.027  1.00  0.00    -0.246 OA
BRANCH  37  39
ATOM     39  C   UNL     1       3.757  -3.518 -10.388  1.00  0.00     0.060 A 
ATOM     40  C   UNL     1       3.519  -3.596 -11.759  1.00  0.00     0.016 A 
ATOM     41  C   UNL     1       4.875  -4.108  -9.779  1.00  0.00     0.016 A 
ATOM     42  C   UNL     1       4.254  -4.501 -12.481  1.00  0.00     0.010 A 
ATOM     43  C   UNL     1       5.603  -5.019 -10.500  1.00  0.00     0.010 A 
ATOM     44  C   UNL     1       5.213  -5.272 -11.810  1.00  0.00    -0.014 A 
BRANCH  44  45
ATOM     45  C   UNL     1       5.921  -6.265 -12.579  1.00  0.00     0.031 A 
ATOM     46  C   UNL     1       6.906  -5.619 -13.460  1.00  0.00     0.074 A 
ATOM     47  C   UNL     1       5.724  -7.588 -12.439  1.00  0.00     0.049 A 
ATOM     48  N   UNL     1       6.772  -5.380 -14.720  1.00  0.00    -0.248 NA
ATOM     49  C   UNL     1       8.045  -4.927 -12.835  1.00  0.00     0.031 C 
ATOM     50  C   UNL     1       4.981  -8.276 -11.380  1.00  0.00     0.029 A 
ATOM     51  N   UNL     1       6.233  -8.613 -13.182  1.00  0.00    -0.354 N 
ATOM     52  C   UNL     1       7.958  -4.760 -15.090  1.00  0.00     0.074 A 
ATOM     53  C   UNL     1       8.551  -4.268 -13.879  1.00  0.00     0.031 C 
ATOM     54  C   UNL     1       5.280  -9.597 -11.411  1.00  0.00     0.029 A 
ATOM     55  C   UNL     1       6.100  -9.862 -12.580  1.00  0.00     0.049 A 
ATOM     56  H   UNL     1       6.655  -8.482 -14.061  1.00  0.00     0.167 HD
ATOM     57  C   UNL     1       8.525  -5.082 -16.283  1.00  0.00     0.037 A 
ATOM     58  C   UNL     1       6.688 -11.005 -13.010  1.00  0.00     0.037 A 
ATOM     59  C   UNL     1       7.568  -5.755 -17.128  1.00  0.00     0.049 A 
ATOM     60  C   UNL     1       7.010 -10.823 -14.447  1.00  0.00     0.074 A 
ATOM     61  C   UNL     1       6.497  -5.400 -17.919  1.00  0.00     0.029 A 
ATOM     62  N   UNL     1       7.441  -7.089 -16.846  1.00  0.00    -0.354 N 
ATOM     63  N   UNL     1       6.098 -10.709 -15.373  1.00  0.00    -0.248 NA
ATOM     64  C   UNL     1       8.349 -10.382 -14.829  1.00  0.00     0.031 C 
ATOM     65  C   UNL     1       5.677  -6.564 -18.035  1.00  0.00     0.029 A 
ATOM     66  C   UNL     1       6.285  -7.614 -17.353  1.00  0.00     0.049 A 
ATOM     67  H   UNL     1       8.104  -7.609 -16.338  1.00  0.00     0.167 HD
ATOM     68  C   UNL     1       6.638  -9.812 -16.273  1.00  0.00     0.074 A 
ATOM     69  C   UNL     1       8.066  -9.780 -15.987  1.00  0.00     0.031 C 
ATOM     70  C   UNL     1       5.841  -8.921 -16.928  1.00  0.00     0.037 A 
BRANCH  57  71
ATOM     71  C   UNL     1      10.011  -5.307 -16.480  1.00  0.00     0.064 A 
ATOM     72  C   UNL     1      10.482  -5.569 -17.783  1.00  0.00     0.173 A 
ATOM     73  C   UNL     1      10.929  -5.588 -15.442  1.00  0.00     0.173 A 
ATOM     74  F   UNL     1       9.692  -5.362 -18.848  1.00  0.00    -0.203 F 
ATOM     75  C   UNL     1      11.741  -6.129 -18.017  1.00  0.00     0.198 A 
ATOM     76  C   UNL     1      12.202  -6.099 -15.683  1.00  0.00     0.198 A 
ATOM     77  F   UNL     1      10.611  -5.495 -14.148  1.00  0.00    -0.203 F 
ATOM     78  F   UNL     1      12.098  -6.466 -19.263  1.00  0.00    -0.200 F 
ATOM     79  C   UNL     1      12.599  -6.397 -16.966  1.00  0.00     0.200 A 
ATOM     80  F   UNL     1      13.006  -6.375 -14.645  1.00  0.00    -0.200 F 
ATOM     81  F   UNL     1      13.783  -6.983 -17.181  1.00  0.00    -0.200 F 
ENDBRANCH  57  71
BRANCH  58  82
ATOM     82  C   UNL     1       7.272 -12.107 -12.211  1.00  0.00     0.064 A 
ATOM     83  C   UNL     1       7.548 -13.357 -12.791  1.00  0.00     0.173 A 
ATOM     84  C   UNL     1       7.858 -11.854 -10.957  1.00  0.00     0.173 A 
ATOM     85  F   UNL     1       7.063 -13.659 -14.004  1.00  0.00    -0.203 F 
ATOM     86  C   UNL     1       8.393 -14.284 -12.169  1.00  0.00     0.198 A 
ATOM     87  C   UNL     1       8.700 -12.780 -10.337  1.00  0.00     0.198 A 
ATOM     88  F   UNL     1       7.708 -10.663 -10.359  1.00  0.00    -0.203 F 
ATOM     89  F   UNL     1       8.690 -15.437 -12.785  1.00  0.00    -0.200 F 
ATOM     90  C   UNL     1       8.980 -13.987 -10.950  1.00  0.00     0.200 A 
ATOM     91  F   UNL     1       9.295 -12.464  -9.178  1.00  0.00    -0.200 F 
ATOM     92  F   UNL     1       9.849 -14.841 -10.390  1.00  0.00    -0.200 F 
ENDBRANCH  58  82
BRANCH  70  93
ATOM     93  C   UNL     1       4.398  -9.273 -17.091  1.00  0.00     0.064 A 
ATOM     94  C   UNL     1       3.468  -9.344 -16.043  1.00  0.00     0.173 A 
ATOM     95  C   UNL     1       3.929  -9.478 -18.395  1.00  0.00     0.173 A 
ATOM     96  F   UNL     1       3.835  -9.092 -14.779  1.00  0.00    -0.203 F 
ATOM     97  C   UNL     1       2.128  -9.641 -16.295  1.00  0.00     0.198 A 
ATOM     98  C   UNL     1       2.588  -9.739 -18.647  1.00  0.00     0.198 A 
ATOM     99  F   UNL     1       4.774  -9.387 -19.434  1.00  0.00    -0.203 F 
ATOM    100  F   UNL     1       1.254  -9.722 -15.281  1.00  0.00    -0.200 F 
ATOM    101  C   UNL     1       1.689  -9.830 -17.598  1.00  0.00     0.200 A 
ATOM    102  F   UNL     1       2.165  -9.881 -19.911  1.00  0.00    -0.200 F 
ATOM    103  F   UNL     1       0.396 -10.082 -17.844  1.00  0.00    -0.200 F 
ENDBRANCH  70  93
ENDBRANCH  44  45
ENDBRANCH  37  39
ENDBRANCH  36  37
ENDBRANCH  35  36
ENDBRANCH  34  35
ENDBRANCH   1  34
TORSDOF 18
