REMARK SMILES Cc1ccc(-c2cc(C(=O)OCCOCCOC(=O)c3ccc(-c4c5nc(c(-c6c(F)c(F)c(F)c(F)c6F)c6ccc([nH]6)c(-c6c(F)c(F)c(F)c(F)c6F)c6nc(c(-c7c(F)c(F)c(F)c(F)c7F)c7ccc4[nH]7)C=C6)C=C5)cc3)c3c(-c4cccc([N+](=O)[O-])c4)[nH]nc3n2)cc1
REMARK SMILES IDX 14 1 13 2 12 3 11 4 9 5 10 6 8 7 6 8 7 9 97 10 96 11 83 12
REMARK SMILES IDX 95 13 84 14 94 15 5 17 1 18 2 19 3 20 99 21 4 22 98 23 85 24
REMARK SMILES IDX 86 25 93 26 87 27 89 28 88 29 90 30 91 31 92 32 15 33 16 34
REMARK SMILES IDX 17 35 18 36 19 37 20 38 21 39 82 40 22 41 81 42 23 43 24 44
REMARK SMILES IDX 25 45 75 46 26 47 80 48 74 49 76 50 27 51 79 52 73 53 72 54
REMARK SMILES IDX 28 56 60 57 40 58 59 59 41 60 44 61 58 62 77 63 42 64 43 65
REMARK SMILES IDX 57 67 78 68 45 69 29 70 30 71 38 72 31 73 32 74 36 75 39 76
REMARK SMILES IDX 33 77 34 78 37 79 35 80 61 81 62 82 70 83 63 84 64 85 68 86
REMARK SMILES IDX 71 87 65 88 66 89 69 90 67 91 46 92 47 93 55 94 48 95 49 96
REMARK SMILES IDX 53 97 56 98 50 99 51 100 54 101 52 102
REMARK H PARENT 94 16 76 55 44 66
REMARK Flexibility Score: inf
ROOT
ATOM      1  O   UNL     1      -6.143  -0.319  -4.408  1.00  0.00    -0.374 OA
ENDROOT
BRANCH   1   2
ATOM      2  C   UNL     1      -4.838  -0.051  -4.860  1.00  0.00     0.202 C 
BRANCH   2   3
ATOM      3  C   UNL     1      -4.499   1.170  -4.091  1.00  0.00     0.261 C 
BRANCH   3   4
ATOM      4  O   UNL     1      -4.586   0.921  -2.669  1.00  0.00    -0.460 OA
BRANCH   4   5
ATOM      5  C   UNL     1      -5.733   0.779  -1.933  1.00  0.00     0.339 C 
ATOM      6  O   UNL     1      -6.860   1.047  -2.237  1.00  0.00    -0.246 OA
BRANCH   5   7
ATOM      7  C   UNL     1      -5.296   0.243  -0.647  1.00  0.00     0.075 A 
ATOM      8  C   UNL     1      -3.371  -0.407   0.755  1.00  0.00     0.074 A 
ATOM      9  C   UNL     1      -3.931   0.234  -0.356  1.00  0.00     0.045 A 
ATOM     10  N   UNL     1      -4.079  -1.067   1.711  1.00  0.00    -0.226 NA
ATOM     11  C   UNL     1      -5.433  -1.004   1.516  1.00  0.00     0.182 A 
ATOM     12  C   UNL     1      -6.031  -0.365   0.368  1.00  0.00     0.061 A 
ATOM     13  N   UNL     1      -6.371  -1.519   2.311  1.00  0.00    -0.154 NA
ATOM     14  C   UNL     1      -7.402  -0.508   0.520  1.00  0.00     0.076 A 
ATOM     15  N   UNL     1      -7.530  -1.194   1.708  1.00  0.00    -0.275 N 
ATOM     16  H   UNL     1      -8.407  -1.431   2.089  1.00  0.00     0.190 HD
BRANCH   8  17
ATOM     17  C   UNL     1      -1.895  -0.378   0.783  1.00  0.00     0.000 A 
ATOM     18  C   UNL     1       2.358  -0.123  -0.031  1.00  0.00     0.044 C 
ATOM     19  C   UNL     1       0.885  -0.206   0.243  1.00  0.00    -0.051 A 
ATOM     20  C   UNL     1       0.241  -1.449   0.312  1.00  0.00     0.004 A 
ATOM     21  C   UNL     1       0.137   0.953   0.443  1.00  0.00     0.004 A 
ATOM     22  C   UNL     1      -1.135  -1.536   0.578  1.00  0.00     0.010 A 
ATOM     23  C   UNL     1      -1.229   0.866   0.719  1.00  0.00     0.010 A 
ENDBRANCH   8  17
BRANCH  14  24
ATOM     24  C   UNL     1      -8.578  -0.079  -0.242  1.00  0.00     0.007 A 
ATOM     25  C   UNL     1      -9.233   1.122   0.074  1.00  0.00     0.011 A 
ATOM     26  C   UNL     1      -9.037  -0.834  -1.330  1.00  0.00     0.096 A 
ATOM     27  C   UNL     1     -10.305   1.582  -0.702  1.00  0.00     0.008 A 
ATOM     28  C   UNL     1     -10.096  -0.352  -2.121  1.00  0.00     0.270 A 
ATOM     29  C   UNL     1     -10.735   0.854  -1.809  1.00  0.00     0.085 A 
BRANCH  28  30
ATOM     30  N   UNL     1     -10.498  -1.083  -3.330  1.00  0.00     0.062 N 
ATOM     31  O   UNL     1     -11.369  -0.574  -4.050  1.00  0.00    -0.258 OA
ATOM     32  O   UNL     1      -9.931  -2.158  -3.573  1.00  0.00    -0.258 OA
ENDBRANCH  28  30
ENDBRANCH  14  24
ENDBRANCH   5   7
ENDBRANCH   4   5
ENDBRANCH   3   4
ENDBRANCH   2   3
ENDBRANCH   1   2
BRANCH   1  33
ATOM     33  C   UNL     1      -6.522  -1.667  -4.415  1.00  0.00     0.202 C 
BRANCH  33  34
ATOM     34  C   UNL     1      -6.775  -2.088  -5.856  1.00  0.00     0.261 C 
BRANCH  34  35
ATOM     35  O   UNL     1      -7.707  -1.159  -6.475  1.00  0.00    -0.460 OA
BRANCH  35  36
ATOM     36  C   UNL     1      -7.170  -0.098  -7.157  1.00  0.00     0.338 C 
ATOM     37  O   UNL     1      -6.292  -0.183  -8.001  1.00  0.00    -0.246 OA
BRANCH  36  38
ATOM     38  C   UNL     1      -7.585   1.201  -6.522  1.00  0.00     0.060 A 
ATOM     39  C   UNL     1      -6.864   2.394  -6.754  1.00  0.00     0.016 A 
ATOM     40  C   UNL     1      -8.444   1.138  -5.438  1.00  0.00     0.016 A 
ATOM     41  C   UNL     1      -6.854   3.430  -5.792  1.00  0.00     0.010 A 
ATOM     42  C   UNL     1      -8.341   2.103  -4.457  1.00  0.00     0.010 A 
ATOM     43  C   UNL     1      -7.511   3.230  -4.584  1.00  0.00    -0.014 A 
BRANCH  43  44
ATOM     44  C   UNL     1      -7.422   4.034  -3.347  1.00  0.00     0.031 A 
ATOM     45  C   UNL     1      -8.693   4.592  -2.821  1.00  0.00     0.074 A 
ATOM     46  C   UNL     1      -6.340   3.976  -2.522  1.00  0.00     0.049 A 
ATOM     47  N   UNL     1      -8.771   5.303  -1.754  1.00  0.00    -0.248 NA
ATOM     48  C   UNL     1      -9.997   4.434  -3.468  1.00  0.00     0.031 C 
ATOM     49  C   UNL     1      -6.299   4.094  -1.054  1.00  0.00     0.029 A 
ATOM     50  N   UNL     1      -5.001   3.697  -2.818  1.00  0.00    -0.354 N 
ATOM     51  C   UNL     1     -10.092   5.409  -1.400  1.00  0.00     0.074 A 
ATOM     52  C   UNL     1     -10.817   4.981  -2.565  1.00  0.00     0.031 C 
ATOM     53  C   UNL     1      -5.022   4.168  -0.630  1.00  0.00     0.029 A 
ATOM     54  C   UNL     1      -4.183   4.233  -1.814  1.00  0.00     0.049 A 
ATOM     55  H   UNL     1      -4.683   3.202  -3.608  1.00  0.00     0.167 HD
ATOM     56  C   UNL     1     -10.367   5.732  -0.104  1.00  0.00     0.037 A 
ATOM     57  C   UNL     1      -3.232   5.154  -2.120  1.00  0.00     0.037 A 
ATOM     58  C   UNL     1      -9.124   6.108   0.590  1.00  0.00     0.049 A 
ATOM     59  C   UNL     1      -3.648   6.439  -1.474  1.00  0.00     0.074 A 
ATOM     60  C   UNL     1      -8.348   5.510   1.567  1.00  0.00     0.029 A 
ATOM     61  N   UNL     1      -8.342   7.131   0.047  1.00  0.00    -0.354 N 
ATOM     62  N   UNL     1      -4.897   6.696  -1.190  1.00  0.00    -0.248 NA
ATOM     63  C   UNL     1      -2.726   7.440  -0.960  1.00  0.00     0.031 C 
ATOM     64  C   UNL     1      -7.066   6.144   1.550  1.00  0.00     0.029 A 
ATOM     65  C   UNL     1      -7.075   7.152   0.594  1.00  0.00     0.049 A 
ATOM     66  H   UNL     1      -8.657   7.760  -0.642  1.00  0.00     0.167 HD
ATOM     67  C   UNL     1      -4.951   7.773  -0.366  1.00  0.00     0.074 A 
ATOM     68  C   UNL     1      -3.577   8.240  -0.292  1.00  0.00     0.031 C 
ATOM     69  C   UNL     1      -6.112   8.187   0.214  1.00  0.00     0.037 A 
BRANCH  56  70
ATOM     70  C   UNL     1     -11.702   5.578   0.605  1.00  0.00     0.064 A 
ATOM     71  C   UNL     1     -11.833   5.981   1.953  1.00  0.00     0.173 A 
ATOM     72  C   UNL     1     -12.861   4.974   0.068  1.00  0.00     0.173 A 
ATOM     73  F   UNL     1     -10.813   6.551   2.610  1.00  0.00    -0.203 F 
ATOM     74  C   UNL     1     -13.011   5.797   2.690  1.00  0.00     0.198 A 
ATOM     75  C   UNL     1     -14.052   4.833   0.791  1.00  0.00     0.198 A 
ATOM     76  F   UNL     1     -12.885   4.433  -1.151  1.00  0.00    -0.203 F 
ATOM     77  F   UNL     1     -13.051   6.156   3.981  1.00  0.00    -0.200 F 
ATOM     78  C   UNL     1     -14.126   5.236   2.105  1.00  0.00     0.200 A 
ATOM     79  F   UNL     1     -15.119   4.271   0.203  1.00  0.00    -0.200 F 
ATOM     80  F   UNL     1     -15.254   5.062   2.805  1.00  0.00    -0.200 F 
ENDBRANCH  56  70
BRANCH  57  81
ATOM     81  C   UNL     1      -2.635   4.909  -3.470  1.00  0.00     0.064 A 
ATOM     82  C   UNL     1      -1.767   3.800  -3.591  1.00  0.00     0.173 A 
ATOM     83  C   UNL     1      -3.281   5.342  -4.639  1.00  0.00     0.173 A 
ATOM     84  F   UNL     1      -1.169   3.296  -2.499  1.00  0.00    -0.203 F 
ATOM     85  C   UNL     1      -1.658   3.083  -4.786  1.00  0.00     0.198 A 
ATOM     86  C   UNL     1      -3.198   4.596  -5.823  1.00  0.00     0.198 A 
ATOM     87  F   UNL     1      -4.129   6.379  -4.596  1.00  0.00    -0.203 F 
ATOM     88  F   UNL     1      -0.976   1.927  -4.812  1.00  0.00    -0.200 F 
ATOM     89  C   UNL     1      -2.420   3.450  -5.883  1.00  0.00     0.200 A 
ATOM     90  F   UNL     1      -3.971   4.917  -6.871  1.00  0.00    -0.200 F 
ATOM     91  F   UNL     1      -2.494   2.637  -6.948  1.00  0.00    -0.200 F 
ENDBRANCH  57  81
BRANCH  69  92
ATOM     92  C   UNL     1      -6.393   9.633   0.515  1.00  0.00     0.064 A 
ATOM     93  C   UNL     1      -5.647  10.694  -0.032  1.00  0.00     0.173 A 
ATOM     94  C   UNL     1      -7.557  10.013   1.222  1.00  0.00     0.173 A 
ATOM     95  F   UNL     1      -4.619  10.484  -0.864  1.00  0.00    -0.203 F 
ATOM     96  C   UNL     1      -5.975  12.026   0.203  1.00  0.00     0.198 A 
ATOM     97  C   UNL     1      -7.930  11.344   1.376  1.00  0.00     0.198 A 
ATOM     98  F   UNL     1      -8.397   9.111   1.749  1.00  0.00    -0.203 F 
ATOM     99  F   UNL     1      -5.184  12.992  -0.282  1.00  0.00    -0.200 F 
ATOM    100  C   UNL     1      -7.122  12.351   0.895  1.00  0.00     0.200 A 
ATOM    101  F   UNL     1      -9.093  11.640   1.973  1.00  0.00    -0.200 F 
ATOM    102  F   UNL     1      -7.462  13.633   1.075  1.00  0.00    -0.200 F 
ENDBRANCH  69  92
ENDBRANCH  43  44
ENDBRANCH  36  38
ENDBRANCH  35  36
ENDBRANCH  34  35
ENDBRANCH  33  34
ENDBRANCH   1  33
TORSDOF 17
