REMARK SMILES C=CCN(CC(=O)OCCOCCOC(=O)c1ccc(-c2c3nc(c(-c4c(F)c(F)c(F)c(F)c4F)c4ccc([nH]4)c(-c4c(F)c(F)c(F)c(F)c4F)c4nc(c(-c5c(F)c(F)c(F)c(F)c5F)c5ccc2[nH]5)C=C4)C=C3)cc1)C(=O)N1CCC(CC)(CC)C1
REMARK SMILES IDX 10 1 9 2 8 3 6 4 7 5 5 6 4 7 3 8 2 9 1 10 80 11 81 12 82 13
REMARK SMILES IDX 83 14 90 15 84 16 85 17 86 18 87 19 88 20 89 21 11 22 12 23
REMARK SMILES IDX 13 24 14 25 15 26 16 27 17 28 18 29 79 30 19 31 78 32 20 33
REMARK SMILES IDX 21 34 22 35 72 36 23 37 77 38 71 39 73 40 24 41 76 42 70 43
REMARK SMILES IDX 69 44 25 46 57 47 37 48 56 49 38 50 41 51 55 52 74 53 39 54
REMARK SMILES IDX 40 55 54 57 75 58 42 59 26 60 27 61 35 62 28 63 29 64 33 65
REMARK SMILES IDX 36 66 30 67 31 68 34 69 32 70 58 71 59 72 67 73 60 74 61 75
REMARK SMILES IDX 65 76 68 77 62 78 63 79 66 80 64 81 43 82 44 83 52 84 45 85
REMARK SMILES IDX 46 86 50 87 53 88 47 89 48 90 51 91 49 92
REMARK H PARENT 73 45 41 56
REMARK Flexibility Score: inf
ROOT
ATOM      1  C   UNL     1      -6.674  -1.698  -1.590  1.00  0.00     0.202 C 
ENDROOT
BRANCH   1   2
ATOM      2  C   UNL     1      -5.985  -2.501  -0.476  1.00  0.00     0.261 C 
BRANCH   2   3
ATOM      3  O   UNL     1      -4.535  -2.442  -0.551  1.00  0.00    -0.462 OA
BRANCH   3   4
ATOM      4  C   UNL     1      -3.875  -3.544  -0.097  1.00  0.00     0.325 C 
ATOM      5  O   UNL     1      -4.445  -4.513   0.398  1.00  0.00    -0.250 OA
BRANCH   4   6
ATOM      6  C   UNL     1      -2.333  -3.457  -0.138  1.00  0.00     0.244 C 
BRANCH   6   7
ATOM      7  N   UNL     1      -1.621  -2.461  -0.956  1.00  0.00    -0.310 N 
BRANCH   7   8
ATOM      8  C   UNL     1      -1.362  -1.186  -0.275  1.00  0.00     0.149 C 
BRANCH   8   9
ATOM      9  C   UNL     1       0.043  -1.158   0.270  1.00  0.00    -0.013 C 
ATOM     10  C   UNL     1       0.874  -0.114   0.131  1.00  0.00     0.006 C 
ENDBRANCH   8   9
ENDBRANCH   7   8
BRANCH   7  11
ATOM     11  C   UNL     1      -1.026  -2.622  -2.203  1.00  0.00     0.320 C 
ATOM     12  O   UNL     1      -0.249  -1.759  -2.630  1.00  0.00    -0.248 OA
BRANCH  11  13
ATOM     13  N   UNL     1      -1.302  -3.706  -3.013  1.00  0.00    -0.324 N 
ATOM     14  C   UNL     1      -2.424  -4.603  -2.991  1.00  0.00     0.122 C 
ATOM     15  C   UNL     1      -0.591  -3.821  -4.296  1.00  0.00     0.128 C 
ATOM     16  C   UNL     1      -2.289  -5.546  -4.161  1.00  0.00     0.030 C 
ATOM     17  C   UNL     1      -1.303  -4.904  -5.151  1.00  0.00    -0.011 C 
BRANCH  17  18
ATOM     18  C   UNL     1      -0.299  -6.004  -5.609  1.00  0.00     0.005 C 
ATOM     19  C   UNL     1      -0.961  -7.209  -6.287  1.00  0.00     0.004 C 
ENDBRANCH  17  18
BRANCH  17  20
ATOM     20  C   UNL     1      -1.964  -4.338  -6.447  1.00  0.00     0.005 C 
ATOM     21  C   UNL     1      -2.877  -3.134  -6.354  1.00  0.00     0.004 C 
ENDBRANCH  17  20
ENDBRANCH  11  13
ENDBRANCH   7  11
ENDBRANCH   6   7
ENDBRANCH   4   6
ENDBRANCH   3   4
ENDBRANCH   2   3
ENDBRANCH   1   2
BRANCH   1  22
ATOM     22  O   UNL     1      -6.640  -2.241  -2.907  1.00  0.00    -0.374 OA
BRANCH  22  23
ATOM     23  C   UNL     1      -5.390  -2.707  -3.390  1.00  0.00     0.202 C 
BRANCH  23  24
ATOM     24  C   UNL     1      -4.205  -1.722  -3.385  1.00  0.00     0.261 C 
BRANCH  24  25
ATOM     25  O   UNL     1      -4.562  -0.365  -3.292  1.00  0.00    -0.460 OA
BRANCH  25  26
ATOM     26  C   UNL     1      -5.143   0.133  -4.401  1.00  0.00     0.338 C 
ATOM     27  O   UNL     1      -5.267  -0.359  -5.493  1.00  0.00    -0.246 OA
BRANCH  26  28
ATOM     28  C   UNL     1      -5.809   1.321  -3.869  1.00  0.00     0.060 A 
ATOM     29  C   UNL     1      -7.201   1.298  -3.820  1.00  0.00     0.016 A 
ATOM     30  C   UNL     1      -5.050   2.322  -3.252  1.00  0.00     0.016 A 
ATOM     31  C   UNL     1      -7.857   2.330  -3.173  1.00  0.00     0.010 A 
ATOM     32  C   UNL     1      -5.707   3.345  -2.591  1.00  0.00     0.010 A 
ATOM     33  C   UNL     1      -7.111   3.361  -2.583  1.00  0.00    -0.014 A 
BRANCH  33  34
ATOM     34  C   UNL     1      -7.820   4.553  -2.102  1.00  0.00     0.031 A 
ATOM     35  C   UNL     1      -7.859   5.746  -3.006  1.00  0.00     0.074 A 
ATOM     36  C   UNL     1      -8.447   4.522  -0.915  1.00  0.00     0.049 A 
ATOM     37  N   UNL     1      -8.455   6.893  -2.832  1.00  0.00    -0.248 NA
ATOM     38  C   UNL     1      -7.125   5.633  -4.280  1.00  0.00     0.031 C 
ATOM     39  C   UNL     1      -8.457   3.384   0.006  1.00  0.00     0.029 A 
ATOM     40  N   UNL     1      -9.202   5.472  -0.287  1.00  0.00    -0.354 N 
ATOM     41  C   UNL     1      -8.169   7.634  -3.970  1.00  0.00     0.074 A 
ATOM     42  C   UNL     1      -7.317   6.829  -4.813  1.00  0.00     0.031 C 
ATOM     43  C   UNL     1      -9.191   3.704   1.085  1.00  0.00     0.029 A 
ATOM     44  C   UNL     1      -9.674   5.074   0.939  1.00  0.00     0.049 A 
ATOM     45  H   UNL     1      -9.390   6.357  -0.676  1.00  0.00     0.167 HD
ATOM     46  C   UNL     1      -8.600   8.876  -4.280  1.00  0.00     0.037 A 
ATOM     47  C   UNL     1     -10.404   5.762   1.836  1.00  0.00     0.037 A 
ATOM     48  C   UNL     1      -9.454   9.648  -3.421  1.00  0.00     0.049 A 
ATOM     49  C   UNL     1     -10.832   7.162   1.475  1.00  0.00     0.074 A 
ATOM     50  C   UNL     1      -9.981  10.907  -3.635  1.00  0.00     0.029 A 
ATOM     51  N   UNL     1      -9.898   9.228  -2.174  1.00  0.00    -0.354 N 
ATOM     52  N   UNL     1     -10.606   7.841   0.374  1.00  0.00    -0.248 NA
ATOM     53  C   UNL     1     -11.622   7.889   2.475  1.00  0.00     0.031 C 
ATOM     54  C   UNL     1     -10.694  11.275  -2.490  1.00  0.00     0.029 A 
ATOM     55  C   UNL     1     -10.667  10.219  -1.591  1.00  0.00     0.049 A 
ATOM     56  H   UNL     1      -9.695   8.356  -1.766  1.00  0.00     0.167 HD
ATOM     57  C   UNL     1     -11.247   9.061   0.537  1.00  0.00     0.074 A 
ATOM     58  C   UNL     1     -11.894   9.016   1.833  1.00  0.00     0.031 C 
ATOM     59  C   UNL     1     -11.298  10.128  -0.299  1.00  0.00     0.037 A 
BRANCH  46  60
ATOM     60  C   UNL     1      -8.139   9.479  -5.571  1.00  0.00     0.064 A 
ATOM     61  C   UNL     1      -8.606   9.022  -6.812  1.00  0.00     0.173 A 
ATOM     62  C   UNL     1      -7.251  10.565  -5.563  1.00  0.00     0.173 A 
ATOM     63  F   UNL     1      -9.437   7.970  -6.877  1.00  0.00    -0.203 F 
ATOM     64  C   UNL     1      -8.198   9.628  -7.998  1.00  0.00     0.198 A 
ATOM     65  C   UNL     1      -6.867  11.186  -6.748  1.00  0.00     0.198 A 
ATOM     66  F   UNL     1      -6.766  11.033  -4.403  1.00  0.00    -0.203 F 
ATOM     67  F   UNL     1      -8.632   9.156  -9.175  1.00  0.00    -0.200 F 
ATOM     68  C   UNL     1      -7.339  10.717  -7.964  1.00  0.00     0.200 A 
ATOM     69  F   UNL     1      -6.044  12.243  -6.712  1.00  0.00    -0.200 F 
ATOM     70  F   UNL     1      -6.963  11.312  -9.104  1.00  0.00    -0.200 F 
ENDBRANCH  46  60
BRANCH  47  71
ATOM     71  C   UNL     1     -10.759   5.158   3.147  1.00  0.00     0.064 A 
ATOM     72  C   UNL     1     -12.093   4.912   3.503  1.00  0.00     0.173 A 
ATOM     73  C   UNL     1      -9.770   4.853   4.095  1.00  0.00     0.173 A 
ATOM     74  F   UNL     1     -13.079   5.198   2.640  1.00  0.00    -0.203 F 
ATOM     75  C   UNL     1     -12.426   4.426   4.766  1.00  0.00     0.198 A 
ATOM     76  C   UNL     1     -10.101   4.332   5.345  1.00  0.00     0.198 A 
ATOM     77  F   UNL     1      -8.476   5.060   3.808  1.00  0.00    -0.203 F 
ATOM     78  F   UNL     1     -13.713   4.266   5.101  1.00  0.00    -0.200 F 
ATOM     79  C   UNL     1     -11.430   4.134   5.685  1.00  0.00     0.200 A 
ATOM     80  F   UNL     1      -9.133   4.035   6.222  1.00  0.00    -0.200 F 
ATOM     81  F   UNL     1     -11.751   3.673   6.902  1.00  0.00    -0.200 F 
ENDBRANCH  47  71
BRANCH  59  82
ATOM     82  C   UNL     1     -12.105  11.308   0.156  1.00  0.00     0.064 A 
ATOM     83  C   UNL     1     -11.683  12.125   1.214  1.00  0.00     0.173 A 
ATOM     84  C   UNL     1     -13.300  11.642  -0.500  1.00  0.00     0.173 A 
ATOM     85  F   UNL     1     -10.554  11.838   1.880  1.00  0.00    -0.203 F 
ATOM     86  C   UNL     1     -12.447  13.212   1.625  1.00  0.00     0.198 A 
ATOM     87  C   UNL     1     -14.041  12.753  -0.113  1.00  0.00     0.198 A 
ATOM     88  F   UNL     1     -13.739  10.899  -1.527  1.00  0.00    -0.203 F 
ATOM     89  F   UNL     1     -12.058  13.941   2.679  1.00  0.00    -0.200 F 
ATOM     90  C   UNL     1     -13.621  13.530   0.957  1.00  0.00     0.200 A 
ATOM     91  F   UNL     1     -15.163  13.071  -0.772  1.00  0.00    -0.200 F 
ATOM     92  F   UNL     1     -14.352  14.581   1.350  1.00  0.00    -0.200 F 
ENDBRANCH  59  82
ENDBRANCH  33  34
ENDBRANCH  26  28
ENDBRANCH  25  26
ENDBRANCH  24  25
ENDBRANCH  23  24
ENDBRANCH  22  23
ENDBRANCH   1  22
TORSDOF 21
