REMARK SMILES O=C(CCCN1C(=O)C(=O)/C(=C(/[O-])c2ccccc2)[C@@H]1/C=C/c1ccccc1)OCCOCCOC(=O)c1ccc(-c2c3nc(c(-c4c(F)c(F)c(F)c(F)c4F)c4ccc([nH]4)c(-c4c(F)c(F)c(F)c(F)c4F)c4nc(c(-c5c(F)c(F)c(F)c(F)c5F)c5ccc2[nH]5)C=C4)C=C3)cc1
REMARK SMILES IDX 30 1 29 2 2 3 1 4 3 5 4 6 5 7 6 8 7 9 20 10 8 11 9 12 11 13
REMARK SMILES IDX 10 14 12 15 13 16 21 17 22 18 23 19 24 20 28 21 25 22 27 23
REMARK SMILES IDX 26 24 14 25 15 26 19 27 16 28 18 29 17 30 31 31 32 32 33 33
REMARK SMILES IDX 34 34 35 35 36 36 37 37 38 38 39 39 100 40 40 41 99 42 41 43
REMARK SMILES IDX 42 44 43 45 93 46 44 47 98 48 92 49 94 50 45 51 97 52 91 53
REMARK SMILES IDX 90 54 46 56 78 57 58 58 77 59 59 60 62 61 76 62 95 63 60 64
REMARK SMILES IDX 61 65 75 67 96 68 63 69 47 70 48 71 56 72 49 73 50 74 54 75
REMARK SMILES IDX 57 76 51 77 52 78 55 79 53 80 79 81 80 82 88 83 81 84 82 85
REMARK SMILES IDX 86 86 89 87 83 88 84 89 87 90 85 91 64 92 65 93 73 94 66 95
REMARK SMILES IDX 67 96 71 97 74 98 68 99 69 100 72 101 70 102
REMARK H PARENT 94 55 62 66
REMARK Flexibility Score: inf
ROOT
ATOM      1  C   UNL     1       3.674   1.801   0.039  1.00  0.00     0.261 C 
ENDROOT
BRANCH   1   2
ATOM      2  O   UNL     1       2.908   1.439  -1.118  1.00  0.00    -0.463 OA
BRANCH   2   3
ATOM      3  C   UNL     1       2.201   0.297  -1.102  1.00  0.00     0.305 C 
ATOM      4  O   UNL     1       1.037   0.257  -0.718  1.00  0.00    -0.252 OA
BRANCH   3   5
ATOM      5  C   UNL     1       2.936  -0.922  -1.619  1.00  0.00     0.124 C 
BRANCH   5   6
ATOM      6  C   UNL     1       4.101  -0.728  -2.577  1.00  0.00     0.033 C 
BRANCH   6   7
ATOM      7  C   UNL     1       5.422  -0.122  -2.093  1.00  0.00     0.121 C 
BRANCH   7   8
ATOM      8  N   UNL     1       6.114  -0.562  -0.879  1.00  0.00    -0.325 N 
ATOM      9  C   UNL     1       7.170   0.205  -0.409  1.00  0.00     0.295 C 
ATOM     10  C   UNL     1       6.035  -1.855  -0.207  1.00  0.00     0.143 C 
ATOM     11  O   UNL     1       7.469   1.337  -0.722  1.00  0.00    -0.265 OA
ATOM     12  C   UNL     1       7.960  -0.646   0.578  1.00  0.00     0.248 C 
ATOM     13  C   UNL     1       7.244  -1.939   0.709  1.00  0.00     0.024 C 
ATOM     14  O   UNL     1       8.969  -0.268   1.125  1.00  0.00    -0.283 OA
ATOM     15  C   UNL     1       7.635  -2.981   1.470  1.00  0.00    -0.092 C 
ATOM     16  O   UNL     1       6.873  -4.129   1.598  1.00  0.00    -0.872 OA
BRANCH  10  17
ATOM     17  C   UNL     1       6.000  -2.959  -1.219  1.00  0.00     0.003 C 
ATOM     18  C   UNL     1       5.131  -3.983  -1.152  1.00  0.00     0.006 C 
BRANCH  18  19
ATOM     19  C   UNL     1       5.013  -5.073  -2.130  1.00  0.00    -0.026 A 
ATOM     20  C   UNL     1       3.906  -5.930  -2.041  1.00  0.00     0.008 A 
ATOM     21  C   UNL     1       5.956  -5.302  -3.139  1.00  0.00     0.008 A 
ATOM     22  C   UNL     1       3.734  -6.971  -2.955  1.00  0.00     0.001 A 
ATOM     23  C   UNL     1       5.781  -6.339  -4.058  1.00  0.00     0.001 A 
ATOM     24  C   UNL     1       4.668  -7.170  -3.968  1.00  0.00     0.000 A 
ENDBRANCH  18  19
ENDBRANCH  10  17
BRANCH  15  25
ATOM     25  C   UNL     1       8.906  -3.103   2.205  1.00  0.00    -0.033 A 
ATOM     26  C   UNL     1       9.805  -4.120   1.848  1.00  0.00     0.007 A 
ATOM     27  C   UNL     1       9.211  -2.287   3.300  1.00  0.00     0.007 A 
ATOM     28  C   UNL     1      10.997  -4.301   2.554  1.00  0.00     0.001 A 
ATOM     29  C   UNL     1      10.408  -2.463   4.002  1.00  0.00     0.001 A 
ATOM     30  C   UNL     1      11.299  -3.469   3.629  1.00  0.00     0.000 A 
ENDBRANCH  15  25
ENDBRANCH   7   8
ENDBRANCH   6   7
ENDBRANCH   5   6
ENDBRANCH   3   5
ENDBRANCH   2   3
ENDBRANCH   1   2
BRANCH   1  31
ATOM     31  C   UNL     1       3.563   1.006   1.343  1.00  0.00     0.202 C 
BRANCH  31  32
ATOM     32  O   UNL     1       3.410  -0.405   1.224  1.00  0.00    -0.374 OA
BRANCH  32  33
ATOM     33  C   UNL     1       2.275  -0.926   1.937  1.00  0.00     0.202 C 
BRANCH  33  34
ATOM     34  C   UNL     1       2.566  -1.278   3.400  1.00  0.00     0.261 C 
BRANCH  34  35
ATOM     35  O   UNL     1       3.112  -0.153   4.100  1.00  0.00    -0.460 OA
BRANCH  35  36
ATOM     36  C   UNL     1       4.468  -0.096   4.111  1.00  0.00     0.338 C 
ATOM     37  O   UNL     1       5.238  -0.970   3.746  1.00  0.00    -0.246 OA
BRANCH  36  38
ATOM     38  C   UNL     1       4.894   1.292   4.425  1.00  0.00     0.060 A 
ATOM     39  C   UNL     1       6.137   1.715   3.931  1.00  0.00     0.016 A 
ATOM     40  C   UNL     1       4.076   2.187   5.123  1.00  0.00     0.016 A 
ATOM     41  C   UNL     1       6.596   3.002   4.197  1.00  0.00     0.010 A 
ATOM     42  C   UNL     1       4.534   3.479   5.387  1.00  0.00     0.010 A 
ATOM     43  C   UNL     1       5.821   3.868   4.977  1.00  0.00    -0.014 A 
BRANCH  43  44
ATOM     44  C   UNL     1       6.462   5.053   5.592  1.00  0.00     0.031 A 
ATOM     45  C   UNL     1       6.915   4.935   7.022  1.00  0.00     0.074 A 
ATOM     46  C   UNL     1       6.678   6.183   4.898  1.00  0.00     0.049 A 
ATOM     47  N   UNL     1       7.492   5.819   7.794  1.00  0.00    -0.248 NA
ATOM     48  C   UNL     1       6.672   3.637   7.675  1.00  0.00     0.031 C 
ATOM     49  C   UNL     1       6.325   6.399   3.498  1.00  0.00     0.029 A 
ATOM     50  N   UNL     1       7.258   7.364   5.288  1.00  0.00    -0.354 N 
ATOM     51  C   UNL     1       7.665   5.188   9.020  1.00  0.00     0.074 A 
ATOM     52  C   UNL     1       7.091   3.867   8.908  1.00  0.00     0.031 C 
ATOM     53  C   UNL     1       6.702   7.639   3.141  1.00  0.00     0.029 A 
ATOM     54  C   UNL     1       7.297   8.311   4.296  1.00  0.00     0.049 A 
ATOM     55  H   UNL     1       7.613   7.517   6.193  1.00  0.00     0.167 HD
ATOM     56  C   UNL     1       8.263   5.663  10.138  1.00  0.00     0.037 A 
ATOM     57  C   UNL     1       7.757   9.577   4.328  1.00  0.00     0.037 A 
ATOM     58  C   UNL     1       8.842   6.975  10.239  1.00  0.00     0.049 A 
ATOM     59  C   UNL     1       8.365  10.105   5.605  1.00  0.00     0.074 A 
ATOM     60  C   UNL     1       9.491   7.551  11.315  1.00  0.00     0.029 A 
ATOM     61  N   UNL     1       8.831   7.920   9.223  1.00  0.00    -0.354 N 
ATOM     62  N   UNL     1       8.550   9.498   6.753  1.00  0.00    -0.248 NA
ATOM     63  C   UNL     1       8.837  11.496   5.583  1.00  0.00     0.031 C 
ATOM     64  C   UNL     1       9.814   8.868  10.973  1.00  0.00     0.029 A 
ATOM     65  C   UNL     1       9.438   9.087   9.656  1.00  0.00     0.049 A 
ATOM     66  H   UNL     1       8.449   7.781   8.326  1.00  0.00     0.167 HD
ATOM     67  C   UNL     1       9.204  10.412   7.570  1.00  0.00     0.074 A 
ATOM     68  C   UNL     1       9.384  11.615   6.784  1.00  0.00     0.031 C 
ATOM     69  C   UNL     1       9.625  10.269   8.852  1.00  0.00     0.037 A 
BRANCH  56  70
ATOM     70  C   UNL     1       8.277   4.769  11.346  1.00  0.00     0.064 A 
ATOM     71  C   UNL     1       9.023   3.581  11.388  1.00  0.00     0.173 A 
ATOM     72  C   UNL     1       7.522   5.108  12.479  1.00  0.00     0.173 A 
ATOM     73  F   UNL     1       9.746   3.199  10.325  1.00  0.00    -0.203 F 
ATOM     74  C   UNL     1       8.981   2.747  12.503  1.00  0.00     0.198 A 
ATOM     75  C   UNL     1       7.513   4.291  13.607  1.00  0.00     0.198 A 
ATOM     76  F   UNL     1       6.788   6.231  12.494  1.00  0.00    -0.203 F 
ATOM     77  F   UNL     1       9.646   1.583  12.492  1.00  0.00    -0.200 F 
ATOM     78  C   UNL     1       8.232   3.106  13.613  1.00  0.00     0.200 A 
ATOM     79  F   UNL     1       6.798   4.646  14.683  1.00  0.00    -0.200 F 
ATOM     80  F   UNL     1       8.193   2.303  14.685  1.00  0.00    -0.200 F 
ENDBRANCH  56  70
BRANCH  57  81
ATOM     81  C   UNL     1       7.683  10.431   3.112  1.00  0.00     0.064 A 
ATOM     82  C   UNL     1       8.847  10.845   2.448  1.00  0.00     0.173 A 
ATOM     83  C   UNL     1       6.453  10.872   2.604  1.00  0.00     0.173 A 
ATOM     84  F   UNL     1      10.050  10.472   2.911  1.00  0.00    -0.203 F 
ATOM     85  C   UNL     1       8.784  11.685   1.338  1.00  0.00     0.198 A 
ATOM     86  C   UNL     1       6.389  11.687   1.475  1.00  0.00     0.198 A 
ATOM     87  F   UNL     1       5.309  10.509   3.203  1.00  0.00    -0.203 F 
ATOM     88  F   UNL     1       9.915  12.109   0.757  1.00  0.00    -0.200 F 
ATOM     89  C   UNL     1       7.555  12.100   0.849  1.00  0.00     0.200 A 
ATOM     90  F   UNL     1       5.199  12.078   1.000  1.00  0.00    -0.200 F 
ATOM     91  F   UNL     1       7.495  12.908  -0.218  1.00  0.00    -0.200 F 
ENDBRANCH  57  81
BRANCH  69  92
ATOM     92  C   UNL     1      10.389  11.411   9.463  1.00  0.00     0.064 A 
ATOM     93  C   UNL     1       9.781  12.637   9.772  1.00  0.00     0.173 A 
ATOM     94  C   UNL     1      11.751  11.260   9.772  1.00  0.00     0.173 A 
ATOM     95  F   UNL     1       8.484  12.838   9.492  1.00  0.00    -0.203 F 
ATOM     96  C   UNL     1      10.517  13.681  10.327  1.00  0.00     0.198 A 
ATOM     97  C   UNL     1      12.473  12.292  10.363  1.00  0.00     0.198 A 
ATOM     98  F   UNL     1      12.380  10.104   9.511  1.00  0.00    -0.203 F 
ATOM     99  F   UNL     1       9.930  14.865  10.553  1.00  0.00    -0.200 F 
ATOM    100  C   UNL     1      11.859  13.506  10.628  1.00  0.00     0.200 A 
ATOM    101  F   UNL     1      13.764  12.112  10.673  1.00  0.00    -0.200 F 
ATOM    102  F   UNL     1      12.564  14.511  11.166  1.00  0.00    -0.200 F 
ENDBRANCH  69  92
ENDBRANCH  43  44
ENDBRANCH  36  38
ENDBRANCH  35  36
ENDBRANCH  34  35
ENDBRANCH  33  34
ENDBRANCH  32  33
ENDBRANCH  31  32
ENDBRANCH   1  31
TORSDOF 20
