REMARK SMILES C#CCN(CC(=O)OCCOCCOC(=O)c1ccc(-c2c3nc(c(-c4c(F)c(F)c(F)c(F)c4F)c4ccc([nH]4)c(-c4c(F)c(F)c(F)c(F)c4F)c4nc(c(-c5c(F)c(F)c(F)c(F)c5F)c5ccc2[nH]5)C=C4)C=C3)cc1)C(=O)Cc1csc(-c2ccsc2)n1
REMARK SMILES IDX 9 1 8 2 6 3 7 4 5 5 4 6 3 7 2 8 1 9 80 10 81 11 82 12 83 13
REMARK SMILES IDX 84 14 92 15 85 16 86 17 87 18 88 19 91 20 89 21 90 22 10 23
REMARK SMILES IDX 11 24 12 25 13 26 14 27 15 28 16 29 17 30 18 31 79 32 19 33
REMARK SMILES IDX 78 34 20 35 21 36 22 37 72 38 23 39 77 40 71 41 73 42 24 43
REMARK SMILES IDX 76 44 70 45 69 46 25 48 57 49 37 50 56 51 38 52 41 53 55 54
REMARK SMILES IDX 74 55 39 56 40 57 54 59 75 60 42 61 26 62 27 63 35 64 28 65
REMARK SMILES IDX 29 66 33 67 36 68 30 69 31 70 34 71 32 72 58 73 59 74 67 75
REMARK SMILES IDX 60 76 61 77 65 78 68 79 62 80 63 81 66 82 64 83 43 84 44 85
REMARK SMILES IDX 52 86 45 87 46 88 50 89 53 90 47 91 48 92 51 93 49 94
REMARK H PARENT 73 47 41 58
REMARK Flexibility Score: inf
ROOT
ATOM      1  C   UNL     1      -6.408  -0.422  -1.863  1.00  0.00     0.261 C 
ENDROOT
BRANCH   1   2
ATOM      2  O   UNL     1      -4.984  -0.417  -1.605  1.00  0.00    -0.462 OA
BRANCH   2   3
ATOM      3  C   UNL     1      -4.362  -1.616  -1.786  1.00  0.00     0.325 C 
ATOM      4  O   UNL     1      -4.948  -2.661  -2.055  1.00  0.00    -0.250 OA
BRANCH   3   5
ATOM      5  C   UNL     1      -2.847  -1.577  -1.567  1.00  0.00     0.243 C 
BRANCH   5   6
ATOM      6  N   UNL     1      -2.175  -0.299  -1.317  1.00  0.00    -0.320 N 
BRANCH   6   7
ATOM      7  C   UNL     1      -1.792  -0.037   0.087  1.00  0.00     0.210 C 
BRANCH   7   8
ATOM      8  C   UNL     1      -0.272  -0.037   0.087  1.00  0.00    -0.085 C 
ATOM      9  C   UNL     1       1.032  -0.037   0.087  1.00  0.00     0.006 C 
ENDBRANCH   7   8
ENDBRANCH   6   7
BRANCH   6  10
ATOM     10  C   UNL     1      -1.730   0.621  -2.267  1.00  0.00     0.229 C 
ATOM     11  O   UNL     1      -1.364   1.747  -1.887  1.00  0.00    -0.274 OA
BRANCH  10  12
ATOM     12  C   UNL     1      -1.732   0.406  -3.779  1.00  0.00     0.157 C 
BRANCH  12  13
ATOM     13  C   UNL     1      -1.138  -0.811  -4.388  1.00  0.00     0.061 A 
ATOM     14  C   UNL     1       0.067  -0.907  -5.061  1.00  0.00     0.091 A 
ATOM     15  N   UNL     1      -1.940  -1.931  -4.523  1.00  0.00    -0.241 NA
ATOM     16  S   UNL     1       0.292  -2.508  -5.633  1.00  0.00    -0.122 S 
ATOM     17  C   UNL     1      -1.253  -2.935  -5.022  1.00  0.00     0.124 A 
BRANCH  17  18
ATOM     18  C   UNL     1      -1.812  -4.327  -4.980  1.00  0.00     0.021 A 
ATOM     19  C   UNL     1      -3.167  -4.636  -4.647  1.00  0.00     0.023 A 
ATOM     20  C   UNL     1      -1.066  -5.466  -5.194  1.00  0.00     0.076 A 
ATOM     21  C   UNL     1      -3.398  -5.994  -4.612  1.00  0.00     0.065 A 
ATOM     22  S   UNL     1      -1.987  -6.893  -4.967  1.00  0.00    -0.152 S 
ENDBRANCH  17  18
ENDBRANCH  12  13
ENDBRANCH  10  12
ENDBRANCH   6  10
ENDBRANCH   5   6
ENDBRANCH   3   5
ENDBRANCH   2   3
ENDBRANCH   1   2
BRANCH   1  23
ATOM     23  C   UNL     1      -6.888   0.871  -2.540  1.00  0.00     0.202 C 
BRANCH  23  24
ATOM     24  O   UNL     1      -6.520   1.047  -3.913  1.00  0.00    -0.374 OA
BRANCH  24  25
ATOM     25  C   UNL     1      -5.129   1.197  -4.171  1.00  0.00     0.202 C 
BRANCH  25  26
ATOM     26  C   UNL     1      -4.547   2.603  -3.977  1.00  0.00     0.261 C 
BRANCH  26  27
ATOM     27  O   UNL     1      -4.902   3.159  -2.709  1.00  0.00    -0.460 OA
BRANCH  27  28
ATOM     28  C   UNL     1      -5.694   4.245  -2.802  1.00  0.00     0.338 C 
ATOM     29  O   UNL     1      -5.998   4.872  -3.813  1.00  0.00    -0.246 OA
BRANCH  28  30
ATOM     30  C   UNL     1      -6.325   4.509  -1.508  1.00  0.00     0.060 A 
ATOM     31  C   UNL     1      -7.720   4.588  -1.502  1.00  0.00     0.016 A 
ATOM     32  C   UNL     1      -5.578   4.756  -0.353  1.00  0.00     0.016 A 
ATOM     33  C   UNL     1      -8.375   4.999  -0.353  1.00  0.00     0.010 A 
ATOM     34  C   UNL     1      -6.240   5.167   0.806  1.00  0.00     0.010 A 
ATOM     35  C   UNL     1      -7.635   5.337   0.789  1.00  0.00    -0.014 A 
BRANCH  35  36
ATOM     36  C   UNL     1      -8.351   6.007   1.893  1.00  0.00     0.031 A 
ATOM     37  C   UNL     1      -8.324   7.506   1.970  1.00  0.00     0.074 A 
ATOM     38  C   UNL     1      -9.107   5.279   2.732  1.00  0.00     0.049 A 
ATOM     39  N   UNL     1      -9.015   8.308   2.739  1.00  0.00    -0.248 NA
ATOM     40  C   UNL     1      -7.401   8.198   1.056  1.00  0.00     0.031 C 
ATOM     41  C   UNL     1      -9.200   3.819   2.725  1.00  0.00     0.029 A 
ATOM     42  N   UNL     1      -9.959   5.668   3.731  1.00  0.00    -0.354 N 
ATOM     43  C   UNL     1      -8.615   9.594   2.397  1.00  0.00     0.074 A 
ATOM     44  C   UNL     1      -7.596   9.468   1.378  1.00  0.00     0.031 C 
ATOM     45  C   UNL     1     -10.073   3.434   3.671  1.00  0.00     0.029 A 
ATOM     46  C   UNL     1     -10.592   4.620   4.349  1.00  0.00     0.049 A 
ATOM     47  H   UNL     1     -10.102   6.609   3.982  1.00  0.00     0.167 HD
ATOM     48  C   UNL     1      -9.072  10.771   2.883  1.00  0.00     0.037 A 
ATOM     49  C   UNL     1     -11.496   4.625   5.345  1.00  0.00     0.037 A 
ATOM     50  C   UNL     1     -10.094  10.877   3.890  1.00  0.00     0.049 A 
ATOM     51  C   UNL     1     -11.982   5.950   5.870  1.00  0.00     0.074 A 
ATOM     52  C   UNL     1     -10.663  12.016   4.429  1.00  0.00     0.029 A 
ATOM     53  N   UNL     1     -10.694   9.793   4.515  1.00  0.00    -0.354 N 
ATOM     54  N   UNL     1     -11.649   7.162   5.495  1.00  0.00    -0.248 NA
ATOM     55  C   UNL     1     -12.983   5.909   6.944  1.00  0.00     0.031 C 
ATOM     56  C   UNL     1     -11.572  11.621   5.417  1.00  0.00     0.029 A 
ATOM     57  C   UNL     1     -11.607  10.236   5.458  1.00  0.00     0.049 A 
ATOM     58  H   UNL     1     -10.500   8.848   4.318  1.00  0.00     0.167 HD
ATOM     59  C   UNL     1     -12.406   8.026   6.272  1.00  0.00     0.074 A 
ATOM     60  C   UNL     1     -13.240   7.197   7.120  1.00  0.00     0.031 C 
ATOM     61  C   UNL     1     -12.412   9.383   6.293  1.00  0.00     0.037 A 
BRANCH  48  62
ATOM     62  C   UNL     1      -8.458  12.032   2.352  1.00  0.00     0.064 A 
ATOM     63  C   UNL     1      -8.725  12.497   1.055  1.00  0.00     0.173 A 
ATOM     64  C   UNL     1      -7.618  12.807   3.165  1.00  0.00     0.173 A 
ATOM     65  F   UNL     1      -9.509  11.785   0.231  1.00  0.00    -0.203 F 
ATOM     66  C   UNL     1      -8.161  13.682   0.588  1.00  0.00     0.198 A 
ATOM     67  C   UNL     1      -7.075  14.003   2.704  1.00  0.00     0.198 A 
ATOM     68  F   UNL     1      -7.329  12.407   4.413  1.00  0.00    -0.203 F 
ATOM     69  F   UNL     1      -8.401  14.088  -0.667  1.00  0.00    -0.200 F 
ATOM     70  C   UNL     1      -7.343  14.437   1.414  1.00  0.00     0.200 A 
ATOM     71  F   UNL     1      -6.291  14.736   3.507  1.00  0.00    -0.200 F 
ATOM     72  F   UNL     1      -6.808  15.582   0.967  1.00  0.00    -0.200 F 
ENDBRANCH  48  62
BRANCH  49  73
ATOM     73  C   UNL     1     -12.003   3.342   5.897  1.00  0.00     0.064 A 
ATOM     74  C   UNL     1     -13.334   2.943   5.718  1.00  0.00     0.173 A 
ATOM     75  C   UNL     1     -11.158   2.488   6.622  1.00  0.00     0.173 A 
ATOM     76  F   UNL     1     -14.186   3.732   5.047  1.00  0.00    -0.203 F 
ATOM     77  C   UNL     1     -13.807   1.751   6.264  1.00  0.00     0.198 A 
ATOM     78  C   UNL     1     -11.624   1.283   7.142  1.00  0.00     0.198 A 
ATOM     79  F   UNL     1      -9.873   2.820   6.817  1.00  0.00    -0.203 F 
ATOM     80  F   UNL     1     -15.097   1.415   6.119  1.00  0.00    -0.200 F 
ATOM     81  C   UNL     1     -12.951   0.919   6.971  1.00  0.00     0.200 A 
ATOM     82  F   UNL     1     -10.789   0.476   7.811  1.00  0.00    -0.200 F 
ATOM     83  F   UNL     1     -13.406  -0.228   7.492  1.00  0.00    -0.200 F 
ENDBRANCH  49  73
BRANCH  61  84
ATOM     84  C   UNL     1     -13.352  10.040   7.260  1.00  0.00     0.064 A 
ATOM     85  C   UNL     1     -13.116  10.010   8.643  1.00  0.00     0.173 A 
ATOM     86  C   UNL     1     -14.488  10.721   6.800  1.00  0.00     0.173 A 
ATOM     87  F   UNL     1     -12.050   9.358   9.131  1.00  0.00    -0.203 F 
ATOM     88  C   UNL     1     -14.003  10.609   9.531  1.00  0.00     0.198 A 
ATOM     89  C   UNL     1     -15.356  11.346   7.690  1.00  0.00     0.198 A 
ATOM     90  F   UNL     1     -14.753  10.785   5.486  1.00  0.00    -0.203 F 
ATOM     91  F   UNL     1     -13.788  10.519  10.851  1.00  0.00    -0.200 F 
ATOM     92  C   UNL     1     -15.119  11.280   9.055  1.00  0.00     0.200 A 
ATOM     93  F   UNL     1     -16.427  12.006   7.227  1.00  0.00    -0.200 F 
ATOM     94  F   UNL     1     -15.972  11.856   9.912  1.00  0.00    -0.200 F 
ENDBRANCH  61  84
ENDBRANCH  35  36
ENDBRANCH  28  30
ENDBRANCH  27  28
ENDBRANCH  26  27
ENDBRANCH  25  26
ENDBRANCH  24  25
ENDBRANCH  23  24
ENDBRANCH   1  23
TORSDOF 21
