REMARK SMILES Cc1nc(CN(C)C(=O)NCc2ccc(C(=O)OCCOCCOC(=O)c3ccc(-c4c5nc(c(-c6c(F)c(F)c(F)c(F)c6F)c6ccc([nH]6)c(-c6c(F)c(F)c(F)c(F)c6F)c6nc(c(-c7c(F)c(F)c(F)c(F)c7F)c7ccc4[nH]7)C=C6)C=C5)cc3)o2)n[nH]1
REMARK SMILES IDX 19 1 18 2 16 3 17 4 15 5 12 6 13 7 90 8 14 9 11 10 10 11
REMARK SMILES IDX 8 12 9 13 6 15 7 16 5 17 4 18 1 19 2 20 3 21 92 22 91 23
REMARK SMILES IDX 20 25 21 26 22 27 23 28 24 29 25 30 26 31 27 32 28 33 89 34
REMARK SMILES IDX 29 35 88 36 30 37 31 38 32 39 82 40 33 41 87 42 81 43 83 44
REMARK SMILES IDX 34 45 86 46 80 47 79 48 35 50 67 51 47 52 66 53 48 54 51 55
REMARK SMILES IDX 65 56 84 57 49 58 50 59 64 61 85 62 52 63 36 64 37 65 45 66
REMARK SMILES IDX 38 67 39 68 43 69 46 70 40 71 41 72 44 73 42 74 68 75 69 76
REMARK SMILES IDX 77 77 70 78 71 79 75 80 78 81 72 82 73 83 76 84 74 85 53 86
REMARK SMILES IDX 54 87 62 88 55 89 56 90 60 91 63 92 57 93 58 94 61 95 59 96
REMARK H PARENT 10 14 92 24 83 49 51 60
REMARK Flexibility Score: inf
ROOT
ATOM      1  C   UNL     1      10.506   4.136   6.580  1.00  0.00     0.261 C 
ENDROOT
BRANCH   1   2
ATOM      2  O   UNL     1       9.323   4.227   5.767  1.00  0.00    -0.457 OA
BRANCH   2   3
ATOM      3  C   UNL     1       9.068   3.153   4.964  1.00  0.00     0.374 C 
ATOM      4  O   UNL     1       9.869   2.265   4.708  1.00  0.00    -0.242 OA
BRANCH   3   5
ATOM      5  C   UNL     1       7.675   3.170   4.583  1.00  0.00     0.211 A 
ATOM      6  C   UNL     1       5.768   2.191   4.053  1.00  0.00     0.124 A 
ATOM      7  C   UNL     1       5.486   3.532   4.221  1.00  0.00     0.048 A 
ATOM      8  O   UNL     1       7.100   1.976   4.237  1.00  0.00    -0.452 OA
ATOM      9  C   UNL     1       6.706   4.158   4.575  1.00  0.00     0.058 A 
BRANCH   6  10
ATOM     10  C   UNL     1       4.958   0.975   3.784  1.00  0.00     0.193 C 
BRANCH  10  11
ATOM     11  N   UNL     1       3.583   1.343   3.550  1.00  0.00    -0.331 N 
ATOM     12  C   UNL     1       2.841   1.670   2.481  1.00  0.00     0.317 C 
ATOM     13  O   UNL     1       1.729   2.133   2.753  1.00  0.00    -0.249 OA
ATOM     14  H   UNL     1       3.058   1.357   4.382  1.00  0.00     0.165 HD
BRANCH  12  15
ATOM     15  N   UNL     1       3.270   1.515   1.195  1.00  0.00    -0.320 N 
ATOM     16  C   UNL     1       4.498   0.888   0.746  1.00  0.00     0.149 C 
BRANCH  15  17
ATOM     17  C   UNL     1       2.297   1.848   0.144  1.00  0.00     0.200 C 
BRANCH  17  18
ATOM     18  C   UNL     1       1.225   0.805   0.015  1.00  0.00     0.170 A 
ATOM     19  C   UNL     1      -2.183  -0.245  -0.087  1.00  0.00     0.089 C 
ATOM     20  C   UNL     1      -0.726  -0.005  -0.080  1.00  0.00     0.121 A 
ATOM     21  N   UNL     1      -0.104   1.151  -0.079  1.00  0.00    -0.215 NA
ATOM     22  N   UNL     1       0.202  -1.006  -0.046  1.00  0.00    -0.263 N 
ATOM     23  N   UNL     1       1.454  -0.519  -0.027  1.00  0.00    -0.157 NA
ATOM     24  H   UNL     1      -0.019  -1.965  -0.037  1.00  0.00     0.192 HD
ENDBRANCH  17  18
ENDBRANCH  15  17
ENDBRANCH  12  15
ENDBRANCH  10  11
ENDBRANCH   6  10
ENDBRANCH   3   5
ENDBRANCH   2   3
ENDBRANCH   1   2
BRANCH   1  25
ATOM     25  C   UNL     1      10.111   4.020   8.055  1.00  0.00     0.202 C 
BRANCH  25  26
ATOM     26  O   UNL     1       9.588   2.737   8.410  1.00  0.00    -0.374 OA
BRANCH  26  27
ATOM     27  C   UNL     1       8.178   2.564   8.245  1.00  0.00     0.202 C 
BRANCH  27  28
ATOM     28  C   UNL     1       7.349   2.997   9.458  1.00  0.00     0.261 C 
BRANCH  28  29
ATOM     29  O   UNL     1       7.349   4.432   9.583  1.00  0.00    -0.460 OA
BRANCH  29  30
ATOM     30  C   UNL     1       8.061   4.914  10.629  1.00  0.00     0.338 C 
ATOM     31  O   UNL     1       8.586   4.276  11.524  1.00  0.00    -0.246 OA
BRANCH  30  32
ATOM     32  C   UNL     1       8.267   6.368  10.466  1.00  0.00     0.060 A 
ATOM     33  C   UNL     1       9.550   6.864  10.729  1.00  0.00     0.016 A 
ATOM     34  C   UNL     1       7.229   7.239  10.121  1.00  0.00     0.016 A 
ATOM     35  C   UNL     1       9.787   8.236  10.704  1.00  0.00     0.010 A 
ATOM     36  C   UNL     1       7.468   8.618  10.100  1.00  0.00     0.010 A 
ATOM     37  C   UNL     1       8.738   9.123  10.428  1.00  0.00    -0.014 A 
BRANCH  37  38
ATOM     38  C   UNL     1       8.948  10.576  10.639  1.00  0.00     0.031 A 
ATOM     39  C   UNL     1       8.516  11.193  11.940  1.00  0.00     0.074 A 
ATOM     40  C   UNL     1       9.562  11.326   9.708  1.00  0.00     0.049 A 
ATOM     41  N   UNL     1       8.629  12.431  12.352  1.00  0.00    -0.248 NA
ATOM     42  C   UNL     1       7.870  10.293  12.909  1.00  0.00     0.031 C 
ATOM     43  C   UNL     1      10.052  10.841   8.421  1.00  0.00     0.029 A 
ATOM     44  N   UNL     1       9.878  12.662   9.709  1.00  0.00    -0.354 N 
ATOM     45  C   UNL     1       8.072  12.457  13.624  1.00  0.00     0.074 A 
ATOM     46  C   UNL     1       7.592  11.121  13.905  1.00  0.00     0.031 C 
ATOM     47  C   UNL     1      10.604  11.867   7.750  1.00  0.00     0.029 A 
ATOM     48  C   UNL     1      10.490  13.082   8.555  1.00  0.00     0.049 A 
ATOM     49  H   UNL     1       9.684  13.261  10.466  1.00  0.00     0.167 HD
ATOM     50  C   UNL     1       7.982  13.497  14.486  1.00  0.00     0.037 A 
ATOM     51  C   UNL     1      10.903  14.311   8.190  1.00  0.00     0.037 A 
ATOM     52  C   UNL     1       8.459  14.826  14.211  1.00  0.00     0.049 A 
ATOM     53  C   UNL     1      10.742  15.464   9.145  1.00  0.00     0.074 A 
ATOM     54  C   UNL     1       8.429  15.942  15.030  1.00  0.00     0.029 A 
ATOM     55  N   UNL     1       9.046  15.220  13.018  1.00  0.00    -0.354 N 
ATOM     56  N   UNL     1      10.248  15.472  10.359  1.00  0.00    -0.248 NA
ATOM     57  C   UNL     1      11.203  16.780   8.679  1.00  0.00     0.031 C 
ATOM     58  C   UNL     1       8.963  17.021  14.317  1.00  0.00     0.029 A 
ATOM     59  C   UNL     1       9.364  16.568  13.071  1.00  0.00     0.049 A 
ATOM     60  H   UNL     1       9.214  14.630  12.248  1.00  0.00     0.167 HD
ATOM     61  C   UNL     1      10.362  16.780  10.811  1.00  0.00     0.074 A 
ATOM     62  C   UNL     1      10.983  17.538   9.745  1.00  0.00     0.031 C 
ATOM     63  C   UNL     1       9.987  17.306  12.003  1.00  0.00     0.037 A 
BRANCH  50  64
ATOM     64  C   UNL     1       7.323  13.239  15.807  1.00  0.00     0.064 A 
ATOM     65  C   UNL     1       7.963  12.502  16.815  1.00  0.00     0.173 A 
ATOM     66  C   UNL     1       6.047  13.755  16.078  1.00  0.00     0.173 A 
ATOM     67  F   UNL     1       9.177  11.975  16.597  1.00  0.00    -0.203 F 
ATOM     68  C   UNL     1       7.340  12.272  18.038  1.00  0.00     0.198 A 
ATOM     69  C   UNL     1       5.437  13.544  17.312  1.00  0.00     0.198 A 
ATOM     70  F   UNL     1       5.395  14.468  15.148  1.00  0.00    -0.203 F 
ATOM     71  F   UNL     1       7.952  11.530  18.972  1.00  0.00    -0.200 F 
ATOM     72  C   UNL     1       6.080  12.797  18.288  1.00  0.00     0.200 A 
ATOM     73  F   UNL     1       4.224  14.058  17.554  1.00  0.00    -0.200 F 
ATOM     74  F   UNL     1       5.483  12.578  19.467  1.00  0.00    -0.200 F 
ENDBRANCH  50  64
BRANCH  51  75
ATOM     75  C   UNL     1      11.513  14.519   6.852  1.00  0.00     0.064 A 
ATOM     76  C   UNL     1      12.878  14.805   6.716  1.00  0.00     0.173 A 
ATOM     77  C   UNL     1      10.739  14.452   5.685  1.00  0.00     0.173 A 
ATOM     78  F   UNL     1      13.653  14.905   7.806  1.00  0.00    -0.203 F 
ATOM     79  C   UNL     1      13.443  15.031   5.463  1.00  0.00     0.198 A 
ATOM     80  C   UNL     1      11.310  14.654   4.430  1.00  0.00     0.198 A 
ATOM     81  F   UNL     1       9.427  14.184   5.763  1.00  0.00    -0.203 F 
ATOM     82  F   UNL     1      14.743  15.343   5.363  1.00  0.00    -0.200 F 
ATOM     83  C   UNL     1      12.660  14.950   4.321  1.00  0.00     0.200 A 
ATOM     84  F   UNL     1      10.551  14.568   3.329  1.00  0.00    -0.200 F 
ATOM     85  F   UNL     1      13.205  15.167   3.116  1.00  0.00    -0.200 F 
ENDBRANCH  51  75
BRANCH  63  86
ATOM     86  C   UNL     1      10.264  18.764  12.229  1.00  0.00     0.064 A 
ATOM     87  C   UNL     1       9.510  19.762  11.595  1.00  0.00     0.173 A 
ATOM     88  C   UNL     1      11.271  19.165  13.121  1.00  0.00     0.173 A 
ATOM     89  F   UNL     1       8.547  19.428  10.724  1.00  0.00    -0.203 F 
ATOM     90  C   UNL     1       9.770  21.110  11.827  1.00  0.00     0.198 A 
ATOM     91  C   UNL     1      11.511  20.514  13.370  1.00  0.00     0.198 A 
ATOM     92  F   UNL     1      12.015  18.249  13.757  1.00  0.00    -0.203 F 
ATOM     93  F   UNL     1       9.066  22.047  11.178  1.00  0.00    -0.200 F 
ATOM     94  C   UNL     1      10.765  21.484  12.718  1.00  0.00     0.200 A 
ATOM     95  F   UNL     1      12.465  20.874  14.239  1.00  0.00    -0.200 F 
ATOM     96  F   UNL     1      11.010  22.782  12.943  1.00  0.00    -0.200 F 
ENDBRANCH  63  86
ENDBRANCH  37  38
ENDBRANCH  30  32
ENDBRANCH  29  30
ENDBRANCH  28  29
ENDBRANCH  27  28
ENDBRANCH  26  27
ENDBRANCH  25  26
ENDBRANCH   1  25
TORSDOF 19
