REMARK SMILES O=C(OCCOCCOC(=O)c1ccc2c(=O)[nH]c(N3CC[NH2+]CC3)nc2c1)c1ccc(-c2c3nc(c(-c4c(F)c(F)c(F)c(F)c4F)c4ccc([nH]4)c(-c4c(F)c(F)c(F)c(F)c4F)c4nc(c(-c5c(F)c(F)c(F)c(F)c5F)c5ccc2[nH]5)C=C4)C=C3)cc1
REMARK SMILES IDX 5 1 4 2 3 3 2 4 1 5 29 6 30 7 91 8 31 9 90 10 32 11 33 12
REMARK SMILES IDX 34 13 84 14 35 15 89 16 83 17 85 18 36 19 88 20 82 21 81 22
REMARK SMILES IDX 37 24 69 25 49 26 68 27 50 28 53 29 67 30 86 31 51 32 52 33
REMARK SMILES IDX 66 35 87 36 54 37 38 38 39 39 47 40 40 41 41 42 45 43 48 44
REMARK SMILES IDX 42 45 43 46 46 47 44 48 70 49 71 50 79 51 72 52 73 53 77 54
REMARK SMILES IDX 80 55 74 56 75 57 78 58 76 59 55 60 56 61 64 62 57 63 58 64
REMARK SMILES IDX 62 65 65 66 59 67 60 68 63 69 61 70 6 71 7 72 8 73 9 74
REMARK SMILES IDX 10 75 11 76 12 77 13 78 28 79 14 80 27 81 15 82 26 83 16 84
REMARK SMILES IDX 19 85 17 86 18 87 20 89 21 90 25 91 22 92 24 93 23 94
REMARK H PARENT 85 23 53 34 18 88 23 95 23 96
REMARK Flexibility Score: inf
ROOT
ATOM      1  C   UNL     1       4.311   0.907   1.451  1.00  0.00     0.202 C 
ENDROOT
BRANCH   1   2
ATOM      2  C   UNL     1       3.984   1.450   0.059  1.00  0.00     0.261 C 
BRANCH   2   3
ATOM      3  O   UNL     1       2.607   1.187  -0.262  1.00  0.00    -0.460 OA
BRANCH   3   4
ATOM      4  C   UNL     1       2.124   0.358  -1.215  1.00  0.00     0.338 C 
ATOM      5  O   UNL     1       0.924   0.389  -1.478  1.00  0.00    -0.246 OA
BRANCH   4   6
ATOM      6  C   UNL     1       2.976  -0.613  -1.964  1.00  0.00     0.060 A 
ATOM      7  C   UNL     1       4.112  -1.231  -1.438  1.00  0.00     0.016 A 
ATOM      8  C   UNL     1       2.524  -1.025  -3.228  1.00  0.00     0.016 A 
ATOM      9  C   UNL     1       4.807  -2.200  -2.147  1.00  0.00     0.010 A 
ATOM     10  C   UNL     1       3.187  -2.037  -3.929  1.00  0.00     0.010 A 
ATOM     11  C   UNL     1       4.328  -2.631  -3.380  1.00  0.00    -0.014 A 
BRANCH  11  12
ATOM     12  C   UNL     1       5.041  -3.725  -4.060  1.00  0.00     0.031 A 
ATOM     13  C   UNL     1       5.921  -3.406  -5.223  1.00  0.00     0.074 A 
ATOM     14  C   UNL     1       4.942  -4.972  -3.563  1.00  0.00     0.049 A 
ATOM     15  N   UNL     1       6.566  -4.218  -6.015  1.00  0.00    -0.248 NA
ATOM     16  C   UNL     1       6.112  -1.979  -5.530  1.00  0.00     0.031 C 
ATOM     17  C   UNL     1       4.183  -5.341  -2.364  1.00  0.00     0.029 A 
ATOM     18  N   UNL     1       5.487  -6.154  -3.987  1.00  0.00    -0.354 N 
ATOM     19  C   UNL     1       7.210  -3.406  -6.936  1.00  0.00     0.074 A 
ATOM     20  C   UNL     1       6.895  -2.036  -6.598  1.00  0.00     0.031 C 
ATOM     21  C   UNL     1       4.317  -6.659  -2.148  1.00  0.00     0.029 A 
ATOM     22  C   UNL     1       5.103  -7.235  -3.231  1.00  0.00     0.049 A 
ATOM     23  H   UNL     1       6.095  -6.222  -4.759  1.00  0.00     0.167 HD
ATOM     24  C   UNL     1       7.979  -3.791  -7.979  1.00  0.00     0.037 A 
ATOM     25  C   UNL     1       5.322  -8.547  -3.434  1.00  0.00     0.037 A 
ATOM     26  C   UNL     1       8.280  -5.165  -8.275  1.00  0.00     0.049 A 
ATOM     27  C   UNL     1       6.111  -8.946  -4.652  1.00  0.00     0.074 A 
ATOM     28  C   UNL     1       9.038  -5.682  -9.308  1.00  0.00     0.029 A 
ATOM     29  N   UNL     1       7.825  -6.244  -7.527  1.00  0.00    -0.354 N 
ATOM     30  N   UNL     1       6.696  -8.180  -5.543  1.00  0.00    -0.248 NA
ATOM     31  C   UNL     1       6.248 -10.384  -4.913  1.00  0.00     0.031 C 
ATOM     32  C   UNL     1       9.000  -7.077  -9.214  1.00  0.00     0.029 A 
ATOM     33  C   UNL     1       8.254  -7.428  -8.098  1.00  0.00     0.049 A 
ATOM     34  H   UNL     1       7.279  -6.175  -6.711  1.00  0.00     0.167 HD
ATOM     35  C   UNL     1       7.267  -9.038  -6.470  1.00  0.00     0.074 A 
ATOM     36  C   UNL     1       6.988 -10.386  -6.013  1.00  0.00     0.031 C 
ATOM     37  C   UNL     1       7.948  -8.747  -7.605  1.00  0.00     0.037 A 
BRANCH  24  38
ATOM     38  C   UNL     1       8.475  -2.723  -8.904  1.00  0.00     0.064 A 
ATOM     39  C   UNL     1       9.521  -1.859  -8.554  1.00  0.00     0.173 A 
ATOM     40  C   UNL     1       7.892  -2.572 -10.171  1.00  0.00     0.173 A 
ATOM     41  F   UNL     1      10.094  -1.946  -7.344  1.00  0.00    -0.203 F 
ATOM     42  C   UNL     1       9.956  -0.871  -9.435  1.00  0.00     0.198 A 
ATOM     43  C   UNL     1       8.342  -1.598 -11.057  1.00  0.00     0.198 A 
ATOM     44  F   UNL     1       6.882  -3.370 -10.549  1.00  0.00    -0.203 F 
ATOM     45  F   UNL     1      10.931  -0.028  -9.067  1.00  0.00    -0.200 F 
ATOM     46  C   UNL     1       9.371  -0.745 -10.687  1.00  0.00     0.200 A 
ATOM     47  F   UNL     1       7.776  -1.480 -12.266  1.00  0.00    -0.200 F 
ATOM     48  F   UNL     1       9.791   0.205 -11.533  1.00  0.00    -0.200 F 
ENDBRANCH  24  38
BRANCH  25  49
ATOM     49  C   UNL     1       4.718  -9.565  -2.531  1.00  0.00     0.064 A 
ATOM     50  C   UNL     1       5.514 -10.431  -1.768  1.00  0.00     0.173 A 
ATOM     51  C   UNL     1       3.325  -9.716  -2.437  1.00  0.00     0.173 A 
ATOM     52  F   UNL     1       6.850 -10.348  -1.839  1.00  0.00    -0.203 F 
ATOM     53  C   UNL     1       4.941 -11.420  -0.968  1.00  0.00     0.198 A 
ATOM     54  C   UNL     1       2.753 -10.681  -1.611  1.00  0.00     0.198 A 
ATOM     55  F   UNL     1       2.512  -8.921  -3.149  1.00  0.00    -0.203 F 
ATOM     56  F   UNL     1       5.727 -12.271  -0.294  1.00  0.00    -0.200 F 
ATOM     57  C   UNL     1       3.562 -11.540  -0.885  1.00  0.00     0.200 A 
ATOM     58  F   UNL     1       1.420 -10.784  -1.526  1.00  0.00    -0.200 F 
ATOM     59  F   UNL     1       3.014 -12.493  -0.119  1.00  0.00    -0.200 F 
ENDBRANCH  25  49
BRANCH  37  60
ATOM     60  C   UNL     1       8.424  -9.908  -8.422  1.00  0.00     0.064 A 
ATOM     61  C   UNL     1       7.534 -10.656  -9.205  1.00  0.00     0.173 A 
ATOM     62  C   UNL     1       9.787 -10.234  -8.469  1.00  0.00     0.173 A 
ATOM     63  F   UNL     1       6.219 -10.389  -9.174  1.00  0.00    -0.203 F 
ATOM     64  C   UNL     1       7.992 -11.701 -10.000  1.00  0.00     0.198 A 
ATOM     65  C   UNL     1      10.244 -11.261  -9.286  1.00  0.00     0.198 A 
ATOM     66  F   UNL     1      10.674  -9.540  -7.739  1.00  0.00    -0.203 F 
ATOM     67  F   UNL     1       7.122 -12.427 -10.715  1.00  0.00    -0.200 F 
ATOM     68  C   UNL     1       9.347 -11.995 -10.048  1.00  0.00     0.200 A 
ATOM     69  F   UNL     1      11.554 -11.537  -9.342  1.00  0.00    -0.200 F 
ATOM     70  F   UNL     1       9.788 -12.992 -10.827  1.00  0.00    -0.200 F 
ENDBRANCH  37  60
ENDBRANCH  11  12
ENDBRANCH   4   6
ENDBRANCH   3   4
ENDBRANCH   2   3
ENDBRANCH   1   2
BRANCH   1  71
ATOM     71  O   UNL     1       4.117  -0.500   1.590  1.00  0.00    -0.374 OA
BRANCH  71  72
ATOM     72  C   UNL     1       2.796  -0.915   1.962  1.00  0.00     0.202 C 
BRANCH  72  73
ATOM     73  C   UNL     1       2.902  -1.980   3.059  1.00  0.00     0.261 C 
BRANCH  73  74
ATOM     74  O   UNL     1       3.451  -1.360   4.234  1.00  0.00    -0.460 OA
BRANCH  74  75
ATOM     75  C   UNL     1       4.811  -1.308   4.269  1.00  0.00     0.338 C 
ATOM     76  O   UNL     1       5.597  -2.020   3.683  1.00  0.00    -0.246 OA
BRANCH  75  77
ATOM     77  C   UNL     1       5.172  -0.051   4.964  1.00  0.00     0.062 A 
ATOM     78  C   UNL     1       4.472   0.370   6.100  1.00  0.00     0.016 A 
ATOM     79  C   UNL     1       6.155   0.766   4.385  1.00  0.00     0.045 A 
ATOM     80  C   UNL     1       4.757   1.614   6.657  1.00  0.00     0.017 A 
ATOM     81  C   UNL     1       6.409   2.036   4.904  1.00  0.00     0.081 A 
ATOM     82  C   UNL     1       5.718   2.432   6.052  1.00  0.00     0.066 A 
ATOM     83  N   UNL     1       7.325   2.878   4.245  1.00  0.00    -0.214 NA
ATOM     84  C   UNL     1       6.039   3.752   6.608  1.00  0.00     0.260 A 
ATOM     85  C   UNL     1       7.605   4.024   4.782  1.00  0.00     0.206 A 
ATOM     86  O   UNL     1       5.479   4.194   7.604  1.00  0.00    -0.269 OA
ATOM     87  N   UNL     1       7.002   4.451   5.933  1.00  0.00    -0.292 N 
ATOM     88  H   UNL     1       7.279   5.321   6.301  1.00  0.00     0.173 HD
BRANCH  85  89
ATOM     89  N   UNL     1       8.506   4.898   4.248  1.00  0.00    -0.331 N 
ATOM     90  C   UNL     1       8.242   5.638   3.016  1.00  0.00     0.181 C 
ATOM     91  C   UNL     1       9.764   5.226   4.913  1.00  0.00     0.181 C 
ATOM     92  C   UNL     1       8.368   7.158   3.293  1.00  0.00     0.282 C 
ATOM     93  C   UNL     1       9.847   6.745   5.161  1.00  0.00     0.282 C 
ATOM     94  N   UNL     1       9.642   7.550   3.939  1.00  0.00    -0.343 N 
ATOM     95  H   UNL     1       9.607   8.539   4.185  1.00  0.00     0.346 HD
ATOM     96  H   UNL     1      10.413   7.386   3.292  1.00  0.00     0.346 HD
ENDBRANCH  85  89
ENDBRANCH  75  77
ENDBRANCH  74  75
ENDBRANCH  73  74
ENDBRANCH  72  73
ENDBRANCH  71  72
ENDBRANCH   1  71
TORSDOF 15
