REMARK SMILES COc1ccc(NC(=O)N[C@@H]2C=C[C@H](C(=O)OCCOCCOC(=O)c3ccc(-c4c5nc(c(-c6c(F)c(F)c(F)c(F)c6F)c6ccc([nH]6)c(-c6c(F)c(F)c(F)c(F)c6F)c6nc(c(-c7c(F)c(F)c(F)c(F)c7F)c7ccc4[nH]7)C=C6)C=C5)cc3)C2)c(C)c1
REMARK SMILES IDX 19 1 18 2 17 3 15 4 16 5 14 6 11 7 12 8 89 9 13 10 10 11
REMARK SMILES IDX 7 12 8 13 9 15 6 17 3 18 4 19 92 20 5 21 90 22 91 23 2 24
REMARK SMILES IDX 1 25 20 26 21 27 22 28 23 29 24 30 25 31 26 32 27 33 88 34
REMARK SMILES IDX 28 35 87 36 29 37 30 38 31 39 81 40 32 41 86 42 80 43 82 44
REMARK SMILES IDX 33 45 85 46 79 47 78 48 34 50 66 51 46 52 65 53 47 54 50 55
REMARK SMILES IDX 64 56 83 57 48 58 49 59 63 61 84 62 51 63 35 64 36 65 44 66
REMARK SMILES IDX 37 67 38 68 42 69 45 70 39 71 40 72 43 73 41 74 67 75 68 76
REMARK SMILES IDX 76 77 69 78 70 79 74 80 77 81 71 82 72 83 75 84 73 85 52 86
REMARK SMILES IDX 53 87 61 88 54 89 55 90 59 91 62 92 56 93 57 94 60 95 58 96
REMARK H PARENT 7 14 10 16 82 49 50 60
REMARK Flexibility Score: inf
ROOT
ATOM      1  C   UNL     1       2.344  -0.776  -1.167  1.00  0.00     0.202 C 
ENDROOT
BRANCH   1   2
ATOM      2  C   UNL     1       2.447   0.730  -1.250  1.00  0.00     0.261 C 
BRANCH   2   3
ATOM      3  O   UNL     1       3.635   1.190  -1.906  1.00  0.00    -0.463 OA
BRANCH   3   4
ATOM      4  C   UNL     1       4.896   0.855  -1.472  1.00  0.00     0.312 C 
ATOM      5  O   UNL     1       5.263   0.605  -0.347  1.00  0.00    -0.252 OA
BRANCH   4   6
ATOM      6  C   UNL     1       5.767   0.646  -2.683  1.00  0.00     0.124 C 
ATOM      7  C   UNL     1       4.360   0.147  -4.600  1.00  0.00     0.107 C 
ATOM      8  C   UNL     1       4.746  -1.080  -3.846  1.00  0.00    -0.006 C 
ATOM      9  C   UNL     1       5.148   1.277  -3.934  1.00  0.00     0.048 C 
ATOM     10  C   UNL     1       5.633  -0.831  -2.884  1.00  0.00    -0.014 C 
BRANCH   7  11
ATOM     11  N   UNL     1       2.942   0.191  -4.788  1.00  0.00    -0.332 N 
ATOM     12  N   UNL     1       2.650  -1.567  -6.422  1.00  0.00    -0.308 N 
ATOM     13  C   UNL     1       2.175  -0.559  -5.623  1.00  0.00     0.319 C 
ATOM     14  H   UNL     1       1.942  -2.044  -6.912  1.00  0.00     0.171 HD
ATOM     15  O   UNL     1       0.952  -0.391  -5.570  1.00  0.00    -0.248 OA
ATOM     16  H   UNL     1       2.459   0.852  -4.241  1.00  0.00     0.165 HD
BRANCH  12  17
ATOM     17  C   UNL     1       3.951  -2.063  -6.688  1.00  0.00     0.046 A 
ATOM     18  C   UNL     1       6.616  -2.762  -6.217  1.00  0.00     0.119 A 
ATOM     19  C   UNL     1       6.319  -1.538  -6.797  1.00  0.00     0.048 A 
ATOM     20  C   UNL     1       5.616  -3.730  -6.135  1.00  0.00     0.052 A 
ATOM     21  C   UNL     1       4.986  -1.223  -7.102  1.00  0.00     0.030 A 
ATOM     22  C   UNL     1       4.267  -3.398  -6.391  1.00  0.00    -0.024 A 
ATOM     23  C   UNL     1       3.241  -4.493  -6.369  1.00  0.00     0.047 C 
BRANCH  18  24
ATOM     24  O   UNL     1       7.886  -3.085  -5.828  1.00  0.00    -0.497 OA
ATOM     25  C   UNL     1       8.321  -2.340  -4.683  1.00  0.00     0.278 C 
ENDBRANCH  18  24
ENDBRANCH  12  17
ENDBRANCH   7  11
ENDBRANCH   4   6
ENDBRANCH   3   4
ENDBRANCH   2   3
ENDBRANCH   1   2
BRANCH   1  26
ATOM     26  O   UNL     1       3.359  -1.229  -0.292  1.00  0.00    -0.374 OA
BRANCH  26  27
ATOM     27  C   UNL     1       3.472  -2.629  -0.118  1.00  0.00     0.202 C 
BRANCH  27  28
ATOM     28  C   UNL     1       2.213  -3.255   0.495  1.00  0.00     0.261 C 
BRANCH  28  29
ATOM     29  O   UNL     1       1.992  -2.731   1.826  1.00  0.00    -0.460 OA
BRANCH  29  30
ATOM     30  C   UNL     1       1.112  -1.694   1.927  1.00  0.00     0.338 C 
ATOM     31  O   UNL     1      -0.047  -1.719   1.546  1.00  0.00    -0.246 OA
BRANCH  30  32
ATOM     32  C   UNL     1       1.830  -0.447   2.334  1.00  0.00     0.060 A 
ATOM     33  C   UNL     1       1.214   0.816   2.217  1.00  0.00     0.016 A 
ATOM     34  C   UNL     1       3.205  -0.518   2.503  1.00  0.00     0.016 A 
ATOM     35  C   UNL     1       1.992   1.989   2.090  1.00  0.00     0.010 A 
ATOM     36  C   UNL     1       3.954   0.609   2.241  1.00  0.00     0.010 A 
ATOM     37  C   UNL     1       3.376   1.874   2.002  1.00  0.00    -0.014 A 
BRANCH  37  38
ATOM     38  C   UNL     1       4.360   2.909   1.619  1.00  0.00     0.031 A 
ATOM     39  C   UNL     1       5.528   3.092   2.532  1.00  0.00     0.074 A 
ATOM     40  C   UNL     1       4.476   3.406   0.357  1.00  0.00     0.049 A 
ATOM     41  N   UNL     1       6.529   3.864   2.285  1.00  0.00    -0.248 NA
ATOM     42  C   UNL     1       5.651   2.438   3.834  1.00  0.00     0.031 C 
ATOM     43  C   UNL     1       5.752   3.689  -0.329  1.00  0.00     0.029 A 
ATOM     44  N   UNL     1       3.530   3.683  -0.644  1.00  0.00    -0.354 N 
ATOM     45  C   UNL     1       7.540   3.549   3.159  1.00  0.00     0.074 A 
ATOM     46  C   UNL     1       6.899   2.765   4.183  1.00  0.00     0.031 C 
ATOM     47  C   UNL     1       5.527   4.295  -1.500  1.00  0.00     0.029 A 
ATOM     48  C   UNL     1       4.121   4.610  -1.546  1.00  0.00     0.049 A 
ATOM     49  H   UNL     1       2.624   3.305  -0.709  1.00  0.00     0.167 HD
ATOM     50  C   UNL     1       8.810   3.923   2.830  1.00  0.00     0.037 A 
ATOM     51  C   UNL     1       3.580   5.841  -1.777  1.00  0.00     0.037 A 
ATOM     52  C   UNL     1       8.813   4.775   1.632  1.00  0.00     0.049 A 
ATOM     53  C   UNL     1       4.489   6.963  -1.337  1.00  0.00     0.074 A 
ATOM     54  C   UNL     1       9.220   4.653   0.315  1.00  0.00     0.029 A 
ATOM     55  N   UNL     1       8.083   5.947   1.684  1.00  0.00    -0.354 N 
ATOM     56  N   UNL     1       5.713   6.770  -0.930  1.00  0.00    -0.248 NA
ATOM     57  C   UNL     1       4.084   8.359  -1.207  1.00  0.00     0.031 C 
ATOM     58  C   UNL     1       8.734   5.794  -0.404  1.00  0.00     0.029 A 
ATOM     59  C   UNL     1       8.061   6.618   0.483  1.00  0.00     0.049 A 
ATOM     60  H   UNL     1       7.626   6.268   2.495  1.00  0.00     0.167 HD
ATOM     61  C   UNL     1       6.177   7.893  -0.315  1.00  0.00     0.074 A 
ATOM     62  C   UNL     1       5.142   8.883  -0.559  1.00  0.00     0.031 C 
ATOM     63  C   UNL     1       7.333   7.882   0.413  1.00  0.00     0.037 A 
BRANCH  50  64
ATOM     64  C   UNL     1      10.095   3.496   3.511  1.00  0.00     0.064 A 
ATOM     65  C   UNL     1      11.328   4.036   3.074  1.00  0.00     0.173 A 
ATOM     66  C   UNL     1      10.216   2.538   4.539  1.00  0.00     0.173 A 
ATOM     67  F   UNL     1      11.381   4.976   2.120  1.00  0.00    -0.203 F 
ATOM     68  C   UNL     1      12.560   3.631   3.596  1.00  0.00     0.198 A 
ATOM     69  C   UNL     1      11.447   2.166   5.090  1.00  0.00     0.198 A 
ATOM     70  F   UNL     1       9.168   1.884   5.040  1.00  0.00    -0.203 F 
ATOM     71  F   UNL     1      13.693   4.150   3.101  1.00  0.00    -0.200 F 
ATOM     72  C   UNL     1      12.620   2.699   4.609  1.00  0.00     0.200 A 
ATOM     73  F   UNL     1      11.480   1.264   6.083  1.00  0.00    -0.200 F 
ATOM     74  F   UNL     1      13.799   2.311   5.111  1.00  0.00    -0.200 F 
ENDBRANCH  50  64
BRANCH  51  75
ATOM     75  C   UNL     1       2.092   5.782  -1.702  1.00  0.00     0.064 A 
ATOM     76  C   UNL     1       1.465   5.075  -2.749  1.00  0.00     0.173 A 
ATOM     77  C   UNL     1       1.483   5.758  -0.438  1.00  0.00     0.173 A 
ATOM     78  F   UNL     1       2.002   5.087  -3.980  1.00  0.00    -0.203 F 
ATOM     79  C   UNL     1       0.428   4.184  -2.484  1.00  0.00     0.198 A 
ATOM     80  C   UNL     1       0.443   4.864  -0.181  1.00  0.00     0.198 A 
ATOM     81  F   UNL     1       2.038   6.420   0.588  1.00  0.00    -0.203 F 
ATOM     82  F   UNL     1      -0.016   3.370  -3.452  1.00  0.00    -0.200 F 
ATOM     83  C   UNL     1      -0.042   4.040  -1.189  1.00  0.00     0.200 A 
ATOM     84  F   UNL     1      -0.000   4.700   1.074  1.00  0.00    -0.200 F 
ATOM     85  F   UNL     1      -0.904   3.055  -0.897  1.00  0.00    -0.200 F 
ENDBRANCH  51  75
BRANCH  63  86
ATOM     86  C   UNL     1       7.829   9.075   1.183  1.00  0.00     0.064 A 
ATOM     87  C   UNL     1       7.848  10.359   0.623  1.00  0.00     0.173 A 
ATOM     88  C   UNL     1       8.389   8.958   2.476  1.00  0.00     0.173 A 
ATOM     89  F   UNL     1       7.417  10.567  -0.630  1.00  0.00    -0.203 F 
ATOM     90  C   UNL     1       8.327  11.461   1.334  1.00  0.00     0.198 A 
ATOM     91  C   UNL     1       8.931  10.045   3.154  1.00  0.00     0.198 A 
ATOM     92  F   UNL     1       8.396   7.799   3.147  1.00  0.00    -0.203 F 
ATOM     93  F   UNL     1       8.253  12.683   0.791  1.00  0.00    -0.200 F 
ATOM     94  C   UNL     1       8.878  11.302   2.594  1.00  0.00     0.200 A 
ATOM     95  F   UNL     1       9.489   9.863   4.360  1.00  0.00    -0.200 F 
ATOM     96  F   UNL     1       9.351  12.358   3.268  1.00  0.00    -0.200 F 
ENDBRANCH  63  86
ENDBRANCH  37  38
ENDBRANCH  30  32
ENDBRANCH  29  30
ENDBRANCH  28  29
ENDBRANCH  27  28
ENDBRANCH  26  27
ENDBRANCH   1  26
TORSDOF 17
