REMARK SMILES NC(=O)c1cc(NC(=O)/C=C\C(=O)OCCOCCOC(=O)c2ccc(-c3c4nc(c(-c5c(F)c(F)c(F)c(F)c5F)c5ccc([nH]5)c(-c5c(F)c(F)c(F)c(F)c5F)c5nc(c(-c6c(F)c(F)c(F)c(F)c6F)c6ccc3[nH]6)C=C5)C=C4)cc2)ccc1N1CCOCC1
REMARK SMILES IDX 16 1 15 2 14 3 12 4 13 5 11 6 10 7 8 8 7 9 9 11 6 12 4 13
REMARK SMILES IDX 5 14 88 15 87 16 86 17 2 18 1 19 3 22 89 23 90 24 94 25
REMARK SMILES IDX 91 26 93 27 92 28 17 29 18 30 19 31 20 32 21 33 22 34 23 35
REMARK SMILES IDX 24 36 85 37 25 38 84 39 26 40 27 41 28 42 78 43 29 44 83 45
REMARK SMILES IDX 77 46 79 47 30 48 82 49 76 50 75 51 31 53 63 54 43 55 62 56
REMARK SMILES IDX 44 57 47 58 61 59 80 60 45 61 46 62 60 64 81 65 48 66 32 67
REMARK SMILES IDX 33 68 41 69 34 70 35 71 39 72 42 73 36 74 37 75 40 76 38 77
REMARK SMILES IDX 64 78 65 79 73 80 66 81 67 82 71 83 74 84 68 85 69 86 72 87
REMARK SMILES IDX 70 88 49 89 50 90 58 91 51 92 52 93 56 94 59 95 53 96 54 97
REMARK SMILES IDX 57 98 55 99
REMARK H PARENT 7 10 1 20 1 21 79 52 47 63
REMARK Flexibility Score: inf
ROOT
ATOM      1  C   UNL     1       3.829   2.649  -2.398  1.00  0.00     0.202 C 
ENDROOT
BRANCH   1   2
ATOM      2  C   UNL     1       2.934   3.787  -2.894  1.00  0.00     0.261 C 
BRANCH   2   3
ATOM      3  O   UNL     1       1.557   3.992  -2.513  1.00  0.00    -0.460 OA
BRANCH   3   4
ATOM      4  C   UNL     1       0.879   3.975  -1.365  1.00  0.00     0.331 C 
ATOM      5  O   UNL     1       1.228   3.604  -0.268  1.00  0.00    -0.247 OA
BRANCH   4   6
ATOM      6  C   UNL     1      -0.479   4.530  -1.569  1.00  0.00     0.099 C 
ATOM      7  C   UNL     1      -1.074   4.944  -2.698  1.00  0.00     0.079 C 
BRANCH   7   8
ATOM      8  C   UNL     1      -0.535   5.018  -4.077  1.00  0.00     0.248 C 
ATOM      9  N   UNL     1      -0.120   3.930  -4.798  1.00  0.00    -0.322 N 
ATOM     10  H   UNL     1       0.105   4.134  -5.735  1.00  0.00     0.170 HD
ATOM     11  O   UNL     1      -0.474   6.134  -4.599  1.00  0.00    -0.270 OA
BRANCH   9  12
ATOM     12  C   UNL     1       0.045   2.574  -4.451  1.00  0.00     0.042 A 
ATOM     13  C   UNL     1      -0.055   0.835  -2.784  1.00  0.00     0.064 A 
ATOM     14  C   UNL     1      -0.611   1.971  -3.393  1.00  0.00     0.042 A 
ATOM     15  C   UNL     1       1.094   0.194  -3.304  1.00  0.00     0.050 A 
ATOM     16  C   UNL     1       1.606   0.703  -4.503  1.00  0.00     0.029 A 
ATOM     17  C   UNL     1       1.079   1.873  -5.082  1.00  0.00     0.028 A 
BRANCH  13  18
ATOM     18  C   UNL     1      -0.648   0.502  -1.463  1.00  0.00     0.250 C 
ATOM     19  N   UNL     1       0.231   0.335  -0.433  1.00  0.00    -0.366 N 
ATOM     20  H   UNL     1      -0.101   0.113   0.467  1.00  0.00     0.159 HD
ATOM     21  H   UNL     1       1.198   0.437  -0.590  1.00  0.00     0.159 HD
ATOM     22  O   UNL     1      -1.859   0.485  -1.290  1.00  0.00    -0.269 OA
ENDBRANCH  13  18
BRANCH  15  23
ATOM     23  N   UNL     1       1.661  -0.899  -2.677  1.00  0.00    -0.366 N 
ATOM     24  C   UNL     1       0.916  -2.167  -2.755  1.00  0.00     0.145 C 
ATOM     25  C   UNL     1       3.091  -1.079  -2.388  1.00  0.00     0.145 C 
ATOM     26  C   UNL     1       1.141  -2.957  -1.458  1.00  0.00     0.181 C 
ATOM     27  C   UNL     1       3.237  -1.925  -1.106  1.00  0.00     0.181 C 
ATOM     28  O   UNL     1       2.542  -3.177  -1.215  1.00  0.00    -0.378 OA
ENDBRANCH  15  23
ENDBRANCH   9  12
ENDBRANCH   7   8
ENDBRANCH   4   6
ENDBRANCH   3   4
ENDBRANCH   2   3
ENDBRANCH   1   2
BRANCH   1  29
ATOM     29  O   UNL     1       4.662   2.779  -1.253  1.00  0.00    -0.374 OA
BRANCH  29  30
ATOM     30  C   UNL     1       4.010   3.097  -0.039  1.00  0.00     0.202 C 
BRANCH  30  31
ATOM     31  C   UNL     1       4.045   4.608   0.256  1.00  0.00     0.261 C 
BRANCH  31  32
ATOM     32  O   UNL     1       4.213   5.438  -0.916  1.00  0.00    -0.460 OA
BRANCH  32  33
ATOM     33  C   UNL     1       5.478   5.489  -1.417  1.00  0.00     0.338 C 
ATOM     34  O   UNL     1       6.489   5.047  -0.898  1.00  0.00    -0.246 OA
BRANCH  33  35
ATOM     35  C   UNL     1       5.473   6.042  -2.798  1.00  0.00     0.060 A 
ATOM     36  C   UNL     1       6.057   5.283  -3.825  1.00  0.00     0.016 A 
ATOM     37  C   UNL     1       4.930   7.295  -3.087  1.00  0.00     0.016 A 
ATOM     38  C   UNL     1       6.174   5.808  -5.118  1.00  0.00     0.010 A 
ATOM     39  C   UNL     1       5.069   7.832  -4.377  1.00  0.00     0.010 A 
ATOM     40  C   UNL     1       5.739   7.113  -5.386  1.00  0.00    -0.014 A 
BRANCH  40  41
ATOM     41  C   UNL     1       6.208   7.802  -6.621  1.00  0.00     0.031 A 
ATOM     42  C   UNL     1       7.437   8.673  -6.522  1.00  0.00     0.074 A 
ATOM     43  C   UNL     1       5.603   7.642  -7.812  1.00  0.00     0.049 A 
ATOM     44  N   UNL     1       8.020   9.407  -7.436  1.00  0.00    -0.248 NA
ATOM     45  C   UNL     1       8.098   8.718  -5.207  1.00  0.00     0.031 C 
ATOM     46  C   UNL     1       4.441   6.794  -8.062  1.00  0.00     0.029 A 
ATOM     47  N   UNL     1       5.881   8.201  -9.038  1.00  0.00    -0.354 N 
ATOM     48  C   UNL     1       9.103  10.008  -6.804  1.00  0.00     0.074 A 
ATOM     49  C   UNL     1       9.086   9.571  -5.426  1.00  0.00     0.031 C 
ATOM     50  C   UNL     1       4.091   6.905  -9.357  1.00  0.00     0.029 A 
ATOM     51  C   UNL     1       4.982   7.859 -10.019  1.00  0.00     0.049 A 
ATOM     52  H   UNL     1       6.653   8.792  -9.197  1.00  0.00     0.167 HD
ATOM     53  C   UNL     1      10.030  10.847  -7.325  1.00  0.00     0.037 A 
ATOM     54  C   UNL     1       4.873   8.290 -11.293  1.00  0.00     0.037 A 
ATOM     55  C   UNL     1      10.053  11.279  -8.697  1.00  0.00     0.049 A 
ATOM     56  C   UNL     1       5.879   9.281 -11.831  1.00  0.00     0.074 A 
ATOM     57  C   UNL     1      10.970  12.103  -9.326  1.00  0.00     0.029 A 
ATOM     58  N   UNL     1       9.107  10.932  -9.650  1.00  0.00    -0.354 N 
ATOM     59  N   UNL     1       6.918   9.817 -11.237  1.00  0.00    -0.248 NA
ATOM     60  C   UNL     1       5.698   9.723 -13.223  1.00  0.00     0.031 C 
ATOM     61  C   UNL     1      10.542  12.310 -10.641  1.00  0.00     0.029 A 
ATOM     62  C   UNL     1       9.399  11.557 -10.853  1.00  0.00     0.049 A 
ATOM     63  H   UNL     1       8.342  10.332  -9.496  1.00  0.00     0.167 HD
ATOM     64  C   UNL     1       7.526  10.632 -12.185  1.00  0.00     0.074 A 
ATOM     65  C   UNL     1       6.754  10.504 -13.401  1.00  0.00     0.031 C 
ATOM     66  C   UNL     1       8.626  11.417 -12.060  1.00  0.00     0.037 A 
BRANCH  53  67
ATOM     67  C   UNL     1      11.081  11.391  -6.399  1.00  0.00     0.064 A 
ATOM     68  C   UNL     1      12.111  10.587  -5.888  1.00  0.00     0.173 A 
ATOM     69  C   UNL     1      11.084  12.754  -6.062  1.00  0.00     0.173 A 
ATOM     70  F   UNL     1      12.146   9.276  -6.168  1.00  0.00    -0.203 F 
ATOM     71  C   UNL     1      13.093  11.124  -5.059  1.00  0.00     0.198 A 
ATOM     72  C   UNL     1      12.085  13.293  -5.259  1.00  0.00     0.198 A 
ATOM     73  F   UNL     1      10.124  13.568  -6.527  1.00  0.00    -0.203 F 
ATOM     74  F   UNL     1      14.044  10.329  -4.549  1.00  0.00    -0.200 F 
ATOM     75  C   UNL     1      13.085  12.477  -4.753  1.00  0.00     0.200 A 
ATOM     76  F   UNL     1      12.084  14.603  -4.979  1.00  0.00    -0.200 F 
ATOM     77  F   UNL     1      14.040  12.994  -3.968  1.00  0.00    -0.200 F 
ENDBRANCH  53  67
BRANCH  54  78
ATOM     78  C   UNL     1       3.746   7.825 -12.150  1.00  0.00     0.064 A 
ATOM     79  C   UNL     1       3.971   7.052 -13.299  1.00  0.00     0.173 A 
ATOM     80  C   UNL     1       2.421   8.188 -11.863  1.00  0.00     0.173 A 
ATOM     81  F   UNL     1       5.221   6.702 -13.637  1.00  0.00    -0.203 F 
ATOM     82  C   UNL     1       2.920   6.684 -14.139  1.00  0.00     0.198 A 
ATOM     83  C   UNL     1       1.368   7.790 -12.684  1.00  0.00     0.198 A 
ATOM     84  F   UNL     1       2.148   8.934 -10.782  1.00  0.00    -0.203 F 
ATOM     85  F   UNL     1       3.172   5.998 -15.262  1.00  0.00    -0.200 F 
ATOM     86  C   UNL     1       1.619   7.048 -13.827  1.00  0.00     0.200 A 
ATOM     87  F   UNL     1       0.111   8.134 -12.372  1.00  0.00    -0.200 F 
ATOM     88  F   UNL     1       0.609   6.694 -14.634  1.00  0.00    -0.200 F 
ENDBRANCH  54  78
BRANCH  66  89
ATOM     89  C   UNL     1       9.087  12.168 -13.278  1.00  0.00     0.064 A 
ATOM     90  C   UNL     1       8.356  13.243 -13.807  1.00  0.00     0.173 A 
ATOM     91  C   UNL     1      10.298  11.832 -13.903  1.00  0.00     0.173 A 
ATOM     92  F   UNL     1       7.186  13.600 -13.256  1.00  0.00    -0.203 F 
ATOM     93  C   UNL     1       8.803  13.928 -14.935  1.00  0.00     0.198 A 
ATOM     94  C   UNL     1      10.760  12.543 -15.007  1.00  0.00     0.198 A 
ATOM     95  F   UNL     1      11.044  10.820 -13.433  1.00  0.00    -0.203 F 
ATOM     96  F   UNL     1       8.058  14.913 -15.456  1.00  0.00    -0.200 F 
ATOM     97  C   UNL     1      10.007  13.583 -15.529  1.00  0.00     0.200 A 
ATOM     98  F   UNL     1      11.934  12.219 -15.568  1.00  0.00    -0.200 F 
ATOM     99  F   UNL     1      10.439  14.248 -16.609  1.00  0.00    -0.200 F 
ENDBRANCH  66  89
ENDBRANCH  40  41
ENDBRANCH  33  35
ENDBRANCH  32  33
ENDBRANCH  31  32
ENDBRANCH  30  31
ENDBRANCH  29  30
ENDBRANCH   1  29
TORSDOF 18
