REMARK SMILES O=C(OCCOCCOC(=O)c1ccccc1Nc1cccc(C(F)(F)F)c1)c1ccc(-c2c3nc(c(-c4c(F)c(F)c(F)c(F)c4F)c4ccc([nH]4)c(-c4c(F)c(F)c(F)c(F)c4F)c4nc(c(-c5c(F)c(F)c(F)c(F)c5F)c5ccc2[nH]5)C=C4)C=C3)cc1
REMARK SMILES IDX 7 1 6 2 5 3 4 4 3 5 2 6 1 7 29 8 30 9 91 10 31 11 90 12
REMARK SMILES IDX 32 13 33 14 34 15 84 16 35 17 89 18 83 19 85 20 36 21 88 22
REMARK SMILES IDX 82 23 81 24 37 26 69 27 49 28 68 29 50 30 53 31 67 32 86 33
REMARK SMILES IDX 51 34 52 35 66 37 87 38 54 39 38 40 39 41 47 42 40 43 41 44
REMARK SMILES IDX 45 45 48 46 42 47 43 48 46 49 44 50 70 51 71 52 79 53 72 54
REMARK SMILES IDX 73 55 77 56 80 57 74 58 75 59 78 60 76 61 55 62 56 63 64 64
REMARK SMILES IDX 57 65 58 66 62 67 65 68 59 69 60 70 63 71 61 72 8 73 9 74
REMARK SMILES IDX 10 75 11 76 12 77 13 78 17 79 14 80 16 81 15 82 18 83 19 85
REMARK SMILES IDX 20 86 28 87 21 88 23 89 22 90 24 91 25 92 26 93 27 94
REMARK H PARENT 85 25 53 36 18 84
REMARK Flexibility Score: inf
ROOT
ATOM      1  C   UNL     1       2.800   2.147   0.338  1.00  0.00     0.202 C 
ENDROOT
BRANCH   1   2
ATOM      2  O   UNL     1       4.069   1.595  -0.022  1.00  0.00    -0.374 OA
BRANCH   2   3
ATOM      3  C   UNL     1       4.187   1.094  -1.352  1.00  0.00     0.202 C 
BRANCH   3   4
ATOM      4  C   UNL     1       3.824  -0.386  -1.487  1.00  0.00     0.261 C 
BRANCH   4   5
ATOM      5  O   UNL     1       2.465  -0.607  -1.075  1.00  0.00    -0.460 OA
BRANCH   5   6
ATOM      6  C   UNL     1       2.006  -1.147   0.077  1.00  0.00     0.338 C 
ATOM      7  O   UNL     1       0.796  -1.333   0.197  1.00  0.00    -0.246 OA
BRANCH   6   8
ATOM      8  C   UNL     1       2.879  -1.525   1.232  1.00  0.00     0.060 A 
ATOM      9  C   UNL     1       4.130  -0.971   1.501  1.00  0.00     0.016 A 
ATOM     10  C   UNL     1       2.354  -2.435   2.167  1.00  0.00     0.016 A 
ATOM     11  C   UNL     1       4.856  -1.318   2.626  1.00  0.00     0.010 A 
ATOM     12  C   UNL     1       3.064  -2.772   3.326  1.00  0.00     0.010 A 
ATOM     13  C   UNL     1       4.325  -2.212   3.549  1.00  0.00    -0.014 A 
BRANCH  13  14
ATOM     14  C   UNL     1       5.199  -2.595   4.668  1.00  0.00     0.031 A 
ATOM     15  C   UNL     1       5.934  -3.893   4.577  1.00  0.00     0.074 A 
ATOM     16  C   UNL     1       5.475  -1.683   5.619  1.00  0.00     0.049 A 
ATOM     17  N   UNL     1       6.796  -4.416   5.405  1.00  0.00    -0.248 NA
ATOM     18  C   UNL     1       5.686  -4.701   3.371  1.00  0.00     0.031 C 
ATOM     19  C   UNL     1       4.902  -0.336   5.681  1.00  0.00     0.029 A 
ATOM     20  N   UNL     1       6.341  -1.726   6.676  1.00  0.00    -0.354 N 
ATOM     21  C   UNL     1       7.187  -5.614   4.826  1.00  0.00     0.074 A 
ATOM     22  C   UNL     1       6.462  -5.752   3.584  1.00  0.00     0.031 C 
ATOM     23  C   UNL     1       5.455   0.329   6.707  1.00  0.00     0.029 A 
ATOM     24  C   UNL     1       6.365  -0.566   7.411  1.00  0.00     0.049 A 
ATOM     25  H   UNL     1       6.894  -2.512   6.890  1.00  0.00     0.167 HD
ATOM     26  C   UNL     1       8.077  -6.514   5.302  1.00  0.00     0.037 A 
ATOM     27  C   UNL     1       7.029  -0.284   8.547  1.00  0.00     0.037 A 
ATOM     28  C   UNL     1       8.768  -6.349   6.551  1.00  0.00     0.049 A 
ATOM     29  C   UNL     1       7.923  -1.355   9.115  1.00  0.00     0.074 A 
ATOM     30  C   UNL     1       9.601  -7.234   7.209  1.00  0.00     0.029 A 
ATOM     31  N   UNL     1       8.699  -5.201   7.333  1.00  0.00    -0.354 N 
ATOM     32  N   UNL     1       8.217  -2.534   8.619  1.00  0.00    -0.248 NA
ATOM     33  C   UNL     1       8.566  -1.067  10.401  1.00  0.00     0.031 C 
ATOM     34  C   UNL     1      10.006  -6.634   8.407  1.00  0.00     0.029 A 
ATOM     35  C   UNL     1       9.468  -5.357   8.472  1.00  0.00     0.049 A 
ATOM     36  H   UNL     1       8.179  -4.396   7.108  1.00  0.00     0.167 HD
ATOM     37  C   UNL     1       9.085  -3.126   9.524  1.00  0.00     0.074 A 
ATOM     38  C   UNL     1       9.295  -2.158  10.584  1.00  0.00     0.031 C 
ATOM     39  C   UNL     1       9.650  -4.359   9.496  1.00  0.00     0.037 A 
BRANCH  26  40
ATOM     40  C   UNL     1       8.277  -7.763   4.498  1.00  0.00     0.064 A 
ATOM     41  C   UNL     1       8.964  -7.755   3.274  1.00  0.00     0.173 A 
ATOM     42  C   UNL     1       7.731  -8.979   4.935  1.00  0.00     0.173 A 
ATOM     43  F   UNL     1       9.474  -6.610   2.794  1.00  0.00    -0.203 F 
ATOM     44  C   UNL     1       9.072  -8.912   2.505  1.00  0.00     0.198 A 
ATOM     45  C   UNL     1       7.863 -10.139   4.176  1.00  0.00     0.198 A 
ATOM     46  F   UNL     1       7.054  -9.039   6.091  1.00  0.00    -0.203 F 
ATOM     47  F   UNL     1       9.679  -8.867   1.311  1.00  0.00    -0.200 F 
ATOM     48  C   UNL     1       8.525 -10.103   2.958  1.00  0.00     0.200 A 
ATOM     49  F   UNL     1       7.333 -11.289   4.616  1.00  0.00    -0.200 F 
ATOM     50  F   UNL     1       8.620 -11.213   2.213  1.00  0.00    -0.200 F 
ENDBRANCH  26  40
BRANCH  27  51
ATOM     51  C   UNL     1       6.821   1.014   9.247  1.00  0.00     0.064 A 
ATOM     52  C   UNL     1       7.871   1.920   9.450  1.00  0.00     0.173 A 
ATOM     53  C   UNL     1       5.561   1.360   9.764  1.00  0.00     0.173 A 
ATOM     54  F   UNL     1       9.101   1.634   8.998  1.00  0.00    -0.203 F 
ATOM     55  C   UNL     1       7.676   3.103  10.165  1.00  0.00     0.198 A 
ATOM     56  C   UNL     1       5.359   2.558  10.446  1.00  0.00     0.198 A 
ATOM     57  F   UNL     1       4.519   0.531   9.605  1.00  0.00    -0.203 F 
ATOM     58  F   UNL     1       8.712   3.921  10.398  1.00  0.00    -0.200 F 
ATOM     59  C   UNL     1       6.420   3.423  10.658  1.00  0.00     0.200 A 
ATOM     60  F   UNL     1       4.139   2.866  10.906  1.00  0.00    -0.200 F 
ATOM     61  F   UNL     1       6.235   4.557  11.348  1.00  0.00    -0.200 F 
ENDBRANCH  27  51
BRANCH  39  62
ATOM     62  C   UNL     1      10.564  -4.703  10.633  1.00  0.00     0.064 A 
ATOM     63  C   UNL     1      10.068  -4.964  11.918  1.00  0.00     0.173 A 
ATOM     64  C   UNL     1      11.946  -4.804  10.422  1.00  0.00     0.173 A 
ATOM     65  F   UNL     1       8.754  -4.863  12.169  1.00  0.00    -0.203 F 
ATOM     66  C   UNL     1      10.930  -5.287  12.961  1.00  0.00     0.198 A 
ATOM     67  C   UNL     1      12.801  -5.159  11.459  1.00  0.00     0.198 A 
ATOM     68  F   UNL     1      12.464  -4.570   9.207  1.00  0.00    -0.203 F 
ATOM     69  F   UNL     1      10.443  -5.481  14.194  1.00  0.00    -0.200 F 
ATOM     70  C   UNL     1      12.294  -5.391  12.729  1.00  0.00     0.200 A 
ATOM     71  F   UNL     1      14.117  -5.274  11.231  1.00  0.00    -0.200 F 
ATOM     72  F   UNL     1      13.122  -5.708  13.734  1.00  0.00    -0.200 F 
ENDBRANCH  39  62
ENDBRANCH  13  14
ENDBRANCH   6   8
ENDBRANCH   5   6
ENDBRANCH   4   5
ENDBRANCH   3   4
ENDBRANCH   2   3
ENDBRANCH   1   2
BRANCH   1  73
ATOM     73  C   UNL     1       3.037   3.504   1.005  1.00  0.00     0.261 C 
BRANCH  73  74
ATOM     74  O   UNL     1       3.603   4.389   0.026  1.00  0.00    -0.460 OA
BRANCH  74  75
ATOM     75  C   UNL     1       4.950   4.284  -0.166  1.00  0.00     0.340 C 
ATOM     76  O   UNL     1       5.766   3.889   0.637  1.00  0.00    -0.246 OA
BRANCH  75  77
ATOM     77  C   UNL     1       5.232   4.558  -1.607  1.00  0.00     0.083 A 
ATOM     78  C   UNL     1       6.300   3.841  -2.171  1.00  0.00     0.018 A 
ATOM     79  C   UNL     1       4.447   5.439  -2.392  1.00  0.00     0.053 A 
ATOM     80  C   UNL     1       6.585   3.961  -3.528  1.00  0.00     0.001 A 
ATOM     81  C   UNL     1       4.780   5.564  -3.747  1.00  0.00     0.027 A 
ATOM     82  C   UNL     1       5.823   4.820  -4.313  1.00  0.00     0.002 A 
BRANCH  79  83
ATOM     83  N   UNL     1       3.443   6.217  -1.784  1.00  0.00    -0.355 N 
ATOM     84  H   UNL     1       3.395   6.064  -0.812  1.00  0.00     0.167 HD
BRANCH  83  85
ATOM     85  C   UNL     1       2.497   7.152  -2.214  1.00  0.00     0.039 A 
ATOM     86  C   UNL     1       2.236   8.236  -1.363  1.00  0.00     0.026 A 
ATOM     87  C   UNL     1       1.815   7.072  -3.427  1.00  0.00     0.039 A 
ATOM     88  C   UNL     1       1.326   9.228  -1.714  1.00  0.00     0.003 A 
ATOM     89  C   UNL     1       0.877   8.056  -3.789  1.00  0.00     0.058 A 
ATOM     90  C   UNL     1       0.650   9.140  -2.926  1.00  0.00     0.013 A 
BRANCH  89  91
ATOM     91  C   UNL     1       0.123   7.968  -5.091  1.00  0.00     0.416 C 
ATOM     92  F   UNL     1      -1.215   8.169  -4.936  1.00  0.00    -0.166 F 
ATOM     93  F   UNL     1       0.539   8.899  -5.992  1.00  0.00    -0.166 F 
ATOM     94  F   UNL     1       0.248   6.763  -5.714  1.00  0.00    -0.166 F 
ENDBRANCH  89  91
ENDBRANCH  83  85
ENDBRANCH  79  83
ENDBRANCH  75  77
ENDBRANCH  74  75
ENDBRANCH  73  74
ENDBRANCH   1  73
TORSDOF 17
