REMARK SMILES O=C(CC1CCN(C(=O)c2ccc3[nH]ccc3c2)CC1)OCCOCCOC(=O)c1ccc(-c2c3nc(c(-c4c(F)c(F)c(F)c(F)c4F)c4ccc([nH]4)c(-c4c(F)c(F)c(F)c(F)c4F)c4nc(c(-c5c(F)c(F)c(F)c(F)c5F)c5ccc2[nH]5)C=C4)C=C3)cc1
REMARK SMILES IDX 24 1 23 2 22 3 21 4 2 5 1 6 3 7 4 8 5 9 20 10 6 11 19 12
REMARK SMILES IDX 7 13 8 14 9 15 10 16 11 17 18 18 12 19 17 20 13 21 16 22
REMARK SMILES IDX 14 23 15 24 25 26 26 27 27 28 28 29 29 30 30 31 31 32 92 33
REMARK SMILES IDX 32 34 91 35 33 36 34 37 35 38 85 39 36 40 90 41 84 42 86 43
REMARK SMILES IDX 37 44 89 45 83 46 82 47 38 49 70 50 50 51 69 52 51 53 54 54
REMARK SMILES IDX 68 55 87 56 52 57 53 58 67 60 88 61 55 62 39 63 40 64 48 65
REMARK SMILES IDX 41 66 42 67 46 68 49 69 43 70 44 71 47 72 45 73 71 74 72 75
REMARK SMILES IDX 80 76 73 77 74 78 78 79 81 80 75 81 76 82 79 83 77 84 56 85
REMARK SMILES IDX 57 86 65 87 58 88 59 89 63 90 66 91 60 92 61 93 64 94 62 95
REMARK H PARENT 14 25 86 48 54 59
REMARK Flexibility Score: inf
ROOT
ATOM      1  O   UNL     1       3.986  -0.914  -1.048  1.00  0.00    -0.374 OA
ENDROOT
BRANCH   1   2
ATOM      2  C   UNL     1       4.239  -1.352   0.288  1.00  0.00     0.202 C 
BRANCH   2   3
ATOM      3  C   UNL     1       3.846  -0.365   1.387  1.00  0.00     0.261 C 
BRANCH   3   4
ATOM      4  O   UNL     1       2.492   0.079   1.280  1.00  0.00    -0.463 OA
BRANCH   4   5
ATOM      5  C   UNL     1       2.096   1.223   0.685  1.00  0.00     0.306 C 
ATOM      6  O   UNL     1       0.959   1.638   0.914  1.00  0.00    -0.252 OA
BRANCH   5   7
ATOM      7  C   UNL     1       2.947   1.907  -0.375  1.00  0.00     0.126 C 
BRANCH   7   8
ATOM      8  C   UNL     1       4.197   2.709   0.037  1.00  0.00     0.003 C 
ATOM      9  C   UNL     1       4.207   4.085  -0.683  1.00  0.00     0.026 C 
ATOM     10  C   UNL     1       5.546   2.025  -0.302  1.00  0.00     0.026 C 
ATOM     11  C   UNL     1       4.518   3.961  -2.184  1.00  0.00     0.120 C 
ATOM     12  C   UNL     1       5.790   1.897  -1.800  1.00  0.00     0.120 C 
ATOM     13  N   UNL     1       5.763   3.225  -2.394  1.00  0.00    -0.339 N 
ATOM     14  C   UNL     1       6.875   3.878  -2.921  1.00  0.00     0.253 C 
ATOM     15  O   UNL     1       6.881   5.066  -3.235  1.00  0.00    -0.269 OA
BRANCH  14  16
ATOM     16  C   UNL     1       8.139   3.120  -3.073  1.00  0.00     0.040 A 
ATOM     17  C   UNL     1       8.211   2.016  -3.929  1.00  0.00     0.016 A 
ATOM     18  C   UNL     1       9.255   3.545  -2.339  1.00  0.00     0.024 A 
ATOM     19  C   UNL     1       9.393   1.277  -4.040  1.00  0.00     0.027 A 
ATOM     20  C   UNL     1      10.455   2.817  -2.448  1.00  0.00     0.000 A 
ATOM     21  C   UNL     1      10.496   1.702  -3.288  1.00  0.00     0.045 A 
ATOM     22  C   UNL     1      11.746   2.950  -1.866  1.00  0.00     0.028 A 
ATOM     23  N   UNL     1      11.770   1.184  -3.208  1.00  0.00    -0.361 N 
ATOM     24  C   UNL     1      12.534   1.934  -2.354  1.00  0.00     0.083 A 
ATOM     25  H   UNL     1      12.085   0.389  -3.695  1.00  0.00     0.166 HD
ENDBRANCH  14  16
ENDBRANCH   7   8
ENDBRANCH   5   7
ENDBRANCH   4   5
ENDBRANCH   3   4
ENDBRANCH   2   3
ENDBRANCH   1   2
BRANCH   1  26
ATOM     26  C   UNL     1       2.720  -1.337  -1.581  1.00  0.00     0.202 C 
BRANCH  26  27
ATOM     27  C   UNL     1       2.773  -2.668  -2.337  1.00  0.00     0.261 C 
BRANCH  27  28
ATOM     28  O   UNL     1       3.271  -3.711  -1.488  1.00  0.00    -0.460 OA
BRANCH  28  29
ATOM     29  C   UNL     1       4.601  -3.936  -1.606  1.00  0.00     0.338 C 
ATOM     30  O   UNL     1       5.350  -3.509  -2.470  1.00  0.00    -0.246 OA
BRANCH  29  31
ATOM     31  C   UNL     1       5.082  -4.634  -0.396  1.00  0.00     0.060 A 
ATOM     32  C   UNL     1       6.359  -4.299   0.070  1.00  0.00     0.016 A 
ATOM     33  C   UNL     1       4.303  -5.575   0.286  1.00  0.00     0.016 A 
ATOM     34  C   UNL     1       6.887  -4.948   1.179  1.00  0.00     0.010 A 
ATOM     35  C   UNL     1       4.832  -6.226   1.403  1.00  0.00     0.010 A 
ATOM     36  C   UNL     1       6.143  -5.946   1.823  1.00  0.00    -0.014 A 
BRANCH  36  37
ATOM     37  C   UNL     1       6.824  -6.811   2.812  1.00  0.00     0.031 A 
ATOM     38  C   UNL     1       7.314  -8.160   2.365  1.00  0.00     0.074 A 
ATOM     39  C   UNL     1       7.067  -6.367   4.057  1.00  0.00     0.049 A 
ATOM     40  N   UNL     1       7.985  -9.063   3.032  1.00  0.00    -0.248 NA
ATOM     41  C   UNL     1       7.007  -8.542   0.977  1.00  0.00     0.031 C 
ATOM     42  C   UNL     1       6.653  -5.069   4.587  1.00  0.00     0.029 A 
ATOM     43  N   UNL     1       7.730  -6.963   5.099  1.00  0.00    -0.354 N 
ATOM     44  C   UNL     1       8.191 -10.110   2.142  1.00  0.00     0.074 A 
ATOM     45  C   UNL     1       7.529  -9.757   0.906  1.00  0.00     0.031 C 
ATOM     46  C   UNL     1       7.070  -4.967   5.860  1.00  0.00     0.029 A 
ATOM     47  C   UNL     1       7.761  -6.198   6.238  1.00  0.00     0.049 A 
ATOM     48  H   UNL     1       8.143  -7.854   5.036  1.00  0.00     0.167 HD
ATOM     49  C   UNL     1       8.889 -11.253   2.333  1.00  0.00     0.037 A 
ATOM     50  C   UNL     1       8.282  -6.472   7.449  1.00  0.00     0.037 A 
ATOM     51  C   UNL     1       9.534 -11.604   3.571  1.00  0.00     0.049 A 
ATOM     52  C   UNL     1       9.007  -7.778   7.652  1.00  0.00     0.074 A 
ATOM     53  C   UNL     1      10.260 -12.740   3.877  1.00  0.00     0.029 A 
ATOM     54  N   UNL     1       9.522 -10.816   4.714  1.00  0.00    -0.354 N 
ATOM     55  N   UNL     1       9.222  -8.750   6.797  1.00  0.00    -0.248 NA
ATOM     56  C   UNL     1       9.576  -8.017   8.985  1.00  0.00     0.031 C 
ATOM     57  C   UNL     1      10.647 -12.663   5.219  1.00  0.00     0.029 A 
ATOM     58  C   UNL     1      10.214 -11.451   5.733  1.00  0.00     0.049 A 
ATOM     59  H   UNL     1       9.087  -9.937   4.789  1.00  0.00     0.167 HD
ATOM     60  C   UNL     1       9.966  -9.704   7.480  1.00  0.00     0.074 A 
ATOM     61  C   UNL     1      10.192  -9.177   8.810  1.00  0.00     0.031 C 
ATOM     62  C   UNL     1      10.419 -10.909   7.052  1.00  0.00     0.037 A 
BRANCH  49  63
ATOM     63  C   UNL     1       8.979 -12.210   1.180  1.00  0.00     0.064 A 
ATOM     64  C   UNL     1       9.738 -11.913   0.037  1.00  0.00     0.173 A 
ATOM     65  C   UNL     1       8.324 -13.449   1.227  1.00  0.00     0.173 A 
ATOM     66  F   UNL     1      10.367 -10.733  -0.069  1.00  0.00    -0.203 F 
ATOM     67  C   UNL     1       9.819 -12.812  -1.024  1.00  0.00     0.198 A 
ATOM     68  C   UNL     1       8.432 -14.358   0.178  1.00  0.00     0.198 A 
ATOM     69  F   UNL     1       7.583 -13.783   2.295  1.00  0.00    -0.203 F 
ATOM     70  F   UNL     1      10.511 -12.486  -2.125  1.00  0.00    -0.200 F 
ATOM     71  C   UNL     1       9.174 -14.037  -0.949  1.00  0.00     0.200 A 
ATOM     72  F   UNL     1       7.816 -15.546   0.256  1.00  0.00    -0.200 F 
ATOM     73  F   UNL     1       9.261 -14.905  -1.966  1.00  0.00    -0.200 F 
ENDBRANCH  49  63
BRANCH  50  74
ATOM     74  C   UNL     1       8.131  -5.500   8.564  1.00  0.00     0.064 A 
ATOM     75  C   UNL     1       9.239  -4.839   9.114  1.00  0.00     0.173 A 
ATOM     76  C   UNL     1       6.872  -5.232   9.122  1.00  0.00     0.173 A 
ATOM     77  F   UNL     1      10.467  -5.076   8.631  1.00  0.00    -0.203 F 
ATOM     78  C   UNL     1       9.097  -3.972  10.196  1.00  0.00     0.198 A 
ATOM     79  C   UNL     1       6.726  -4.339  10.182  1.00  0.00     0.198 A 
ATOM     80  F   UNL     1       5.778  -5.835   8.633  1.00  0.00    -0.203 F 
ATOM     81  F   UNL     1      10.180  -3.398  10.738  1.00  0.00    -0.200 F 
ATOM     82  C   UNL     1       7.840  -3.718  10.725  1.00  0.00     0.200 A 
ATOM     83  F   UNL     1       5.508  -4.086  10.679  1.00  0.00    -0.200 F 
ATOM     84  F   UNL     1       7.704  -2.883  11.764  1.00  0.00    -0.200 F 
ENDBRANCH  50  74
BRANCH  62  85
ATOM     85  C   UNL     1      11.219 -11.722   8.030  1.00  0.00     0.064 A 
ATOM     86  C   UNL     1      10.630 -12.297   9.166  1.00  0.00     0.173 A 
ATOM     87  C   UNL     1      12.591 -11.932   7.825  1.00  0.00     0.173 A 
ATOM     88  F   UNL     1       9.324 -12.117   9.415  1.00  0.00    -0.203 F 
ATOM     89  C   UNL     1      11.394 -13.013  10.085  1.00  0.00     0.198 A 
ATOM     90  C   UNL     1      13.345 -12.680   8.726  1.00  0.00     0.198 A 
ATOM     91  F   UNL     1      13.203 -11.415   6.749  1.00  0.00    -0.203 F 
ATOM     92  F   UNL     1      10.823 -13.492  11.198  1.00  0.00    -0.200 F 
ATOM     93  C   UNL     1      12.749 -13.207   9.862  1.00  0.00     0.200 A 
ATOM     94  F   UNL     1      14.650 -12.881   8.500  1.00  0.00    -0.200 F 
ATOM     95  F   UNL     1      13.483 -13.892  10.748  1.00  0.00    -0.200 F 
ENDBRANCH  62  85
ENDBRANCH  36  37
ENDBRANCH  29  31
ENDBRANCH  28  29
ENDBRANCH  27  28
ENDBRANCH  26  27
ENDBRANCH   1  26
TORSDOF 16
