REMARK SMILES O=C(OCCOCCOC(=O)[C@@H]1CN(Cc2ccccc2)c2ccccc2O1)c1ccc(-c2c3nc(c(-c4c(F)c(F)c(F)c(F)c4F)c4ccc([nH]4)c(-c4c(F)c(F)c(F)c(F)c4F)c4nc(c(-c5c(F)c(F)c(F)c(F)c5F)c5ccc2[nH]5)C=C4)C=C3)cc1
REMARK SMILES IDX 6 1 5 2 4 3 3 4 2 5 1 6 29 7 30 8 91 9 31 10 90 11 32 12
REMARK SMILES IDX 33 13 34 14 84 15 35 16 89 17 83 18 85 19 36 20 88 21 82 22
REMARK SMILES IDX 81 23 37 25 69 26 49 27 68 28 50 29 53 30 67 31 86 32 51 33
REMARK SMILES IDX 52 34 66 36 87 37 54 38 38 39 39 40 47 41 40 42 41 43 45 44
REMARK SMILES IDX 48 45 42 46 43 47 46 48 44 49 70 50 71 51 79 52 72 53 73 54
REMARK SMILES IDX 77 55 80 56 74 57 75 58 78 59 76 60 55 61 56 62 64 63 57 64
REMARK SMILES IDX 58 65 62 66 65 67 59 68 60 69 63 70 61 71 7 72 8 73 9 74
REMARK SMILES IDX 10 75 11 76 12 77 13 78 28 79 14 80 27 81 22 82 26 83 23 84
REMARK SMILES IDX 25 85 24 86 15 87 16 88 17 89 21 90 18 91 20 92 19 93
REMARK H PARENT 85 24 53 35
REMARK Flexibility Score: inf
ROOT
ATOM      1  O   UNL     1       4.277  -1.306   0.958  1.00  0.00    -0.374 OA
ENDROOT
BRANCH   1   2
ATOM      2  C   UNL     1       4.530   0.047   1.334  1.00  0.00     0.202 C 
BRANCH   2   3
ATOM      3  C   UNL     1       4.202   1.103   0.274  1.00  0.00     0.261 C 
BRANCH   3   4
ATOM      4  O   UNL     1       2.785   1.098  -0.006  1.00  0.00    -0.460 OA
BRANCH   4   5
ATOM      5  C   UNL     1       2.156   0.669  -1.125  1.00  0.00     0.338 C 
ATOM      6  O   UNL     1       0.948   0.853  -1.253  1.00  0.00    -0.246 OA
BRANCH   5   7
ATOM      7  C   UNL     1       2.881  -0.029  -2.219  1.00  0.00     0.060 A 
ATOM      8  C   UNL     1       3.993  -0.834  -1.993  1.00  0.00     0.016 A 
ATOM      9  C   UNL     1       2.372   0.042  -3.522  1.00  0.00     0.016 A 
ATOM     10  C   UNL     1       4.639  -1.500  -3.004  1.00  0.00     0.010 A 
ATOM     11  C   UNL     1       2.981  -0.679  -4.556  1.00  0.00     0.010 A 
ATOM     12  C   UNL     1       4.114  -1.454  -4.284  1.00  0.00    -0.014 A 
BRANCH  12  13
ATOM     13  C   UNL     1       4.843  -2.217  -5.297  1.00  0.00     0.031 A 
ATOM     14  C   UNL     1       5.736  -1.476  -6.229  1.00  0.00     0.074 A 
ATOM     15  C   UNL     1       4.828  -3.560  -5.218  1.00  0.00     0.049 A 
ATOM     16  N   UNL     1       6.416  -1.925  -7.244  1.00  0.00    -0.248 NA
ATOM     17  C   UNL     1       5.902  -0.034  -5.974  1.00  0.00     0.031 C 
ATOM     18  C   UNL     1       4.113  -4.336  -4.196  1.00  0.00     0.029 A 
ATOM     19  N   UNL     1       5.456  -4.509  -5.973  1.00  0.00    -0.354 N 
ATOM     20  C   UNL     1       7.043  -0.815  -7.787  1.00  0.00     0.074 A 
ATOM     21  C   UNL     1       6.697   0.326  -6.970  1.00  0.00     0.031 C 
ATOM     22  C   UNL     1       4.358  -5.641  -4.383  1.00  0.00     0.029 A 
ATOM     23  C   UNL     1       5.156  -5.793  -5.592  1.00  0.00     0.049 A 
ATOM     24  H   UNL     1       6.064  -4.293  -6.717  1.00  0.00     0.167 HD
ATOM     25  C   UNL     1       7.810  -0.775  -8.898  1.00  0.00     0.037 A 
ATOM     26  C   UNL     1       5.441  -6.954  -6.207  1.00  0.00     0.037 A 
ATOM     27  C   UNL     1       8.134  -1.950  -9.658  1.00  0.00     0.049 A 
ATOM     28  C   UNL     1       6.212  -6.870  -7.496  1.00  0.00     0.074 A 
ATOM     29  C   UNL     1       8.859  -2.056 -10.828  1.00  0.00     0.029 A 
ATOM     30  N   UNL     1       7.741  -3.237  -9.305  1.00  0.00    -0.354 N 
ATOM     31  N   UNL     1       6.734  -5.813  -8.075  1.00  0.00    -0.248 NA
ATOM     32  C   UNL     1       6.404  -8.120  -8.237  1.00  0.00     0.031 C 
ATOM     33  C   UNL     1       8.862  -3.402 -11.209  1.00  0.00     0.029 A 
ATOM     34  C   UNL     1       8.180  -4.142 -10.252  1.00  0.00     0.049 A 
ATOM     35  H   UNL     1       7.227  -3.470  -8.498  1.00  0.00     0.167 HD
ATOM     36  C   UNL     1       7.311  -6.265  -9.250  1.00  0.00     0.074 A 
ATOM     37  C   UNL     1       7.104  -7.701  -9.283  1.00  0.00     0.031 C 
ATOM     38  C   UNL     1       7.942  -5.565 -10.224  1.00  0.00     0.037 A 
BRANCH  25  39
ATOM     39  C   UNL     1       8.233   0.572  -9.392  1.00  0.00     0.064 A 
ATOM     40  C   UNL     1       9.226   1.331  -8.757  1.00  0.00     0.173 A 
ATOM     41  C   UNL     1       7.602   1.126 -10.517  1.00  0.00     0.173 A 
ATOM     42  F   UNL     1       9.834   0.862  -7.657  1.00  0.00    -0.203 F 
ATOM     43  C   UNL     1       9.558   2.603  -9.220  1.00  0.00     0.198 A 
ATOM     44  C   UNL     1       7.952   2.387 -10.990  1.00  0.00     0.198 A 
ATOM     45  F   UNL     1       6.633   0.447 -11.150  1.00  0.00    -0.203 F 
ATOM     46  F   UNL     1      10.475   3.333  -8.569  1.00  0.00    -0.200 F 
ATOM     47  C   UNL     1       8.925   3.127 -10.338  1.00  0.00     0.200 A 
ATOM     48  F   UNL     1       7.336   2.891 -12.068  1.00  0.00    -0.200 F 
ATOM     49  F   UNL     1       9.243   4.353 -10.778  1.00  0.00    -0.200 F 
ENDBRANCH  25  39
BRANCH  26  50
ATOM     50  C   UNL     1       4.904  -8.240  -5.686  1.00  0.00     0.064 A 
ATOM     51  C   UNL     1       5.751  -9.272  -5.264  1.00  0.00     0.173 A 
ATOM     52  C   UNL     1       3.518  -8.470  -5.613  1.00  0.00     0.173 A 
ATOM     53  F   UNL     1       7.081  -9.117  -5.331  1.00  0.00    -0.203 F 
ATOM     54  C   UNL     1       5.237 -10.486  -4.806  1.00  0.00     0.198 A 
ATOM     55  C   UNL     1       3.006  -9.668  -5.122  1.00  0.00     0.198 A 
ATOM     56  F   UNL     1       2.656  -7.522  -6.009  1.00  0.00    -0.203 F 
ATOM     57  F   UNL     1       6.071 -11.474  -4.455  1.00  0.00    -0.200 F 
ATOM     58  C   UNL     1       3.865 -10.680  -4.729  1.00  0.00     0.200 A 
ATOM     59  F   UNL     1       1.680  -9.842  -5.035  1.00  0.00    -0.200 F 
ATOM     60  F   UNL     1       3.373 -11.845  -4.287  1.00  0.00    -0.200 F 
ENDBRANCH  26  50
BRANCH  38  61
ATOM     61  C   UNL     1       8.451  -6.353 -11.389  1.00  0.00     0.064 A 
ATOM     62  C   UNL     1       7.579  -6.832 -12.376  1.00  0.00     0.173 A 
ATOM     63  C   UNL     1       9.826  -6.568 -11.550  1.00  0.00     0.173 A 
ATOM     64  F   UNL     1       6.254  -6.663 -12.248  1.00  0.00    -0.203 F 
ATOM     65  C   UNL     1       8.070  -7.511 -13.486  1.00  0.00     0.198 A 
ATOM     66  C   UNL     1      10.315  -7.221 -12.675  1.00  0.00     0.198 A 
ATOM     67  F   UNL     1      10.694  -6.120 -10.630  1.00  0.00    -0.203 F 
ATOM     68  F   UNL     1       7.220  -7.991 -14.404  1.00  0.00    -0.200 F 
ATOM     69  C   UNL     1       9.437  -7.695 -13.639  1.00  0.00     0.200 A 
ATOM     70  F   UNL     1      11.635  -7.386 -12.830  1.00  0.00    -0.200 F 
ATOM     71  F   UNL     1       9.909  -8.333 -14.719  1.00  0.00    -0.200 F 
ENDBRANCH  38  61
ENDBRANCH  12  13
ENDBRANCH   5   7
ENDBRANCH   4   5
ENDBRANCH   3   4
ENDBRANCH   2   3
ENDBRANCH   1   2
BRANCH   1  72
ATOM     72  C   UNL     1       2.959  -1.786   1.236  1.00  0.00     0.202 C 
BRANCH  72  73
ATOM     73  C   UNL     1       3.046  -2.939   2.234  1.00  0.00     0.261 C 
BRANCH  73  74
ATOM     74  O   UNL     1       3.311  -2.411   3.545  1.00  0.00    -0.460 OA
BRANCH  74  75
ATOM     75  C   UNL     1       4.599  -2.090   3.843  1.00  0.00     0.349 C 
ATOM     76  O   UNL     1       5.576  -2.506   3.227  1.00  0.00    -0.248 OA
BRANCH  75  77
ATOM     77  C   UNL     1       4.694  -1.117   5.025  1.00  0.00     0.301 C 
ATOM     78  C   UNL     1       3.397  -0.953   5.825  1.00  0.00     0.174 C 
ATOM     79  O   UNL     1       5.307   0.132   4.676  1.00  0.00    -0.475 OA
ATOM     80  N   UNL     1       2.457  -0.050   5.162  1.00  0.00    -0.360 N 
ATOM     81  C   UNL     1       4.441   1.179   4.448  1.00  0.00     0.144 A 
ATOM     82  C   UNL     1       3.050   1.110   4.663  1.00  0.00     0.080 A 
ATOM     83  C   UNL     1       5.028   2.320   3.878  1.00  0.00     0.049 A 
ATOM     84  C   UNL     1       2.296   2.244   4.333  1.00  0.00     0.030 A 
ATOM     85  C   UNL     1       4.241   3.411   3.515  1.00  0.00     0.004 A 
ATOM     86  C   UNL     1       2.874   3.377   3.755  1.00  0.00     0.002 A 
BRANCH  80  87
ATOM     87  C   UNL     1       1.224  -0.583   4.570  1.00  0.00     0.152 C 
BRANCH  87  88
ATOM     88  C   UNL     1      -0.018  -0.123   5.288  1.00  0.00    -0.029 A 
ATOM     89  C   UNL     1      -0.339  -0.636   6.551  1.00  0.00     0.005 A 
ATOM     90  C   UNL     1      -0.874   0.821   4.700  1.00  0.00     0.005 A 
ATOM     91  C   UNL     1      -1.468  -0.178   7.231  1.00  0.00     0.000 A 
ATOM     92  C   UNL     1      -1.983   1.302   5.394  1.00  0.00     0.000 A 
ATOM     93  C   UNL     1      -2.276   0.804   6.661  1.00  0.00     0.000 A 
ENDBRANCH  87  88
ENDBRANCH  80  87
ENDBRANCH  75  77
ENDBRANCH  74  75
ENDBRANCH  73  74
ENDBRANCH  72  73
ENDBRANCH   1  72
TORSDOF 16
