REMARK SMILES Nc1nonc1C(=O)N1[C@@H]2CC[C@H]1C[C@H](CC(=O)OCCOCCOC(=O)c1ccc(-c3c4nc(c(-c5c(F)c(F)c(F)c(F)c5F)c5ccc([nH]5)c(-c5c(F)c(F)c(F)c(F)c5F)c5nc(c(-c6c(F)c(F)c(F)c(F)c6F)c6ccc3[nH]6)C=C5)C=C4)cc1)C2
REMARK SMILES IDX 21 1 20 2 19 3 17 4 18 5 16 6 15 7 9 8 10 9 13 10 11 11
REMARK SMILES IDX 91 12 12 13 14 14 7 15 8 16 6 17 2 18 3 19 4 20 5 21 1 22
REMARK SMILES IDX 22 25 23 26 24 27 25 28 26 29 27 30 28 31 29 32 90 33 30 34
REMARK SMILES IDX 89 35 31 36 32 37 33 38 83 39 34 40 88 41 82 42 84 43 35 44
REMARK SMILES IDX 87 45 81 46 80 47 36 49 68 50 48 51 67 52 49 53 52 54 66 55
REMARK SMILES IDX 85 56 50 57 51 58 65 60 86 61 53 62 37 63 38 64 46 65 39 66
REMARK SMILES IDX 40 67 44 68 47 69 41 70 42 71 45 72 43 73 69 74 70 75 78 76
REMARK SMILES IDX 71 77 72 78 76 79 79 80 73 81 74 82 77 83 75 84 54 85 55 86
REMARK SMILES IDX 63 87 56 88 57 89 61 90 64 91 58 92 59 93 62 94 60 95
REMARK H PARENT 1 23 1 24 84 48 52 59
REMARK Flexibility Score: inf
ROOT
ATOM      1  C   UNL     1       8.064  -0.161   0.299  1.00  0.00     0.202 C 
ENDROOT
BRANCH   1   2
ATOM      2  C   UNL     1       7.135   0.813  -0.428  1.00  0.00     0.261 C 
BRANCH   2   3
ATOM      3  O   UNL     1       5.902   0.159  -0.785  1.00  0.00    -0.463 OA
BRANCH   3   4
ATOM      4  C   UNL     1       5.682  -0.027  -2.109  1.00  0.00     0.306 C 
ATOM      5  O   UNL     1       6.385   0.412  -3.009  1.00  0.00    -0.252 OA
BRANCH   4   6
ATOM      6  C   UNL     1       4.407  -0.796  -2.374  1.00  0.00     0.126 C 
BRANCH   6   7
ATOM      7  C   UNL     1       4.113  -2.073  -1.546  1.00  0.00     0.004 C 
ATOM      8  N   UNL     1       1.615  -2.646  -0.330  1.00  0.00    -0.331 N 
ATOM      9  C   UNL     1       2.040  -3.612  -1.323  1.00  0.00     0.086 C 
ATOM     10  C   UNL     1       2.714  -2.558   0.616  1.00  0.00     0.086 C 
ATOM     11  C   UNL     1       2.783  -4.692  -0.529  1.00  0.00     0.027 C 
ATOM     12  C   UNL     1       2.961  -2.839  -2.262  1.00  0.00     0.029 C 
ATOM     13  C   UNL     1       3.110  -4.029   0.812  1.00  0.00     0.027 C 
ATOM     14  C   UNL     1       3.865  -1.772  -0.035  1.00  0.00     0.029 C 
BRANCH   8  15
ATOM     15  C   UNL     1       0.279  -2.605   0.065  1.00  0.00     0.280 C 
ATOM     16  O   UNL     1      -0.402  -3.631   0.055  1.00  0.00    -0.267 OA
BRANCH  15  17
ATOM     17  C   UNL     1      -0.285  -1.288   0.374  1.00  0.00     0.216 A 
ATOM     18  C   UNL     1       0.204   0.027   0.154  1.00  0.00     0.201 A 
ATOM     19  N   UNL     1      -0.691   0.917   0.572  1.00  0.00    -0.032 NA
ATOM     20  O   UNL     1      -1.773   0.170   1.002  1.00  0.00    -0.242 OA
ATOM     21  N   UNL     1      -1.521  -1.187   0.890  1.00  0.00    -0.042 NA
BRANCH  18  22
ATOM     22  N   UNL     1       1.365   0.379  -0.421  1.00  0.00    -0.379 N 
ATOM     23  H   UNL     1       1.597   1.331  -0.518  1.00  0.00     0.158 HD
ATOM     24  H   UNL     1       1.984  -0.314  -0.745  1.00  0.00     0.158 HD
ENDBRANCH  18  22
ENDBRANCH  15  17
ENDBRANCH   8  15
ENDBRANCH   6   7
ENDBRANCH   4   6
ENDBRANCH   3   4
ENDBRANCH   2   3
ENDBRANCH   1   2
BRANCH   1  25
ATOM     25  O   UNL     1       8.689  -1.147  -0.525  1.00  0.00    -0.374 OA
BRANCH  25  26
ATOM     26  C   UNL     1       7.898  -2.273  -0.895  1.00  0.00     0.202 C 
BRANCH  26  27
ATOM     27  C   UNL     1       7.847  -3.416   0.124  1.00  0.00     0.261 C 
BRANCH  27  28
ATOM     28  O   UNL     1       7.218  -3.003   1.352  1.00  0.00    -0.460 OA
BRANCH  28  29
ATOM     29  C   UNL     1       8.078  -2.815   2.379  1.00  0.00     0.338 C 
ATOM     30  O   UNL     1       9.276  -3.075   2.396  1.00  0.00    -0.246 OA
BRANCH  29  31
ATOM     31  C   UNL     1       7.427  -2.074   3.475  1.00  0.00     0.060 A 
ATOM     32  C   UNL     1       8.152  -1.017   4.039  1.00  0.00     0.016 A 
ATOM     33  C   UNL     1       6.182  -2.435   3.998  1.00  0.00     0.016 A 
ATOM     34  C   UNL     1       7.677  -0.372   5.176  1.00  0.00     0.010 A 
ATOM     35  C   UNL     1       5.703  -1.782   5.143  1.00  0.00     0.010 A 
ATOM     36  C   UNL     1       6.474  -0.783   5.766  1.00  0.00    -0.014 A 
BRANCH  36  37
ATOM     37  C   UNL     1       6.144  -0.276   7.123  1.00  0.00     0.031 A 
ATOM     38  C   UNL     1       6.440  -1.141   8.318  1.00  0.00     0.074 A 
ATOM     39  C   UNL     1       5.689   0.977   7.299  1.00  0.00     0.049 A 
ATOM     40  N   UNL     1       6.338  -0.864   9.594  1.00  0.00    -0.248 NA
ATOM     41  C   UNL     1       6.924  -2.502   8.037  1.00  0.00     0.031 C 
ATOM     42  C   UNL     1       5.403   1.929   6.229  1.00  0.00     0.029 A 
ATOM     43  N   UNL     1       5.409   1.669   8.452  1.00  0.00    -0.354 N 
ATOM     44  C   UNL     1       6.750  -2.009  10.264  1.00  0.00     0.074 A 
ATOM     45  C   UNL     1       7.057  -3.001   9.256  1.00  0.00     0.031 C 
ATOM     46  C   UNL     1       5.007   3.092   6.776  1.00  0.00     0.029 A 
ATOM     47  C   UNL     1       4.991   2.958   8.232  1.00  0.00     0.049 A 
ATOM     48  H   UNL     1       5.499   1.277   9.351  1.00  0.00     0.167 HD
ATOM     49  C   UNL     1       6.881  -2.213  11.597  1.00  0.00     0.037 A 
ATOM     50  C   UNL     1       4.642   3.920   9.107  1.00  0.00     0.037 A 
ATOM     51  C   UNL     1       6.572  -1.231  12.604  1.00  0.00     0.049 A 
ATOM     52  C   UNL     1       4.717   3.641  10.586  1.00  0.00     0.074 A 
ATOM     53  C   UNL     1       6.678  -1.340  13.980  1.00  0.00     0.029 A 
ATOM     54  N   UNL     1       6.085   0.041  12.341  1.00  0.00    -0.354 N 
ATOM     55  N   UNL     1       5.140   2.568  11.209  1.00  0.00    -0.248 NA
ATOM     56  C   UNL     1       4.273   4.718  11.483  1.00  0.00     0.031 C 
ATOM     57  C   UNL     1       6.207  -0.152  14.551  1.00  0.00     0.029 A 
ATOM     58  C   UNL     1       5.861   0.718  13.530  1.00  0.00     0.049 A 
ATOM     59  H   UNL     1       5.923   0.409  11.443  1.00  0.00     0.167 HD
ATOM     60  C   UNL     1       5.048   2.853  12.566  1.00  0.00     0.074 A 
ATOM     61  C   UNL     1       4.539   4.204  12.675  1.00  0.00     0.031 C 
ATOM     62  C   UNL     1       5.362   2.067  13.627  1.00  0.00     0.037 A 
BRANCH  49  63
ATOM     63  C   UNL     1       7.359  -3.566  12.040  1.00  0.00     0.064 A 
ATOM     64  C   UNL     1       8.679  -3.991  11.821  1.00  0.00     0.173 A 
ATOM     65  C   UNL     1       6.489  -4.448  12.698  1.00  0.00     0.173 A 
ATOM     66  F   UNL     1       9.548  -3.192  11.183  1.00  0.00    -0.203 F 
ATOM     67  C   UNL     1       9.098  -5.261  12.210  1.00  0.00     0.198 A 
ATOM     68  C   UNL     1       6.919  -5.705  13.113  1.00  0.00     0.198 A 
ATOM     69  F   UNL     1       5.218  -4.091  12.937  1.00  0.00    -0.203 F 
ATOM     70  F   UNL     1      10.345  -5.667  11.935  1.00  0.00    -0.200 F 
ATOM     71  C   UNL     1       8.220  -6.115  12.859  1.00  0.00     0.200 A 
ATOM     72  F   UNL     1       6.072  -6.525  13.751  1.00  0.00    -0.200 F 
ATOM     73  F   UNL     1       8.623  -7.338  13.231  1.00  0.00    -0.200 F 
ENDBRANCH  49  63
BRANCH  50  74
ATOM     74  C   UNL     1       4.210   5.253   8.612  1.00  0.00     0.064 A 
ATOM     75  C   UNL     1       5.003   6.391   8.820  1.00  0.00     0.173 A 
ATOM     76  C   UNL     1       2.992   5.420   7.938  1.00  0.00     0.173 A 
ATOM     77  F   UNL     1       6.164   6.285   9.482  1.00  0.00    -0.203 F 
ATOM     78  C   UNL     1       4.585   7.647   8.386  1.00  0.00     0.198 A 
ATOM     79  C   UNL     1       2.589   6.672   7.480  1.00  0.00     0.198 A 
ATOM     80  F   UNL     1       2.197   4.363   7.716  1.00  0.00    -0.203 F 
ATOM     81  F   UNL     1       5.341   8.725   8.636  1.00  0.00    -0.200 F 
ATOM     82  C   UNL     1       3.382   7.786   7.711  1.00  0.00     0.200 A 
ATOM     83  F   UNL     1       1.431   6.800   6.819  1.00  0.00    -0.200 F 
ATOM     84  F   UNL     1       2.983   8.994   7.290  1.00  0.00    -0.200 F 
ENDBRANCH  50  74
BRANCH  62  85
ATOM     85  C   UNL     1       5.207   2.664  14.997  1.00  0.00     0.064 A 
ATOM     86  C   UNL     1       3.946   2.926  15.553  1.00  0.00     0.173 A 
ATOM     87  C   UNL     1       6.339   2.959  15.773  1.00  0.00     0.173 A 
ATOM     88  F   UNL     1       2.832   2.675  14.848  1.00  0.00    -0.203 F 
ATOM     89  C   UNL     1       3.825   3.494  16.820  1.00  0.00     0.198 A 
ATOM     90  C   UNL     1       6.213   3.496  17.052  1.00  0.00     0.198 A 
ATOM     91  F   UNL     1       7.569   2.721  15.294  1.00  0.00    -0.203 F 
ATOM     92  F   UNL     1       2.612   3.789  17.306  1.00  0.00    -0.200 F 
ATOM     93  C   UNL     1       4.958   3.773  17.570  1.00  0.00     0.200 A 
ATOM     94  F   UNL     1       7.309   3.752  17.780  1.00  0.00    -0.200 F 
ATOM     95  F   UNL     1       4.839   4.318  18.788  1.00  0.00    -0.200 F 
ENDBRANCH  62  85
ENDBRANCH  36  37
ENDBRANCH  29  31
ENDBRANCH  28  29
ENDBRANCH  27  28
ENDBRANCH  26  27
ENDBRANCH  25  26
ENDBRANCH   1  25
TORSDOF 18
