REMARK SMILES CC[C@@](C)([NH3+])C(=O)N1CC[NH+]([C@H](C)C(=O)OCCOCCOC(=O)c2ccc(-c3c4nc(c(-c5c(F)c(F)c(F)c(F)c5F)c5ccc([nH]5)c(-c5c(F)c(F)c(F)c(F)c5F)c5nc(c(-c6c(F)c(F)c(F)c(F)c6F)c6ccc3[nH]6)C=C5)C=C4)cc2)CC1
REMARK SMILES IDX 18 1 17 2 16 3 14 4 15 5 12 6 13 7 11 8 6 9 7 10 8 11 9 12
REMARK SMILES IDX 89 13 10 14 88 15 3 17 4 18 2 19 1 20 5 21 19 25 20 26 21 27
REMARK SMILES IDX 22 28 23 29 24 30 25 31 26 32 87 33 27 34 86 35 28 36 29 37
REMARK SMILES IDX 30 38 80 39 31 40 85 41 79 42 81 43 32 44 84 45 78 46 77 47
REMARK SMILES IDX 33 49 65 50 45 51 64 52 46 53 49 54 63 55 82 56 47 57 48 58
REMARK SMILES IDX 62 60 83 61 50 62 34 63 35 64 43 65 36 66 37 67 41 68 44 69
REMARK SMILES IDX 38 70 39 71 42 72 40 73 66 74 67 75 75 76 68 77 69 78 73 79
REMARK SMILES IDX 76 80 70 81 71 82 74 83 72 84 51 85 52 86 60 87 53 88 54 89
REMARK SMILES IDX 58 90 61 91 55 92 56 93 59 94 57 95
REMARK H PARENT 11 16 5 22 5 23 5 24 81 48 49 59
REMARK Flexibility Score: inf
ROOT
ATOM      1  C   UNL     1       8.110  -5.003   5.841  1.00  0.00     0.202 C 
ENDROOT
BRANCH   1   2
ATOM      2  C   UNL     1       8.287  -5.109   4.324  1.00  0.00     0.261 C 
BRANCH   2   3
ATOM      3  O   UNL     1       7.026  -4.992   3.642  1.00  0.00    -0.459 OA
BRANCH   3   4
ATOM      4  C   UNL     1       6.645  -6.071   2.899  1.00  0.00     0.364 C 
ATOM      5  O   UNL     1       7.327  -7.075   2.728  1.00  0.00    -0.245 OA
BRANCH   4   6
ATOM      6  C   UNL     1       5.250  -5.884   2.273  1.00  0.00     0.292 C 
ATOM      7  C   UNL     1       4.268  -5.101   3.157  1.00  0.00     0.088 C 
BRANCH   6   8
ATOM      8  N   UNL     1       5.403  -5.378   0.890  1.00  0.00    -0.321 N 
ATOM      9  C   UNL     1       3.951  -2.760  -2.009  1.00  0.00     0.283 C 
ATOM     10  O   UNL     1       4.585  -1.809  -2.481  1.00  0.00    -0.268 OA
ATOM     11  N   UNL     1       4.643  -3.772  -1.369  1.00  0.00    -0.326 N 
ATOM     12  C   UNL     1       5.866  -3.445  -0.646  1.00  0.00     0.181 C 
ATOM     13  C   UNL     1       4.356  -5.201  -1.384  1.00  0.00     0.181 C 
ATOM     14  C   UNL     1       5.727  -3.937   0.810  1.00  0.00     0.284 C 
ATOM     15  C   UNL     1       4.246  -5.746   0.048  1.00  0.00     0.284 C 
ATOM     16  H   UNL     1       6.224  -5.849   0.510  1.00  0.00     0.348 HD
BRANCH   9  17
ATOM     17  C   UNL     1       2.380  -2.700  -1.891  1.00  0.00     0.171 C 
ATOM     18  C   UNL     1       2.000  -2.571  -0.406  1.00  0.00     0.090 C 
BRANCH  17  19
ATOM     19  C   UNL     1       1.827  -1.495  -2.706  1.00  0.00     0.075 C 
ATOM     20  C   UNL     1       2.107  -0.109  -2.126  1.00  0.00     0.011 C 
ENDBRANCH  17  19
BRANCH  17  21
ATOM     21  N   UNL     1       1.739  -3.918  -2.446  1.00  0.00    -0.345 N 
ATOM     22  H   UNL     1       0.726  -3.842  -2.352  1.00  0.00     0.345 HD
ATOM     23  H   UNL     1       2.067  -4.738  -1.937  1.00  0.00     0.345 HD
ATOM     24  H   UNL     1       1.982  -4.010  -3.433  1.00  0.00     0.345 HD
ENDBRANCH  17  21
ENDBRANCH   9  17
ENDBRANCH   6   8
ENDBRANCH   4   6
ENDBRANCH   3   4
ENDBRANCH   2   3
ENDBRANCH   1   2
BRANCH   1  25
ATOM     25  O   UNL     1       7.443  -6.092   6.478  1.00  0.00    -0.374 OA
BRANCH  25  26
ATOM     26  C   UNL     1       6.032  -6.195   6.306  1.00  0.00     0.202 C 
BRANCH  26  27
ATOM     27  C   UNL     1       5.171  -5.229   7.130  1.00  0.00     0.261 C 
BRANCH  27  28
ATOM     28  O   UNL     1       5.377  -3.853   6.759  1.00  0.00    -0.460 OA
BRANCH  28  29
ATOM     29  C   UNL     1       5.921  -3.084   7.730  1.00  0.00     0.338 C 
ATOM     30  O   UNL     1       6.179  -3.413   8.883  1.00  0.00    -0.246 OA
BRANCH  29  31
ATOM     31  C   UNL     1       6.330  -1.776   7.193  1.00  0.00     0.060 A 
ATOM     32  C   UNL     1       7.672  -1.407   7.348  1.00  0.00     0.016 A 
ATOM     33  C   UNL     1       5.402  -0.877   6.664  1.00  0.00     0.016 A 
ATOM     34  C   UNL     1       8.082  -0.116   7.023  1.00  0.00     0.010 A 
ATOM     35  C   UNL     1       5.814   0.423   6.347  1.00  0.00     0.010 A 
ATOM     36  C   UNL     1       7.147   0.820   6.563  1.00  0.00    -0.014 A 
BRANCH  36  37
ATOM     37  C   UNL     1       7.541   2.246   6.458  1.00  0.00     0.031 A 
ATOM     38  C   UNL     1       7.215   3.181   7.590  1.00  0.00     0.074 A 
ATOM     39  C   UNL     1       8.224   2.695   5.391  1.00  0.00     0.049 A 
ATOM     40  N   UNL     1       7.468   4.460   7.713  1.00  0.00    -0.248 NA
ATOM     41  C   UNL     1       6.510   2.594   8.741  1.00  0.00     0.031 C 
ATOM     42  C   UNL     1       8.634   1.881   4.250  1.00  0.00     0.029 A 
ATOM     43  N   UNL     1       8.692   3.951   5.097  1.00  0.00    -0.354 N 
ATOM     44  C   UNL     1       6.955   4.829   8.950  1.00  0.00     0.074 A 
ATOM     45  C   UNL     1       6.349   3.648   9.527  1.00  0.00     0.031 C 
ATOM     46  C   UNL     1       9.289   2.661   3.372  1.00  0.00     0.029 A 
ATOM     47  C   UNL     1       9.321   4.032   3.880  1.00  0.00     0.049 A 
ATOM     48  H   UNL     1       8.587   4.721   5.702  1.00  0.00     0.167 HD
ATOM     49  C   UNL     1       6.996   6.040   9.555  1.00  0.00     0.037 A 
ATOM     50  C   UNL     1       9.847   5.096   3.243  1.00  0.00     0.037 A 
ATOM     51  C   UNL     1       7.600   7.215   8.984  1.00  0.00     0.049 A 
ATOM     52  C   UNL     1       9.815   6.448   3.905  1.00  0.00     0.074 A 
ATOM     53  C   UNL     1       7.713   8.481   9.530  1.00  0.00     0.029 A 
ATOM     54  N   UNL     1       8.187   7.268   7.728  1.00  0.00    -0.354 N 
ATOM     55  N   UNL     1       9.355   6.782   5.086  1.00  0.00    -0.248 NA
ATOM     56  C   UNL     1      10.379   7.572   3.143  1.00  0.00     0.031 C 
ATOM     57  C   UNL     1       8.328   9.312   8.587  1.00  0.00     0.029 A 
ATOM     58  C   UNL     1       8.638   8.552   7.471  1.00  0.00     0.049 A 
ATOM     59  H   UNL     1       8.271   6.505   7.111  1.00  0.00     0.167 HD
ATOM     60  C   UNL     1       9.592   8.144   5.219  1.00  0.00     0.074 A 
ATOM     61  C   UNL     1      10.249   8.574   4.002  1.00  0.00     0.031 C 
ATOM     62  C   UNL     1       9.291   8.965   6.255  1.00  0.00     0.037 A 
BRANCH  49  63
ATOM     63  C   UNL     1       6.347   6.161  10.901  1.00  0.00     0.064 A 
ATOM     64  C   UNL     1       6.925   5.601  12.050  1.00  0.00     0.173 A 
ATOM     65  C   UNL     1       5.146   6.871  11.049  1.00  0.00     0.173 A 
ATOM     66  F   UNL     1       8.066   4.900  11.958  1.00  0.00    -0.203 F 
ATOM     67  C   UNL     1       6.312   5.727  13.294  1.00  0.00     0.198 A 
ATOM     68  C   UNL     1       4.549   7.017  12.298  1.00  0.00     0.198 A 
ATOM     69  F   UNL     1       4.555   7.429   9.981  1.00  0.00    -0.203 F 
ATOM     70  F   UNL     1       6.859   5.147  14.371  1.00  0.00    -0.200 F 
ATOM     71  C   UNL     1       5.128   6.439  13.418  1.00  0.00     0.200 A 
ATOM     72  F   UNL     1       3.410   7.713  12.417  1.00  0.00    -0.200 F 
ATOM     73  F   UNL     1       4.541   6.563  14.616  1.00  0.00    -0.200 F 
ENDBRANCH  49  63
BRANCH  50  74
ATOM     74  C   UNL     1      10.444   4.928   1.893  1.00  0.00     0.064 A 
ATOM     75  C   UNL     1      11.825   5.045   1.693  1.00  0.00     0.173 A 
ATOM     76  C   UNL     1       9.641   4.661   0.775  1.00  0.00     0.173 A 
ATOM     77  F   UNL     1      12.630   5.327   2.728  1.00  0.00    -0.203 F 
ATOM     78  C   UNL     1      12.381   4.913   0.422  1.00  0.00     0.198 A 
ATOM     79  C   UNL     1      10.200   4.505  -0.491  1.00  0.00     0.198 A 
ATOM     80  F   UNL     1       8.312   4.545   0.915  1.00  0.00    -0.203 F 
ATOM     81  F   UNL     1      13.701   5.069   0.251  1.00  0.00    -0.200 F 
ATOM     82  C   UNL     1      11.569   4.637  -0.668  1.00  0.00     0.200 A 
ATOM     83  F   UNL     1       9.412   4.231  -1.540  1.00  0.00    -0.200 F 
ATOM     84  F   UNL     1      12.104   4.508  -1.889  1.00  0.00    -0.200 F 
ENDBRANCH  50  74
BRANCH  62  85
ATOM     85  C   UNL     1       9.691  10.406   6.131  1.00  0.00     0.064 A 
ATOM     86  C   UNL     1       9.004  11.287   5.282  1.00  0.00     0.173 A 
ATOM     87  C   UNL     1      10.744  10.922   6.901  1.00  0.00     0.173 A 
ATOM     88  F   UNL     1       8.000  10.838   4.514  1.00  0.00    -0.203 F 
ATOM     89  C   UNL     1       9.372  12.627   5.193  1.00  0.00     0.198 A 
ATOM     90  C   UNL     1      11.091  12.269   6.829  1.00  0.00     0.198 A 
ATOM     91  F   UNL     1      11.427  10.123   7.733  1.00  0.00    -0.203 F 
ATOM     92  F   UNL     1       8.729  13.441   4.344  1.00  0.00    -0.200 F 
ATOM     93  C   UNL     1      10.409  13.118   5.971  1.00  0.00     0.200 A 
ATOM     94  F   UNL     1      12.086  12.744   7.591  1.00  0.00    -0.200 F 
ATOM     95  F   UNL     1      10.757  14.410   5.889  1.00  0.00    -0.200 F 
ENDBRANCH  62  85
ENDBRANCH  36  37
ENDBRANCH  29  31
ENDBRANCH  28  29
ENDBRANCH  27  28
ENDBRANCH  26  27
ENDBRANCH  25  26
ENDBRANCH   1  25
TORSDOF 18
