REMARK SMILES C[C@H](C(=O)OCCOCCOC(=O)c1ccc(-c2c3nc(c(-c4c(F)c(F)c(F)c(F)c4F)c4ccc([nH]4)c(-c4c(F)c(F)c(F)c(F)c4F)c4nc(c(-c5c(F)c(F)c(F)c(F)c5F)c5ccc2[nH]5)C=C4)C=C3)cc1)c1ccc(C[C@@H]2CCC[C@H]2O)cc1
REMARK SMILES IDX 7 1 6 2 5 3 3 4 4 5 2 6 1 7 77 8 78 9 89 10 79 11 88 12
REMARK SMILES IDX 80 13 81 14 82 15 83 16 86 17 84 18 85 19 87 20 8 22 9 23
REMARK SMILES IDX 10 24 11 25 12 26 13 27 14 28 15 29 76 30 16 31 75 32 17 33
REMARK SMILES IDX 18 34 19 35 69 36 20 37 74 38 68 39 70 40 21 41 73 42 67 43
REMARK SMILES IDX 66 44 22 46 54 47 34 48 53 49 35 50 38 51 52 52 71 53 36 54
REMARK SMILES IDX 37 55 51 57 72 58 39 59 23 60 24 61 32 62 25 63 26 64 30 65
REMARK SMILES IDX 33 66 27 67 28 68 31 69 29 70 55 71 56 72 64 73 57 74 58 75
REMARK SMILES IDX 62 76 65 77 59 78 60 79 63 80 61 81 40 82 41 83 49 84 42 85
REMARK SMILES IDX 43 86 47 87 50 88 44 89 45 90 48 91 46 92
REMARK H PARENT 87 21 70 45 38 56
REMARK Flexibility Score: inf
ROOT
ATOM      1  C   UNL     1      -6.755   4.098   7.464  1.00  0.00     0.202 C 
ENDROOT
BRANCH   1   2
ATOM      2  C   UNL     1      -7.810   4.931   6.730  1.00  0.00     0.261 C 
BRANCH   2   3
ATOM      3  O   UNL     1      -8.886   4.073   6.310  1.00  0.00    -0.463 OA
BRANCH   3   4
ATOM      4  C   UNL     1      -9.192   4.102   4.981  1.00  0.00     0.313 C 
ATOM      5  O   UNL     1      -8.805   4.956   4.194  1.00  0.00    -0.252 OA
BRANCH   4   6
ATOM      6  C   UNL     1     -10.074   2.906   4.622  1.00  0.00     0.126 C 
ATOM      7  C   UNL     1     -11.496   3.399   4.374  1.00  0.00     0.025 C 
BRANCH   6   8
ATOM      8  C   UNL     1      -9.481   2.113   3.464  1.00  0.00    -0.034 A 
ATOM      9  C   UNL     1      -8.924   0.844   3.684  1.00  0.00     0.005 A 
ATOM     10  C   UNL     1      -9.402   2.657   2.176  1.00  0.00     0.005 A 
ATOM     11  C   UNL     1      -8.256   0.164   2.658  1.00  0.00     0.004 A 
ATOM     12  C   UNL     1      -8.739   1.977   1.152  1.00  0.00     0.004 A 
ATOM     13  C   UNL     1      -8.132   0.738   1.389  1.00  0.00    -0.048 A 
BRANCH  13  14
ATOM     14  C   UNL     1      -7.350   0.057   0.292  1.00  0.00     0.041 C 
BRANCH  14  15
ATOM     15  C   UNL     1      -5.819   0.261   0.259  1.00  0.00     0.022 C 
ATOM     16  C   UNL     1      -5.067  -0.427   1.405  1.00  0.00     0.007 C 
ATOM     17  C   UNL     1      -5.343   1.716   0.329  1.00  0.00     0.117 C 
ATOM     18  C   UNL     1      -4.691   0.656   2.413  1.00  0.00     0.003 C 
ATOM     19  C   UNL     1      -5.098   1.997   1.807  1.00  0.00     0.032 C 
BRANCH  17  20
ATOM     20  O   UNL     1      -4.112   1.847  -0.387  1.00  0.00    -0.393 OA
ATOM     21  H   UNL     1      -3.454   1.240  -0.013  1.00  0.00     0.210 HD
ENDBRANCH  17  20
ENDBRANCH  14  15
ENDBRANCH  13  14
ENDBRANCH   6   8
ENDBRANCH   4   6
ENDBRANCH   3   4
ENDBRANCH   2   3
ENDBRANCH   1   2
BRANCH   1  22
ATOM     22  O   UNL     1      -5.974   3.244   6.624  1.00  0.00    -0.374 OA
BRANCH  22  23
ATOM     23  C   UNL     1      -6.587   2.026   6.202  1.00  0.00     0.202 C 
BRANCH  23  24
ATOM     24  C   UNL     1      -6.440   0.852   7.175  1.00  0.00     0.261 C 
BRANCH  24  25
ATOM     25  O   UNL     1      -7.153   1.095   8.401  1.00  0.00    -0.460 OA
BRANCH  25  26
ATOM     26  C   UNL     1      -6.367   1.379   9.464  1.00  0.00     0.338 C 
ATOM     27  O   UNL     1      -5.144   1.343   9.514  1.00  0.00    -0.246 OA
BRANCH  26  28
ATOM     28  C   UNL     1      -7.182   1.913  10.570  1.00  0.00     0.060 A 
ATOM     29  C   UNL     1      -6.737   3.090  11.185  1.00  0.00     0.016 A 
ATOM     30  C   UNL     1      -8.317   1.250  11.044  1.00  0.00     0.016 A 
ATOM     31  C   UNL     1      -7.392   3.580  12.312  1.00  0.00     0.010 A 
ATOM     32  C   UNL     1      -8.970   1.739  12.181  1.00  0.00     0.010 A 
ATOM     33  C   UNL     1      -8.487   2.884  12.841  1.00  0.00    -0.014 A 
BRANCH  33  34
ATOM     34  C   UNL     1      -9.023   3.273  14.167  1.00  0.00     0.031 A 
ATOM     35  C   UNL     1      -8.581   2.508  15.383  1.00  0.00     0.074 A 
ATOM     36  C   UNL     1      -9.862   4.316  14.290  1.00  0.00     0.049 A 
ATOM     37  N   UNL     1      -8.925   2.666  16.636  1.00  0.00    -0.248 NA
ATOM     38  C   UNL     1      -7.622   1.416  15.156  1.00  0.00     0.031 C 
ATOM     39  C   UNL     1     -10.331   5.156  13.191  1.00  0.00     0.029 A 
ATOM     40  N   UNL     1     -10.469   4.845  15.402  1.00  0.00    -0.354 N 
ATOM     41  C   UNL     1      -8.231   1.693  17.343  1.00  0.00     0.074 A 
ATOM     42  C   UNL     1      -7.469   0.930  16.379  1.00  0.00     0.031 C 
ATOM     43  C   UNL     1     -11.159   6.094  13.682  1.00  0.00     0.029 A 
ATOM     44  C   UNL     1     -11.299   5.902  15.125  1.00  0.00     0.049 A 
ATOM     45  H   UNL     1     -10.322   4.498  16.312  1.00  0.00     0.167 HD
ATOM     46  C   UNL     1      -8.223   1.464  18.678  1.00  0.00     0.037 A 
ATOM     47  C   UNL     1     -12.091   6.620  15.943  1.00  0.00     0.037 A 
ATOM     48  C   UNL     1      -8.976   2.229  19.636  1.00  0.00     0.049 A 
ATOM     49  C   UNL     1     -12.113   6.303  17.416  1.00  0.00     0.074 A 
ATOM     50  C   UNL     1      -9.012   2.094  21.012  1.00  0.00     0.029 A 
ATOM     51  N   UNL     1      -9.834   3.270  19.313  1.00  0.00    -0.354 N 
ATOM     52  N   UNL     1     -11.429   5.404  18.081  1.00  0.00    -0.248 NA
ATOM     53  C   UNL     1     -13.018   7.105  18.253  1.00  0.00     0.031 C 
ATOM     54  C   UNL     1      -9.929   3.021  21.518  1.00  0.00     0.029 A 
ATOM     55  C   UNL     1     -10.426   3.768  20.462  1.00  0.00     0.049 A 
ATOM     56  H   UNL     1      -9.997   3.606  18.402  1.00  0.00     0.167 HD
ATOM     57  C   UNL     1     -11.796   5.550  19.412  1.00  0.00     0.074 A 
ATOM     58  C   UNL     1     -12.757   6.632  19.464  1.00  0.00     0.031 C 
ATOM     59  C   UNL     1     -11.374   4.852  20.496  1.00  0.00     0.037 A 
BRANCH  46  60
ATOM     60  C   UNL     1      -7.390   0.321  19.179  1.00  0.00     0.064 A 
ATOM     61  C   UNL     1      -5.989   0.381  19.198  1.00  0.00     0.173 A 
ATOM     62  C   UNL     1      -8.005  -0.838  19.676  1.00  0.00     0.173 A 
ATOM     63  F   UNL     1      -5.353   1.461  18.721  1.00  0.00    -0.203 F 
ATOM     64  C   UNL     1      -5.233  -0.688  19.674  1.00  0.00     0.198 A 
ATOM     65  C   UNL     1      -7.247  -1.894  20.175  1.00  0.00     0.198 A 
ATOM     66  F   UNL     1      -9.342  -0.945  19.682  1.00  0.00    -0.203 F 
ATOM     67  F   UNL     1      -3.895  -0.627  19.642  1.00  0.00    -0.200 F 
ATOM     68  C   UNL     1      -5.863  -1.821  20.168  1.00  0.00     0.200 A 
ATOM     69  F   UNL     1      -7.858  -2.984  20.662  1.00  0.00    -0.200 F 
ATOM     70  F   UNL     1      -5.134  -2.847  20.631  1.00  0.00    -0.200 F 
ENDBRANCH  46  60
BRANCH  47  71
ATOM     71  C   UNL     1     -12.935   7.711  15.390  1.00  0.00     0.064 A 
ATOM     72  C   UNL     1     -12.669   9.054  15.689  1.00  0.00     0.173 A 
ATOM     73  C   UNL     1     -14.034   7.431  14.564  1.00  0.00     0.173 A 
ATOM     74  F   UNL     1     -11.645   9.369  16.496  1.00  0.00    -0.203 F 
ATOM     75  C   UNL     1     -13.478  10.075  15.196  1.00  0.00     0.198 A 
ATOM     76  C   UNL     1     -14.826   8.455  14.049  1.00  0.00     0.198 A 
ATOM     77  F   UNL     1     -14.333   6.162  14.250  1.00  0.00    -0.203 F 
ATOM     78  F   UNL     1     -13.228  11.348  15.533  1.00  0.00    -0.200 F 
ATOM     79  C   UNL     1     -14.553   9.775  14.371  1.00  0.00     0.200 A 
ATOM     80  F   UNL     1     -15.857   8.161  13.245  1.00  0.00    -0.200 F 
ATOM     81  F   UNL     1     -15.329  10.758  13.895  1.00  0.00    -0.200 F 
ENDBRANCH  47  71
BRANCH  59  82
ATOM     82  C   UNL     1     -11.920   5.259  21.834  1.00  0.00     0.064 A 
ATOM     83  C   UNL     1     -13.244   4.981  22.204  1.00  0.00     0.173 A 
ATOM     84  C   UNL     1     -11.094   5.895  22.773  1.00  0.00     0.173 A 
ATOM     85  F   UNL     1     -14.077   4.387  21.337  1.00  0.00    -0.203 F 
ATOM     86  C   UNL     1     -13.727   5.347  23.458  1.00  0.00     0.198 A 
ATOM     87  C   UNL     1     -11.572   6.234  24.035  1.00  0.00     0.198 A 
ATOM     88  F   UNL     1      -9.818   6.177  22.470  1.00  0.00    -0.203 F 
ATOM     89  F   UNL     1     -15.008   5.111  23.775  1.00  0.00    -0.200 F 
ATOM     90  C   UNL     1     -12.890   5.965  24.374  1.00  0.00     0.200 A 
ATOM     91  F   UNL     1     -10.758   6.819  24.924  1.00  0.00    -0.200 F 
ATOM     92  F   UNL     1     -13.355   6.310  25.583  1.00  0.00    -0.200 F 
ENDBRANCH  59  82
ENDBRANCH  33  34
ENDBRANCH  26  28
ENDBRANCH  25  26
ENDBRANCH  24  25
ENDBRANCH  23  24
ENDBRANCH  22  23
ENDBRANCH   1  22
TORSDOF 18
