REMARK SMILES O=C(CCCc1nc(-c2ccc(Cl)c(Cl)c2)c(-c2ccccc2)o1)OCCOCCOC(=O)c1ccc(-c2c3nc(c(-c4c(F)c(F)c(F)c(F)c4F)c4ccc([nH]4)c(-c4c(F)c(F)c(F)c(F)c4F)c4nc(c(-c5c(F)c(F)c(F)c(F)c5F)c5ccc2[nH]5)C=C4)C=C3)cc1
REMARK SMILES IDX 27 1 26 2 25 3 2 4 1 5 3 6 4 7 5 8 6 9 7 10 24 11 8 12 17 13
REMARK SMILES IDX 9 14 10 15 16 16 11 17 14 18 12 19 15 20 13 21 18 22 19 23
REMARK SMILES IDX 23 24 20 25 22 26 21 27 28 28 29 29 30 30 31 31 32 32 33 33
REMARK SMILES IDX 34 34 35 35 96 36 36 37 95 38 37 39 38 40 39 41 89 42 40 43
REMARK SMILES IDX 94 44 88 45 90 46 41 47 93 48 87 49 86 50 42 52 74 53 54 54
REMARK SMILES IDX 73 55 55 56 58 57 72 58 91 59 56 60 57 61 71 63 92 64 59 65
REMARK SMILES IDX 43 66 44 67 52 68 45 69 46 70 50 71 53 72 47 73 48 74 51 75
REMARK SMILES IDX 49 76 75 77 76 78 84 79 77 80 78 81 82 82 85 83 79 84 80 85
REMARK SMILES IDX 83 86 81 87 60 88 61 89 69 90 62 91 63 92 67 93 70 94 64 95
REMARK SMILES IDX 65 96 68 97 66 98
REMARK H PARENT 90 51 58 62
REMARK Flexibility Score: inf
ROOT
ATOM      1  C   UNL     1       2.699  -1.168   1.114  1.00  0.00     0.202 C 
ENDROOT
BRANCH   1   2
ATOM      2  C   UNL     1       3.537  -0.037   1.711  1.00  0.00     0.261 C 
BRANCH   2   3
ATOM      3  O   UNL     1       3.373   1.284   1.153  1.00  0.00    -0.463 OA
BRANCH   3   4
ATOM      4  C   UNL     1       2.593   1.414   0.059  1.00  0.00     0.305 C 
ATOM      5  O   UNL     1       1.376   1.270   0.077  1.00  0.00    -0.252 OA
BRANCH   4   6
ATOM      6  C   UNL     1       3.388   1.689  -1.199  1.00  0.00     0.123 C 
BRANCH   6   7
ATOM      7  C   UNL     1       4.641   2.553  -1.041  1.00  0.00     0.021 C 
BRANCH   7   8
ATOM      8  C   UNL     1       5.853   1.928  -0.340  1.00  0.00     0.098 C 
BRANCH   8   9
ATOM      9  C   UNL     1       6.353   0.667  -0.952  1.00  0.00     0.195 A 
ATOM     10  N   UNL     1       5.964  -0.575  -0.723  1.00  0.00    -0.213 NA
ATOM     11  O   UNL     1       7.441   0.780  -1.782  1.00  0.00    -0.440 OA
ATOM     12  C   UNL     1       6.834  -1.328  -1.468  1.00  0.00     0.117 A 
ATOM     13  C   UNL     1       7.738  -0.513  -2.109  1.00  0.00     0.162 A 
BRANCH  12  14
ATOM     14  C   UNL     1       6.876  -2.770  -1.509  1.00  0.00     0.006 A 
ATOM     15  C   UNL     1       6.049  -3.474  -2.388  1.00  0.00     0.012 A 
ATOM     16  C   UNL     1       7.802  -3.466  -0.719  1.00  0.00     0.032 A 
ATOM     17  C   UNL     1       6.160  -4.863  -2.490  1.00  0.00     0.023 A 
ATOM     18  C   UNL     1       7.889  -4.860  -0.798  1.00  0.00     0.060 A 
ATOM     19  C   UNL     1       7.072  -5.561  -1.692  1.00  0.00     0.059 A 
ATOM     20  Cl  UNL     1       9.009  -5.654   0.252  1.00  0.00    -0.083 Cl
ATOM     21  Cl  UNL     1       7.138  -7.280  -1.851  1.00  0.00    -0.083 Cl
ENDBRANCH  12  14
BRANCH  13  22
ATOM     22  C   UNL     1       8.891  -0.764  -2.945  1.00  0.00     0.020 A 
ATOM     23  C   UNL     1      10.169  -0.404  -2.506  1.00  0.00     0.012 A 
ATOM     24  C   UNL     1       8.752  -1.506  -4.126  1.00  0.00     0.012 A 
ATOM     25  C   UNL     1      11.296  -0.809  -3.223  1.00  0.00     0.001 A 
ATOM     26  C   UNL     1       9.879  -1.905  -4.845  1.00  0.00     0.001 A 
ATOM     27  C   UNL     1      11.150  -1.565  -4.387  1.00  0.00     0.000 A 
ENDBRANCH  13  22
ENDBRANCH   8   9
ENDBRANCH   7   8
ENDBRANCH   6   7
ENDBRANCH   4   6
ENDBRANCH   3   4
ENDBRANCH   2   3
ENDBRANCH   1   2
BRANCH   1  28
ATOM     28  O   UNL     1       3.009  -1.341  -0.274  1.00  0.00    -0.374 OA
BRANCH  28  29
ATOM     29  C   UNL     1       1.933  -1.919  -1.020  1.00  0.00     0.202 C 
BRANCH  29  30
ATOM     30  C   UNL     1       1.976  -3.447  -1.041  1.00  0.00     0.261 C 
BRANCH  30  31
ATOM     31  O   UNL     1       2.338  -3.946   0.254  1.00  0.00    -0.460 OA
BRANCH  31  32
ATOM     32  C   UNL     1       3.342  -4.848   0.231  1.00  0.00     0.338 C 
ATOM     33  O   UNL     1       3.734  -5.505  -0.716  1.00  0.00    -0.246 OA
BRANCH  32  34
ATOM     34  C   UNL     1       4.016  -4.855   1.535  1.00  0.00     0.060 A 
ATOM     35  C   UNL     1       5.212  -4.145   1.673  1.00  0.00     0.016 A 
ATOM     36  C   UNL     1       3.547  -5.672   2.559  1.00  0.00     0.016 A 
ATOM     37  C   UNL     1       6.011  -4.338   2.800  1.00  0.00     0.010 A 
ATOM     38  C   UNL     1       4.328  -5.835   3.705  1.00  0.00     0.010 A 
ATOM     39  C   UNL     1       5.590  -5.217   3.805  1.00  0.00    -0.014 A 
BRANCH  39  40
ATOM     40  C   UNL     1       6.511  -5.630   4.893  1.00  0.00     0.031 A 
ATOM     41  C   UNL     1       7.097  -7.015   4.854  1.00  0.00     0.074 A 
ATOM     42  C   UNL     1       6.803  -4.802   5.911  1.00  0.00     0.049 A 
ATOM     43  N   UNL     1       7.748  -7.671   5.781  1.00  0.00    -0.248 NA
ATOM     44  C   UNL     1       6.909  -7.766   3.603  1.00  0.00     0.031 C 
ATOM     45  C   UNL     1       6.344  -3.421   6.037  1.00  0.00     0.029 A 
ATOM     46  N   UNL     1       7.541  -5.019   7.048  1.00  0.00    -0.354 N 
ATOM     47  C   UNL     1       8.022  -8.919   5.236  1.00  0.00     0.074 A 
ATOM     48  C   UNL     1       7.451  -8.936   3.906  1.00  0.00     0.031 C 
ATOM     49  C   UNL     1       6.789  -2.919   7.201  1.00  0.00     0.029 A 
ATOM     50  C   UNL     1       7.524  -3.958   7.919  1.00  0.00     0.049 A 
ATOM     51  H   UNL     1       8.033  -5.853   7.222  1.00  0.00     0.167 HD
ATOM     52  C   UNL     1       8.692  -9.955   5.794  1.00  0.00     0.037 A 
ATOM     53  C   UNL     1       8.013  -3.854   9.170  1.00  0.00     0.037 A 
ATOM     54  C   UNL     1       9.273  -9.928   7.111  1.00  0.00     0.049 A 
ATOM     55  C   UNL     1       8.723  -5.031   9.786  1.00  0.00     0.074 A 
ATOM     56  C   UNL     1       9.953 -10.930   7.780  1.00  0.00     0.029 A 
ATOM     57  N   UNL     1       9.251  -8.827   7.955  1.00  0.00    -0.354 N 
ATOM     58  N   UNL     1       8.940  -6.223   9.285  1.00  0.00    -0.248 NA
ATOM     59  C   UNL     1       9.258  -4.847  11.143  1.00  0.00     0.031 C 
ATOM     60  C   UNL     1      10.321 -10.444   9.040  1.00  0.00     0.029 A 
ATOM     61  C   UNL     1       9.905  -9.126   9.139  1.00  0.00     0.049 A 
ATOM     62  H   UNL     1       8.833  -7.961   7.743  1.00  0.00     0.167 HD
ATOM     63  C   UNL     1       9.647  -6.923  10.253  1.00  0.00     0.074 A 
ATOM     64  C   UNL     1       9.842  -6.016  11.364  1.00  0.00     0.031 C 
ATOM     65  C   UNL     1      10.092  -8.204  10.229  1.00  0.00     0.037 A 
BRANCH  52  66
ATOM     66  C   UNL     1       8.811 -11.214   4.988  1.00  0.00     0.064 A 
ATOM     67  C   UNL     1       9.662 -11.298   3.875  1.00  0.00     0.173 A 
ATOM     68  C   UNL     1       8.085 -12.360   5.346  1.00  0.00     0.173 A 
ATOM     69  F   UNL     1      10.367 -10.226   3.484  1.00  0.00    -0.203 F 
ATOM     70  C   UNL     1       9.762 -12.475   3.137  1.00  0.00     0.198 A 
ATOM     71  C   UNL     1       8.207 -13.543   4.621  1.00  0.00     0.198 A 
ATOM     72  F   UNL     1       7.260 -12.335   6.404  1.00  0.00    -0.203 F 
ATOM     73  F   UNL     1      10.549 -12.519   2.053  1.00  0.00    -0.200 F 
ATOM     74  C   UNL     1       9.040 -13.597   3.514  1.00  0.00     0.200 A 
ATOM     75  F   UNL     1       7.518 -14.630   4.994  1.00  0.00    -0.200 F 
ATOM     76  F   UNL     1       9.142 -14.731   2.807  1.00  0.00    -0.200 F 
ENDBRANCH  52  66
BRANCH  53  77
ATOM     77  C   UNL     1       7.820  -2.598   9.939  1.00  0.00     0.064 A 
ATOM     78  C   UNL     1       8.903  -1.760  10.241  1.00  0.00     0.173 A 
ATOM     79  C   UNL     1       6.551  -2.216  10.400  1.00  0.00     0.173 A 
ATOM     80  F   UNL     1      10.139  -2.097   9.845  1.00  0.00    -0.203 F 
ATOM     81  C   UNL     1       8.727  -0.599  10.990  1.00  0.00     0.198 A 
ATOM     82  C   UNL     1       6.372  -1.040  11.125  1.00  0.00     0.198 A 
ATOM     83  F   UNL     1       5.483  -2.983  10.139  1.00  0.00    -0.203 F 
ATOM     84  F   UNL     1       9.786   0.160  11.304  1.00  0.00    -0.200 F 
ATOM     85  C   UNL     1       7.461  -0.236  11.426  1.00  0.00     0.200 A 
ATOM     86  F   UNL     1       5.146  -0.687  11.534  1.00  0.00    -0.200 F 
ATOM     87  F   UNL     1       7.292   0.883  12.142  1.00  0.00    -0.200 F 
ENDBRANCH  53  77
BRANCH  65  88
ATOM     88  C   UNL     1      10.858  -8.683  11.427  1.00  0.00     0.064 A 
ATOM     89  C   UNL     1      10.220  -8.960  12.645  1.00  0.00     0.173 A 
ATOM     90  C   UNL     1      12.245  -8.885  11.348  1.00  0.00     0.173 A 
ATOM     91  F   UNL     1       8.899  -8.767  12.773  1.00  0.00    -0.203 F 
ATOM     92  C   UNL     1      10.948  -9.394  13.749  1.00  0.00     0.198 A 
ATOM     93  C   UNL     1      12.964  -9.344  12.447  1.00  0.00     0.198 A 
ATOM     94  F   UNL     1      12.900  -8.639  10.203  1.00  0.00    -0.203 F 
ATOM     95  F   UNL     1      10.326  -9.605  14.918  1.00  0.00    -0.200 F 
ATOM     96  C   UNL     1      12.317  -9.590  13.649  1.00  0.00     0.200 A 
ATOM     97  F   UNL     1      14.286  -9.542  12.346  1.00  0.00    -0.200 F 
ATOM     98  F   UNL     1      13.016 -10.007  14.714  1.00  0.00    -0.200 F 
ENDBRANCH  65  88
ENDBRANCH  39  40
ENDBRANCH  32  34
ENDBRANCH  31  32
ENDBRANCH  30  31
ENDBRANCH  29  30
ENDBRANCH  28  29
ENDBRANCH   1  28
TORSDOF 19
