REMARK SMILES Cc1ccc(C[NH2+]Cc2c(C(=O)OCCOCCOC(=O)c3ccc(-c4c5nc(c(-c6c(F)c(F)c(F)c(F)c6F)c6ccc([nH]6)c(-c6c(F)c(F)c(F)c(F)c6F)c6nc(c(-c7c(F)c(F)c(F)c(F)c7F)c7ccc4[nH]7)C=C6)C=C5)cc3)n(Cc3ccccc3)c3ccccc23)cc1
REMARK SMILES IDX 15 1 14 2 13 3 11 4 12 5 10 6 9 7 98 8 85 9 93 10 97 11
REMARK SMILES IDX 94 12 96 13 95 14 8 15 7 16 6 19 5 20 1 21 2 22 3 23 100 24
REMARK SMILES IDX 4 25 99 26 86 27 87 28 88 29 92 30 89 31 91 32 90 33 16 34
REMARK SMILES IDX 17 35 18 36 19 37 20 38 21 39 22 40 23 41 84 42 24 43 83 44
REMARK SMILES IDX 25 45 26 46 27 47 77 48 28 49 82 50 76 51 78 52 29 53 81 54
REMARK SMILES IDX 75 55 74 56 30 58 62 59 42 60 61 61 43 62 46 63 60 64 79 65
REMARK SMILES IDX 44 66 45 67 59 69 80 70 47 71 31 72 32 73 40 74 33 75 34 76
REMARK SMILES IDX 38 77 41 78 35 79 36 80 39 81 37 82 63 83 64 84 72 85 65 86
REMARK SMILES IDX 66 87 70 88 73 89 67 90 68 91 71 92 69 93 48 94 49 95 57 96
REMARK SMILES IDX 50 97 51 98 55 99 58 100 52 101 53 102 56 103 54 104
REMARK H PARENT 7 17 7 18 78 57 46 68
REMARK Flexibility Score: inf
ROOT
ATOM      1  C   UNL     1      -8.111  -1.418   1.368  1.00  0.00     0.202 C 
ENDROOT
BRANCH   1   2
ATOM      2  C   UNL     1      -7.828  -1.646  -0.084  1.00  0.00     0.261 C 
BRANCH   2   3
ATOM      3  O   UNL     1      -7.186  -0.497  -0.666  1.00  0.00    -0.459 OA
BRANCH   3   4
ATOM      4  C   UNL     1      -7.756   0.698  -0.982  1.00  0.00     0.355 C 
ATOM      5  O   UNL     1      -8.935   0.900  -1.146  1.00  0.00    -0.244 OA
BRANCH   4   6
ATOM      6  C   UNL     1      -6.665   1.662  -1.139  1.00  0.00     0.137 A 
ATOM      7  C   UNL     1      -5.285   1.395  -1.213  1.00  0.00     0.047 A 
ATOM      8  C   UNL     1      -4.621   2.661  -1.361  1.00  0.00     0.009 A 
ATOM      9  N   UNL     1      -6.829   3.036  -1.216  1.00  0.00    -0.330 N 
ATOM     10  C   UNL     1      -5.595   3.663  -1.290  1.00  0.00     0.050 A 
ATOM     11  C   UNL     1      -3.276   3.067  -1.524  1.00  0.00     0.011 A 
ATOM     12  C   UNL     1      -5.253   5.030  -1.308  1.00  0.00     0.027 A 
ATOM     13  C   UNL     1      -2.928   4.418  -1.540  1.00  0.00     0.001 A 
ATOM     14  C   UNL     1      -3.907   5.389  -1.419  1.00  0.00     0.002 A 
BRANCH   7  15
ATOM     15  C   UNL     1      -4.718  -0.010  -1.159  1.00  0.00     0.300 C 
BRANCH  15  16
ATOM     16  N   UNL     1      -3.294  -0.143  -1.012  1.00  0.00    -0.339 N 
ATOM     17  H   UNL     1      -3.022  -1.084  -1.297  1.00  0.00     0.346 HD
ATOM     18  H   UNL     1      -2.853   0.566  -1.598  1.00  0.00     0.346 HD
BRANCH  16  19
ATOM     19  C   UNL     1      -2.856   0.076   0.358  1.00  0.00     0.297 C 
BRANCH  19  20
ATOM     20  C   UNL     1      -1.357   0.029   0.385  1.00  0.00     0.006 A 
ATOM     21  C   UNL     1       2.913  -0.077  -0.056  1.00  0.00     0.044 C 
ATOM     22  C   UNL     1       1.427  -0.035   0.120  1.00  0.00    -0.051 A 
ATOM     23  C   UNL     1       0.691  -1.225   0.092  1.00  0.00     0.004 A 
ATOM     24  C   UNL     1       0.765   1.183   0.308  1.00  0.00     0.004 A 
ATOM     25  C   UNL     1      -0.694  -1.193   0.221  1.00  0.00     0.010 A 
ATOM     26  C   UNL     1      -0.619   1.215   0.444  1.00  0.00     0.010 A 
ENDBRANCH  19  20
ENDBRANCH  16  19
ENDBRANCH  15  16
ENDBRANCH   7  15
BRANCH   9  27
ATOM     27  C   UNL     1      -8.114   3.746  -1.253  1.00  0.00     0.158 C 
BRANCH  27  28
ATOM     28  C   UNL     1      -8.911   3.688   0.031  1.00  0.00    -0.028 A 
ATOM     29  C   UNL     1     -10.313   3.768  -0.043  1.00  0.00     0.005 A 
ATOM     30  C   UNL     1      -8.313   3.599   1.296  1.00  0.00     0.005 A 
ATOM     31  C   UNL     1     -11.097   3.710   1.110  1.00  0.00     0.000 A 
ATOM     32  C   UNL     1      -9.098   3.543   2.450  1.00  0.00     0.000 A 
ATOM     33  C   UNL     1     -10.489   3.593   2.357  1.00  0.00     0.000 A 
ENDBRANCH  27  28
ENDBRANCH   9  27
ENDBRANCH   4   6
ENDBRANCH   3   4
ENDBRANCH   2   3
ENDBRANCH   1   2
BRANCH   1  34
ATOM     34  O   UNL     1      -9.146  -0.458   1.351  1.00  0.00    -0.374 OA
BRANCH  34  35
ATOM     35  C   UNL     1      -9.501   0.090   2.598  1.00  0.00     0.202 C 
BRANCH  35  36
ATOM     36  C   UNL     1     -10.187  -0.926   3.507  1.00  0.00     0.261 C 
BRANCH  36  37
ATOM     37  O   UNL     1     -11.389  -1.399   2.861  1.00  0.00    -0.460 OA
BRANCH  37  38
ATOM     38  C   UNL     1     -11.268  -2.598   2.226  1.00  0.00     0.338 C 
ATOM     39  O   UNL     1     -10.821  -3.615   2.732  1.00  0.00    -0.246 OA
BRANCH  38  40
ATOM     40  C   UNL     1     -11.495  -2.431   0.759  1.00  0.00     0.060 A 
ATOM     41  C   UNL     1     -11.104  -3.455  -0.126  1.00  0.00     0.016 A 
ATOM     42  C   UNL     1     -11.790  -1.166   0.257  1.00  0.00     0.016 A 
ATOM     43  C   UNL     1     -10.869  -3.171  -1.483  1.00  0.00     0.010 A 
ATOM     44  C   UNL     1     -11.466  -0.873  -1.056  1.00  0.00     0.010 A 
ATOM     45  C   UNL     1     -10.978  -1.854  -1.935  1.00  0.00    -0.014 A 
BRANCH  45  46
ATOM     46  C   UNL     1     -10.504  -1.353  -3.234  1.00  0.00     0.031 A 
ATOM     47  C   UNL     1     -11.460  -0.721  -4.176  1.00  0.00     0.074 A 
ATOM     48  C   UNL     1      -9.185  -1.240  -3.539  1.00  0.00     0.049 A 
ATOM     49  N   UNL     1     -11.223  -0.597  -5.440  1.00  0.00    -0.248 NA
ATOM     50  C   UNL     1     -12.757  -0.176  -3.787  1.00  0.00     0.031 C 
ATOM     51  C   UNL     1      -8.584  -0.343  -4.532  1.00  0.00     0.029 A 
ATOM     52  N   UNL     1      -8.071  -1.907  -3.010  1.00  0.00    -0.354 N 
ATOM     53  C   UNL     1     -12.133   0.296  -5.945  1.00  0.00     0.074 A 
ATOM     54  C   UNL     1     -13.118   0.467  -4.901  1.00  0.00     0.031 C 
ATOM     55  C   UNL     1      -7.306  -0.694  -4.735  1.00  0.00     0.029 A 
ATOM     56  C   UNL     1      -7.062  -1.912  -3.991  1.00  0.00     0.049 A 
ATOM     57  H   UNL     1      -8.005  -2.301  -2.111  1.00  0.00     0.167 HD
ATOM     58  C   UNL     1     -11.893   0.907  -7.139  1.00  0.00     0.037 A 
ATOM     59  C   UNL     1      -6.513  -3.072  -4.441  1.00  0.00     0.037 A 
ATOM     60  C   UNL     1     -10.575   0.564  -7.684  1.00  0.00     0.049 A 
ATOM     61  C   UNL     1      -6.810  -3.289  -5.898  1.00  0.00     0.074 A 
ATOM     62  C   UNL     1      -9.364   1.231  -7.789  1.00  0.00     0.029 A 
ATOM     63  N   UNL     1     -10.281  -0.762  -7.957  1.00  0.00    -0.354 N 
ATOM     64  N   UNL     1      -7.347  -2.381  -6.662  1.00  0.00    -0.248 NA
ATOM     65  C   UNL     1      -6.647  -4.567  -6.585  1.00  0.00     0.031 C 
ATOM     66  C   UNL     1      -8.365   0.299  -8.200  1.00  0.00     0.029 A 
ATOM     67  C   UNL     1      -8.967  -0.937  -8.351  1.00  0.00     0.049 A 
ATOM     68  H   UNL     1     -10.933  -1.495  -7.881  1.00  0.00     0.167 HD
ATOM     69  C   UNL     1      -7.749  -2.948  -7.832  1.00  0.00     0.074 A 
ATOM     70  C   UNL     1      -7.251  -4.312  -7.758  1.00  0.00     0.031 C 
ATOM     71  C   UNL     1      -8.519  -2.270  -8.731  1.00  0.00     0.037 A 
BRANCH  58  72
ATOM     72  C   UNL     1     -12.781   1.998  -7.689  1.00  0.00     0.064 A 
ATOM     73  C   UNL     1     -12.267   3.036  -8.490  1.00  0.00     0.173 A 
ATOM     74  C   UNL     1     -14.171   2.060  -7.459  1.00  0.00     0.173 A 
ATOM     75  F   UNL     1     -10.987   3.054  -8.879  1.00  0.00    -0.203 F 
ATOM     76  C   UNL     1     -13.054   4.105  -8.927  1.00  0.00     0.198 A 
ATOM     77  C   UNL     1     -14.946   3.160  -7.842  1.00  0.00     0.198 A 
ATOM     78  F   UNL     1     -14.828   1.037  -6.894  1.00  0.00    -0.203 F 
ATOM     79  F   UNL     1     -12.507   5.063  -9.688  1.00  0.00    -0.200 F 
ATOM     80  C   UNL     1     -14.384   4.187  -8.570  1.00  0.00     0.200 A 
ATOM     81  F   UNL     1     -16.242   3.213  -7.502  1.00  0.00    -0.200 F 
ATOM     82  F   UNL     1     -15.125   5.237  -8.949  1.00  0.00    -0.200 F 
ENDBRANCH  58  72
BRANCH  59  83
ATOM     83  C   UNL     1      -6.415  -4.108  -3.377  1.00  0.00     0.064 A 
ATOM     84  C   UNL     1      -5.412  -3.952  -2.400  1.00  0.00     0.173 A 
ATOM     85  C   UNL     1      -7.503  -4.933  -3.061  1.00  0.00     0.173 A 
ATOM     86  F   UNL     1      -4.362  -3.151  -2.640  1.00  0.00    -0.203 F 
ATOM     87  C   UNL     1      -5.545  -4.508  -1.128  1.00  0.00     0.198 A 
ATOM     88  C   UNL     1      -7.642  -5.472  -1.779  1.00  0.00     0.198 A 
ATOM     89  F   UNL     1      -8.499  -5.103  -3.942  1.00  0.00    -0.203 F 
ATOM     90  F   UNL     1      -4.641  -4.232  -0.176  1.00  0.00    -0.200 F 
ATOM     91  C   UNL     1      -6.679  -5.237  -0.809  1.00  0.00     0.200 A 
ATOM     92  F   UNL     1      -8.760  -6.137  -1.454  1.00  0.00    -0.200 F 
ATOM     93  F   UNL     1      -6.880  -5.643   0.453  1.00  0.00    -0.200 F 
ENDBRANCH  59  83
BRANCH  71  94
ATOM     94  C   UNL     1      -8.955  -2.867 -10.036  1.00  0.00     0.064 A 
ATOM     95  C   UNL     1      -8.093  -3.651 -10.817  1.00  0.00     0.173 A 
ATOM     96  C   UNL     1     -10.226  -2.607 -10.591  1.00  0.00     0.173 A 
ATOM     97  F   UNL     1      -6.818  -3.849 -10.449  1.00  0.00    -0.203 F 
ATOM     98  C   UNL     1      -8.516  -4.240 -12.007  1.00  0.00     0.198 A 
ATOM     99  C   UNL     1     -10.626  -3.147 -11.808  1.00  0.00     0.198 A 
ATOM    100  F   UNL     1     -11.134  -1.845  -9.966  1.00  0.00    -0.203 F 
ATOM    101  F   UNL     1      -7.688  -5.055 -12.674  1.00  0.00    -0.200 F 
ATOM    102  C   UNL     1      -9.784  -3.990 -12.501  1.00  0.00     0.200 A 
ATOM    103  F   UNL     1     -11.841  -2.854 -12.295  1.00  0.00    -0.200 F 
ATOM    104  F   UNL     1     -10.191  -4.557 -13.643  1.00  0.00    -0.200 F 
ENDBRANCH  71  94
ENDBRANCH  45  46
ENDBRANCH  38  40
ENDBRANCH  37  38
ENDBRANCH  36  37
ENDBRANCH  35  36
ENDBRANCH  34  35
ENDBRANCH   1  34
TORSDOF 20
