REMARK SMILES O=C(OCCOCCOC(=O)[C@H]1CC=CC[C@@H]1C(=O)Nc1ccccc1C(=O)NCc1ccco1)c1ccc(-c2c3nc(c(-c4c(F)c(F)c(F)c(F)c4F)c4ccc([nH]4)c(-c4c(F)c(F)c(F)c(F)c4F)c4nc(c(-c5c(F)c(F)c(F)c(F)c5F)c5ccc2[nH]5)C=C4)C=C3)cc1
REMARK SMILES IDX 7 1 6 2 5 3 4 4 3 5 2 6 1 7 36 8 37 9 98 10 38 11 97 12
REMARK SMILES IDX 39 13 40 14 41 15 91 16 42 17 96 18 90 19 92 20 43 21 95 22
REMARK SMILES IDX 89 23 88 24 44 26 76 27 56 28 75 29 57 30 60 31 74 32 93 33
REMARK SMILES IDX 58 34 59 35 73 37 94 38 61 39 45 40 46 41 54 42 47 43 48 44
REMARK SMILES IDX 52 45 55 46 49 47 50 48 53 49 51 50 77 51 78 52 86 53 79 54
REMARK SMILES IDX 80 55 84 56 87 57 81 58 82 59 85 60 83 61 62 62 63 63 71 64
REMARK SMILES IDX 64 65 65 66 69 67 72 68 66 69 67 70 70 71 68 72 8 73 9 74
REMARK SMILES IDX 10 75 11 76 12 77 13 78 17 79 14 80 16 81 15 82 18 83 19 84
REMARK SMILES IDX 20 85 21 87 22 88 26 89 23 90 25 91 24 92 27 93 28 94 29 95
REMARK SMILES IDX 30 97 31 98 32 99 35 100 33 101 34 102
REMARK H PARENT 92 25 60 36 20 86 29 96
REMARK Flexibility Score: inf
ROOT
ATOM      1  C   UNL     1       2.356  -0.896   1.280  1.00  0.00     0.202 C 
ENDROOT
BRANCH   1   2
ATOM      2  O   UNL     1       3.745  -0.603   1.095  1.00  0.00    -0.374 OA
BRANCH   2   3
ATOM      3  C   UNL     1       4.136   0.758   1.274  1.00  0.00     0.202 C 
BRANCH   3   4
ATOM      4  C   UNL     1       4.146   1.555  -0.034  1.00  0.00     0.261 C 
BRANCH   4   5
ATOM      5  O   UNL     1       2.857   1.518  -0.664  1.00  0.00    -0.460 OA
BRANCH   5   6
ATOM      6  C   UNL     1       2.369   0.615  -1.544  1.00  0.00     0.338 C 
ATOM      7  O   UNL     1       1.181   0.703  -1.857  1.00  0.00    -0.246 OA
BRANCH   6   8
ATOM      8  C   UNL     1       3.161  -0.498  -2.168  1.00  0.00     0.060 A 
ATOM      9  C   UNL     1       4.345  -1.050  -1.671  1.00  0.00     0.016 A 
ATOM     10  C   UNL     1       2.590  -1.104  -3.303  1.00  0.00     0.016 A 
ATOM     11  C   UNL     1       4.931  -2.168  -2.248  1.00  0.00     0.010 A 
ATOM     12  C   UNL     1       3.173  -2.226  -3.897  1.00  0.00     0.010 A 
ATOM     13  C   UNL     1       4.345  -2.761  -3.358  1.00  0.00    -0.014 A 
BRANCH  13  14
ATOM     14  C   UNL     1       5.043  -3.893  -3.978  1.00  0.00     0.031 A 
ATOM     15  C   UNL     1       5.927  -3.615  -5.149  1.00  0.00     0.074 A 
ATOM     16  C   UNL     1       4.959  -5.109  -3.412  1.00  0.00     0.049 A 
ATOM     17  N   UNL     1       6.587  -4.450  -5.902  1.00  0.00    -0.248 NA
ATOM     18  C   UNL     1       6.107  -2.198  -5.512  1.00  0.00     0.031 C 
ATOM     19  C   UNL     1       4.223  -5.416  -2.184  1.00  0.00     0.029 A 
ATOM     20  N   UNL     1       5.507  -6.306  -3.782  1.00  0.00    -0.354 N 
ATOM     21  C   UNL     1       7.234  -3.665  -6.845  1.00  0.00     0.074 A 
ATOM     22  C   UNL     1       6.907  -2.287  -6.564  1.00  0.00     0.031 C 
ATOM     23  C   UNL     1       4.358  -6.723  -1.908  1.00  0.00     0.029 A 
ATOM     24  C   UNL     1       5.131  -7.351  -2.973  1.00  0.00     0.049 A 
ATOM     25  H   UNL     1       6.112  -6.410  -4.552  1.00  0.00     0.167 HD
ATOM     26  C   UNL     1       8.014  -4.082  -7.866  1.00  0.00     0.037 A 
ATOM     27  C   UNL     1       5.350  -8.671  -3.125  1.00  0.00     0.037 A 
ATOM     28  C   UNL     1       8.315  -5.466  -8.108  1.00  0.00     0.049 A 
ATOM     29  C   UNL     1       6.136  -9.111  -4.333  1.00  0.00     0.074 A 
ATOM     30  C   UNL     1       9.069  -6.024  -9.121  1.00  0.00     0.029 A 
ATOM     31  N   UNL     1       7.861  -6.512  -7.314  1.00  0.00    -0.354 N 
ATOM     32  N   UNL     1       6.720  -8.377  -5.252  1.00  0.00    -0.248 NA
ATOM     33  C   UNL     1       6.274 -10.557  -4.545  1.00  0.00     0.031 C 
ATOM     34  C   UNL     1       9.024  -7.414  -8.972  1.00  0.00     0.029 A 
ATOM     35  C   UNL     1       8.284  -7.719  -7.838  1.00  0.00     0.049 A 
ATOM     36  H   UNL     1       7.318  -6.409  -6.499  1.00  0.00     0.167 HD
ATOM     37  C   UNL     1       7.295  -9.266  -6.147  1.00  0.00     0.074 A 
ATOM     38  C   UNL     1       7.017 -10.597  -5.642  1.00  0.00     0.031 C 
ATOM     39  C   UNL     1       7.978  -9.017  -7.291  1.00  0.00     0.037 A 
BRANCH  26  40
ATOM     40  C   UNL     1       8.507  -3.047  -8.828  1.00  0.00     0.064 A 
ATOM     41  C   UNL     1       9.535  -2.152  -8.502  1.00  0.00     0.173 A 
ATOM     42  C   UNL     1       7.930  -2.951 -10.103  1.00  0.00     0.173 A 
ATOM     43  F   UNL     1      10.097  -2.181  -7.284  1.00  0.00    -0.203 F 
ATOM     44  C   UNL     1       9.961  -1.190  -9.416  1.00  0.00     0.198 A 
ATOM     45  C   UNL     1       8.373  -2.004 -11.022  1.00  0.00     0.198 A 
ATOM     46  F   UNL     1       6.933  -3.776 -10.457  1.00  0.00    -0.203 F 
ATOM     47  F   UNL     1      10.918  -0.317  -9.072  1.00  0.00    -0.200 F 
ATOM     48  C   UNL     1       9.384  -1.122 -10.677  1.00  0.00     0.200 A 
ATOM     49  F   UNL     1       7.814  -1.941 -12.238  1.00  0.00    -0.200 F 
ATOM     50  F   UNL     1       9.796  -0.197 -11.555  1.00  0.00    -0.200 F 
ENDBRANCH  26  40
BRANCH  27  51
ATOM     51  C   UNL     1       4.747  -9.657  -2.187  1.00  0.00     0.064 A 
ATOM     52  C   UNL     1       5.541 -10.515  -1.414  1.00  0.00     0.173 A 
ATOM     53  C   UNL     1       3.353  -9.795  -2.079  1.00  0.00     0.173 A 
ATOM     54  F   UNL     1       6.878 -10.447  -1.496  1.00  0.00    -0.203 F 
ATOM     55  C   UNL     1       4.967 -11.488  -0.594  1.00  0.00     0.198 A 
ATOM     56  C   UNL     1       2.780 -10.742  -1.233  1.00  0.00     0.198 A 
ATOM     57  F   UNL     1       2.540  -9.008  -2.799  1.00  0.00    -0.203 F 
ATOM     58  F   UNL     1       5.751 -12.337   0.084  1.00  0.00    -0.200 F 
ATOM     59  C   UNL     1       3.588 -11.597  -0.501  1.00  0.00     0.200 A 
ATOM     60  F   UNL     1       1.447 -10.835  -1.139  1.00  0.00    -0.200 F 
ATOM     61  F   UNL     1       3.038 -12.537   0.281  1.00  0.00    -0.200 F 
ENDBRANCH  27  51
BRANCH  39  62
ATOM     62  C   UNL     1       8.464 -10.206  -8.060  1.00  0.00     0.064 A 
ATOM     63  C   UNL     1       7.579 -10.998  -8.806  1.00  0.00     0.173 A 
ATOM     64  C   UNL     1       9.831 -10.512  -8.107  1.00  0.00     0.173 A 
ATOM     65  F   UNL     1       6.261 -10.750  -8.776  1.00  0.00    -0.203 F 
ATOM     66  C   UNL     1       8.048 -12.066  -9.564  1.00  0.00     0.198 A 
ATOM     67  C   UNL     1      10.299 -11.562  -8.889  1.00  0.00     0.198 A 
ATOM     68  F   UNL     1      10.713  -9.776  -7.414  1.00  0.00    -0.203 F 
ATOM     69  F   UNL     1       7.183 -12.833 -10.242  1.00  0.00    -0.200 F 
ATOM     70  C   UNL     1       9.407 -12.340  -9.613  1.00  0.00     0.200 A 
ATOM     71  F   UNL     1      11.613 -11.816  -8.950  1.00  0.00    -0.200 F 
ATOM     72  F   UNL     1       9.858 -13.358 -10.358  1.00  0.00    -0.200 F 
ENDBRANCH  39  62
ENDBRANCH  13  14
ENDBRANCH   6   8
ENDBRANCH   5   6
ENDBRANCH   4   5
ENDBRANCH   3   4
ENDBRANCH   2   3
ENDBRANCH   1   2
BRANCH   1  73
ATOM     73  C   UNL     1       2.201  -1.926   2.394  1.00  0.00     0.261 C 
BRANCH  73  74
ATOM     74  O   UNL     1       2.578  -1.290   3.618  1.00  0.00    -0.463 OA
BRANCH  74  75
ATOM     75  C   UNL     1       3.910  -1.269   3.866  1.00  0.00     0.310 C 
ATOM     76  O   UNL     1       4.736  -2.007   3.338  1.00  0.00    -0.252 OA
BRANCH  75  77
ATOM     77  C   UNL     1       4.293  -0.180   4.851  1.00  0.00     0.116 C 
ATOM     78  C   UNL     1       3.099   0.592   5.436  1.00  0.00     0.043 C 
ATOM     79  C   UNL     1       5.145  -0.867   5.920  1.00  0.00     0.097 C 
ATOM     80  C   UNL     1       2.416  -0.143   6.550  1.00  0.00    -0.030 C 
ATOM     81  C   UNL     1       4.294  -1.781   6.817  1.00  0.00     0.041 C 
ATOM     82  C   UNL     1       2.942  -1.221   7.149  1.00  0.00    -0.030 C 
BRANCH  79  83
ATOM     83  C   UNL     1       5.940   0.131   6.745  1.00  0.00     0.228 C 
ATOM     84  O   UNL     1       5.629   1.318   6.845  1.00  0.00    -0.274 OA
ATOM     85  N   UNL     1       7.038  -0.311   7.437  1.00  0.00    -0.325 N 
ATOM     86  H   UNL     1       7.452   0.338   8.051  1.00  0.00     0.169 HD
BRANCH  85  87
ATOM     87  C   UNL     1       7.642  -1.574   7.377  1.00  0.00     0.054 A 
ATOM     88  C   UNL     1       7.590  -2.236   8.623  1.00  0.00     0.027 A 
ATOM     89  C   UNL     1       8.111  -2.246   6.228  1.00  0.00     0.063 A 
ATOM     90  C   UNL     1       7.820  -3.602   8.724  1.00  0.00     0.002 A 
ATOM     91  C   UNL     1       8.315  -3.643   6.372  1.00  0.00     0.016 A 
ATOM     92  C   UNL     1       8.146  -4.317   7.586  1.00  0.00     0.001 A 
BRANCH  89  93
ATOM     93  C   UNL     1       8.512  -1.745   4.851  1.00  0.00     0.253 C 
ATOM     94  O   UNL     1       8.734  -2.592   3.975  1.00  0.00    -0.269 OA
ATOM     95  N   UNL     1       8.762  -0.463   4.434  1.00  0.00    -0.345 N 
ATOM     96  H   UNL     1       9.317  -0.429   3.621  1.00  0.00     0.164 HD
BRANCH  95  97
ATOM     97  C   UNL     1       8.399   0.843   4.912  1.00  0.00     0.191 C 
BRANCH  97  98
ATOM     98  C   UNL     1       9.495   1.832   4.849  1.00  0.00     0.122 A 
ATOM     99  C   UNL     1      10.248   2.413   3.851  1.00  0.00     0.047 A 
ATOM    100  O   UNL     1       9.782   2.427   6.046  1.00  0.00    -0.467 OA
ATOM    101  C   UNL     1      11.017   3.431   4.476  1.00  0.00     0.042 A 
ATOM    102  C   UNL     1      10.693   3.397   5.810  1.00  0.00     0.195 A 
ENDBRANCH  97  98
ENDBRANCH  95  97
ENDBRANCH  89  93
ENDBRANCH  85  87
ENDBRANCH  79  83
ENDBRANCH  75  77
ENDBRANCH  74  75
ENDBRANCH  73  74
ENDBRANCH   1  73
TORSDOF 19
