REMARK SMILES CC1(C)C(CNC(=O)[C@H]2C[C@H]2C(=O)OCCOCCOC(=O)c2ccc(-c3c4nc(c(-c5c(F)c(F)c(F)c(F)c5F)c5ccc([nH]5)c(-c5c(F)c(F)c(F)c(F)c5F)c5nc(c(-c6c(F)c(F)c(F)c(F)c6F)c6ccc3[nH]6)C=C5)C=C4)cc2)C1(C)C
REMARK SMILES IDX 16 1 15 2 14 3 12 4 13 5 11 6 9 7 10 8 7 9 6 10 8 12 5 13
REMARK SMILES IDX 4 14 1 15 2 16 3 17 86 18 87 19 88 20 17 21 18 22 19 23
REMARK SMILES IDX 20 24 21 25 22 26 23 27 24 28 85 29 25 30 84 31 26 32 27 33
REMARK SMILES IDX 28 34 78 35 29 36 83 37 77 38 79 39 30 40 82 41 76 42 75 43
REMARK SMILES IDX 31 45 63 46 43 47 62 48 44 49 47 50 61 51 80 52 45 53 46 54
REMARK SMILES IDX 60 56 81 57 48 58 32 59 33 60 41 61 34 62 35 63 39 64 42 65
REMARK SMILES IDX 36 66 37 67 40 68 38 69 64 70 65 71 73 72 66 73 67 74 71 75
REMARK SMILES IDX 74 76 68 77 69 78 72 79 70 80 49 81 50 82 58 83 51 84 52 85
REMARK SMILES IDX 56 86 59 87 53 88 54 89 57 90 55 91
REMARK H PARENT 6 11 79 44 47 55
REMARK Flexibility Score: inf
ROOT
ATOM      1  C   UNL     1      -0.189  -4.275  -6.109  1.00  0.00     0.202 C 
ENDROOT
BRANCH   1   2
ATOM      2  C   UNL     1      -1.518  -4.843  -5.602  1.00  0.00     0.261 C 
BRANCH   2   3
ATOM      3  O   UNL     1      -2.275  -3.883  -4.850  1.00  0.00    -0.463 OA
BRANCH   3   4
ATOM      4  C   UNL     1      -2.655  -4.307  -3.621  1.00  0.00     0.309 C 
ATOM      5  O   UNL     1      -2.583  -5.455  -3.205  1.00  0.00    -0.252 OA
BRANCH   4   6
ATOM      6  C   UNL     1      -3.121  -3.235  -2.708  1.00  0.00     0.112 C 
ATOM      7  C   UNL     1      -3.981  -2.015  -2.959  1.00  0.00     0.093 C 
ATOM      8  C   UNL     1      -4.606  -3.267  -2.425  1.00  0.00     0.030 C 
BRANCH   7   9
ATOM      9  C   UNL     1      -4.179  -1.435  -4.302  1.00  0.00     0.224 C 
ATOM     10  N   UNL     1      -5.442  -1.155  -4.745  1.00  0.00    -0.356 N 
ATOM     11  H   UNL     1      -5.483  -0.618  -5.569  1.00  0.00     0.163 HD
ATOM     12  O   UNL     1      -3.207  -1.058  -4.946  1.00  0.00    -0.275 OA
BRANCH  10  13
ATOM     13  C   UNL     1      -6.726  -1.524  -4.193  1.00  0.00     0.120 C 
BRANCH  13  14
ATOM     14  C   UNL     1      -7.265  -0.472  -3.272  1.00  0.00     0.021 C 
ATOM     15  C   UNL     1      -8.180   1.953  -3.132  1.00  0.00     0.012 C 
ATOM     16  C   UNL     1      -8.341   0.542  -3.667  1.00  0.00    -0.025 C 
ATOM     17  C   UNL     1      -8.950   0.544  -5.051  1.00  0.00     0.012 C 
ATOM     18  C   UNL     1      -8.671  -0.601  -2.684  1.00  0.00    -0.025 C 
ATOM     19  C   UNL     1      -8.866  -0.273  -1.217  1.00  0.00     0.012 C 
ATOM     20  C   UNL     1      -9.543  -1.768  -3.103  1.00  0.00     0.012 C 
ENDBRANCH  13  14
ENDBRANCH  10  13
ENDBRANCH   7   9
ENDBRANCH   4   6
ENDBRANCH   3   4
ENDBRANCH   2   3
ENDBRANCH   1   2
BRANCH   1  21
ATOM     21  O   UNL     1       0.652  -3.643  -5.147  1.00  0.00    -0.374 OA
BRANCH  21  22
ATOM     22  C   UNL     1       0.242  -2.369  -4.643  1.00  0.00     0.202 C 
BRANCH  22  23
ATOM     23  C   UNL     1       0.256  -1.185  -5.620  1.00  0.00     0.261 C 
BRANCH  23  24
ATOM     24  O   UNL     1      -0.662  -1.347  -6.715  1.00  0.00    -0.460 OA
BRANCH  24  25
ATOM     25  C   UNL     1      -0.103  -1.344  -7.946  1.00  0.00     0.338 C 
ATOM     26  O   UNL     1       1.070  -1.168  -8.232  1.00  0.00    -0.246 OA
BRANCH  25  27
ATOM     27  C   UNL     1      -1.099  -1.759  -8.951  1.00  0.00     0.060 A 
ATOM     28  C   UNL     1      -0.781  -2.851  -9.769  1.00  0.00     0.016 A 
ATOM     29  C   UNL     1      -2.275  -1.036  -9.159  1.00  0.00     0.016 A 
ATOM     30  C   UNL     1      -1.614  -3.193 -10.833  1.00  0.00     0.010 A 
ATOM     31  C   UNL     1      -3.104  -1.372 -10.236  1.00  0.00     0.010 A 
ATOM     32  C   UNL     1      -2.759  -2.429 -11.098  1.00  0.00    -0.014 A 
BRANCH  32  33
ATOM     33  C   UNL     1      -3.514  -2.655 -12.355  1.00  0.00     0.031 A 
ATOM     34  C   UNL     1      -3.255  -1.762 -13.536  1.00  0.00     0.074 A 
ATOM     35  C   UNL     1      -4.406  -3.658 -12.450  1.00  0.00     0.049 A 
ATOM     36  N   UNL     1      -3.818  -1.761 -14.718  1.00  0.00    -0.248 NA
ATOM     37  C   UNL     1      -2.223  -0.727 -13.362  1.00  0.00     0.031 C 
ATOM     38  C   UNL     1      -4.726  -4.606 -11.386  1.00  0.00     0.029 A 
ATOM     39  N   UNL     1      -5.214  -4.035 -13.494  1.00  0.00    -0.354 N 
ATOM     40  C   UNL     1      -3.219  -0.725 -15.421  1.00  0.00     0.074 A 
ATOM     41  C   UNL     1      -2.263  -0.103 -14.531  1.00  0.00     0.031 C 
ATOM     42  C   UNL     1      -5.679  -5.446 -11.825  1.00  0.00     0.029 A 
ATOM     43  C   UNL     1      -6.053  -5.078 -13.189  1.00  0.00     0.049 A 
ATOM     44  H   UNL     1      -5.194  -3.599 -14.377  1.00  0.00     0.167 HD
ATOM     45  C   UNL     1      -3.443  -0.332 -16.698  1.00  0.00     0.037 A 
ATOM     46  C   UNL     1      -7.027  -5.652 -13.921  1.00  0.00     0.037 A 
ATOM     47  C   UNL     1      -4.382  -0.960 -17.590  1.00  0.00     0.049 A 
ATOM     48  C   UNL     1      -7.285  -5.168 -15.325  1.00  0.00     0.074 A 
ATOM     49  C   UNL     1      -4.642  -0.663 -18.916  1.00  0.00     0.029 A 
ATOM     50  N   UNL     1      -5.221  -2.007 -17.242  1.00  0.00    -0.354 N 
ATOM     51  N   UNL     1      -6.680  -4.220 -15.998  1.00  0.00    -0.248 NA
ATOM     52  C   UNL     1      -8.358  -5.839 -16.074  1.00  0.00     0.031 C 
ATOM     53  C   UNL     1      -5.674  -1.497 -19.357  1.00  0.00     0.029 A 
ATOM     54  C   UNL     1      -6.023  -2.347 -18.320  1.00  0.00     0.049 A 
ATOM     55  H   UNL     1      -5.245  -2.443 -16.360  1.00  0.00     0.167 HD
ATOM     56  C   UNL     1      -7.278  -4.197 -17.252  1.00  0.00     0.074 A 
ATOM     57  C   UNL     1      -8.286  -5.236 -17.252  1.00  0.00     0.031 C 
ATOM     58  C   UNL     1      -7.016  -3.389 -18.308  1.00  0.00     0.037 A 
BRANCH  45  59
ATOM     59  C   UNL     1      -2.677   0.852 -17.208  1.00  0.00     0.064 A 
ATOM     60  C   UNL     1      -1.314   0.766 -17.527  1.00  0.00     0.173 A 
ATOM     61  C   UNL     1      -3.332   2.071 -17.437  1.00  0.00     0.173 A 
ATOM     62  F   UNL     1      -0.641  -0.375 -17.317  1.00  0.00    -0.203 F 
ATOM     63  C   UNL     1      -0.631   1.865 -18.043  1.00  0.00     0.198 A 
ATOM     64  C   UNL     1      -2.651   3.160 -17.975  1.00  0.00     0.198 A 
ATOM     65  F   UNL     1      -4.636   2.202 -17.153  1.00  0.00    -0.203 F 
ATOM     66  F   UNL     1       0.679   1.772 -18.312  1.00  0.00    -0.200 F 
ATOM     67  C   UNL     1      -1.301   3.057 -18.274  1.00  0.00     0.200 A 
ATOM     68  F   UNL     1      -3.304   4.307 -18.209  1.00  0.00    -0.200 F 
ATOM     69  F   UNL     1      -0.645   4.110 -18.782  1.00  0.00    -0.200 F 
ENDBRANCH  45  59
BRANCH  46  70
ATOM     70  C   UNL     1      -7.854  -6.738 -13.334  1.00  0.00     0.064 A 
ATOM     71  C   UNL     1      -7.770  -8.055 -13.806  1.00  0.00     0.173 A 
ATOM     72  C   UNL     1      -8.770  -6.471 -12.304  1.00  0.00     0.173 A 
ATOM     73  F   UNL     1      -6.930  -8.354 -14.808  1.00  0.00    -0.203 F 
ATOM     74  C   UNL     1      -8.585  -9.059 -13.287  1.00  0.00     0.198 A 
ATOM     75  C   UNL     1      -9.563  -7.482 -11.767  1.00  0.00     0.198 A 
ATOM     76  F   UNL     1      -8.892  -5.227 -11.819  1.00  0.00    -0.203 F 
ATOM     77  F   UNL     1      -8.521 -10.298 -13.792  1.00  0.00    -0.200 F 
ATOM     78  C   UNL     1      -9.477  -8.773 -12.264  1.00  0.00     0.200 A 
ATOM     79  F   UNL     1     -10.417  -7.202 -10.772  1.00  0.00    -0.200 F 
ATOM     80  F   UNL     1     -10.262  -9.738 -11.767  1.00  0.00    -0.200 F 
ENDBRANCH  46  70
BRANCH  58  81
ATOM     81  C   UNL     1      -7.807  -3.613 -19.564  1.00  0.00     0.064 A 
ATOM     82  C   UNL     1      -9.158  -3.246 -19.657  1.00  0.00     0.173 A 
ATOM     83  C   UNL     1      -7.193  -4.157 -20.702  1.00  0.00     0.173 A 
ATOM     84  F   UNL     1      -9.794  -2.736 -18.592  1.00  0.00    -0.203 F 
ATOM     85  C   UNL     1      -9.870  -3.436 -20.838  1.00  0.00     0.198 A 
ATOM     86  C   UNL     1      -7.901  -4.319 -21.890  1.00  0.00     0.198 A 
ATOM     87  F   UNL     1      -5.902  -4.517 -20.667  1.00  0.00    -0.203 F 
ATOM     88  F   UNL     1     -11.171  -3.118 -20.892  1.00  0.00    -0.200 F 
ATOM     89  C   UNL     1      -9.240  -3.965 -21.955  1.00  0.00     0.200 A 
ATOM     90  F   UNL     1      -7.287  -4.817 -22.972  1.00  0.00    -0.200 F 
ATOM     91  F   UNL     1      -9.926  -4.138 -23.093  1.00  0.00    -0.200 F 
ENDBRANCH  58  81
ENDBRANCH  32  33
ENDBRANCH  25  27
ENDBRANCH  24  25
ENDBRANCH  23  24
ENDBRANCH  22  23
ENDBRANCH  21  22
ENDBRANCH   1  21
TORSDOF 17
