REMARK SMILES CCCC[C@H](C(=O)OCCOCCOC(=O)c1ccc(-c2c3nc(c(-c4c(F)c(F)c(F)c(F)c4F)c4ccc([nH]4)c(-c4c(F)c(F)c(F)c(F)c4F)c4nc(c(-c5c(F)c(F)c(F)c(F)c5F)c5ccc2[nH]5)C=C4)C=C3)cc1)[C@@]1(O)CCc2ccc(OC)cc21
REMARK SMILES IDX 10 1 9 2 8 3 6 4 7 5 5 6 4 7 3 8 2 9 1 10 80 11 82 12 91 13
REMARK SMILES IDX 83 14 84 15 90 16 85 17 87 18 86 19 81 20 88 22 89 23 11 24
REMARK SMILES IDX 12 25 13 26 14 27 15 28 16 29 17 30 18 31 79 32 19 33 78 34
REMARK SMILES IDX 20 35 21 36 22 37 72 38 23 39 77 40 71 41 73 42 24 43 76 44
REMARK SMILES IDX 70 45 69 46 25 48 57 49 37 50 56 51 38 52 41 53 55 54 74 55
REMARK SMILES IDX 39 56 40 57 54 59 75 60 42 61 26 62 27 63 35 64 28 65 29 66
REMARK SMILES IDX 33 67 36 68 30 69 31 70 34 71 32 72 58 73 59 74 67 75 60 76
REMARK SMILES IDX 61 77 65 78 68 79 62 80 63 81 66 82 64 83 43 84 44 85 52 86
REMARK SMILES IDX 45 87 46 88 50 89 53 90 47 91 48 92 51 93 49 94
REMARK H PARENT 81 21 73 47 41 58
REMARK Flexibility Score: inf
ROOT
ATOM      1  C   UNL     1       3.493   2.298   2.375  1.00  0.00     0.202 C 
ENDROOT
BRANCH   1   2
ATOM      2  C   UNL     1       2.534   1.723   1.315  1.00  0.00     0.261 C 
BRANCH   2   3
ATOM      3  O   UNL     1       1.177   2.013   1.720  1.00  0.00    -0.463 OA
BRANCH   3   4
ATOM      4  C   UNL     1       0.230   1.026   1.735  1.00  0.00     0.312 C 
ATOM      5  O   UNL     1       0.397  -0.111   1.324  1.00  0.00    -0.252 OA
BRANCH   4   6
ATOM      6  C   UNL     1      -1.056   1.598   2.350  1.00  0.00     0.135 C 
BRANCH   6   7
ATOM      7  C   UNL     1      -2.319   0.657   2.378  1.00  0.00     0.019 C 
BRANCH   7   8
ATOM      8  C   UNL     1      -3.478   1.068   3.315  1.00  0.00     0.001 C 
BRANCH   8   9
ATOM      9  C   UNL     1      -4.628   1.879   2.728  1.00  0.00    -0.003 C 
ATOM     10  C   UNL     1      -5.941   1.130   2.878  1.00  0.00     0.004 C 
ENDBRANCH   8   9
ENDBRANCH   7   8
ENDBRANCH   6   7
BRANCH   6  11
ATOM     11  C   UNL     1      -0.602   2.379   3.673  1.00  0.00     0.104 C 
ATOM     12  C   UNL     1      -0.696   3.337   4.944  1.00  0.00     0.046 C 
ATOM     13  C   UNL     1      -0.786   1.132   4.690  1.00  0.00    -0.009 A 
ATOM     14  C   UNL     1      -1.714   2.865   5.988  1.00  0.00     0.039 C 
ATOM     15  C   UNL     1      -1.512   1.413   5.847  1.00  0.00    -0.042 A 
ATOM     16  C   UNL     1      -0.290  -0.180   4.561  1.00  0.00     0.053 A 
ATOM     17  C   UNL     1      -1.992   0.412   6.689  1.00  0.00     0.008 A 
ATOM     18  C   UNL     1      -0.678  -1.179   5.460  1.00  0.00     0.119 A 
ATOM     19  C   UNL     1      -1.600  -0.904   6.464  1.00  0.00     0.047 A 
BRANCH  11  20
ATOM     20  O   UNL     1      -1.461   3.473   3.090  1.00  0.00    -0.384 OA
ATOM     21  H   UNL     1      -0.925   4.026   2.501  1.00  0.00     0.211 HD
ENDBRANCH  11  20
BRANCH  18  22
ATOM     22  O   UNL     1      -0.246  -2.472   5.327  1.00  0.00    -0.497 OA
ATOM     23  C   UNL     1       1.157  -2.578   5.580  1.00  0.00     0.278 C 
ENDBRANCH  18  22
ENDBRANCH   6  11
ENDBRANCH   4   6
ENDBRANCH   3   4
ENDBRANCH   2   3
ENDBRANCH   1   2
BRANCH   1  24
ATOM     24  O   UNL     1       3.901   1.378   3.401  1.00  0.00    -0.374 OA
BRANCH  24  25
ATOM     25  C   UNL     1       2.860   0.905   4.251  1.00  0.00     0.202 C 
BRANCH  25  26
ATOM     26  C   UNL     1       2.699   1.644   5.581  1.00  0.00     0.261 C 
BRANCH  26  27
ATOM     27  O   UNL     1       2.657   3.054   5.362  1.00  0.00    -0.460 OA
BRANCH  27  28
ATOM     28  C   UNL     1       3.829   3.667   5.635  1.00  0.00     0.338 C 
ATOM     29  O   UNL     1       4.802   3.210   6.197  1.00  0.00    -0.246 OA
BRANCH  28  30
ATOM     30  C   UNL     1       3.835   4.973   4.970  1.00  0.00     0.060 A 
ATOM     31  C   UNL     1       4.936   5.238   4.153  1.00  0.00     0.016 A 
ATOM     32  C   UNL     1       2.839   5.929   5.191  1.00  0.00     0.016 A 
ATOM     33  C   UNL     1       5.101   6.506   3.626  1.00  0.00     0.010 A 
ATOM     34  C   UNL     1       3.001   7.204   4.651  1.00  0.00     0.010 A 
ATOM     35  C   UNL     1       4.163   7.505   3.920  1.00  0.00    -0.014 A 
BRANCH  35  36
ATOM     36  C   UNL     1       4.525   8.900   3.605  1.00  0.00     0.031 A 
ATOM     37  C   UNL     1       5.045   9.771   4.711  1.00  0.00     0.074 A 
ATOM     38  C   UNL     1       4.489   9.322   2.332  1.00  0.00     0.049 A 
ATOM     39  N   UNL     1       5.498  10.996   4.659  1.00  0.00    -0.248 NA
ATOM     40  C   UNL     1       5.059   9.183   6.061  1.00  0.00     0.031 C 
ATOM     41  C   UNL     1       4.037   8.520   1.195  1.00  0.00     0.029 A 
ATOM     42  N   UNL     1       4.855  10.519   1.779  1.00  0.00    -0.354 N 
ATOM     43  C   UNL     1       5.846  11.323   5.964  1.00  0.00     0.074 A 
ATOM     44  C   UNL     1       5.514  10.188   6.793  1.00  0.00     0.031 C 
ATOM     45  C   UNL     1       4.166   9.245   0.073  1.00  0.00     0.029 A 
ATOM     46  C   UNL     1       4.674  10.570   0.421  1.00  0.00     0.049 A 
ATOM     47  H   UNL     1       5.214  11.270   2.305  1.00  0.00     0.167 HD
ATOM     48  C   UNL     1       6.407  12.468   6.418  1.00  0.00     0.037 A 
ATOM     49  C   UNL     1       4.886  11.585  -0.436  1.00  0.00     0.037 A 
ATOM     50  C   UNL     1       6.729  13.582   5.566  1.00  0.00     0.049 A 
ATOM     51  C   UNL     1       5.452  12.870   0.105  1.00  0.00     0.074 A 
ATOM     52  C   UNL     1       7.308  14.790   5.905  1.00  0.00     0.029 A 
ATOM     53  N   UNL     1       6.484  13.621   4.199  1.00  0.00    -0.354 N 
ATOM     54  N   UNL     1       5.803  13.168   1.334  1.00  0.00    -0.248 NA
ATOM     55  C   UNL     1       5.661  13.957  -0.858  1.00  0.00     0.031 C 
ATOM     56  C   UNL     1       7.353  15.585   4.755  1.00  0.00     0.029 A 
ATOM     57  C   UNL     1       6.871  14.847   3.684  1.00  0.00     0.049 A 
ATOM     58  H   UNL     1       6.094  12.885   3.674  1.00  0.00     0.167 HD
ATOM     59  C   UNL     1       6.297  14.463   1.290  1.00  0.00     0.074 A 
ATOM     60  C   UNL     1       6.216  14.887  -0.094  1.00  0.00     0.031 C 
ATOM     61  C   UNL     1       6.777  15.235   2.298  1.00  0.00     0.037 A 
BRANCH  48  62
ATOM     62  C   UNL     1       6.662  12.582   7.895  1.00  0.00     0.064 A 
ATOM     63  C   UNL     1       7.631  11.803   8.548  1.00  0.00     0.173 A 
ATOM     64  C   UNL     1       5.929  13.495   8.670  1.00  0.00     0.173 A 
ATOM     65  F   UNL     1       8.349  10.902   7.860  1.00  0.00    -0.203 F 
ATOM     66  C   UNL     1       7.832  11.911   9.922  1.00  0.00     0.198 A 
ATOM     67  C   UNL     1       6.158  13.624  10.037  1.00  0.00     0.198 A 
ATOM     68  F   UNL     1       4.990  14.264   8.100  1.00  0.00    -0.203 F 
ATOM     69  F   UNL     1       8.722  11.115  10.532  1.00  0.00    -0.200 F 
ATOM     70  C   UNL     1       7.101  12.826  10.664  1.00  0.00     0.200 A 
ATOM     71  F   UNL     1       5.458  14.518  10.749  1.00  0.00    -0.200 F 
ATOM     72  F   UNL     1       7.299  12.932  11.986  1.00  0.00    -0.200 F 
ENDBRANCH  48  62
BRANCH  49  73
ATOM     73  C   UNL     1       4.555  11.418  -1.875  1.00  0.00     0.064 A 
ATOM     74  C   UNL     1       5.554  11.407  -2.858  1.00  0.00     0.173 A 
ATOM     75  C   UNL     1       3.227  11.248  -2.296  1.00  0.00     0.173 A 
ATOM     76  F   UNL     1       6.837  11.580  -2.510  1.00  0.00    -0.203 F 
ATOM     77  C   UNL     1       5.235  11.250  -4.206  1.00  0.00     0.198 A 
ATOM     78  C   UNL     1       2.913  11.059  -3.639  1.00  0.00     0.198 A 
ATOM     79  F   UNL     1       2.232  11.245  -1.396  1.00  0.00    -0.203 F 
ATOM     80  F   UNL     1       6.206  11.285  -5.129  1.00  0.00    -0.200 F 
ATOM     81  C   UNL     1       3.917  11.068  -4.595  1.00  0.00     0.200 A 
ATOM     82  F   UNL     1       1.639  10.864  -4.006  1.00  0.00    -0.200 F 
ATOM     83  F   UNL     1       3.613  10.907  -5.890  1.00  0.00    -0.200 F 
ENDBRANCH  49  73
BRANCH  61  84
ATOM     84  C   UNL     1       7.283  16.600   1.931  1.00  0.00     0.064 A 
ATOM     85  C   UNL     1       6.415  17.628   1.536  1.00  0.00     0.173 A 
ATOM     86  C   UNL     1       8.653  16.892   2.021  1.00  0.00     0.173 A 
ATOM     87  F   UNL     1       5.099  17.396   1.422  1.00  0.00    -0.203 F 
ATOM     88  C   UNL     1       6.905  18.891   1.214  1.00  0.00     0.198 A 
ATOM     89  C   UNL     1       9.134  18.165   1.735  1.00  0.00     0.198 A 
ATOM     90  F   UNL     1       9.523  15.946   2.404  1.00  0.00    -0.203 F 
ATOM     91  F   UNL     1       6.065  19.843   0.784  1.00  0.00    -0.200 F 
ATOM     92  C   UNL     1       8.261  19.161   1.322  1.00  0.00     0.200 A 
ATOM     93  F   UNL     1      10.441  18.429   1.860  1.00  0.00    -0.200 F 
ATOM     94  F   UNL     1       8.729  20.380   1.022  1.00  0.00    -0.200 F 
ENDBRANCH  61  84
ENDBRANCH  35  36
ENDBRANCH  28  30
ENDBRANCH  27  28
ENDBRANCH  26  27
ENDBRANCH  25  26
ENDBRANCH  24  25
ENDBRANCH   1  24
TORSDOF 20
