REMARK SMILES COCCC(=O)N1Cc2ccccc2C[C@H]1C(=O)OCCOCCOC(=O)c1ccc(-c2c3nc(c(-c4c(F)c(F)c(F)c(F)c4F)c4ccc([nH]4)c(-c4c(F)c(F)c(F)c(F)c4F)c4nc(c(-c5c(F)c(F)c(F)c(F)c5F)c5ccc2[nH]5)C=C4)C=C3)cc1
REMARK SMILES IDX 21 1 20 2 19 3 17 4 18 5 16 6 7 7 8 8 9 9 15 10 10 11 14 12
REMARK SMILES IDX 11 13 13 14 12 15 5 16 6 17 4 18 3 19 2 20 1 21 22 22 23 23
REMARK SMILES IDX 24 24 25 25 26 26 27 27 28 28 29 29 90 30 30 31 89 32 31 33
REMARK SMILES IDX 32 34 33 35 83 36 34 37 88 38 82 39 84 40 35 41 87 42 81 43
REMARK SMILES IDX 80 44 36 46 68 47 48 48 67 49 49 50 52 51 66 52 85 53 50 54
REMARK SMILES IDX 51 55 65 57 86 58 53 59 37 60 38 61 46 62 39 63 40 64 44 65
REMARK SMILES IDX 47 66 41 67 42 68 45 69 43 70 69 71 70 72 78 73 71 74 72 75
REMARK SMILES IDX 76 76 79 77 73 78 74 79 77 80 75 81 54 82 55 83 63 84 56 85
REMARK SMILES IDX 57 86 61 87 64 88 58 89 59 90 62 91 60 92
REMARK H PARENT 84 45 52 56
REMARK Flexibility Score: inf
ROOT
ATOM      1  C   UNL     1      -2.258   0.498  -3.138  1.00  0.00     0.202 C 
ENDROOT
BRANCH   1   2
ATOM      2  C   UNL     1      -2.315  -0.332  -1.850  1.00  0.00     0.261 C 
BRANCH   2   3
ATOM      3  O   UNL     1      -1.490   0.135  -0.756  1.00  0.00    -0.462 OA
BRANCH   3   4
ATOM      4  C   UNL     1      -0.487  -0.721  -0.421  1.00  0.00     0.329 C 
ATOM      5  O   UNL     1      -0.157  -1.686  -1.109  1.00  0.00    -0.250 OA
BRANCH   4   6
ATOM      6  C   UNL     1       0.080  -0.552   0.995  1.00  0.00     0.199 C 
ATOM      7  N   UNL     1       0.150   0.741   1.754  1.00  0.00    -0.324 N 
ATOM      8  C   UNL     1      -0.257   0.681   3.166  1.00  0.00     0.156 C 
ATOM      9  C   UNL     1       0.267  -0.573   3.820  1.00  0.00    -0.025 A 
ATOM     10  C   UNL     1      -0.639  -1.669   1.804  1.00  0.00     0.073 C 
ATOM     11  C   UNL     1       1.002  -0.576   5.005  1.00  0.00     0.006 A 
ATOM     12  C   UNL     1       0.032  -1.782   3.144  1.00  0.00    -0.040 A 
ATOM     13  C   UNL     1       1.489  -1.783   5.510  1.00  0.00     0.000 A 
ATOM     14  C   UNL     1       0.494  -2.989   3.663  1.00  0.00     0.004 A 
ATOM     15  C   UNL     1       1.229  -2.985   4.846  1.00  0.00     0.000 A 
BRANCH   7  16
ATOM     16  C   UNL     1       1.247   1.583   1.526  1.00  0.00     0.225 C 
ATOM     17  O   UNL     1       2.060   1.868   2.405  1.00  0.00    -0.275 OA
BRANCH  16  18
ATOM     18  C   UNL     1       1.278   2.287   0.196  1.00  0.00     0.128 C 
BRANCH  18  19
ATOM     19  C   UNL     1       2.691   2.459  -0.346  1.00  0.00     0.169 C 
BRANCH  19  20
ATOM     20  O   UNL     1       2.951   1.581  -1.446  1.00  0.00    -0.384 OA
ATOM     21  C   UNL     1       3.226   0.244  -1.051  1.00  0.00     0.194 C 
ENDBRANCH  19  20
ENDBRANCH  18  19
ENDBRANCH  16  18
ENDBRANCH   7  16
ENDBRANCH   4   6
ENDBRANCH   3   4
ENDBRANCH   2   3
ENDBRANCH   1   2
BRANCH   1  22
ATOM     22  O   UNL     1      -1.036   0.487  -3.870  1.00  0.00    -0.374 OA
BRANCH  22  23
ATOM     23  C   UNL     1       0.085   1.166  -3.301  1.00  0.00     0.202 C 
BRANCH  23  24
ATOM     24  C   UNL     1      -0.065   2.686  -3.167  1.00  0.00     0.261 C 
BRANCH  24  25
ATOM     25  O   UNL     1      -1.111   3.007  -2.232  1.00  0.00    -0.460 OA
BRANCH  25  26
ATOM     26  C   UNL     1      -1.667   4.223  -2.431  1.00  0.00     0.338 C 
ATOM     27  O   UNL     1      -1.204   5.158  -3.059  1.00  0.00    -0.246 OA
BRANCH  26  28
ATOM     28  C   UNL     1      -3.060   4.179  -1.955  1.00  0.00     0.060 A 
ATOM     29  C   UNL     1      -4.061   3.923  -2.901  1.00  0.00     0.016 A 
ATOM     30  C   UNL     1      -3.386   4.457  -0.628  1.00  0.00     0.016 A 
ATOM     31  C   UNL     1      -5.402   3.984  -2.526  1.00  0.00     0.010 A 
ATOM     32  C   UNL     1      -4.735   4.521  -0.255  1.00  0.00     0.010 A 
ATOM     33  C   UNL     1      -5.748   4.318  -1.209  1.00  0.00    -0.014 A 
BRANCH  33  34
ATOM     34  C   UNL     1      -7.171   4.590  -0.888  1.00  0.00     0.031 A 
ATOM     35  C   UNL     1      -7.671   6.008  -0.927  1.00  0.00     0.074 A 
ATOM     36  C   UNL     1      -8.023   3.583  -0.625  1.00  0.00     0.049 A 
ATOM     37  N   UNL     1      -8.887   6.466  -0.765  1.00  0.00    -0.248 NA
ATOM     38  C   UNL     1      -6.666   7.050  -1.188  1.00  0.00     0.031 C 
ATOM     39  C   UNL     1      -7.664   2.168  -0.576  1.00  0.00     0.029 A 
ATOM     40  N   UNL     1      -9.369   3.600  -0.356  1.00  0.00    -0.354 N 
ATOM     41  C   UNL     1      -8.795   7.843  -0.916  1.00  0.00     0.074 A 
ATOM     42  C   UNL     1      -7.400   8.152  -1.146  1.00  0.00     0.031 C 
ATOM     43  C   UNL     1      -8.765   1.450  -0.293  1.00  0.00     0.029 A 
ATOM     44  C   UNL     1      -9.902   2.356  -0.130  1.00  0.00     0.049 A 
ATOM     45  H   UNL     1      -9.902   4.428  -0.328  1.00  0.00     0.167 HD
ATOM     46  C   UNL     1      -9.786   8.765  -0.882  1.00  0.00     0.037 A 
ATOM     47  C   UNL     1     -11.163   1.991   0.174  1.00  0.00     0.037 A 
ATOM     48  C   UNL     1     -11.173   8.461  -0.646  1.00  0.00     0.049 A 
ATOM     49  C   UNL     1     -12.238   3.043   0.260  1.00  0.00     0.074 A 
ATOM     50  C   UNL     1     -12.254   9.325  -0.616  1.00  0.00     0.029 A 
ATOM     51  N   UNL     1     -11.667   7.192  -0.387  1.00  0.00    -0.354 N 
ATOM     52  N   UNL     1     -12.150   4.335   0.057  1.00  0.00    -0.248 NA
ATOM     53  C   UNL     1     -13.591   2.583   0.609  1.00  0.00     0.031 C 
ATOM     54  C   UNL     1     -13.396   8.584  -0.294  1.00  0.00     0.029 A 
ATOM     55  C   UNL     1     -13.034   7.253  -0.168  1.00  0.00     0.049 A 
ATOM     56  H   UNL     1     -11.127   6.369  -0.363  1.00  0.00     0.167 HD
ATOM     57  C   UNL     1     -13.434   4.838   0.228  1.00  0.00     0.074 A 
ATOM     58  C   UNL     1     -14.287   3.710   0.538  1.00  0.00     0.031 C 
ATOM     59  C   UNL     1     -13.868   6.119   0.136  1.00  0.00     0.037 A 
BRANCH  46  60
ATOM     60  C   UNL     1      -9.401  10.200  -1.090  1.00  0.00     0.064 A 
ATOM     61  C   UNL     1      -9.038  10.685  -2.355  1.00  0.00     0.173 A 
ATOM     62  C   UNL     1      -9.426  11.105  -0.019  1.00  0.00     0.173 A 
ATOM     63  F   UNL     1      -8.987   9.855  -3.408  1.00  0.00    -0.203 F 
ATOM     64  C   UNL     1      -8.693  12.022  -2.536  1.00  0.00     0.198 A 
ATOM     65  C   UNL     1      -9.103  12.446  -0.208  1.00  0.00     0.198 A 
ATOM     66  F   UNL     1      -9.769  10.690   1.209  1.00  0.00    -0.203 F 
ATOM     67  F   UNL     1      -8.312  12.457  -3.745  1.00  0.00    -0.200 F 
ATOM     68  C   UNL     1      -8.731  12.902  -1.464  1.00  0.00     0.200 A 
ATOM     69  F   UNL     1      -9.149  13.297   0.826  1.00  0.00    -0.200 F 
ATOM     70  F   UNL     1      -8.403  14.190  -1.641  1.00  0.00    -0.200 F 
ENDBRANCH  46  60
BRANCH  47  71
ATOM     71  C   UNL     1     -11.484   0.560   0.413  1.00  0.00     0.064 A 
ATOM     72  C   UNL     1     -12.274  -0.167  -0.489  1.00  0.00     0.173 A 
ATOM     73  C   UNL     1     -11.019  -0.105   1.557  1.00  0.00     0.173 A 
ATOM     74  F   UNL     1     -12.762   0.433  -1.584  1.00  0.00    -0.203 F 
ATOM     75  C   UNL     1     -12.600  -1.500  -0.247  1.00  0.00     0.198 A 
ATOM     76  C   UNL     1     -11.325  -1.445   1.785  1.00  0.00     0.198 A 
ATOM     77  F   UNL     1     -10.261   0.546   2.451  1.00  0.00    -0.203 F 
ATOM     78  F   UNL     1     -13.392  -2.159  -1.103  1.00  0.00    -0.200 F 
ATOM     79  C   UNL     1     -12.121  -2.139   0.887  1.00  0.00     0.200 A 
ATOM     80  F   UNL     1     -10.851  -2.062   2.876  1.00  0.00    -0.200 F 
ATOM     81  F   UNL     1     -12.432  -3.422   1.117  1.00  0.00    -0.200 F 
ENDBRANCH  47  71
BRANCH  59  82
ATOM     82  C   UNL     1     -15.332   6.369   0.351  1.00  0.00     0.064 A 
ATOM     83  C   UNL     1     -15.906   6.308   1.629  1.00  0.00     0.173 A 
ATOM     84  C   UNL     1     -16.160   6.718  -0.727  1.00  0.00     0.173 A 
ATOM     85  F   UNL     1     -15.158   5.965   2.689  1.00  0.00    -0.203 F 
ATOM     86  C   UNL     1     -17.261   6.568   1.818  1.00  0.00     0.198 A 
ATOM     87  C   UNL     1     -17.509   7.002  -0.531  1.00  0.00     0.198 A 
ATOM     88  F   UNL     1     -15.657   6.795  -1.968  1.00  0.00    -0.203 F 
ATOM     89  F   UNL     1     -17.797   6.465   3.042  1.00  0.00    -0.200 F 
ATOM     90  C   UNL     1     -18.059   6.921   0.740  1.00  0.00     0.200 A 
ATOM     91  F   UNL     1     -18.276   7.354  -1.571  1.00  0.00    -0.200 F 
ATOM     92  F   UNL     1     -19.361   7.177   0.924  1.00  0.00    -0.200 F 
ENDBRANCH  59  82
ENDBRANCH  33  34
ENDBRANCH  26  28
ENDBRANCH  25  26
ENDBRANCH  24  25
ENDBRANCH  23  24
ENDBRANCH  22  23
ENDBRANCH   1  22
TORSDOF 18
