REMARK SMILES CC(C)C[C@@H](NS(=O)(=O)/C=C/c1ccc(Cl)cc1)C(=O)OCCOCCOC(=O)c1ccc(-c2c3nc(c(-c4c(F)c(F)c(F)c(F)c4F)c4ccc([nH]4)c(-c4c(F)c(F)c(F)c(F)c4F)c4nc(c(-c5c(F)c(F)c(F)c(F)c5F)c5ccc2[nH]5)C=C4)C=C3)cc1
REMARK SMILES IDX 23 1 22 2 21 3 19 4 20 5 5 6 4 7 2 8 1 9 3 10 6 11 7 13 8 14
REMARK SMILES IDX 9 15 10 16 11 17 12 18 13 19 18 20 14 21 17 22 15 23 16 24
REMARK SMILES IDX 24 25 25 26 26 27 27 28 28 29 29 30 30 31 31 32 92 33 32 34
REMARK SMILES IDX 91 35 33 36 34 37 35 38 85 39 36 40 90 41 84 42 86 43 37 44
REMARK SMILES IDX 89 45 83 46 82 47 38 49 70 50 50 51 69 52 51 53 54 54 68 55
REMARK SMILES IDX 87 56 52 57 53 58 67 60 88 61 55 62 39 63 40 64 48 65 41 66
REMARK SMILES IDX 42 67 46 68 49 69 43 70 44 71 47 72 45 73 71 74 72 75 80 76
REMARK SMILES IDX 73 77 74 78 78 79 81 80 75 81 76 82 79 83 77 84 56 85 57 86
REMARK SMILES IDX 65 87 58 88 59 89 63 90 66 91 60 92 61 93 64 94 62 95
REMARK H PARENT 6 12 86 48 54 59
REMARK Flexibility Score: inf
ROOT
ATOM      1  C   UNL     1      -5.714   0.571  -0.747  1.00  0.00     0.202 C 
ENDROOT
BRANCH   1   2
ATOM      2  C   UNL     1      -4.880   1.856  -0.869  1.00  0.00     0.261 C 
BRANCH   2   3
ATOM      3  O   UNL     1      -3.466   1.784  -0.734  1.00  0.00    -0.462 OA
BRANCH   3   4
ATOM      4  C   UNL     1      -2.953   1.444   0.480  1.00  0.00     0.324 C 
ATOM      5  O   UNL     1      -3.590   1.005   1.426  1.00  0.00    -0.250 OA
BRANCH   4   6
ATOM      6  C   UNL     1      -1.461   1.757   0.546  1.00  0.00     0.180 C 
BRANCH   6   7
ATOM      7  C   UNL     1      -0.825   1.471  -0.836  1.00  0.00     0.035 C 
BRANCH   7   8
ATOM      8  C   UNL     1       0.695   1.239  -0.904  1.00  0.00    -0.015 C 
ATOM      9  C   UNL     1       1.180   0.138   0.038  1.00  0.00     0.007 C 
ATOM     10  C   UNL     1       1.065   0.854  -2.346  1.00  0.00     0.007 C 
ENDBRANCH   7   8
ENDBRANCH   6   7
BRANCH   6  11
ATOM     11  N   UNL     1      -1.307   3.192   0.933  1.00  0.00    -0.197 NA
ATOM     12  H   UNL     1      -1.918   3.742   0.329  1.00  0.00     0.142 HD
BRANCH  11  13
ATOM     13  S   UNL     1      -1.678   3.603   2.555  1.00  0.00     0.234 S 
ATOM     14  O   UNL     1      -0.930   2.660   3.357  1.00  0.00    -0.208 OA
ATOM     15  O   UNL     1      -1.371   5.018   2.635  1.00  0.00    -0.208 OA
BRANCH  13  16
ATOM     16  C   UNL     1      -3.370   3.381   2.863  1.00  0.00     0.123 C 
ATOM     17  C   UNL     1      -4.292   4.045   2.150  1.00  0.00     0.021 C 
BRANCH  17  18
ATOM     18  C   UNL     1      -5.749   3.807   2.220  1.00  0.00    -0.025 A 
ATOM     19  C   UNL     1      -6.619   4.886   2.025  1.00  0.00     0.009 A 
ATOM     20  C   UNL     1      -6.298   2.515   2.279  1.00  0.00     0.009 A 
ATOM     21  C   UNL     1      -7.991   4.678   1.839  1.00  0.00     0.021 A 
ATOM     22  C   UNL     1      -7.666   2.301   2.063  1.00  0.00     0.021 A 
ATOM     23  C   UNL     1      -8.504   3.384   1.826  1.00  0.00     0.041 A 
ATOM     24  Cl  UNL     1     -10.166   3.121   1.470  1.00  0.00    -0.084 Cl
ENDBRANCH  17  18
ENDBRANCH  13  16
ENDBRANCH  11  13
ENDBRANCH   6  11
ENDBRANCH   4   6
ENDBRANCH   3   4
ENDBRANCH   2   3
ENDBRANCH   1   2
BRANCH   1  25
ATOM     25  O   UNL     1      -5.145  -0.636  -0.278  1.00  0.00    -0.374 OA
BRANCH  25  26
ATOM     26  C   UNL     1      -4.025  -1.199  -0.947  1.00  0.00     0.202 C 
BRANCH  26  27
ATOM     27  C   UNL     1      -4.124  -1.479  -2.446  1.00  0.00     0.261 C 
BRANCH  27  28
ATOM     28  O   UNL     1      -4.382  -0.294  -3.220  1.00  0.00    -0.460 OA
BRANCH  28  29
ATOM     29  C   UNL     1      -5.535  -0.325  -3.935  1.00  0.00     0.338 C 
ATOM     30  O   UNL     1      -6.333  -1.240  -4.022  1.00  0.00    -0.246 OA
BRANCH  29  31
ATOM     31  C   UNL     1      -5.814   1.018  -4.472  1.00  0.00     0.060 A 
ATOM     32  C   UNL     1      -6.970   1.682  -4.035  1.00  0.00     0.016 A 
ATOM     33  C   UNL     1      -4.988   1.586  -5.440  1.00  0.00     0.016 A 
ATOM     34  C   UNL     1      -7.309   2.921  -4.573  1.00  0.00     0.010 A 
ATOM     35  C   UNL     1      -5.347   2.813  -6.001  1.00  0.00     0.010 A 
ATOM     36  C   UNL     1      -6.518   3.475  -5.585  1.00  0.00    -0.014 A 
BRANCH  36  37
ATOM     37  C   UNL     1      -6.976   4.677  -6.319  1.00  0.00     0.031 A 
ATOM     38  C   UNL     1      -7.660   4.492  -7.643  1.00  0.00     0.074 A 
ATOM     39  C   UNL     1      -6.753   5.909  -5.829  1.00  0.00     0.049 A 
ATOM     40  N   UNL     1      -7.992   5.387  -8.536  1.00  0.00    -0.248 NA
ATOM     41  C   UNL     1      -8.011   3.111  -8.013  1.00  0.00     0.031 C 
ATOM     42  C   UNL     1      -6.150   6.206  -4.532  1.00  0.00     0.029 A 
ATOM     43  N   UNL     1      -6.981   7.142  -6.387  1.00  0.00    -0.354 N 
ATOM     44  C   UNL     1      -8.567   4.678  -9.582  1.00  0.00     0.074 A 
ATOM     45  C   UNL     1      -8.537   3.278  -9.218  1.00  0.00     0.031 C 
ATOM     46  C   UNL     1      -6.016   7.538  -4.410  1.00  0.00     0.029 A 
ATOM     47  C   UNL     1      -6.480   8.180  -5.639  1.00  0.00     0.049 A 
ATOM     48  H   UNL     1      -7.458   7.271  -7.239  1.00  0.00     0.167 HD
ATOM     49  C   UNL     1      -9.067   5.158 -10.744  1.00  0.00     0.037 A 
ATOM     50  C   UNL     1      -6.360   9.488  -5.941  1.00  0.00     0.037 A 
ATOM     51  C   UNL     1      -9.106   6.554 -11.090  1.00  0.00     0.049 A 
ATOM     52  C   UNL     1      -6.853   9.982  -7.280  1.00  0.00     0.074 A 
ATOM     53  C   UNL     1      -9.643   7.145 -12.220  1.00  0.00     0.029 A 
ATOM     54  N   UNL     1      -8.575   7.574 -10.316  1.00  0.00    -0.354 N 
ATOM     55  N   UNL     1      -7.434   9.315  -8.248  1.00  0.00    -0.248 NA
ATOM     56  C   UNL     1      -6.665  11.412  -7.572  1.00  0.00     0.031 C 
ATOM     57  C   UNL     1      -9.374   8.515 -12.163  1.00  0.00     0.029 A 
ATOM     58  C   UNL     1      -8.727   8.786 -10.968  1.00  0.00     0.049 A 
ATOM     59  H   UNL     1      -8.152   7.454  -9.435  1.00  0.00     0.167 HD
ATOM     60  C   UNL     1      -7.700  10.244  -9.248  1.00  0.00     0.074 A 
ATOM     61  C   UNL     1      -7.239  11.526  -8.760  1.00  0.00     0.031 C 
ATOM     62  C   UNL     1      -8.269  10.054 -10.463  1.00  0.00     0.037 A 
BRANCH  49  63
ATOM     63  C   UNL     1      -9.581   4.177 -11.754  1.00  0.00     0.064 A 
ATOM     64  C   UNL     1     -10.796   3.500 -11.579  1.00  0.00     0.173 A 
ATOM     65  C   UNL     1      -8.887   3.983 -12.958  1.00  0.00     0.173 A 
ATOM     66  F   UNL     1     -11.491   3.641 -10.441  1.00  0.00    -0.203 F 
ATOM     67  C   UNL     1     -11.296   2.662 -12.573  1.00  0.00     0.198 A 
ATOM     68  C   UNL     1      -9.402   3.167 -13.960  1.00  0.00     0.198 A 
ATOM     69  F   UNL     1      -7.720   4.609 -13.174  1.00  0.00    -0.203 F 
ATOM     70  F   UNL     1     -12.448   2.007 -12.378  1.00  0.00    -0.200 F 
ATOM     71  C   UNL     1     -10.605   2.506 -13.767  1.00  0.00     0.200 A 
ATOM     72  F   UNL     1      -8.740   3.029 -15.117  1.00  0.00    -0.200 F 
ATOM     73  F   UNL     1     -11.100   1.719 -14.732  1.00  0.00    -0.200 F 
ENDBRANCH  49  63
BRANCH  50  74
ATOM     74  C   UNL     1      -5.688  10.422  -4.996  1.00  0.00     0.064 A 
ATOM     75  C   UNL     1      -6.385  11.487  -4.408  1.00  0.00     0.173 A 
ATOM     76  C   UNL     1      -4.318  10.308  -4.714  1.00  0.00     0.173 A 
ATOM     77  F   UNL     1      -7.690  11.657  -4.667  1.00  0.00    -0.203 F 
ATOM     78  C   UNL     1      -5.731  12.420  -3.605  1.00  0.00     0.198 A 
ATOM     79  C   UNL     1      -3.673  11.220  -3.882  1.00  0.00     0.198 A 
ATOM     80  F   UNL     1      -3.601   9.310  -5.253  1.00  0.00    -0.203 F 
ATOM     81  F   UNL     1      -6.407  13.469  -3.116  1.00  0.00    -0.200 F 
ATOM     82  C   UNL     1      -4.377  12.284  -3.340  1.00  0.00     0.200 A 
ATOM     83  F   UNL     1      -2.367  11.076  -3.619  1.00  0.00    -0.200 F 
ATOM     84  F   UNL     1      -3.747  13.187  -2.576  1.00  0.00    -0.200 F 
ENDBRANCH  50  74
BRANCH  62  85
ATOM     85  C   UNL     1      -8.448  11.258 -11.343  1.00  0.00     0.064 A 
ATOM     86  C   UNL     1      -7.357  11.886 -11.960  1.00  0.00     0.173 A 
ATOM     87  C   UNL     1      -9.733  11.752 -11.620  1.00  0.00     0.173 A 
ATOM     88  F   UNL     1      -6.107  11.461 -11.716  1.00  0.00    -0.203 F 
ATOM     89  C   UNL     1      -7.543  12.976 -12.806  1.00  0.00     0.198 A 
ATOM     90  C   UNL     1      -9.917  12.820 -12.493  1.00  0.00     0.198 A 
ATOM     91  F   UNL     1     -10.812  11.182 -11.063  1.00  0.00    -0.203 F 
ATOM     92  F   UNL     1      -6.481  13.588 -13.349  1.00  0.00    -0.200 F 
ATOM     93  C   UNL     1      -8.822  13.436 -13.079  1.00  0.00     0.200 A 
ATOM     94  F   UNL     1     -11.156  13.251 -12.770  1.00  0.00    -0.200 F 
ATOM     95  F   UNL     1      -9.000  14.476 -13.905  1.00  0.00    -0.200 F 
ENDBRANCH  62  85
ENDBRANCH  36  37
ENDBRANCH  29  31
ENDBRANCH  28  29
ENDBRANCH  27  28
ENDBRANCH  26  27
ENDBRANCH  25  26
ENDBRANCH   1  25
TORSDOF 20
