REMARK SMILES C[C@H](O)[C@@H](NS(=O)(=O)c1ccc(F)cc1)C(=O)OCCOCCOC(=O)c1ccc(-c2c3nc(c(-c4c(F)c(F)c(F)c(F)c4F)c4ccc([nH]4)c(-c4c(F)c(F)c(F)c(F)c4F)c4nc(c(-c5c(F)c(F)c(F)c(F)c5F)c5ccc2[nH]5)C=C4)C=C3)cc1
REMARK SMILES IDX 20 1 19 2 18 3 16 4 17 5 4 6 2 7 1 8 3 9 5 11 6 13 7 14 8 15
REMARK SMILES IDX 9 16 10 17 15 18 11 19 14 20 12 21 13 22 21 23 22 24 23 25
REMARK SMILES IDX 24 26 25 27 26 28 27 29 28 30 89 31 29 32 88 33 30 34 31 35
REMARK SMILES IDX 32 36 82 37 33 38 87 39 81 40 83 41 34 42 86 43 80 44 79 45
REMARK SMILES IDX 35 47 67 48 47 49 66 50 48 51 51 52 65 53 84 54 49 55 50 56
REMARK SMILES IDX 64 58 85 59 52 60 36 61 37 62 45 63 38 64 39 65 43 66 46 67
REMARK SMILES IDX 40 68 41 69 44 70 42 71 68 72 69 73 77 74 70 75 71 76 75 77
REMARK SMILES IDX 78 78 72 79 73 80 76 81 74 82 53 83 54 84 62 85 55 86 56 87
REMARK SMILES IDX 60 88 63 89 57 90 58 91 61 92 59 93
REMARK H PARENT 3 10 5 12 83 46 51 57
REMARK Flexibility Score: inf
ROOT
ATOM      1  C   UNL     1      -1.405   5.536   0.989  1.00  0.00     0.202 C 
ENDROOT
BRANCH   1   2
ATOM      2  C   UNL     1      -1.543   4.238   1.793  1.00  0.00     0.261 C 
BRANCH   2   3
ATOM      3  O   UNL     1      -0.872   3.058   1.349  1.00  0.00    -0.462 OA
BRANCH   3   4
ATOM      4  C   UNL     1      -1.495   2.363   0.353  1.00  0.00     0.326 C 
ATOM      5  O   UNL     1      -2.252   2.848  -0.476  1.00  0.00    -0.250 OA
BRANCH   4   6
ATOM      6  C   UNL     1      -1.237   0.877   0.455  1.00  0.00     0.208 C 
BRANCH   6   7
ATOM      7  C   UNL     1       0.261   0.578   0.700  1.00  0.00     0.140 C 
ATOM      8  C   UNL     1       1.157   1.021  -0.459  1.00  0.00     0.040 C 
BRANCH   7   9
ATOM      9  O   UNL     1       0.442  -0.833   0.907  1.00  0.00    -0.391 OA
ATOM     10  H   UNL     1       0.175  -1.314   0.108  1.00  0.00     0.211 HD
ENDBRANCH   7   9
ENDBRANCH   6   7
BRANCH   6  11
ATOM     11  N   UNL     1      -2.075   0.331   1.570  1.00  0.00    -0.194 NA
ATOM     12  H   UNL     1      -1.962   0.957   2.367  1.00  0.00     0.142 HD
BRANCH  11  13
ATOM     13  S   UNL     1      -3.737   0.148   1.307  1.00  0.00     0.241 S 
ATOM     14  O   UNL     1      -3.955  -0.015  -0.111  1.00  0.00    -0.207 OA
ATOM     15  O   UNL     1      -4.160  -0.864   2.252  1.00  0.00    -0.207 OA
BRANCH  13  16
ATOM     16  C   UNL     1      -4.481   1.685   1.832  1.00  0.00     0.082 A 
ATOM     17  C   UNL     1      -4.877   1.855   3.164  1.00  0.00     0.025 A 
ATOM     18  C   UNL     1      -4.763   2.686   0.893  1.00  0.00     0.025 A 
ATOM     19  C   UNL     1      -5.467   3.060   3.564  1.00  0.00     0.040 A 
ATOM     20  C   UNL     1      -5.302   3.908   1.306  1.00  0.00     0.040 A 
ATOM     21  C   UNL     1      -5.644   4.085   2.639  1.00  0.00     0.123 A 
ATOM     22  F   UNL     1      -6.152   5.258   3.040  1.00  0.00    -0.207 F 
ENDBRANCH  13  16
ENDBRANCH  11  13
ENDBRANCH   6  11
ENDBRANCH   4   6
ENDBRANCH   3   4
ENDBRANCH   2   3
ENDBRANCH   1   2
BRANCH   1  23
ATOM     23  O   UNL     1      -1.332   5.499  -0.426  1.00  0.00    -0.374 OA
BRANCH  23  24
ATOM     24  C   UNL     1      -0.163   4.955  -1.033  1.00  0.00     0.202 C 
BRANCH  24  25
ATOM     25  C   UNL     1       1.125   5.762  -0.905  1.00  0.00     0.261 C 
BRANCH  25  26
ATOM     26  O   UNL     1       1.610   5.717   0.450  1.00  0.00    -0.460 OA
BRANCH  26  27
ATOM     27  C   UNL     1       1.688   6.928   1.046  1.00  0.00     0.338 C 
ATOM     28  O   UNL     1       1.515   8.019   0.529  1.00  0.00    -0.246 OA
BRANCH  27  29
ATOM     29  C   UNL     1       1.829   6.773   2.504  1.00  0.00     0.060 A 
ATOM     30  C   UNL     1       1.005   7.579   3.300  1.00  0.00     0.016 A 
ATOM     31  C   UNL     1       2.812   5.965   3.080  1.00  0.00     0.016 A 
ATOM     32  C   UNL     1       1.241   7.676   4.663  1.00  0.00     0.010 A 
ATOM     33  C   UNL     1       3.051   6.066   4.455  1.00  0.00     0.010 A 
ATOM     34  C   UNL     1       2.314   6.978   5.231  1.00  0.00    -0.014 A 
BRANCH  34  35
ATOM     35  C   UNL     1       2.790   7.413   6.564  1.00  0.00     0.031 A 
ATOM     36  C   UNL     1       3.951   8.369   6.632  1.00  0.00     0.074 A 
ATOM     37  C   UNL     1       2.123   7.066   7.677  1.00  0.00     0.049 A 
ATOM     38  N   UNL     1       4.498   8.940   7.675  1.00  0.00    -0.248 NA
ATOM     39  C   UNL     1       4.578   8.740   5.351  1.00  0.00     0.031 C 
ATOM     40  C   UNL     1       0.949   6.198   7.718  1.00  0.00     0.029 A 
ATOM     41  N   UNL     1       2.328   7.422   8.986  1.00  0.00    -0.354 N 
ATOM     42  C   UNL     1       5.527   9.729   7.176  1.00  0.00     0.074 A 
ATOM     43  C   UNL     1       5.555   9.543   5.744  1.00  0.00     0.031 C 
ATOM     44  C   UNL     1       0.531   6.092   8.991  1.00  0.00     0.029 A 
ATOM     45  C   UNL     1       1.425   6.864   9.854  1.00  0.00     0.049 A 
ATOM     46  H   UNL     1       3.054   8.021   9.274  1.00  0.00     0.167 HD
ATOM     47  C   UNL     1       6.363  10.547   7.855  1.00  0.00     0.037 A 
ATOM     48  C   UNL     1       1.337   6.961  11.194  1.00  0.00     0.037 A 
ATOM     49  C   UNL     1       6.316  10.744   9.279  1.00  0.00     0.049 A 
ATOM     50  C   UNL     1       2.311   7.842  11.932  1.00  0.00     0.074 A 
ATOM     51  C   UNL     1       7.117  11.555  10.063  1.00  0.00     0.029 A 
ATOM     52  N   UNL     1       5.414  10.124  10.131  1.00  0.00    -0.354 N 
ATOM     53  N   UNL     1       3.282   8.583  11.453  1.00  0.00    -0.248 NA
ATOM     54  C   UNL     1       2.171   7.910  13.393  1.00  0.00     0.031 C 
ATOM     55  C   UNL     1       6.732  11.388  11.395  1.00  0.00     0.029 A 
ATOM     56  C   UNL     1       5.652  10.521  11.436  1.00  0.00     0.049 A 
ATOM     57  H   UNL     1       4.709   9.497   9.849  1.00  0.00     0.167 HD
ATOM     58  C   UNL     1       3.850   9.224  12.546  1.00  0.00     0.074 A 
ATOM     59  C   UNL     1       3.106   8.795  13.713  1.00  0.00     0.031 C 
ATOM     60  C   UNL     1       4.892  10.090  12.582  1.00  0.00     0.037 A 
BRANCH  47  61
ATOM     61  C   UNL     1       7.415  11.282   7.079  1.00  0.00     0.064 A 
ATOM     62  C   UNL     1       8.768  10.938   7.224  1.00  0.00     0.173 A 
ATOM     63  C   UNL     1       7.099  12.371   6.255  1.00  0.00     0.173 A 
ATOM     64  F   UNL     1       9.123   9.903   8.000  1.00  0.00    -0.203 F 
ATOM     65  C   UNL     1       9.767  11.673   6.591  1.00  0.00     0.198 A 
ATOM     66  C   UNL     1       8.099  13.088   5.601  1.00  0.00     0.198 A 
ATOM     67  F   UNL     1       5.819  12.728   6.069  1.00  0.00    -0.203 F 
ATOM     68  F   UNL     1      11.054  11.349   6.774  1.00  0.00    -0.200 F 
ATOM     69  C   UNL     1       9.431  12.746   5.780  1.00  0.00     0.200 A 
ATOM     70  F   UNL     1       7.773  14.110   4.798  1.00  0.00    -0.200 F 
ATOM     71  F   UNL     1      10.393  13.451   5.168  1.00  0.00    -0.200 F 
ENDBRANCH  47  61
BRANCH  48  72
ATOM     72  C   UNL     1       0.283   6.203  11.918  1.00  0.00     0.064 A 
ATOM     73  C   UNL     1       0.316   4.801  11.978  1.00  0.00     0.173 A 
ATOM     74  C   UNL     1      -0.784   6.857  12.548  1.00  0.00     0.173 A 
ATOM     75  F   UNL     1       1.315   4.127  11.390  1.00  0.00    -0.203 F 
ATOM     76  C   UNL     1      -0.688   4.083  12.623  1.00  0.00     0.198 A 
ATOM     77  C   UNL     1      -1.772   6.139  13.218  1.00  0.00     0.198 A 
ATOM     78  F   UNL     1      -0.848   8.196  12.537  1.00  0.00    -0.203 F 
ATOM     79  F   UNL     1      -0.649   2.744  12.635  1.00  0.00    -0.200 F 
ATOM     80  C   UNL     1      -1.729   4.753  13.248  1.00  0.00     0.200 A 
ATOM     81  F   UNL     1      -2.763   6.790  13.843  1.00  0.00    -0.200 F 
ATOM     82  F   UNL     1      -2.687   4.063  13.881  1.00  0.00    -0.200 F 
ENDBRANCH  48  72
BRANCH  60  83
ATOM     83  C   UNL     1       5.277  10.663  13.915  1.00  0.00     0.064 A 
ATOM     84  C   UNL     1       5.071  12.024  14.186  1.00  0.00     0.173 A 
ATOM     85  C   UNL     1       5.916   9.887  14.892  1.00  0.00     0.173 A 
ATOM     86  F   UNL     1       4.476  12.813  13.278  1.00  0.00    -0.203 F 
ATOM     87  C   UNL     1       5.499  12.589  15.384  1.00  0.00     0.198 A 
ATOM     88  C   UNL     1       6.314  10.449  16.102  1.00  0.00     0.198 A 
ATOM     89  F   UNL     1       6.129   8.579  14.683  1.00  0.00    -0.203 F 
ATOM     90  F   UNL     1       5.322  13.899  15.606  1.00  0.00    -0.200 F 
ATOM     91  C   UNL     1       6.114  11.800  16.343  1.00  0.00     0.200 A 
ATOM     92  F   UNL     1       6.887   9.680  17.039  1.00  0.00    -0.200 F 
ATOM     93  F   UNL     1       6.512  12.341  17.503  1.00  0.00    -0.200 F 
ENDBRANCH  60  83
ENDBRANCH  34  35
ENDBRANCH  27  29
ENDBRANCH  26  27
ENDBRANCH  25  26
ENDBRANCH  24  25
ENDBRANCH  23  24
ENDBRANCH   1  23
TORSDOF 19
