REMARK SMILES Cc1c(C(=O)OCCOCCOC(=O)c2ccc(-c3c4nc(c(-c5c(F)c(F)c(F)c(F)c5F)c5ccc([nH]5)c(-c5c(F)c(F)c(F)c(F)c5F)c5nc(c(-c6c(F)c(F)c(F)c(F)c6F)c6ccc3[nH]6)C=C5)C=C4)cc2)cccc1-n1c(C)cc(/C=C2/C(=O)NC(=S)N=C2O)c1C
REMARK SMILES IDX 8 1 7 2 6 3 4 4 5 5 3 6 1 7 2 8 81 9 78 10 80 11 79 12 82 13
REMARK SMILES IDX 83 14 97 15 84 16 85 17 86 18 98 19 87 20 88 21 89 22 95 23
REMARK SMILES IDX 90 24 91 25 94 26 92 27 93 29 96 30 9 32 10 33 11 34 12 35
REMARK SMILES IDX 13 36 14 37 15 38 16 39 77 40 17 41 76 42 18 43 19 44 20 45
REMARK SMILES IDX 70 46 21 47 75 48 69 49 71 50 22 51 74 52 68 53 67 54 23 56
REMARK SMILES IDX 55 57 35 58 54 59 36 60 39 61 53 62 72 63 37 64 38 65 52 67
REMARK SMILES IDX 73 68 40 69 24 70 25 71 33 72 26 73 27 74 31 75 34 76 28 77
REMARK SMILES IDX 29 78 32 79 30 80 56 81 57 82 65 83 58 84 59 85 63 86 66 87
REMARK SMILES IDX 60 88 61 89 64 90 62 91 41 92 42 93 50 94 43 95 44 96 48 97
REMARK SMILES IDX 51 98 45 99 46 100 49 101 47 102
REMARK H PARENT 91 28 96 31 71 55 39 66
REMARK Flexibility Score: inf
ROOT
ATOM      1  C   UNL     1       2.112  -2.478   2.313  1.00  0.00     0.202 C 
ENDROOT
BRANCH   1   2
ATOM      2  C   UNL     1       2.580  -2.513   0.897  1.00  0.00     0.261 C 
BRANCH   2   3
ATOM      3  O   UNL     1       1.732  -1.773   0.012  1.00  0.00    -0.460 OA
BRANCH   3   4
ATOM      4  C   UNL     1       0.413  -2.009  -0.165  1.00  0.00     0.338 C 
ATOM      5  O   UNL     1      -0.152  -3.071  -0.206  1.00  0.00    -0.246 OA
BRANCH   4   6
ATOM      6  C   UNL     1      -0.226  -0.665  -0.304  1.00  0.00     0.065 A 
ATOM      7  C   UNL     1       1.950   0.641   0.217  1.00  0.00     0.047 C 
ATOM      8  C   UNL     1       0.486   0.553  -0.184  1.00  0.00    -0.012 A 
ATOM      9  C   UNL     1      -0.248   1.735  -0.343  1.00  0.00     0.049 A 
ATOM     10  C   UNL     1      -1.625  -0.656  -0.478  1.00  0.00     0.016 A 
ATOM     11  C   UNL     1      -1.640   1.752  -0.480  1.00  0.00     0.027 A 
ATOM     12  C   UNL     1      -2.331   0.547  -0.539  1.00  0.00     0.003 A 
BRANCH   9  13
ATOM     13  N   UNL     1       0.420   2.962  -0.186  1.00  0.00    -0.318 N 
ATOM     14  C   UNL     1       1.344   3.490  -1.075  1.00  0.00     0.020 A 
ATOM     15  C   UNL     1       0.613   3.553   1.058  1.00  0.00     0.027 A 
ATOM     16  C   UNL     1       1.720   2.848  -2.370  1.00  0.00     0.065 C 
ATOM     17  C   UNL     1       1.821   4.647  -0.494  1.00  0.00     0.031 A 
ATOM     18  C   UNL     1       1.286   4.737   0.822  1.00  0.00    -0.003 A 
ATOM     19  C   UNL     1       0.184   2.855   2.315  1.00  0.00     0.065 C 
BRANCH  18  20
ATOM     20  C   UNL     1       1.609   5.787   1.729  1.00  0.00     0.029 C 
ATOM     21  C   UNL     1       0.941   6.287   2.785  1.00  0.00     0.102 C 
ATOM     22  C   UNL     1       1.638   7.358   3.539  1.00  0.00     0.262 C 
ATOM     23  C   UNL     1      -0.345   5.907   3.372  1.00  0.00     0.226 C 
ATOM     24  O   UNL     1       2.591   7.998   3.111  1.00  0.00    -0.269 OA
ATOM     25  N   UNL     1       1.139   7.563   4.796  1.00  0.00    -0.297 N 
ATOM     26  N   UNL     1      -0.757   6.176   4.556  1.00  0.00    -0.184 NA
ATOM     27  C   UNL     1       0.044   6.949   5.352  1.00  0.00     0.203 C 
ATOM     28  H   UNL     1       1.614   8.216   5.360  1.00  0.00     0.172 HD
ATOM     29  S   UNL     1      -0.282   7.250   6.967  1.00  0.00    -0.038 S 
BRANCH  23  30
ATOM     30  O   UNL     1      -1.210   5.272   2.580  1.00  0.00    -0.493 OA
ATOM     31  H   UNL     1      -0.966   5.048   1.704  1.00  0.00     0.295 HD
ENDBRANCH  23  30
ENDBRANCH  18  20
ENDBRANCH   9  13
ENDBRANCH   4   6
ENDBRANCH   3   4
ENDBRANCH   2   3
ENDBRANCH   1   2
BRANCH   1  32
ATOM     32  O   UNL     1       0.930  -3.253   2.326  1.00  0.00    -0.374 OA
BRANCH  32  33
ATOM     33  C   UNL     1       0.315  -3.401   3.586  1.00  0.00     0.202 C 
BRANCH  33  34
ATOM     34  C   UNL     1       1.234  -4.112   4.586  1.00  0.00     0.261 C 
BRANCH  34  35
ATOM     35  O   UNL     1       1.618  -5.399   4.047  1.00  0.00    -0.460 OA
BRANCH  35  36
ATOM     36  C   UNL     1       2.883  -5.505   3.546  1.00  0.00     0.338 C 
ATOM     37  O   UNL     1       3.894  -5.090   4.090  1.00  0.00    -0.246 OA
BRANCH  36  38
ATOM     38  C   UNL     1       2.833  -5.917   2.105  1.00  0.00     0.060 A 
ATOM     39  C   UNL     1       3.979  -5.807   1.287  1.00  0.00     0.016 A 
ATOM     40  C   UNL     1       1.583  -6.054   1.511  1.00  0.00     0.016 A 
ATOM     41  C   UNL     1       3.855  -5.678  -0.114  1.00  0.00     0.010 A 
ATOM     42  C   UNL     1       1.461  -5.806   0.158  1.00  0.00     0.010 A 
ATOM     43  C   UNL     1       2.580  -5.590  -0.672  1.00  0.00    -0.014 A 
BRANCH  43  44
ATOM     44  C   UNL     1       2.235  -5.140  -2.032  1.00  0.00     0.031 A 
ATOM     45  C   UNL     1       1.415  -6.037  -2.882  1.00  0.00     0.074 A 
ATOM     46  C   UNL     1       2.317  -3.835  -2.407  1.00  0.00     0.049 A 
ATOM     47  N   UNL     1       1.211  -5.840  -4.140  1.00  0.00    -0.248 NA
ATOM     48  C   UNL     1       0.752  -7.239  -2.383  1.00  0.00     0.031 C 
ATOM     49  C   UNL     1       1.423  -3.131  -3.337  1.00  0.00     0.029 A 
ATOM     50  N   UNL     1       3.177  -2.812  -1.981  1.00  0.00    -0.354 N 
ATOM     51  C   UNL     1       0.145  -6.626  -4.503  1.00  0.00     0.074 A 
ATOM     52  C   UNL     1      -0.043  -7.547  -3.409  1.00  0.00     0.031 C 
ATOM     53  C   UNL     1       1.908  -1.907  -3.597  1.00  0.00     0.029 A 
ATOM     54  C   UNL     1       3.216  -1.820  -2.983  1.00  0.00     0.049 A 
ATOM     55  H   UNL     1       3.669  -2.789  -1.129  1.00  0.00     0.167 HD
ATOM     56  C   UNL     1      -0.575  -6.310  -5.616  1.00  0.00     0.037 A 
ATOM     57  C   UNL     1       4.389  -1.422  -3.546  1.00  0.00     0.037 A 
ATOM     58  C   UNL     1      -0.116  -5.051  -6.220  1.00  0.00     0.049 A 
ATOM     59  C   UNL     1       4.410  -1.774  -5.006  1.00  0.00     0.074 A 
ATOM     60  C   UNL     1      -0.618  -3.760  -6.257  1.00  0.00     0.029 A 
ATOM     61  N   UNL     1       1.204  -4.936  -6.634  1.00  0.00    -0.354 N 
ATOM     62  N   UNL     1       3.388  -2.316  -5.603  1.00  0.00    -0.248 NA
ATOM     63  C   UNL     1       5.559  -1.649  -5.892  1.00  0.00     0.031 C 
ATOM     64  C   UNL     1       0.391  -2.895  -6.776  1.00  0.00     0.029 A 
ATOM     65  C   UNL     1       1.508  -3.658  -7.065  1.00  0.00     0.049 A 
ATOM     66  H   UNL     1       1.849  -5.679  -6.622  1.00  0.00     0.167 HD
ATOM     67  C   UNL     1       3.719  -2.705  -6.857  1.00  0.00     0.074 A 
ATOM     68  C   UNL     1       5.100  -2.265  -6.999  1.00  0.00     0.031 C 
ATOM     69  C   UNL     1       2.825  -3.388  -7.634  1.00  0.00     0.037 A 
BRANCH  56  70
ATOM     70  C   UNL     1      -1.862  -7.016  -5.987  1.00  0.00     0.064 A 
ATOM     71  C   UNL     1      -2.869  -6.362  -6.725  1.00  0.00     0.173 A 
ATOM     72  C   UNL     1      -2.162  -8.350  -5.641  1.00  0.00     0.173 A 
ATOM     73  F   UNL     1      -2.684  -5.138  -7.233  1.00  0.00    -0.203 F 
ATOM     74  C   UNL     1      -4.111  -6.949  -6.983  1.00  0.00     0.198 A 
ATOM     75  C   UNL     1      -3.427  -8.914  -5.840  1.00  0.00     0.198 A 
ATOM     76  F   UNL     1      -1.223  -9.173  -5.153  1.00  0.00    -0.203 F 
ATOM     77  F   UNL     1      -5.025  -6.277  -7.697  1.00  0.00    -0.200 F 
ATOM     78  C   UNL     1      -4.405  -8.209  -6.506  1.00  0.00     0.200 A 
ATOM     79  F   UNL     1      -3.684 -10.151  -5.389  1.00  0.00    -0.200 F 
ATOM     80  F   UNL     1      -5.611  -8.753  -6.719  1.00  0.00    -0.200 F 
ENDBRANCH  56  70
BRANCH  57  81
ATOM     81  C   UNL     1       5.505  -1.474  -2.556  1.00  0.00     0.064 A 
ATOM     82  C   UNL     1       5.473  -0.511  -1.523  1.00  0.00     0.173 A 
ATOM     83  C   UNL     1       6.145  -2.692  -2.284  1.00  0.00     0.173 A 
ATOM     84  F   UNL     1       4.864   0.669  -1.725  1.00  0.00    -0.203 F 
ATOM     85  C   UNL     1       5.891  -0.825  -0.230  1.00  0.00     0.198 A 
ATOM     86  C   UNL     1       6.555  -3.003  -0.985  1.00  0.00     0.198 A 
ATOM     87  F   UNL     1       6.203  -3.645  -3.225  1.00  0.00    -0.203 F 
ATOM     88  F   UNL     1       5.675   0.040   0.772  1.00  0.00    -0.200 F 
ATOM     89  C   UNL     1       6.386  -2.089   0.046  1.00  0.00     0.200 A 
ATOM     90  F   UNL     1       7.000  -4.237  -0.703  1.00  0.00    -0.200 F 
ATOM     91  F   UNL     1       6.622  -2.452   1.316  1.00  0.00    -0.200 F 
ENDBRANCH  57  81
BRANCH  69  92
ATOM     92  C   UNL     1       3.157  -3.897  -9.003  1.00  0.00     0.064 A 
ATOM     93  C   UNL     1       3.958  -3.176  -9.897  1.00  0.00     0.173 A 
ATOM     94  C   UNL     1       2.637  -5.118  -9.487  1.00  0.00     0.173 A 
ATOM     95  F   UNL     1       4.356  -1.927  -9.615  1.00  0.00    -0.203 F 
ATOM     96  C   UNL     1       4.354  -3.717 -11.118  1.00  0.00     0.198 A 
ATOM     97  C   UNL     1       2.979  -5.625 -10.734  1.00  0.00     0.198 A 
ATOM     98  F   UNL     1       1.803  -5.879  -8.768  1.00  0.00    -0.203 F 
ATOM     99  F   UNL     1       5.213  -3.041 -11.892  1.00  0.00    -0.200 F 
ATOM    100  C   UNL     1       3.873  -4.946 -11.532  1.00  0.00     0.200 A 
ATOM    101  F   UNL     1       2.453  -6.788 -11.142  1.00  0.00    -0.200 F 
ATOM    102  F   UNL     1       4.265  -5.471 -12.699  1.00  0.00    -0.200 F 
ENDBRANCH  69  92
ENDBRANCH  43  44
ENDBRANCH  36  38
ENDBRANCH  35  36
ENDBRANCH  34  35
ENDBRANCH  33  34
ENDBRANCH  32  33
ENDBRANCH   1  32
TORSDOF 17
