REMARK SMILES O=C(OCCOCCOC(=O)c1cc(S(=O)(=O)N2CCCCC2)c(Cl)cc1Cl)c1ccc(-c2c3nc(c(-c4c(F)c(F)c(F)c(F)c4F)c4ccc([nH]4)c(-c4c(F)c(F)c(F)c(F)c4F)c4nc(c(-c5c(F)c(F)c(F)c(F)c5F)c5ccc2[nH]5)C=C4)C=C3)cc1
REMARK SMILES IDX 6 1 5 2 4 3 3 4 2 5 1 6 29 7 30 8 91 9 31 10 90 11 32 12
REMARK SMILES IDX 33 13 34 14 84 15 35 16 89 17 83 18 85 19 36 20 88 21 82 22
REMARK SMILES IDX 81 23 37 25 69 26 49 27 68 28 50 29 53 30 67 31 86 32 51 33
REMARK SMILES IDX 52 34 66 36 87 37 54 38 38 39 39 40 47 41 40 42 41 43 45 44
REMARK SMILES IDX 48 45 42 46 43 47 46 48 44 49 70 50 71 51 79 52 72 53 73 54
REMARK SMILES IDX 77 55 80 56 74 57 75 58 78 59 76 60 55 61 56 62 64 63 57 64
REMARK SMILES IDX 58 65 62 66 65 67 59 68 60 69 63 70 61 71 7 72 8 73 9 74
REMARK SMILES IDX 10 75 11 76 12 77 13 78 27 79 14 80 26 81 28 82 24 83 25 84
REMARK SMILES IDX 15 85 16 86 17 87 18 88 19 89 23 90 20 91 22 92 21 93
REMARK H PARENT 85 24 53 35
REMARK Flexibility Score: inf
ROOT
ATOM      1  O   UNL     1       3.918  -1.165  -1.253  1.00  0.00    -0.374 OA
ENDROOT
BRANCH   1   2
ATOM      2  C   UNL     1       4.074  -1.676   0.071  1.00  0.00     0.202 C 
BRANCH   2   3
ATOM      3  C   UNL     1       3.675  -0.704   1.183  1.00  0.00     0.261 C 
BRANCH   3   4
ATOM      4  O   UNL     1       2.290  -0.342   1.049  1.00  0.00    -0.460 OA
BRANCH   4   5
ATOM      5  C   UNL     1       1.775   0.866   0.725  1.00  0.00     0.338 C 
ATOM      6  O   UNL     1       0.561   1.038   0.800  1.00  0.00    -0.246 OA
BRANCH   5   7
ATOM      7  C   UNL     1       2.616   2.014   0.277  1.00  0.00     0.060 A 
ATOM      8  C   UNL     1       3.796   1.887  -0.458  1.00  0.00     0.016 A 
ATOM      9  C   UNL     1       2.123   3.305   0.525  1.00  0.00     0.016 A 
ATOM     10  C   UNL     1       4.520   3.000  -0.863  1.00  0.00     0.010 A 
ATOM     11  C   UNL     1       2.814   4.431   0.071  1.00  0.00     0.010 A 
ATOM     12  C   UNL     1       4.027   4.277  -0.611  1.00  0.00    -0.014 A 
BRANCH  12  13
ATOM     13  C   UNL     1       4.839   5.439  -1.014  1.00  0.00     0.031 A 
ATOM     14  C   UNL     1       5.568   6.204   0.042  1.00  0.00     0.074 A 
ATOM     15  C   UNL     1       4.982   5.726  -2.319  1.00  0.00     0.049 A 
ATOM     16  N   UNL     1       6.267   7.301  -0.061  1.00  0.00    -0.248 NA
ATOM     17  C   UNL     1       5.510   5.650   1.405  1.00  0.00     0.031 C 
ATOM     18  C   UNL     1       4.397   4.957  -3.419  1.00  0.00     0.029 A 
ATOM     19  N   UNL     1       5.680   6.724  -2.944  1.00  0.00    -0.354 N 
ATOM     20  C   UNL     1       6.702   7.589   1.224  1.00  0.00     0.074 A 
ATOM     21  C   UNL     1       6.193   6.551   2.093  1.00  0.00     0.031 C 
ATOM     22  C   UNL     1       4.778   5.500  -4.586  1.00  0.00     0.029 A 
ATOM     23  C   UNL     1       5.570   6.694  -4.312  1.00  0.00     0.049 A 
ATOM     24  H   UNL     1       6.210   7.398  -2.459  1.00  0.00     0.167 HD
ATOM     25  C   UNL     1       7.450   8.640   1.633  1.00  0.00     0.037 A 
ATOM     26  C   UNL     1       6.030   7.563  -5.231  1.00  0.00     0.037 A 
ATOM     27  C   UNL     1       7.939   9.654   0.740  1.00  0.00     0.049 A 
ATOM     28  C   UNL     1       6.794   8.764  -4.744  1.00  0.00     0.074 A 
ATOM     29  C   UNL     1       8.645  10.805   1.032  1.00  0.00     0.029 A 
ATOM     30  N   UNL     1       7.766   9.626  -0.640  1.00  0.00    -0.354 N 
ATOM     31  N   UNL     1       7.136   9.083  -3.517  1.00  0.00    -0.248 NA
ATOM     32  C   UNL     1       7.218   9.736  -5.758  1.00  0.00     0.031 C 
ATOM     33  C   UNL     1       8.866  11.493  -0.167  1.00  0.00     0.029 A 
ATOM     34  C   UNL     1       8.341  10.747  -1.212  1.00  0.00     0.049 A 
ATOM     35  H   UNL     1       7.302   8.914  -1.136  1.00  0.00     0.167 HD
ATOM     36  C   UNL     1       7.825  10.283  -3.610  1.00  0.00     0.074 A 
ATOM     37  C   UNL     1       7.869  10.625  -5.019  1.00  0.00     0.031 C 
ATOM     38  C   UNL     1       8.367  11.040  -2.624  1.00  0.00     0.037 A 
BRANCH  25  39
ATOM     39  C   UNL     1       7.697   8.764   3.107  1.00  0.00     0.064 A 
ATOM     40  C   UNL     1       8.556   7.894   3.795  1.00  0.00     0.173 A 
ATOM     41  C   UNL     1       7.017   9.739   3.853  1.00  0.00     0.173 A 
ATOM     42  F   UNL     1       9.207   6.925   3.133  1.00  0.00    -0.203 F 
ATOM     43  C   UNL     1       8.695   7.971   5.179  1.00  0.00     0.198 A 
ATOM     44  C   UNL     1       7.179   9.830   5.233  1.00  0.00     0.198 A 
ATOM     45  F   UNL     1       6.178  10.591   3.247  1.00  0.00    -0.203 F 
ATOM     46  F   UNL     1       9.468   7.085   5.824  1.00  0.00    -0.200 F 
ATOM     47  C   UNL     1       8.008   8.939   5.897  1.00  0.00     0.200 A 
ATOM     48  F   UNL     1       6.514  10.767   5.924  1.00  0.00    -0.200 F 
ATOM     49  F   UNL     1       8.130   9.001   7.230  1.00  0.00    -0.200 F 
ENDBRANCH  25  39
BRANCH  26  50
ATOM     50  C   UNL     1       5.739   7.350  -6.674  1.00  0.00     0.064 A 
ATOM     51  C   UNL     1       6.762   7.071  -7.589  1.00  0.00     0.173 A 
ATOM     52  C   UNL     1       4.426   7.410  -7.168  1.00  0.00     0.173 A 
ATOM     53  F   UNL     1       8.037   7.025  -7.175  1.00  0.00    -0.203 F 
ATOM     54  C   UNL     1       6.485   6.870  -8.942  1.00  0.00     0.198 A 
ATOM     55  C   UNL     1       4.146   7.179  -8.513  1.00  0.00     0.198 A 
ATOM     56  F   UNL     1       3.407   7.677  -6.337  1.00  0.00    -0.203 F 
ATOM     57  F   UNL     1       7.487   6.644  -9.802  1.00  0.00    -0.200 F 
ATOM     58  C   UNL     1       5.177   6.915  -9.401  1.00  0.00     0.200 A 
ATOM     59  F   UNL     1       2.879   7.211  -8.948  1.00  0.00    -0.200 F 
ATOM     60  F   UNL     1       4.912   6.713 -10.698  1.00  0.00    -0.200 F 
ENDBRANCH  26  50
BRANCH  38  61
ATOM     61  C   UNL     1       9.076  12.290  -3.046  1.00  0.00     0.064 A 
ATOM     62  C   UNL     1       8.370  13.429  -3.459  1.00  0.00     0.173 A 
ATOM     63  C   UNL     1      10.475  12.363  -2.982  1.00  0.00     0.173 A 
ATOM     64  F   UNL     1       7.032  13.398  -3.550  1.00  0.00    -0.203 F 
ATOM     65  C   UNL     1       9.044  14.595  -3.809  1.00  0.00     0.198 A 
ATOM     66  C   UNL     1      11.143  13.539  -3.307  1.00  0.00     0.198 A 
ATOM     67  F   UNL     1      11.191  11.300  -2.587  1.00  0.00    -0.203 F 
ATOM     68  F   UNL     1       8.354  15.661  -4.236  1.00  0.00    -0.200 F 
ATOM     69  C   UNL     1      10.428  14.651  -3.724  1.00  0.00     0.200 A 
ATOM     70  F   UNL     1      12.479  13.597  -3.213  1.00  0.00    -0.200 F 
ATOM     71  F   UNL     1      11.073  15.779  -4.051  1.00  0.00    -0.200 F 
ENDBRANCH  38  61
ENDBRANCH  12  13
ENDBRANCH   5   7
ENDBRANCH   4   5
ENDBRANCH   3   4
ENDBRANCH   2   3
ENDBRANCH   1   2
BRANCH   1  72
ATOM     72  C   UNL     1       2.602  -1.289  -1.812  1.00  0.00     0.202 C 
BRANCH  72  73
ATOM     73  C   UNL     1       2.722  -1.646  -3.297  1.00  0.00     0.261 C 
BRANCH  73  74
ATOM     74  O   UNL     1       3.441  -2.886  -3.386  1.00  0.00    -0.460 OA
BRANCH  74  75
ATOM     75  C   UNL     1       4.789  -2.765  -3.527  1.00  0.00     0.339 C 
ATOM     76  O   UNL     1       5.386  -1.856  -4.072  1.00  0.00    -0.246 OA
BRANCH  75  77
ATOM     77  C   UNL     1       5.389  -3.847  -2.708  1.00  0.00     0.080 A 
ATOM     78  C   UNL     1       4.752  -5.098  -2.672  1.00  0.00     0.040 A 
ATOM     79  C   UNL     1       6.471  -3.614  -1.860  1.00  0.00     0.057 A 
ATOM     80  C   UNL     1       5.119  -6.088  -1.741  1.00  0.00     0.102 A 
ATOM     81  C   UNL     1       6.816  -4.583  -0.913  1.00  0.00     0.043 A 
ATOM     82  Cl  UNL     1       7.381  -2.148  -1.834  1.00  0.00    -0.083 Cl
ATOM     83  C   UNL     1       6.118  -5.799  -0.816  1.00  0.00     0.062 A 
ATOM     84  Cl  UNL     1       6.562  -6.764   0.533  1.00  0.00    -0.083 Cl
BRANCH  80  85
ATOM     85  S   UNL     1       4.209  -7.611  -1.897  1.00  0.00     0.244 S 
ATOM     86  O   UNL     1       3.074  -7.490  -1.009  1.00  0.00    -0.207 OA
ATOM     87  O   UNL     1       4.020  -7.787  -3.325  1.00  0.00    -0.207 OA
BRANCH  85  88
ATOM     88  N   UNL     1       5.175  -8.904  -1.404  1.00  0.00    -0.198 NA
ATOM     89  C   UNL     1       6.478  -9.090  -2.068  1.00  0.00     0.102 C 
ATOM     90  C   UNL     1       4.853  -9.517  -0.099  1.00  0.00     0.102 C 
ATOM     91  C   UNL     1       7.212 -10.348  -1.639  1.00  0.00     0.017 C 
ATOM     92  C   UNL     1       5.729 -10.695   0.291  1.00  0.00     0.017 C 
ATOM     93  C   UNL     1       7.174 -10.522  -0.132  1.00  0.00     0.003 C 
ENDBRANCH  85  88
ENDBRANCH  80  85
ENDBRANCH  75  77
ENDBRANCH  74  75
ENDBRANCH  73  74
ENDBRANCH  72  73
ENDBRANCH   1  72
TORSDOF 16
