REMARK SMILES Cc1nnc(-c2ccccc2-c2cc(NCC(=O)OCCOCCOC(=O)c3ccc(-c4c5nc(c(-c6c(F)c(F)c(F)c(F)c6F)c6ccc([nH]6)c(-c6c(F)c(F)c(F)c(F)c6F)c6nc(c(-c7c(F)c(F)c(F)c(F)c7F)c7ccc4[nH]7)C=C6)C=C5)cc3)nc3[nH]ccc23)o1
REMARK SMILES IDX 21 1 20 2 19 3 17 4 18 5 16 6 15 7 14 9 12 10 13 11 96 12
REMARK SMILES IDX 92 13 95 14 91 15 93 16 94 17 11 19 6 20 7 21 8 22 10 23
REMARK SMILES IDX 9 24 5 25 1 26 2 27 3 28 97 29 4 30 22 31 23 32 24 33 25 34
REMARK SMILES IDX 26 35 27 36 28 37 29 38 90 39 30 40 89 41 31 42 32 43 33 44
REMARK SMILES IDX 83 45 34 46 88 47 82 48 84 49 35 50 87 51 81 52 80 53 36 55
REMARK SMILES IDX 68 56 48 57 67 58 49 59 52 60 66 61 85 62 50 63 51 64 65 66
REMARK SMILES IDX 86 67 53 68 37 69 38 70 46 71 39 72 40 73 44 74 47 75 41 76
REMARK SMILES IDX 42 77 45 78 43 79 69 80 70 81 78 82 71 83 72 84 76 85 79 86
REMARK SMILES IDX 73 87 74 88 77 89 75 90 54 91 55 92 63 93 56 94 57 95 61 96
REMARK SMILES IDX 64 97 58 98 59 99 62 100 60 101
REMARK H PARENT 15 8 93 18 84 54 52 65
REMARK Flexibility Score: inf
ROOT
ATOM      1  C   UNL     1      -2.718  -4.111  -4.030  1.00  0.00     0.202 C 
ENDROOT
BRANCH   1   2
ATOM      2  C   UNL     1      -1.306  -4.634  -4.305  1.00  0.00     0.261 C 
BRANCH   2   3
ATOM      3  O   UNL     1      -0.333  -3.579  -4.328  1.00  0.00    -0.462 OA
BRANCH   3   4
ATOM      4  C   UNL     1       0.268  -3.370  -5.532  1.00  0.00     0.325 C 
ATOM      5  O   UNL     1       0.111  -4.088  -6.517  1.00  0.00    -0.250 OA
BRANCH   4   6
ATOM      6  C   UNL     1       1.128  -2.114  -5.598  1.00  0.00     0.237 C 
BRANCH   6   7
ATOM      7  N   UNL     1       1.013  -1.177  -4.470  1.00  0.00    -0.359 N 
ATOM      8  H   UNL     1       0.155  -0.743  -4.259  1.00  0.00     0.162 HD
BRANCH   7   9
ATOM      9  C   UNL     1       2.149  -0.920  -3.710  1.00  0.00     0.129 A 
ATOM     10  C   UNL     1       3.301   0.479  -2.055  1.00  0.00    -0.003 A 
ATOM     11  C   UNL     1       2.161   0.175  -2.833  1.00  0.00     0.056 A 
ATOM     12  C   UNL     1       4.395  -0.406  -2.195  1.00  0.00     0.027 A 
ATOM     13  C   UNL     1       4.250  -1.463  -3.081  1.00  0.00     0.140 A 
ATOM     14  C   UNL     1       5.704  -0.537  -1.640  1.00  0.00     0.030 A 
ATOM     15  N   UNL     1       3.188  -1.760  -3.837  1.00  0.00    -0.213 NA
ATOM     16  N   UNL     1       5.402  -2.197  -3.078  1.00  0.00    -0.346 N 
ATOM     17  C   UNL     1       6.302  -1.643  -2.208  1.00  0.00     0.085 A 
ATOM     18  H   UNL     1       5.562  -3.003  -3.621  1.00  0.00     0.167 HD
BRANCH  10  19
ATOM     19  C   UNL     1       3.418   1.644  -1.151  1.00  0.00    -0.005 A 
ATOM     20  C   UNL     1       2.551   1.892  -0.067  1.00  0.00     0.047 A 
ATOM     21  C   UNL     1       2.799   2.966   0.815  1.00  0.00     0.014 A 
ATOM     22  C   UNL     1       3.879   3.819   0.625  1.00  0.00     0.001 A 
ATOM     23  C   UNL     1       4.484   2.554  -1.339  1.00  0.00     0.009 A 
ATOM     24  C   UNL     1       4.715   3.622  -0.464  1.00  0.00     0.001 A 
BRANCH  20  25
ATOM     25  C   UNL     1       1.377   1.097   0.214  1.00  0.00     0.248 A 
ATOM     26  C   UNL     1      -2.140   1.145   0.297  1.00  0.00     0.113 C 
ATOM     27  C   UNL     1      -0.711   0.826   0.449  1.00  0.00     0.213 A 
ATOM     28  N   UNL     1      -0.132  -0.179   1.070  1.00  0.00    -0.113 NA
ATOM     29  O   UNL     1       0.183   1.685  -0.119  1.00  0.00    -0.421 OA
ATOM     30  N   UNL     1       1.226  -0.013   0.903  1.00  0.00    -0.108 NA
ENDBRANCH  20  25
ENDBRANCH  10  19
ENDBRANCH   7   9
ENDBRANCH   6   7
ENDBRANCH   4   6
ENDBRANCH   3   4
ENDBRANCH   2   3
ENDBRANCH   1   2
BRANCH   1  31
ATOM     31  O   UNL     1      -3.245  -3.116  -4.906  1.00  0.00    -0.374 OA
BRANCH  31  32
ATOM     32  C   UNL     1      -2.711  -1.796  -4.838  1.00  0.00     0.202 C 
BRANCH  32  33
ATOM     33  C   UNL     1      -3.086  -0.924  -3.634  1.00  0.00     0.261 C 
BRANCH  33  34
ATOM     34  O   UNL     1      -2.722  -1.513  -2.380  1.00  0.00    -0.460 OA
BRANCH  34  35
ATOM     35  C   UNL     1      -3.749  -2.076  -1.699  1.00  0.00     0.338 C 
ATOM     36  O   UNL     1      -4.933  -2.048  -2.012  1.00  0.00    -0.246 OA
BRANCH  35  37
ATOM     37  C   UNL     1      -3.258  -2.823  -0.519  1.00  0.00     0.060 A 
ATOM     38  C   UNL     1      -4.072  -3.828   0.015  1.00  0.00     0.016 A 
ATOM     39  C   UNL     1      -2.049  -2.508   0.102  1.00  0.00     0.016 A 
ATOM     40  C   UNL     1      -3.744  -4.413   1.236  1.00  0.00     0.010 A 
ATOM     41  C   UNL     1      -1.739  -3.058   1.345  1.00  0.00     0.010 A 
ATOM     42  C   UNL     1      -2.614  -3.974   1.938  1.00  0.00    -0.014 A 
BRANCH  42  43
ATOM     43  C   UNL     1      -2.386  -4.432   3.322  1.00  0.00     0.031 A 
ATOM     44  C   UNL     1      -2.981  -3.667   4.467  1.00  0.00     0.074 A 
ATOM     45  C   UNL     1      -1.638  -5.524   3.540  1.00  0.00     0.049 A 
ATOM     46  N   UNL     1      -3.034  -3.982   5.736  1.00  0.00    -0.248 NA
ATOM     47  C   UNL     1      -3.594  -2.370   4.141  1.00  0.00     0.031 C 
ATOM     48  C   UNL     1      -0.967  -6.300   2.500  1.00  0.00     0.029 A 
ATOM     49  N   UNL     1      -1.318  -6.163   4.707  1.00  0.00    -0.354 N 
ATOM     50  C   UNL     1      -3.715  -2.943   6.355  1.00  0.00     0.074 A 
ATOM     51  C   UNL     1      -4.005  -1.959   5.333  1.00  0.00     0.031 C 
ATOM     52  C   UNL     1      -0.314  -7.321   3.077  1.00  0.00     0.029 A 
ATOM     53  C   UNL     1      -0.530  -7.268   4.521  1.00  0.00     0.049 A 
ATOM     54  H   UNL     1      -1.624  -5.858   5.592  1.00  0.00     0.167 HD
ATOM     55  C   UNL     1      -4.079  -2.837   7.656  1.00  0.00     0.037 A 
ATOM     56  C   UNL     1      -0.056  -8.148   5.422  1.00  0.00     0.037 A 
ATOM     57  C   UNL     1      -3.731  -3.804   8.667  1.00  0.00     0.049 A 
ATOM     58  C   UNL     1      -0.446  -7.994   6.867  1.00  0.00     0.074 A 
ATOM     59  C   UNL     1      -4.079  -3.825  10.006  1.00  0.00     0.029 A 
ATOM     60  N   UNL     1      -2.922  -4.913   8.449  1.00  0.00    -0.354 N 
ATOM     61  N   UNL     1      -1.206  -7.085   7.430  1.00  0.00    -0.248 NA
ATOM     62  C   UNL     1       0.067  -9.007   7.797  1.00  0.00     0.031 C 
ATOM     63  C   UNL     1      -3.433  -4.909  10.610  1.00  0.00     0.029 A 
ATOM     64  C   UNL     1      -2.735  -5.606   9.635  1.00  0.00     0.049 A 
ATOM     65  H   UNL     1      -2.538  -5.169   7.580  1.00  0.00     0.167 HD
ATOM     66  C   UNL     1      -1.294  -7.436   8.770  1.00  0.00     0.074 A 
ATOM     67  C   UNL     1      -0.519  -8.650   8.931  1.00  0.00     0.031 C 
ATOM     68  C   UNL     1      -1.960  -6.814   9.776  1.00  0.00     0.037 A 
BRANCH  55  69
ATOM     69  C   UNL     1      -4.893  -1.638   8.060  1.00  0.00     0.064 A 
ATOM     70  C   UNL     1      -6.212  -1.463   7.609  1.00  0.00     0.173 A 
ATOM     71  C   UNL     1      -4.375  -0.678   8.942  1.00  0.00     0.173 A 
ATOM     72  F   UNL     1      -6.759  -2.348   6.761  1.00  0.00    -0.203 F 
ATOM     73  C   UNL     1      -6.967  -0.360   8.000  1.00  0.00     0.198 A 
ATOM     74  C   UNL     1      -5.144   0.408   9.357  1.00  0.00     0.198 A 
ATOM     75  F   UNL     1      -3.125  -0.796   9.415  1.00  0.00    -0.203 F 
ATOM     76  F   UNL     1      -8.206  -0.192   7.517  1.00  0.00    -0.200 F 
ATOM     77  C   UNL     1      -6.436   0.571   8.880  1.00  0.00     0.200 A 
ATOM     78  F   UNL     1      -4.635   1.298  10.220  1.00  0.00    -0.200 F 
ATOM     79  F   UNL     1      -7.166   1.627   9.262  1.00  0.00    -0.200 F 
ENDBRANCH  55  69
BRANCH  56  80
ATOM     80  C   UNL     1       0.772  -9.289   4.961  1.00  0.00     0.064 A 
ATOM     81  C   UNL     1       0.267 -10.596   4.984  1.00  0.00     0.173 A 
ATOM     82  C   UNL     1       2.070  -9.097   4.467  1.00  0.00     0.173 A 
ATOM     83  F   UNL     1      -0.965 -10.830   5.459  1.00  0.00    -0.203 F 
ATOM     84  C   UNL     1       1.037 -11.672   4.549  1.00  0.00     0.198 A 
ATOM     85  C   UNL     1       2.829 -10.170   4.005  1.00  0.00     0.198 A 
ATOM     86  F   UNL     1       2.594  -7.863   4.414  1.00  0.00    -0.203 F 
ATOM     87  F   UNL     1       0.546 -12.916   4.620  1.00  0.00    -0.200 F 
ATOM     88  C   UNL     1       2.315 -11.457   4.054  1.00  0.00     0.200 A 
ATOM     89  F   UNL     1       4.056  -9.957   3.511  1.00  0.00    -0.200 F 
ATOM     90  F   UNL     1       3.052 -12.492   3.629  1.00  0.00    -0.200 F 
ENDBRANCH  56  80
BRANCH  68  91
ATOM     91  C   UNL     1      -1.911  -7.460  11.132  1.00  0.00     0.064 A 
ATOM     92  C   UNL     1      -0.734  -7.494  11.895  1.00  0.00     0.173 A 
ATOM     93  C   UNL     1      -3.067  -8.033  11.685  1.00  0.00     0.173 A 
ATOM     94  F   UNL     1       0.402  -6.974  11.407  1.00  0.00    -0.203 F 
ATOM     95  C   UNL     1      -0.708  -8.109  13.144  1.00  0.00     0.198 A 
ATOM     96  C   UNL     1      -3.046  -8.614  12.950  1.00  0.00     0.198 A 
ATOM     97  F   UNL     1      -4.222  -8.021  11.003  1.00  0.00    -0.203 F 
ATOM     98  F   UNL     1       0.442  -8.182  13.828  1.00  0.00    -0.200 F 
ATOM     99  C   UNL     1      -1.865  -8.661  13.674  1.00  0.00     0.200 A 
ATOM    100  F   UNL     1      -4.169  -9.132  13.467  1.00  0.00    -0.200 F 
ATOM    101  F   UNL     1      -1.839  -9.247  14.879  1.00  0.00    -0.200 F 
ENDBRANCH  68  91
ENDBRANCH  42  43
ENDBRANCH  35  37
ENDBRANCH  34  35
ENDBRANCH  33  34
ENDBRANCH  32  33
ENDBRANCH  31  32
ENDBRANCH   1  31
TORSDOF 18
