REMARK SMILES NS(=O)(=O)c1ccc(-n2nc(NC(=O)NCCCCCCCCCCC(=O)OCCOCCOC(=O)c3ccc(-c4c5nc(c(-c6c(F)c(F)c(F)c(F)c6F)c6ccc([nH]6)c(-c6c(F)c(F)c(F)c(F)c6F)c6nc(c(-c7c(F)c(F)c(F)c(F)c7F)c7ccc4[nH]7)C=C6)C=C5)cc3)cc2-c2ccccc2)cc1
REMARK SMILES IDX 24 1 23 2 22 3 21 4 20 5 19 6 18 7 17 8 16 9 15 10 12 11
REMARK SMILES IDX 13 12 14 14 11 16 9 17 10 18 101 19 100 20 8 21 5 22 6 23
REMARK SMILES IDX 109 24 7 25 108 26 2 27 3 28 4 29 1 30 102 33 103 34 107 35
REMARK SMILES IDX 104 36 106 37 105 38 25 39 26 40 27 41 28 42 29 43 30 44
REMARK SMILES IDX 31 45 32 46 33 47 34 48 35 49 36 50 37 51 38 52 99 53 39 54
REMARK SMILES IDX 98 55 40 56 41 57 42 58 92 59 43 60 97 61 91 62 93 63 44 64
REMARK SMILES IDX 96 65 90 66 89 67 45 69 77 70 57 71 76 72 58 73 61 74 75 75
REMARK SMILES IDX 94 76 59 77 60 78 74 80 95 81 62 82 46 83 47 84 55 85 48 86
REMARK SMILES IDX 49 87 53 88 56 89 50 90 51 91 54 92 52 93 78 94 79 95 87 96
REMARK SMILES IDX 80 97 81 98 85 99 88 100 82 101 83 102 86 103 84 104 63 105
REMARK SMILES IDX 64 106 72 107 65 108 66 109 70 110 73 111 67 112 68 113
REMARK SMILES IDX 71 114 69 115
REMARK H PARENT 12 13 15 15 1 31 1 32 93 68 61 79
REMARK Flexibility Score: inf
ROOT
ATOM      1  C   UNL     1      -3.615   3.071  -2.159  1.00  0.00     0.012 C 
ENDROOT
BRANCH   1   2
ATOM      2  C   UNL     1      -4.208   4.322  -1.505  1.00  0.00     0.001 C 
BRANCH   2   3
ATOM      3  C   UNL     1      -4.364   4.221   0.008  1.00  0.00     0.000 C 
BRANCH   3   4
ATOM      4  C   UNL     1      -3.021   4.202   0.728  1.00  0.00     0.000 C 
BRANCH   4   5
ATOM      5  C   UNL     1      -2.230   5.503   0.580  1.00  0.00     0.000 C 
BRANCH   5   6
ATOM      6  C   UNL     1      -2.964   6.764   1.046  1.00  0.00     0.000 C 
BRANCH   6   7
ATOM      7  C   UNL     1      -3.463   6.713   2.495  1.00  0.00     0.002 C 
BRANCH   7   8
ATOM      8  C   UNL     1      -2.421   6.296   3.532  1.00  0.00     0.021 C 
BRANCH   8   9
ATOM      9  C   UNL     1      -1.114   7.069   3.482  1.00  0.00     0.117 C 
BRANCH   9  10
ATOM     10  N   UNL     1      -1.188   8.433   3.946  1.00  0.00    -0.338 N 
ATOM     11  N   UNL     1       1.006   8.747   4.822  1.00  0.00    -0.291 N 
ATOM     12  C   UNL     1      -0.252   9.178   4.577  1.00  0.00     0.320 C 
ATOM     13  H   UNL     1       1.458   9.221   5.556  1.00  0.00     0.173 HD
ATOM     14  O   UNL     1      -0.607  10.262   5.050  1.00  0.00    -0.248 OA
ATOM     15  H   UNL     1      -2.044   8.889   3.779  1.00  0.00     0.165 HD
BRANCH  11  16
ATOM     16  C   UNL     1       1.771   7.765   4.231  1.00  0.00     0.157 A 
ATOM     17  N   UNL     1       2.276   6.112   3.011  1.00  0.00    -0.231 N 
ATOM     18  N   UNL     1       1.599   7.280   3.000  1.00  0.00    -0.149 NA
ATOM     19  C   UNL     1       3.247   6.112   4.004  1.00  0.00     0.076 A 
ATOM     20  C   UNL     1       2.892   7.154   4.842  1.00  0.00     0.078 A 
BRANCH  17  21
ATOM     21  C   UNL     1       1.879   5.046   2.155  1.00  0.00     0.065 A 
ATOM     22  C   UNL     1       1.084   2.956   0.481  1.00  0.00     0.082 A 
ATOM     23  C   UNL     1       1.496   2.675   1.785  1.00  0.00     0.024 A 
ATOM     24  C   UNL     1       1.055   4.275   0.014  1.00  0.00     0.024 A 
ATOM     25  C   UNL     1       1.904   3.720   2.618  1.00  0.00     0.030 A 
ATOM     26  C   UNL     1       1.424   5.326   0.862  1.00  0.00     0.030 A 
BRANCH  22  27
ATOM     27  S   UNL     1       0.639   1.655  -0.632  1.00  0.00     0.238 S 
ATOM     28  O   UNL     1       1.275   1.903  -1.902  1.00  0.00    -0.207 OA
ATOM     29  O   UNL     1      -0.780   1.408  -0.504  1.00  0.00    -0.207 OA
BRANCH  27  30
ATOM     30  N   UNL     1       1.400   0.290  -0.015  1.00  0.00    -0.225 NA
ATOM     31  H   UNL     1       1.191  -0.514  -0.608  1.00  0.00     0.137 HD
ATOM     32  H   UNL     1       1.063   0.111   0.931  1.00  0.00     0.137 HD
ENDBRANCH  27  30
ENDBRANCH  22  27
ENDBRANCH  17  21
BRANCH  19  33
ATOM     33  C   UNL     1       4.363   5.173   4.035  1.00  0.00     0.000 A 
ATOM     34  C   UNL     1       5.111   4.963   2.865  1.00  0.00     0.010 A 
ATOM     35  C   UNL     1       4.661   4.430   5.180  1.00  0.00     0.010 A 
ATOM     36  C   UNL     1       6.109   3.994   2.824  1.00  0.00     0.001 A 
ATOM     37  C   UNL     1       5.666   3.460   5.137  1.00  0.00     0.001 A 
ATOM     38  C   UNL     1       6.381   3.237   3.959  1.00  0.00     0.000 A 
ENDBRANCH  19  33
ENDBRANCH  11  16
ENDBRANCH   9  10
ENDBRANCH   8   9
ENDBRANCH   7   8
ENDBRANCH   6   7
ENDBRANCH   5   6
ENDBRANCH   4   5
ENDBRANCH   3   4
ENDBRANCH   2   3
ENDBRANCH   1   2
BRANCH   1  39
ATOM     39  C   UNL     1      -4.226   1.722  -1.748  1.00  0.00     0.123 C 
BRANCH  39  40
ATOM     40  C   UNL     1      -5.697   1.481  -2.033  1.00  0.00     0.305 C 
ATOM     41  O   UNL     1      -6.175   0.358  -2.133  1.00  0.00    -0.252 OA
BRANCH  40  42
ATOM     42  O   UNL     1      -6.395   2.632  -2.176  1.00  0.00    -0.463 OA
BRANCH  42  43
ATOM     43  C   UNL     1      -7.735   2.539  -2.687  1.00  0.00     0.261 C 
BRANCH  43  44
ATOM     44  C   UNL     1      -7.811   3.178  -4.074  1.00  0.00     0.202 C 
BRANCH  44  45
ATOM     45  O   UNL     1      -7.185   2.455  -5.137  1.00  0.00    -0.374 OA
BRANCH  45  46
ATOM     46  C   UNL     1      -5.765   2.477  -5.234  1.00  0.00     0.202 C 
BRANCH  46  47
ATOM     47  C   UNL     1      -5.138   3.727  -5.837  1.00  0.00     0.261 C 
BRANCH  47  48
ATOM     48  O   UNL     1      -5.324   4.862  -5.001  1.00  0.00    -0.460 OA
BRANCH  48  49
ATOM     49  C   UNL     1      -6.325   5.690  -5.389  1.00  0.00     0.338 C 
ATOM     50  O   UNL     1      -7.184   5.477  -6.215  1.00  0.00    -0.246 OA
BRANCH  49  51
ATOM     51  C   UNL     1      -6.093   6.996  -4.758  1.00  0.00     0.060 A 
ATOM     52  C   UNL     1      -6.817   8.062  -5.288  1.00  0.00     0.016 A 
ATOM     53  C   UNL     1      -4.996   7.193  -3.907  1.00  0.00     0.016 A 
ATOM     54  C   UNL     1      -6.283   9.322  -5.172  1.00  0.00     0.010 A 
ATOM     55  C   UNL     1      -4.465   8.452  -3.783  1.00  0.00     0.010 A 
ATOM     56  C   UNL     1      -5.061   9.478  -4.504  1.00  0.00    -0.014 A 
BRANCH  56  57
ATOM     57  C   UNL     1      -4.473  10.798  -4.489  1.00  0.00     0.031 A 
ATOM     58  C   UNL     1      -5.264  11.737  -3.668  1.00  0.00     0.074 A 
ATOM     59  C   UNL     1      -3.312  11.075  -5.110  1.00  0.00     0.049 A 
ATOM     60  N   UNL     1      -5.931  12.764  -4.074  1.00  0.00    -0.248 NA
ATOM     61  C   UNL     1      -5.519  11.366  -2.265  1.00  0.00     0.031 C 
ATOM     62  C   UNL     1      -2.365  10.144  -5.729  1.00  0.00     0.029 A 
ATOM     63  N   UNL     1      -2.686  12.275  -5.242  1.00  0.00    -0.354 N 
ATOM     64  C   UNL     1      -6.525  13.293  -2.933  1.00  0.00     0.074 A 
ATOM     65  C   UNL     1      -6.412  12.289  -1.912  1.00  0.00     0.031 C 
ATOM     66  C   UNL     1      -1.194  10.783  -5.957  1.00  0.00     0.029 A 
ATOM     67  C   UNL     1      -1.353  12.187  -5.626  1.00  0.00     0.049 A 
ATOM     68  H   UNL     1      -3.139  13.134  -5.080  1.00  0.00     0.167 HD
ATOM     69  C   UNL     1      -6.774  14.627  -2.856  1.00  0.00     0.037 A 
ATOM     70  C   UNL     1      -0.450  13.200  -5.578  1.00  0.00     0.037 A 
ATOM     71  C   UNL     1      -6.870  15.199  -4.179  1.00  0.00     0.049 A 
ATOM     72  C   UNL     1      -1.218  14.472  -5.520  1.00  0.00     0.074 A 
ATOM     73  C   UNL     1      -7.695  14.994  -5.269  1.00  0.00     0.029 A 
ATOM     74  N   UNL     1      -5.776  15.873  -4.664  1.00  0.00    -0.354 N 
ATOM     75  N   UNL     1      -1.938  14.926  -6.508  1.00  0.00    -0.248 NA
ATOM     76  C   UNL     1      -1.572  14.982  -4.203  1.00  0.00     0.031 C 
ATOM     77  C   UNL     1      -6.851  15.140  -6.411  1.00  0.00     0.029 A 
ATOM     78  C   UNL     1      -5.577  15.490  -5.964  1.00  0.00     0.049 A 
ATOM     79  H   UNL     1      -5.229  16.521  -4.164  1.00  0.00     0.167 HD
ATOM     80  C   UNL     1      -3.088  15.419  -5.908  1.00  0.00     0.074 A 
ATOM     81  C   UNL     1      -2.773  15.494  -4.483  1.00  0.00     0.031 C 
ATOM     82  C   UNL     1      -4.275  15.438  -6.584  1.00  0.00     0.037 A 
BRANCH  69  83
ATOM     83  C   UNL     1      -6.434  15.455  -1.632  1.00  0.00     0.064 A 
ATOM     84  C   UNL     1      -6.653  16.846  -1.693  1.00  0.00     0.173 A 
ATOM     85  C   UNL     1      -5.613  15.023  -0.565  1.00  0.00     0.173 A 
ATOM     86  F   UNL     1      -7.432  17.374  -2.648  1.00  0.00    -0.203 F 
ATOM     87  C   UNL     1      -5.986  17.736  -0.849  1.00  0.00     0.198 A 
ATOM     88  C   UNL     1      -4.984  15.913   0.303  1.00  0.00     0.198 A 
ATOM     89  F   UNL     1      -5.293  13.742  -0.360  1.00  0.00    -0.203 F 
ATOM     90  F   UNL     1      -6.108  19.055  -1.050  1.00  0.00    -0.200 F 
ATOM     91  C   UNL     1      -5.135  17.270   0.135  1.00  0.00     0.200 A 
ATOM     92  F   UNL     1      -4.160  15.437   1.247  1.00  0.00    -0.200 F 
ATOM     93  F   UNL     1      -4.431  18.122   0.889  1.00  0.00    -0.200 F 
ENDBRANCH  69  83
BRANCH  70  94
ATOM     94  C   UNL     1       0.986  13.130  -5.205  1.00  0.00     0.064 A 
ATOM     95  C   UNL     1       1.851  14.210  -5.448  1.00  0.00     0.173 A 
ATOM     96  C   UNL     1       1.472  12.122  -4.349  1.00  0.00     0.173 A 
ATOM     97  F   UNL     1       1.449  15.237  -6.211  1.00  0.00    -0.203 F 
ATOM     98  C   UNL     1       3.115  14.289  -4.851  1.00  0.00     0.198 A 
ATOM     99  C   UNL     1       2.735  12.199  -3.759  1.00  0.00     0.198 A 
ATOM    100  F   UNL     1       0.696  11.091  -3.988  1.00  0.00    -0.203 F 
ATOM    101  F   UNL     1       3.887  15.365  -5.057  1.00  0.00    -0.200 F 
ATOM    102  C   UNL     1       3.551  13.288  -3.999  1.00  0.00     0.200 A 
ATOM    103  F   UNL     1       3.129  11.241  -2.908  1.00  0.00    -0.200 F 
ATOM    104  F   UNL     1       4.735  13.391  -3.379  1.00  0.00    -0.200 F 
ENDBRANCH  70  94
BRANCH  82 105
ATOM    105  C   UNL     1      -4.239  15.173  -8.063  1.00  0.00     0.064 A 
ATOM    106  C   UNL     1      -3.836  13.954  -8.638  1.00  0.00     0.173 A 
ATOM    107  C   UNL     1      -4.766  16.147  -8.919  1.00  0.00     0.173 A 
ATOM    108  F   UNL     1      -3.411  12.939  -7.875  1.00  0.00    -0.203 F 
ATOM    109  C   UNL     1      -3.921  13.743 -10.014  1.00  0.00     0.198 A 
ATOM    110  C   UNL     1      -4.886  15.920 -10.286  1.00  0.00     0.198 A 
ATOM    111  F   UNL     1      -5.215  17.309  -8.418  1.00  0.00    -0.203 F 
ATOM    112  F   UNL     1      -3.520  12.578 -10.543  1.00  0.00    -0.200 F 
ATOM    113  C   UNL     1      -4.454  14.724 -10.835  1.00  0.00     0.200 A 
ATOM    114  F   UNL     1      -5.447  16.852 -11.069  1.00  0.00    -0.200 F 
ATOM    115  F   UNL     1      -4.576  14.506 -12.152  1.00  0.00    -0.200 F 
ENDBRANCH  82 105
ENDBRANCH  56  57
ENDBRANCH  49  51
ENDBRANCH  48  49
ENDBRANCH  47  48
ENDBRANCH  46  47
ENDBRANCH  45  46
ENDBRANCH  44  45
ENDBRANCH  43  44
ENDBRANCH  42  43
ENDBRANCH  40  42
ENDBRANCH  39  40
ENDBRANCH   1  39
TORSDOF 29
