REMARK SMILES CCCCc1nc(C[N@H+]2CC[NH2+][C@H](C(=O)OCCOCCOC(=O)c3ccc(-c4c5nc(c(-c6c(F)c(F)c(F)c(F)c6F)c6ccc([nH]6)c(-c6c(F)c(F)c(F)c(F)c6F)c6nc(c(-c7c(F)c(F)c(F)c(F)c7F)c7ccc4[nH]7)C=C6)C=C5)cc3)C2)c(Cl)[nH]1
REMARK SMILES IDX 17 1 16 2 14 3 15 4 13 5 9 6 10 7 88 8 11 10 12 11 8 14 7 15
REMARK SMILES IDX 5 16 6 17 91 18 89 19 90 21 4 22 3 23 2 24 1 25 18 26 19 27
REMARK SMILES IDX 20 28 21 29 22 30 23 31 24 32 25 33 26 34 87 35 27 36 86 37
REMARK SMILES IDX 28 38 29 39 30 40 80 41 31 42 85 43 79 44 81 45 32 46 84 47
REMARK SMILES IDX 78 48 77 49 33 51 65 52 45 53 64 54 46 55 49 56 63 57 82 58
REMARK SMILES IDX 47 59 48 60 62 62 83 63 50 64 34 65 35 66 43 67 36 68 37 69
REMARK SMILES IDX 41 70 44 71 38 72 39 73 42 74 40 75 66 76 67 77 75 78 68 79
REMARK SMILES IDX 69 80 73 81 76 82 70 83 71 84 74 85 72 86 51 87 52 88 60 89
REMARK SMILES IDX 53 90 54 91 58 92 61 93 55 94 56 95 59 96 57 97
REMARK H PARENT 9 9 12 12 12 13 91 20 81 50 49 61
REMARK Flexibility Score: inf
ROOT
ATOM      1  C   UNL     1       1.399  -6.765  -1.543  1.00  0.00     0.261 C 
ENDROOT
BRANCH   1   2
ATOM      2  O   UNL     1       0.382  -5.763  -1.351  1.00  0.00    -0.459 OA
BRANCH   2   3
ATOM      3  C   UNL     1      -0.854  -6.213  -0.972  1.00  0.00     0.371 C 
ATOM      4  O   UNL     1      -1.153  -7.397  -0.866  1.00  0.00    -0.245 OA
BRANCH   3   5
ATOM      5  C   UNL     1      -1.802  -5.045  -0.625  1.00  0.00     0.348 C 
ATOM      6  N   UNL     1      -4.273  -4.702   0.035  1.00  0.00    -0.320 N 
ATOM      7  C   UNL     1      -4.350  -3.739  -1.064  1.00  0.00     0.324 C 
ATOM      8  C   UNL     1      -3.148  -5.636  -0.121  1.00  0.00     0.341 C 
ATOM      9  H   UNL     1      -5.117  -5.266  -0.063  1.00  0.00     0.348 HD
ATOM     10  C   UNL     1      -2.997  -3.136  -1.503  1.00  0.00     0.323 C 
ATOM     11  N   UNL     1      -1.966  -4.145  -1.806  1.00  0.00    -0.325 N 
ATOM     12  H   UNL     1      -1.081  -3.679  -2.006  1.00  0.00     0.347 HD
ATOM     13  H   UNL     1      -2.250  -4.692  -2.618  1.00  0.00     0.347 HD
BRANCH   6  14
ATOM     14  C   UNL     1      -4.484  -4.179   1.390  1.00  0.00     0.323 C 
BRANCH  14  15
ATOM     15  C   UNL     1      -3.656  -2.999   1.769  1.00  0.00     0.132 A 
ATOM     16  C   UNL     1      -1.884  -1.878   2.260  1.00  0.00     0.107 A 
ATOM     17  N   UNL     1      -2.309  -3.112   2.064  1.00  0.00    -0.231 NA
ATOM     18  N   UNL     1      -2.927  -0.988   2.261  1.00  0.00    -0.333 N 
ATOM     19  C   UNL     1      -4.027  -1.682   1.877  1.00  0.00     0.135 A 
ATOM     20  H   UNL     1      -2.886  -0.033   2.494  1.00  0.00     0.169 HD
ATOM     21  Cl  UNL     1      -5.452  -0.822   1.584  1.00  0.00    -0.062 Cl
BRANCH  16  22
ATOM     22  C   UNL     1      -0.474  -1.418   2.232  1.00  0.00     0.075 C 
BRANCH  22  23
ATOM     23  C   UNL     1      -0.045  -1.281   0.771  1.00  0.00     0.008 C 
BRANCH  23  24
ATOM     24  C   UNL     1      -0.614  -0.048   0.077  1.00  0.00    -0.003 C 
ATOM     25  C   UNL     1       0.200   1.171   0.433  1.00  0.00     0.004 C 
ENDBRANCH  23  24
ENDBRANCH  22  23
ENDBRANCH  16  22
ENDBRANCH  14  15
ENDBRANCH   6  14
ENDBRANCH   3   5
ENDBRANCH   2   3
ENDBRANCH   1   2
BRANCH   1  26
ATOM     26  C   UNL     1       2.651  -6.529  -0.686  1.00  0.00     0.202 C 
BRANCH  26  27
ATOM     27  O   UNL     1       2.484  -6.516   0.727  1.00  0.00    -0.374 OA
BRANCH  27  28
ATOM     28  C   UNL     1       1.606  -5.546   1.268  1.00  0.00     0.202 C 
BRANCH  28  29
ATOM     29  C   UNL     1       1.900  -4.068   1.012  1.00  0.00     0.261 C 
BRANCH  29  30
ATOM     30  O   UNL     1       2.029  -3.605  -0.342  1.00  0.00    -0.460 OA
BRANCH  30  31
ATOM     31  C   UNL     1       3.255  -3.113  -0.652  1.00  0.00     0.338 C 
ATOM     32  O   UNL     1       4.319  -3.502  -0.170  1.00  0.00    -0.246 OA
BRANCH  31  33
ATOM     33  C   UNL     1       3.159  -1.855  -1.435  1.00  0.00     0.060 A 
ATOM     34  C   UNL     1       4.308  -1.058  -1.532  1.00  0.00     0.016 A 
ATOM     35  C   UNL     1       1.938  -1.344  -1.878  1.00  0.00     0.016 A 
ATOM     36  C   UNL     1       4.200   0.292  -1.867  1.00  0.00     0.010 A 
ATOM     37  C   UNL     1       1.836   0.012  -2.199  1.00  0.00     0.010 A 
ATOM     38  C   UNL     1       2.944   0.858  -2.099  1.00  0.00    -0.014 A 
BRANCH  38  39
ATOM     39  C   UNL     1       2.855   2.254  -2.555  1.00  0.00     0.031 A 
ATOM     40  C   UNL     1       3.130   2.336  -4.007  1.00  0.00     0.074 A 
ATOM     41  C   UNL     1       2.527   3.376  -1.868  1.00  0.00     0.049 A 
ATOM     42  N   UNL     1       4.226   2.769  -4.536  1.00  0.00    -0.248 NA
ATOM     43  C   UNL     1       2.212   1.694  -4.957  1.00  0.00     0.031 C 
ATOM     44  C   UNL     1       2.072   3.523  -0.491  1.00  0.00     0.029 A 
ATOM     45  N   UNL     1       2.463   4.673  -2.317  1.00  0.00    -0.354 N 
ATOM     46  C   UNL     1       4.051   2.639  -5.904  1.00  0.00     0.074 A 
ATOM     47  C   UNL     1       2.918   1.772  -6.086  1.00  0.00     0.031 C 
ATOM     48  C   UNL     1       1.508   4.742  -0.311  1.00  0.00     0.029 A 
ATOM     49  C   UNL     1       1.746   5.546  -1.496  1.00  0.00     0.049 A 
ATOM     50  H   UNL     1       2.891   4.964  -3.155  1.00  0.00     0.167 HD
ATOM     51  C   UNL     1       4.666   3.505  -6.753  1.00  0.00     0.037 A 
ATOM     52  C   UNL     1       1.389   6.836  -1.754  1.00  0.00     0.037 A 
ATOM     53  C   UNL     1       5.766   4.178  -6.098  1.00  0.00     0.049 A 
ATOM     54  C   UNL     1       2.318   7.349  -2.787  1.00  0.00     0.074 A 
ATOM     55  C   UNL     1       6.891   3.758  -5.409  1.00  0.00     0.029 A 
ATOM     56  N   UNL     1       5.607   5.500  -5.762  1.00  0.00    -0.354 N 
ATOM     57  N   UNL     1       3.572   7.614  -2.558  1.00  0.00    -0.248 NA
ATOM     58  C   UNL     1       1.962   7.133  -4.180  1.00  0.00     0.031 C 
ATOM     59  C   UNL     1       7.040   4.686  -4.336  1.00  0.00     0.029 A 
ATOM     60  C   UNL     1       6.054   5.659  -4.478  1.00  0.00     0.049 A 
ATOM     61  H   UNL     1       5.239   6.206  -6.341  1.00  0.00     0.167 HD
ATOM     62  C   UNL     1       4.227   7.115  -3.669  1.00  0.00     0.074 A 
ATOM     63  C   UNL     1       3.183   6.916  -4.674  1.00  0.00     0.031 C 
ATOM     64  C   UNL     1       5.496   6.627  -3.568  1.00  0.00     0.037 A 
BRANCH  51  65
ATOM     65  C   UNL     1       3.999   4.062  -7.991  1.00  0.00     0.064 A 
ATOM     66  C   UNL     1       4.746   4.921  -8.821  1.00  0.00     0.173 A 
ATOM     67  C   UNL     1       2.604   4.061  -8.222  1.00  0.00     0.173 A 
ATOM     68  F   UNL     1       6.078   5.011  -8.687  1.00  0.00    -0.203 F 
ATOM     69  C   UNL     1       4.133   5.795  -9.720  1.00  0.00     0.198 A 
ATOM     70  C   UNL     1       2.002   4.893  -9.162  1.00  0.00     0.198 A 
ATOM     71  F   UNL     1       1.745   3.357  -7.480  1.00  0.00    -0.203 F 
ATOM     72  F   UNL     1       4.872   6.704 -10.369  1.00  0.00    -0.200 F 
ATOM     73  C   UNL     1       2.760   5.788  -9.882  1.00  0.00     0.200 A 
ATOM     74  F   UNL     1       0.668   4.879  -9.289  1.00  0.00    -0.200 F 
ATOM     75  F   UNL     1       2.163   6.675 -10.687  1.00  0.00    -0.200 F 
ENDBRANCH  51  65
BRANCH  52  76
ATOM     76  C   UNL     1       0.190   7.621  -1.347  1.00  0.00     0.064 A 
ATOM     77  C   UNL     1       0.121   9.015  -1.555  1.00  0.00     0.173 A 
ATOM     78  C   UNL     1      -1.027   6.985  -1.043  1.00  0.00     0.173 A 
ATOM     79  F   UNL     1       1.221   9.707  -1.886  1.00  0.00    -0.203 F 
ATOM     80  C   UNL     1      -1.093   9.714  -1.507  1.00  0.00     0.198 A 
ATOM     81  C   UNL     1      -2.237   7.684  -0.991  1.00  0.00     0.198 A 
ATOM     82  F   UNL     1      -1.083   5.655  -0.887  1.00  0.00    -0.203 F 
ATOM     83  F   UNL     1      -1.123  11.025  -1.784  1.00  0.00    -0.200 F 
ATOM     84  C   UNL     1      -2.273   9.044  -1.240  1.00  0.00     0.200 A 
ATOM     85  F   UNL     1      -3.379   7.019  -0.765  1.00  0.00    -0.200 F 
ATOM     86  F   UNL     1      -3.445   9.696  -1.265  1.00  0.00    -0.200 F 
ENDBRANCH  52  76
BRANCH  64  87
ATOM     87  C   UNL     1       6.289   6.940  -2.332  1.00  0.00     0.064 A 
ATOM     88  C   UNL     1       5.916   6.579  -1.026  1.00  0.00     0.173 A 
ATOM     89  C   UNL     1       7.553   7.524  -2.504  1.00  0.00     0.173 A 
ATOM     90  F   UNL     1       4.769   5.927  -0.785  1.00  0.00    -0.203 F 
ATOM     91  C   UNL     1       6.755   6.837   0.059  1.00  0.00     0.198 A 
ATOM     92  C   UNL     1       8.404   7.741  -1.426  1.00  0.00     0.198 A 
ATOM     93  F   UNL     1       7.981   7.849  -3.734  1.00  0.00    -0.203 F 
ATOM     94  F   UNL     1       6.371   6.500   1.300  1.00  0.00    -0.200 F 
ATOM     95  C   UNL     1       8.000   7.409  -0.143  1.00  0.00     0.200 A 
ATOM     96  F   UNL     1       9.626   8.250  -1.635  1.00  0.00    -0.200 F 
ATOM     97  F   UNL     1       8.823   7.618   0.894  1.00  0.00    -0.200 F 
ENDBRANCH  64  87
ENDBRANCH  38  39
ENDBRANCH  31  33
ENDBRANCH  30  31
ENDBRANCH  29  30
ENDBRANCH  28  29
ENDBRANCH  27  28
ENDBRANCH  26  27
ENDBRANCH   1  26
TORSDOF 19
