REMARK SMILES O=C(OCCOCCOC(=O)[C@@H](c1ccccc1)N1C(=O)/C(=C\c2ccc(-c3ccc(F)cc3)o2)SC1=S)c1ccc(-c2c3nc(c(-c4c(F)c(F)c(F)c(F)c4F)c4ccc([nH]4)c(-c4c(F)c(F)c(F)c(F)c4F)c4nc(c(-c5c(F)c(F)c(F)c(F)c5F)c5ccc2[nH]5)C=C4)C=C3)cc1
REMARK SMILES IDX 7 1 6 2 5 3 4 4 3 5 2 6 1 7 39 8 40 9 101 10 41 11 100 12
REMARK SMILES IDX 42 13 43 14 44 15 94 16 45 17 99 18 93 19 95 20 46 21 98 22
REMARK SMILES IDX 92 23 91 24 47 26 79 27 59 28 78 29 60 30 63 31 77 32 96 33
REMARK SMILES IDX 61 34 62 35 76 37 97 38 64 39 48 40 49 41 57 42 50 43 51 44
REMARK SMILES IDX 55 45 58 46 52 47 53 48 56 49 54 50 80 51 81 52 89 53 82 54
REMARK SMILES IDX 83 55 87 56 90 57 84 58 85 59 88 60 86 61 65 62 66 63 74 64
REMARK SMILES IDX 67 65 68 66 72 67 75 68 69 69 70 70 73 71 71 72 8 73 9 74
REMARK SMILES IDX 10 75 11 76 12 77 13 78 14 79 18 80 15 81 17 82 16 83 19 84
REMARK SMILES IDX 20 85 37 86 21 87 22 88 36 89 38 90 23 91 24 92 25 93 35 94
REMARK SMILES IDX 26 95 27 96 28 97 29 98 34 99 30 100 33 101 31 102 32 103
REMARK H PARENT 95 25 63 36
REMARK Flexibility Score: inf
ROOT
ATOM      1  C   UNL     1       3.089  -1.309  -1.495  1.00  0.00     0.202 C 
ENDROOT
BRANCH   1   2
ATOM      2  O   UNL     1       4.514  -1.214  -1.398  1.00  0.00    -0.374 OA
BRANCH   2   3
ATOM      3  C   UNL     1       5.144  -1.133  -0.111  1.00  0.00     0.202 C 
BRANCH   3   4
ATOM      4  C   UNL     1       4.848   0.068   0.827  1.00  0.00     0.261 C 
BRANCH   4   5
ATOM      5  O   UNL     1       3.446   0.323   1.036  1.00  0.00    -0.460 OA
BRANCH   5   6
ATOM      6  C   UNL     1       2.653   1.243   0.427  1.00  0.00     0.338 C 
ATOM      7  O   UNL     1       1.506   1.410   0.837  1.00  0.00    -0.246 OA
BRANCH   6   8
ATOM      8  C   UNL     1       3.088   2.012  -0.777  1.00  0.00     0.060 A 
ATOM      9  C   UNL     1       4.195   1.671  -1.549  1.00  0.00     0.016 A 
ATOM     10  C   UNL     1       2.304   3.095  -1.205  1.00  0.00     0.016 A 
ATOM     11  C   UNL     1       4.553   2.349  -2.680  1.00  0.00     0.010 A 
ATOM     12  C   UNL     1       2.668   3.824  -2.342  1.00  0.00     0.010 A 
ATOM     13  C   UNL     1       3.808   3.447  -3.057  1.00  0.00    -0.014 A 
BRANCH  13  14
ATOM     14  C   UNL     1       4.460   4.284  -4.055  1.00  0.00     0.031 A 
ATOM     15  C   UNL     1       5.274   5.421  -3.538  1.00  0.00     0.074 A 
ATOM     16  C   UNL     1       4.530   3.846  -5.320  1.00  0.00     0.049 A 
ATOM     17  N   UNL     1       5.879   6.368  -4.189  1.00  0.00    -0.248 NA
ATOM     18  C   UNL     1       5.451   5.485  -2.073  1.00  0.00     0.031 C 
ATOM     19  C   UNL     1       3.970   2.579  -5.805  1.00  0.00     0.029 A 
ATOM     20  N   UNL     1       5.127   4.393  -6.415  1.00  0.00    -0.354 N 
ATOM     21  C   UNL     1       6.443   7.180  -3.216  1.00  0.00     0.074 A 
ATOM     22  C   UNL     1       6.152   6.595  -1.931  1.00  0.00     0.031 C 
ATOM     23  C   UNL     1       4.232   2.462  -7.115  1.00  0.00     0.029 A 
ATOM     24  C   UNL     1       4.881   3.686  -7.563  1.00  0.00     0.049 A 
ATOM     25  H   UNL     1       5.678   5.208  -6.384  1.00  0.00     0.167 HD
ATOM     26  C   UNL     1       7.105   8.340  -3.415  1.00  0.00     0.037 A 
ATOM     27  C   UNL     1       5.085   4.058  -8.838  1.00  0.00     0.037 A 
ATOM     28  C   UNL     1       7.342   8.852  -4.736  1.00  0.00     0.049 A 
ATOM     29  C   UNL     1       5.704   5.412  -9.051  1.00  0.00     0.074 A 
ATOM     30  C   UNL     1       7.904  10.049  -5.122  1.00  0.00     0.029 A 
ATOM     31  N   UNL     1       7.008   8.162  -5.901  1.00  0.00    -0.354 N 
ATOM     32  N   UNL     1       6.115   6.277  -8.150  1.00  0.00    -0.248 NA
ATOM     33  C   UNL     1       5.869   5.857 -10.435  1.00  0.00     0.031 C 
ATOM     34  C   UNL     1       7.853  10.109  -6.520  1.00  0.00     0.029 A 
ATOM     35  C   UNL     1       7.328   8.918  -7.010  1.00  0.00     0.049 A 
ATOM     36  H   UNL     1       6.602   7.266  -5.928  1.00  0.00     0.167 HD
ATOM     37  C   UNL     1       6.608   7.363  -8.852  1.00  0.00     0.074 A 
ATOM     38  C   UNL     1       6.443   7.041 -10.260  1.00  0.00     0.031 C 
ATOM     39  C   UNL     1       7.149   8.518  -8.387  1.00  0.00     0.037 A 
BRANCH  26  40
ATOM     40  C   UNL     1       7.439   9.146  -2.194  1.00  0.00     0.064 A 
ATOM     41  C   UNL     1       8.380   8.725  -1.241  1.00  0.00     0.173 A 
ATOM     42  C   UNL     1       6.711  10.314  -1.916  1.00  0.00     0.173 A 
ATOM     43  F   UNL     1       9.075   7.593  -1.432  1.00  0.00    -0.203 F 
ATOM     44  C   UNL     1       8.541   9.412  -0.038  1.00  0.00     0.198 A 
ATOM     45  C   UNL     1       6.898  11.017  -0.729  1.00  0.00     0.198 A 
ATOM     46  F   UNL     1       5.785  10.755  -2.781  1.00  0.00    -0.203 F 
ATOM     47  F   UNL     1       9.377   8.937   0.897  1.00  0.00    -0.200 F 
ATOM     48  C   UNL     1       7.801  10.557   0.216  1.00  0.00     0.200 A 
ATOM     49  F   UNL     1       6.179  12.121  -0.486  1.00  0.00    -0.200 F 
ATOM     50  F   UNL     1       7.938  11.201   1.384  1.00  0.00    -0.200 F 
ENDBRANCH  26  40
BRANCH  27  51
ATOM     51  C   UNL     1       4.601   3.191  -9.941  1.00  0.00     0.064 A 
ATOM     52  C   UNL     1       5.488   2.553 -10.816  1.00  0.00     0.173 A 
ATOM     53  C   UNL     1       3.229   2.923 -10.099  1.00  0.00     0.173 A 
ATOM     54  F   UNL     1       6.805   2.781 -10.717  1.00  0.00    -0.203 F 
ATOM     55  C   UNL     1       5.024   1.680 -11.801  1.00  0.00     0.198 A 
ATOM     56  C   UNL     1       2.769   2.029 -11.063  1.00  0.00     0.198 A 
ATOM     57  F   UNL     1       2.333   3.502  -9.285  1.00  0.00    -0.203 F 
ATOM     58  F   UNL     1       5.893   1.097 -12.638  1.00  0.00    -0.200 F 
ATOM     59  C   UNL     1       3.668   1.411 -11.917  1.00  0.00     0.200 A 
ATOM     60  F   UNL     1       1.460   1.757 -11.153  1.00  0.00    -0.200 F 
ATOM     61  F   UNL     1       3.227   0.555 -12.849  1.00  0.00    -0.200 F 
ENDBRANCH  27  51
BRANCH  39  62
ATOM     62  C   UNL     1       7.656   9.480  -9.413  1.00  0.00     0.064 A 
ATOM     63  C   UNL     1       6.786  10.285 -10.159  1.00  0.00     0.173 A 
ATOM     64  C   UNL     1       9.038   9.671  -9.560  1.00  0.00     0.173 A 
ATOM     65  F   UNL     1       5.459  10.123 -10.057  1.00  0.00    -0.203 F 
ATOM     66  C   UNL     1       7.287  11.251 -11.024  1.00  0.00     0.198 A 
ATOM     67  C   UNL     1       9.532  10.659 -10.400  1.00  0.00     0.198 A 
ATOM     68  F   UNL     1       9.902   8.925  -8.854  1.00  0.00    -0.203 F 
ATOM     69  F   UNL     1       6.443  11.998 -11.749  1.00  0.00    -0.200 F 
ATOM     70  C   UNL     1       8.657  11.447 -11.132  1.00  0.00     0.200 A 
ATOM     71  F   UNL     1      10.854  10.860 -10.488  1.00  0.00    -0.200 F 
ATOM     72  F   UNL     1       9.135  12.400 -11.943  1.00  0.00    -0.200 F 
ENDBRANCH  39  62
ENDBRANCH  13  14
ENDBRANCH   6   8
ENDBRANCH   5   6
ENDBRANCH   4   5
ENDBRANCH   3   4
ENDBRANCH   2   3
ENDBRANCH   1   2
BRANCH   1  73
ATOM     73  C   UNL     1       2.621  -2.678  -1.951  1.00  0.00     0.261 C 
BRANCH  73  74
ATOM     74  O   UNL     1       2.787  -3.540  -0.826  1.00  0.00    -0.461 OA
BRANCH  74  75
ATOM     75  C   UNL     1       3.985  -4.160  -0.767  1.00  0.00     0.334 C 
ATOM     76  O   UNL     1       4.763  -4.258  -1.712  1.00  0.00    -0.249 OA
BRANCH  75  77
ATOM     77  C   UNL     1       4.212  -4.854   0.558  1.00  0.00     0.232 C 
BRANCH  77  78
ATOM     78  C   UNL     1       3.718  -4.338   1.909  1.00  0.00    -0.014 A 
ATOM     79  C   UNL     1       3.321  -3.011   2.130  1.00  0.00     0.006 A 
ATOM     80  C   UNL     1       3.936  -5.132   3.052  1.00  0.00     0.006 A 
ATOM     81  C   UNL     1       3.261  -2.465   3.417  1.00  0.00     0.000 A 
ATOM     82  C   UNL     1       3.831  -4.603   4.342  1.00  0.00     0.000 A 
ATOM     83  C   UNL     1       3.528  -3.259   4.524  1.00  0.00     0.000 A 
ENDBRANCH  77  78
BRANCH  77  84
ATOM     84  N   UNL     1       4.007  -6.271   0.274  1.00  0.00    -0.274 N 
ATOM     85  C   UNL     1       5.140  -7.058   0.217  1.00  0.00     0.267 C 
ATOM     86  C   UNL     1       2.816  -6.878  -0.064  1.00  0.00     0.149 C 
ATOM     87  O   UNL     1       6.285  -6.676   0.328  1.00  0.00    -0.268 OA
ATOM     88  C   UNL     1       4.729  -8.470   0.020  1.00  0.00     0.084 C 
ATOM     89  S   UNL     1       3.144  -8.520  -0.637  1.00  0.00    -0.054 SA
ATOM     90  S   UNL     1       1.265  -6.278   0.020  1.00  0.00    -0.052 S 
ATOM     91  C   UNL     1       5.373  -9.528   0.518  1.00  0.00     0.068 C 
BRANCH  91  92
ATOM     92  C   UNL     1       6.417  -9.338   1.457  1.00  0.00     0.128 A 
ATOM     93  C   UNL     1       6.341  -8.757   2.721  1.00  0.00     0.051 A 
ATOM     94  O   UNL     1       7.716  -9.705   1.238  1.00  0.00    -0.457 OA
ATOM     95  C   UNL     1       7.640  -8.744   3.267  1.00  0.00     0.051 A 
ATOM     96  C   UNL     1       8.445  -9.336   2.324  1.00  0.00     0.134 A 
BRANCH  96  97
ATOM     97  C   UNL     1       9.845  -9.687   2.280  1.00  0.00     0.017 A 
ATOM     98  C   UNL     1      10.660  -9.241   1.232  1.00  0.00     0.015 A 
ATOM     99  C   UNL     1      10.382 -10.505   3.282  1.00  0.00     0.015 A 
ATOM    100  C   UNL     1      12.002  -9.619   1.183  1.00  0.00     0.040 A 
ATOM    101  C   UNL     1      11.719 -10.892   3.225  1.00  0.00     0.040 A 
ATOM    102  C   UNL     1      12.515 -10.446   2.176  1.00  0.00     0.123 A 
ATOM    103  F   UNL     1      13.798 -10.826   2.119  1.00  0.00    -0.207 F 
ENDBRANCH  96  97
ENDBRANCH  91  92
ENDBRANCH  77  84
ENDBRANCH  75  77
ENDBRANCH  74  75
ENDBRANCH  73  74
ENDBRANCH   1  73
TORSDOF 18
