REMARK SMILES Cc1cc(C(=O)N[C@H]2C=C[C@H](C(=O)OCCOCCOC(=O)c3ccc(-c4c5nc(c(-c6c(F)c(F)c(F)c(F)c6F)c6ccc([nH]6)c(-c6c(F)c(F)c(F)c(F)c6F)c6nc(c(-c7c(F)c(F)c(F)c(F)c7F)c7ccc4[nH]7)C=C6)C=C5)cc3)C2)ccc1F
REMARK SMILES IDX 17 1 16 2 15 3 14 4 12 5 13 6 11 7 8 8 9 9 86 10 10 11 7 12
REMARK SMILES IDX 5 13 6 14 4 16 1 17 2 18 3 19 89 20 88 21 90 22 87 23 18 24
REMARK SMILES IDX 19 25 20 26 21 27 22 28 23 29 24 30 85 31 25 32 84 33 26 34
REMARK SMILES IDX 27 35 28 36 78 37 29 38 83 39 77 40 79 41 30 42 82 43 76 44
REMARK SMILES IDX 75 45 31 47 63 48 43 49 62 50 44 51 47 52 61 53 80 54 45 55
REMARK SMILES IDX 46 56 60 58 81 59 48 60 32 61 33 62 41 63 34 64 35 65 39 66
REMARK SMILES IDX 42 67 36 68 37 69 40 70 38 71 64 72 65 73 73 74 66 75 67 76
REMARK SMILES IDX 71 77 74 78 68 79 69 80 72 81 70 82 49 83 50 84 58 85 51 86
REMARK SMILES IDX 52 87 56 88 59 89 53 90 54 91 57 92 55 93
REMARK H PARENT 7 15 79 46 47 57
REMARK Flexibility Score: inf
ROOT
ATOM      1  O   UNL     1       2.543   3.188   1.742  1.00  0.00    -0.374 OA
ENDROOT
BRANCH   1   2
ATOM      2  C   UNL     1       3.053   4.155   0.841  1.00  0.00     0.202 C 
BRANCH   2   3
ATOM      3  C   UNL     1       2.175   5.172   0.080  1.00  0.00     0.261 C 
BRANCH   3   4
ATOM      4  O   UNL     1       0.924   5.494   0.697  1.00  0.00    -0.463 OA
BRANCH   4   5
ATOM      5  C   UNL     1      -0.098   4.723   0.264  1.00  0.00     0.312 C 
ATOM      6  O   UNL     1       0.006   3.950  -0.680  1.00  0.00    -0.252 OA
BRANCH   5   7
ATOM      7  C   UNL     1      -1.349   4.848   1.145  1.00  0.00     0.124 C 
ATOM      8  C   UNL     1      -2.740   3.352  -0.084  1.00  0.00     0.106 C 
ATOM      9  C   UNL     1      -3.301   4.739  -0.161  1.00  0.00    -0.006 C 
ATOM     10  C   UNL     1      -1.987   3.452   1.244  1.00  0.00     0.048 C 
ATOM     11  C   UNL     1      -2.474   5.590   0.474  1.00  0.00    -0.014 C 
BRANCH   8  12
ATOM     12  N   UNL     1      -3.688   2.291  -0.160  1.00  0.00    -0.346 N 
ATOM     13  C   UNL     1      -3.456   0.941  -0.350  1.00  0.00     0.251 C 
ATOM     14  O   UNL     1      -4.444   0.217  -0.488  1.00  0.00    -0.269 OA
ATOM     15  H   UNL     1      -4.632   2.553  -0.066  1.00  0.00     0.164 HD
BRANCH  13  16
ATOM     16  C   UNL     1      -2.094   0.293  -0.316  1.00  0.00     0.040 A 
ATOM     17  C   UNL     1       1.654   0.944  -0.753  1.00  0.00     0.047 C 
ATOM     18  C   UNL     1       0.354   0.230  -0.520  1.00  0.00    -0.015 A 
ATOM     19  C   UNL     1      -0.882   0.880  -0.706  1.00  0.00     0.020 A 
ATOM     20  C   UNL     1       0.357  -1.071  -0.029  1.00  0.00     0.126 A 
ATOM     21  C   UNL     1      -0.833  -1.719   0.271  1.00  0.00     0.040 A 
ATOM     22  F   UNL     1       1.517  -1.716   0.158  1.00  0.00    -0.207 F 
ATOM     23  C   UNL     1      -2.048  -1.036   0.140  1.00  0.00     0.017 A 
ENDBRANCH  13  16
ENDBRANCH   8  12
ENDBRANCH   5   7
ENDBRANCH   4   5
ENDBRANCH   3   4
ENDBRANCH   2   3
ENDBRANCH   1   2
BRANCH   1  24
ATOM     24  C   UNL     1       1.567   3.411   2.742  1.00  0.00     0.202 C 
BRANCH  24  25
ATOM     25  C   UNL     1       1.673   4.541   3.758  1.00  0.00     0.261 C 
BRANCH  25  26
ATOM     26  O   UNL     1       1.443   5.835   3.211  1.00  0.00    -0.460 OA
BRANCH  26  27
ATOM     27  C   UNL     1       2.565   6.487   2.840  1.00  0.00     0.338 C 
ATOM     28  O   UNL     1       3.696   6.041   2.820  1.00  0.00    -0.246 OA
BRANCH  27  29
ATOM     29  C   UNL     1       2.317   7.921   2.634  1.00  0.00     0.060 A 
ATOM     30  C   UNL     1       3.493   8.657   2.430  1.00  0.00     0.016 A 
ATOM     31  C   UNL     1       1.196   8.461   3.262  1.00  0.00     0.016 A 
ATOM     32  C   UNL     1       3.702   9.762   3.223  1.00  0.00     0.010 A 
ATOM     33  C   UNL     1       1.405   9.566   4.047  1.00  0.00     0.010 A 
ATOM     34  C   UNL     1       2.689  10.121   4.106  1.00  0.00    -0.014 A 
BRANCH  34  35
ATOM     35  C   UNL     1       2.895  11.118   5.125  1.00  0.00     0.031 A 
ATOM     36  C   UNL     1       2.863  12.522   4.698  1.00  0.00     0.074 A 
ATOM     37  C   UNL     1       3.092  10.752   6.410  1.00  0.00     0.049 A 
ATOM     38  N   UNL     1       3.485  13.469   5.303  1.00  0.00    -0.248 NA
ATOM     39  C   UNL     1       2.184  12.951   3.478  1.00  0.00     0.031 C 
ATOM     40  C   UNL     1       2.986  11.618   7.574  1.00  0.00     0.029 A 
ATOM     41  N   UNL     1       3.549   9.525   6.922  1.00  0.00    -0.354 N 
ATOM     42  C   UNL     1       3.065  14.650   4.743  1.00  0.00     0.074 A 
ATOM     43  C   UNL     1       2.337  14.277   3.552  1.00  0.00     0.031 C 
ATOM     44  C   UNL     1       3.564  11.016   8.624  1.00  0.00     0.029 A 
ATOM     45  C   UNL     1       4.212   9.812   8.140  1.00  0.00     0.049 A 
ATOM     46  H   UNL     1       3.431   8.637   6.513  1.00  0.00     0.167 HD
ATOM     47  C   UNL     1       3.247  15.804   5.441  1.00  0.00     0.037 A 
ATOM     48  C   UNL     1       5.531   9.518   8.352  1.00  0.00     0.037 A 
ATOM     49  C   UNL     1       3.927  15.540   6.704  1.00  0.00     0.049 A 
ATOM     50  C   UNL     1       6.396  10.719   8.564  1.00  0.00     0.074 A 
ATOM     51  C   UNL     1       3.433  15.256   7.968  1.00  0.00     0.029 A 
ATOM     52  N   UNL     1       5.261  15.147   6.703  1.00  0.00    -0.354 N 
ATOM     53  N   UNL     1       6.035  11.921   8.220  1.00  0.00    -0.248 NA
ATOM     54  C   UNL     1       7.736  10.666   9.135  1.00  0.00     0.031 C 
ATOM     55  C   UNL     1       4.468  14.646   8.717  1.00  0.00     0.029 A 
ATOM     56  C   UNL     1       5.599  14.587   7.922  1.00  0.00     0.049 A 
ATOM     57  H   UNL     1       5.877  15.252   5.942  1.00  0.00     0.167 HD
ATOM     58  C   UNL     1       7.052  12.789   8.493  1.00  0.00     0.074 A 
ATOM     59  C   UNL     1       8.086  11.962   9.087  1.00  0.00     0.031 C 
ATOM     60  C   UNL     1       6.949  14.114   8.188  1.00  0.00     0.037 A 
BRANCH  47  61
ATOM     61  C   UNL     1       2.501  17.074   5.129  1.00  0.00     0.064 A 
ATOM     62  C   UNL     1       2.038  17.908   6.168  1.00  0.00     0.173 A 
ATOM     63  C   UNL     1       2.168  17.494   3.829  1.00  0.00     0.173 A 
ATOM     64  F   UNL     1       2.343  17.668   7.449  1.00  0.00    -0.203 F 
ATOM     65  C   UNL     1       1.224  19.017   5.930  1.00  0.00     0.198 A 
ATOM     66  C   UNL     1       1.312  18.575   3.593  1.00  0.00     0.198 A 
ATOM     67  F   UNL     1       2.689  16.890   2.752  1.00  0.00    -0.203 F 
ATOM     68  F   UNL     1       0.807  19.767   6.959  1.00  0.00    -0.200 F 
ATOM     69  C   UNL     1       0.834  19.332   4.645  1.00  0.00     0.200 A 
ATOM     70  F   UNL     1       0.949  18.875   2.338  1.00  0.00    -0.200 F 
ATOM     71  F   UNL     1       0.017  20.369   4.420  1.00  0.00    -0.200 F 
ENDBRANCH  47  61
BRANCH  48  72
ATOM     72  C   UNL     1       5.981   8.266   7.697  1.00  0.00     0.064 A 
ATOM     73  C   UNL     1       5.404   7.103   8.229  1.00  0.00     0.173 A 
ATOM     74  C   UNL     1       6.290   8.307   6.331  1.00  0.00     0.173 A 
ATOM     75  F   UNL     1       5.188   7.001   9.549  1.00  0.00    -0.203 F 
ATOM     76  C   UNL     1       4.839   6.171   7.380  1.00  0.00     0.198 A 
ATOM     77  C   UNL     1       5.741   7.356   5.482  1.00  0.00     0.198 A 
ATOM     78  F   UNL     1       6.942   9.357   5.812  1.00  0.00    -0.203 F 
ATOM     79  F   UNL     1       4.058   5.200   7.873  1.00  0.00    -0.200 F 
ATOM     80  C   UNL     1       4.956   6.338   6.011  1.00  0.00     0.200 A 
ATOM     81  F   UNL     1       5.869   7.496   4.156  1.00  0.00    -0.200 F 
ATOM     82  F   UNL     1       4.251   5.536   5.216  1.00  0.00    -0.200 F 
ENDBRANCH  48  72
BRANCH  60  83
ATOM     83  C   UNL     1       8.080  15.103   8.225  1.00  0.00     0.064 A 
ATOM     84  C   UNL     1       9.427  14.760   8.030  1.00  0.00     0.173 A 
ATOM     85  C   UNL     1       7.809  16.488   8.331  1.00  0.00     0.173 A 
ATOM     86  F   UNL     1       9.798  13.498   7.775  1.00  0.00    -0.203 F 
ATOM     87  C   UNL     1      10.438  15.721   8.031  1.00  0.00     0.198 A 
ATOM     88  C   UNL     1       8.812  17.449   8.258  1.00  0.00     0.198 A 
ATOM     89  F   UNL     1       6.559  16.952   8.482  1.00  0.00    -0.203 F 
ATOM     90  F   UNL     1      11.715  15.336   7.904  1.00  0.00    -0.200 F 
ATOM     91  C   UNL     1      10.130  17.064   8.133  1.00  0.00     0.200 A 
ATOM     92  F   UNL     1       8.489  18.749   8.292  1.00  0.00    -0.200 F 
ATOM     93  F   UNL     1      11.100  17.987   8.086  1.00  0.00    -0.200 F 
ENDBRANCH  60  83
ENDBRANCH  34  35
ENDBRANCH  27  29
ENDBRANCH  26  27
ENDBRANCH  25  26
ENDBRANCH  24  25
ENDBRANCH   1  24
TORSDOF 16
