REMARK SMILES COc1ccc(-c2cc(Cl)cc3c2O[C@@H](C(F)(F)F)C(C(=O)OCCOCCOC(=O)c2ccc(-c4c5nc(c(-c6c(F)c(F)c(F)c(F)c6F)c6ccc([nH]6)c(-c6c(F)c(F)c(F)c(F)c6F)c6nc(c(-c7c(F)c(F)c(F)c(F)c7F)c7ccc4[nH]7)C=C6)C=C5)cc2)=C3)cc1C
REMARK SMILES IDX 26 1 25 2 24 3 23 4 21 5 22 6 20 7 7 8 8 9 13 10 9 11 12 12
REMARK SMILES IDX 14 13 10 14 11 15 95 16 15 17 6 18 3 19 4 20 97 21 5 22
REMARK SMILES IDX 96 23 98 24 2 25 1 26 16 27 17 28 18 29 19 30 27 31 28 32
REMARK SMILES IDX 29 33 30 34 31 35 32 36 33 37 94 38 34 39 93 40 35 41 36 42
REMARK SMILES IDX 37 43 87 44 38 45 92 46 86 47 88 48 39 49 91 50 85 51 84 52
REMARK SMILES IDX 40 54 72 55 52 56 71 57 53 58 56 59 70 60 89 61 54 62 55 63
REMARK SMILES IDX 69 65 90 66 57 67 41 68 42 69 50 70 43 71 44 72 48 73 51 74
REMARK SMILES IDX 45 75 46 76 49 77 47 78 73 79 74 80 82 81 75 82 76 83 80 84
REMARK SMILES IDX 83 85 77 86 78 87 81 88 79 89 58 90 59 91 67 92 60 93 61 94
REMARK SMILES IDX 65 95 68 96 62 97 63 98 66 99 64 100
REMARK H PARENT 88 53 56 64
REMARK Flexibility Score: inf
ROOT
ATOM      1  O   UNL     1      -2.097  -6.298   2.719  1.00  0.00    -0.374 OA
ENDROOT
BRANCH   1   2
ATOM      2  C   UNL     1      -2.818  -7.075   1.784  1.00  0.00     0.202 C 
BRANCH   2   3
ATOM      3  C   UNL     1      -1.839  -7.571   0.758  1.00  0.00     0.261 C 
BRANCH   3   4
ATOM      4  O   UNL     1      -0.787  -8.442   1.245  1.00  0.00    -0.460 OA
BRANCH   4   5
ATOM      5  C   UNL     1       0.429  -7.983   1.660  1.00  0.00     0.338 C 
ATOM      6  O   UNL     1       0.897  -6.873   1.496  1.00  0.00    -0.246 OA
BRANCH   5   7
ATOM      7  C   UNL     1       1.033  -9.027   2.590  1.00  0.00     0.087 C 
ATOM      8  C   UNL     1       1.648  -5.641   4.681  1.00  0.00     0.026 A 
ATOM      9  C   UNL     1       2.821  -5.529   5.469  1.00  0.00     0.033 A 
ATOM     10  C   UNL     1       1.316  -6.965   4.284  1.00  0.00     0.135 A 
ATOM     11  C   UNL     1       3.705  -6.591   5.647  1.00  0.00     0.042 A 
ATOM     12  C   UNL     1       2.390  -7.886   4.140  1.00  0.00     0.019 A 
ATOM     13  O   UNL     1      -0.004  -7.514   4.117  1.00  0.00    -0.475 OA
ATOM     14  Cl  UNL     1       5.102  -6.383   6.625  1.00  0.00    -0.084 Cl
ATOM     15  C   UNL     1       3.537  -7.753   4.915  1.00  0.00     0.032 A 
ATOM     16  C   UNL     1       2.277  -8.959   3.108  1.00  0.00     0.027 C 
ATOM     17  C   UNL     1       0.057  -8.982   3.745  1.00  0.00     0.316 C 
BRANCH   8  18
ATOM     18  C   UNL     1       1.264  -4.316   4.045  1.00  0.00    -0.014 A 
ATOM     19  C   UNL     1       0.816  -1.648   3.018  1.00  0.00     0.121 A 
ATOM     20  C   UNL     1      -0.127  -2.303   3.812  1.00  0.00     0.047 A 
ATOM     21  C   UNL     1       2.074  -2.222   2.894  1.00  0.00    -0.008 A 
ATOM     22  C   UNL     1       0.106  -3.602   4.342  1.00  0.00     0.013 A 
ATOM     23  C   UNL     1       2.249  -3.573   3.311  1.00  0.00     0.016 A 
ATOM     24  C   UNL     1       3.251  -1.377   2.488  1.00  0.00     0.048 C 
BRANCH  19  25
ATOM     25  O   UNL     1       0.489  -0.406   2.534  1.00  0.00    -0.496 OA
ATOM     26  C   UNL     1       0.609  -0.283   1.110  1.00  0.00     0.278 C 
ENDBRANCH  19  25
ENDBRANCH   8  18
BRANCH  17  27
ATOM     27  C   UNL     1      -1.134  -9.933   3.377  1.00  0.00     0.430 C 
ATOM     28  F   UNL     1      -0.871 -10.678   2.259  1.00  0.00    -0.167 F 
ATOM     29  F   UNL     1      -1.321 -10.860   4.353  1.00  0.00    -0.167 F 
ATOM     30  F   UNL     1      -2.318  -9.340   3.186  1.00  0.00    -0.167 F 
ENDBRANCH  17  27
ENDBRANCH   5   7
ENDBRANCH   4   5
ENDBRANCH   3   4
ENDBRANCH   2   3
ENDBRANCH   1   2
BRANCH   1  31
ATOM     31  C   UNL     1      -2.868  -5.863   3.827  1.00  0.00     0.202 C 
BRANCH  31  32
ATOM     32  C   UNL     1      -4.054  -4.969   3.434  1.00  0.00     0.261 C 
BRANCH  32  33
ATOM     33  O   UNL     1      -3.582  -3.841   2.661  1.00  0.00    -0.460 OA
BRANCH  33  34
ATOM     34  C   UNL     1      -3.883  -3.844   1.330  1.00  0.00     0.338 C 
ATOM     35  O   UNL     1      -4.998  -4.043   0.865  1.00  0.00    -0.246 OA
BRANCH  34  36
ATOM     36  C   UNL     1      -2.628  -3.833   0.509  1.00  0.00     0.060 A 
ATOM     37  C   UNL     1      -2.618  -4.093  -0.870  1.00  0.00     0.016 A 
ATOM     38  C   UNL     1      -1.420  -3.853   1.179  1.00  0.00     0.016 A 
ATOM     39  C   UNL     1      -1.426  -4.512  -1.519  1.00  0.00     0.010 A 
ATOM     40  C   UNL     1      -0.268  -4.298   0.558  1.00  0.00     0.010 A 
ATOM     41  C   UNL     1      -0.255  -4.699  -0.783  1.00  0.00    -0.014 A 
BRANCH  41  42
ATOM     42  C   UNL     1       0.980  -5.434  -1.166  1.00  0.00     0.031 A 
ATOM     43  C   UNL     1       2.298  -4.774  -0.938  1.00  0.00     0.074 A 
ATOM     44  C   UNL     1       0.983  -6.793  -1.279  1.00  0.00     0.049 A 
ATOM     45  N   UNL     1       3.430  -5.380  -1.014  1.00  0.00    -0.248 NA
ATOM     46  C   UNL     1       2.467  -3.357  -0.636  1.00  0.00     0.031 C 
ATOM     47  C   UNL     1       2.070  -7.725  -0.914  1.00  0.00     0.029 A 
ATOM     48  N   UNL     1      -0.048  -7.687  -1.595  1.00  0.00    -0.354 N 
ATOM     49  C   UNL     1       4.414  -4.577  -0.505  1.00  0.00     0.074 A 
ATOM     50  C   UNL     1       3.786  -3.288  -0.404  1.00  0.00     0.031 C 
ATOM     51  C   UNL     1       1.744  -8.982  -1.253  1.00  0.00     0.029 A 
ATOM     52  C   UNL     1       0.535  -8.895  -2.037  1.00  0.00     0.049 A 
ATOM     53  H   UNL     1      -1.013  -7.504  -1.522  1.00  0.00     0.167 HD
ATOM     54  C   UNL     1       5.614  -5.155  -0.199  1.00  0.00     0.037 A 
ATOM     55  C   UNL     1       0.345  -9.274  -3.329  1.00  0.00     0.037 A 
ATOM     56  C   UNL     1       5.680  -6.511  -0.771  1.00  0.00     0.049 A 
ATOM     57  C   UNL     1       1.637  -9.096  -4.089  1.00  0.00     0.074 A 
ATOM     58  C   UNL     1       5.677  -7.815  -0.310  1.00  0.00     0.029 A 
ATOM     59  N   UNL     1       5.483  -6.605  -2.139  1.00  0.00    -0.354 N 
ATOM     60  N   UNL     1       2.752  -8.763  -3.495  1.00  0.00    -0.248 NA
ATOM     61  C   UNL     1       1.822  -9.233  -5.525  1.00  0.00     0.031 C 
ATOM     62  C   UNL     1       5.396  -8.673  -1.435  1.00  0.00     0.029 A 
ATOM     63  C   UNL     1       5.266  -7.892  -2.575  1.00  0.00     0.049 A 
ATOM     64  H   UNL     1       5.498  -5.826  -2.741  1.00  0.00     0.167 HD
ATOM     65  C   UNL     1       3.740  -8.542  -4.386  1.00  0.00     0.074 A 
ATOM     66  C   UNL     1       3.111  -8.858  -5.662  1.00  0.00     0.031 C 
ATOM     67  C   UNL     1       4.972  -8.097  -3.996  1.00  0.00     0.037 A 
BRANCH  54  68
ATOM     68  C   UNL     1       6.748  -4.545   0.604  1.00  0.00     0.064 A 
ATOM     69  C   UNL     1       7.965  -5.245   0.766  1.00  0.00     0.173 A 
ATOM     70  C   UNL     1       6.697  -3.315   1.291  1.00  0.00     0.173 A 
ATOM     71  F   UNL     1       8.168  -6.431   0.176  1.00  0.00    -0.203 F 
ATOM     72  C   UNL     1       9.023  -4.757   1.545  1.00  0.00     0.198 A 
ATOM     73  C   UNL     1       7.762  -2.815   2.050  1.00  0.00     0.198 A 
ATOM     74  F   UNL     1       5.608  -2.548   1.281  1.00  0.00    -0.203 F 
ATOM     75  F   UNL     1      10.143  -5.483   1.674  1.00  0.00    -0.200 F 
ATOM     76  C   UNL     1       8.924  -3.539   2.183  1.00  0.00     0.200 A 
ATOM     77  F   UNL     1       7.640  -1.625   2.658  1.00  0.00    -0.200 F 
ATOM     78  F   UNL     1       9.937  -3.068   2.923  1.00  0.00    -0.200 F 
ENDBRANCH  54  68
BRANCH  55  79
ATOM     79  C   UNL     1      -1.092  -9.020  -3.691  1.00  0.00     0.064 A 
ATOM     80  C   UNL     1      -2.030  -9.820  -2.987  1.00  0.00     0.173 A 
ATOM     81  C   UNL     1      -1.523  -7.740  -4.081  1.00  0.00     0.173 A 
ATOM     82  F   UNL     1      -1.675 -11.045  -2.564  1.00  0.00    -0.203 F 
ATOM     83  C   UNL     1      -3.237  -9.294  -2.519  1.00  0.00     0.198 A 
ATOM     84  C   UNL     1      -2.747  -7.227  -3.622  1.00  0.00     0.198 A 
ATOM     85  F   UNL     1      -0.683  -6.913  -4.720  1.00  0.00    -0.203 F 
ATOM     86  F   UNL     1      -4.002 -10.012  -1.682  1.00  0.00    -0.200 F 
ATOM     87  C   UNL     1      -3.571  -7.982  -2.798  1.00  0.00     0.200 A 
ATOM     88  F   UNL     1      -3.075  -5.951  -3.874  1.00  0.00    -0.200 F 
ATOM     89  F   UNL     1      -4.641  -7.424  -2.213  1.00  0.00    -0.200 F 
ENDBRANCH  55  79
BRANCH  67  90
ATOM     90  C   UNL     1       6.005  -7.768  -5.019  1.00  0.00     0.064 A 
ATOM     91  C   UNL     1       6.327  -8.675  -6.033  1.00  0.00     0.173 A 
ATOM     92  C   UNL     1       6.728  -6.558  -4.993  1.00  0.00     0.173 A 
ATOM     93  F   UNL     1       5.741  -9.881  -6.082  1.00  0.00    -0.203 F 
ATOM     94  C   UNL     1       7.245  -8.349  -7.025  1.00  0.00     0.198 A 
ATOM     95  C   UNL     1       7.705  -6.271  -5.936  1.00  0.00     0.198 A 
ATOM     96  F   UNL     1       6.477  -5.600  -4.088  1.00  0.00    -0.203 F 
ATOM     97  F   UNL     1       7.441  -9.193  -8.046  1.00  0.00    -0.200 F 
ATOM     98  C   UNL     1       7.939  -7.152  -6.972  1.00  0.00     0.200 A 
ATOM     99  F   UNL     1       8.394  -5.125  -5.848  1.00  0.00    -0.200 F 
ATOM    100  F   UNL     1       8.822  -6.840  -7.928  1.00  0.00    -0.200 F 
ENDBRANCH  67  90
ENDBRANCH  41  42
ENDBRANCH  34  36
ENDBRANCH  33  34
ENDBRANCH  32  33
ENDBRANCH  31  32
ENDBRANCH   1  31
TORSDOF 17
