REMARK SMILES O=C(OCCOCCOC(=O)[C@@H]1[C@@H](C(=O)NCc2ccccc2OCc2ccccc2)[C@@H]2C=C[C@H]1C2)c1ccc(-c2c3nc(c(-c4c(F)c(F)c(F)c(F)c4F)c4ccc([nH]4)c(-c4c(F)c(F)c(F)c(F)c4F)c4nc(c(-c5c(F)c(F)c(F)c(F)c5F)c5ccc2[nH]5)C=C4)C=C3)cc1
REMARK SMILES IDX 8 1 7 2 6 3 5 4 4 5 3 6 2 7 1 8 37 9 38 10 99 11 39 12 98 13
REMARK SMILES IDX 40 14 41 15 42 16 92 17 43 18 97 19 91 20 93 21 44 22 96 23
REMARK SMILES IDX 90 24 89 25 45 27 77 28 57 29 76 30 58 31 61 32 75 33 94 34
REMARK SMILES IDX 59 35 60 36 74 38 95 39 62 40 46 41 47 42 55 43 48 44 49 45
REMARK SMILES IDX 53 46 56 47 50 48 51 49 54 50 52 51 78 52 79 53 87 54 80 55
REMARK SMILES IDX 81 56 85 57 88 58 82 59 83 60 86 61 84 62 63 63 64 64 72 65
REMARK SMILES IDX 65 66 66 67 70 68 73 69 67 70 68 71 71 72 69 73 9 74 10 75
REMARK SMILES IDX 11 76 12 77 13 78 35 79 32 80 34 81 36 82 33 83 14 84 15 85
REMARK SMILES IDX 16 86 17 88 18 89 19 90 23 91 20 92 22 93 21 94 24 95 25 96
REMARK SMILES IDX 26 97 27 98 31 99 28 100 30 101 29 102
REMARK H PARENT 93 26 61 37 16 87
REMARK Flexibility Score: inf
ROOT
ATOM      1  C   UNL     1       2.344  -2.463  -2.208  1.00  0.00     0.261 C 
ENDROOT
BRANCH   1   2
ATOM      2  C   UNL     1       2.532  -1.333  -1.195  1.00  0.00     0.202 C 
BRANCH   2   3
ATOM      3  O   UNL     1       3.931  -1.086  -0.990  1.00  0.00    -0.374 OA
BRANCH   3   4
ATOM      4  C   UNL     1       4.428  -1.120   0.351  1.00  0.00     0.202 C 
BRANCH   4   5
ATOM      5  C   UNL     1       4.295   0.142   1.207  1.00  0.00     0.261 C 
BRANCH   5   6
ATOM      6  O   UNL     1       2.926   0.548   1.303  1.00  0.00    -0.460 OA
BRANCH   6   7
ATOM      7  C   UNL     1       2.245   1.310   0.421  1.00  0.00     0.338 C 
ATOM      8  O   UNL     1       1.026   1.414   0.552  1.00  0.00    -0.246 OA
BRANCH   7   9
ATOM      9  C   UNL     1       2.891   2.035  -0.717  1.00  0.00     0.060 A 
ATOM     10  C   UNL     1       4.095   1.681  -1.338  1.00  0.00     0.016 A 
ATOM     11  C   UNL     1       2.163   3.103  -1.263  1.00  0.00     0.016 A 
ATOM     12  C   UNL     1       4.564   2.324  -2.460  1.00  0.00     0.010 A 
ATOM     13  C   UNL     1       2.641   3.792  -2.374  1.00  0.00     0.010 A 
ATOM     14  C   UNL     1       3.848   3.397  -2.956  1.00  0.00    -0.014 A 
BRANCH  14  15
ATOM     15  C   UNL     1       4.530   4.218  -3.948  1.00  0.00     0.031 A 
ATOM     16  C   UNL     1       5.283   5.396  -3.435  1.00  0.00     0.074 A 
ATOM     17  C   UNL     1       4.569   3.814  -5.223  1.00  0.00     0.049 A 
ATOM     18  N   UNL     1       5.852   6.363  -4.092  1.00  0.00    -0.248 NA
ATOM     19  C   UNL     1       5.421   5.491  -1.970  1.00  0.00     0.031 C 
ATOM     20  C   UNL     1       4.009   2.559  -5.728  1.00  0.00     0.029 A 
ATOM     21  N   UNL     1       5.107   4.416  -6.322  1.00  0.00    -0.354 N 
ATOM     22  C   UNL     1       6.369   7.208  -3.122  1.00  0.00     0.074 A 
ATOM     23  C   UNL     1       6.069   6.635  -1.833  1.00  0.00     0.031 C 
ATOM     24  C   UNL     1       4.201   2.503  -7.055  1.00  0.00     0.029 A 
ATOM     25  C   UNL     1       4.827   3.749  -7.486  1.00  0.00     0.049 A 
ATOM     26  H   UNL     1       5.640   5.243  -6.283  1.00  0.00     0.167 HD
ATOM     27  C   UNL     1       7.009   8.380  -3.321  1.00  0.00     0.037 A 
ATOM     28  C   UNL     1       5.000   4.159  -8.754  1.00  0.00     0.037 A 
ATOM     29  C   UNL     1       7.255   8.900  -4.636  1.00  0.00     0.049 A 
ATOM     30  C   UNL     1       5.616   5.516  -8.959  1.00  0.00     0.074 A 
ATOM     31  C   UNL     1       7.827  10.100  -5.006  1.00  0.00     0.029 A 
ATOM     32  N   UNL     1       6.921   8.228  -5.810  1.00  0.00    -0.354 N 
ATOM     33  N   UNL     1       6.029   6.378  -8.056  1.00  0.00    -0.248 NA
ATOM     34  C   UNL     1       5.778   5.970 -10.342  1.00  0.00     0.031 C 
ATOM     35  C   UNL     1       7.785  10.177  -6.402  1.00  0.00     0.029 A 
ATOM     36  C   UNL     1       7.253   8.997  -6.907  1.00  0.00     0.049 A 
ATOM     37  H   UNL     1       6.508   7.335  -5.850  1.00  0.00     0.167 HD
ATOM     38  C   UNL     1       6.526   7.465  -8.757  1.00  0.00     0.074 A 
ATOM     39  C   UNL     1       6.358   7.151 -10.165  1.00  0.00     0.031 C 
ATOM     40  C   UNL     1       7.074   8.615  -8.290  1.00  0.00     0.037 A 
BRANCH  27  41
ATOM     41  C   UNL     1       7.341   9.183  -2.099  1.00  0.00     0.064 A 
ATOM     42  C   UNL     1       8.295   8.763  -1.159  1.00  0.00     0.173 A 
ATOM     43  C   UNL     1       6.615  10.350  -1.814  1.00  0.00     0.173 A 
ATOM     44  F   UNL     1       8.991   7.634  -1.361  1.00  0.00    -0.203 F 
ATOM     45  C   UNL     1       8.471   9.450   0.041  1.00  0.00     0.198 A 
ATOM     46  C   UNL     1       6.818  11.054  -0.630  1.00  0.00     0.198 A 
ATOM     47  F   UNL     1       5.680  10.790  -2.670  1.00  0.00    -0.203 F 
ATOM     48  F   UNL     1       9.322   8.979   0.964  1.00  0.00    -0.200 F 
ATOM     49  C   UNL     1       7.734  10.595   0.303  1.00  0.00     0.200 A 
ATOM     50  F   UNL     1       6.103  12.159  -0.380  1.00  0.00    -0.200 F 
ATOM     51  F   UNL     1       7.888  11.242   1.466  1.00  0.00    -0.200 F 
ENDBRANCH  27  41
BRANCH  28  52
ATOM     52  C   UNL     1       4.523   3.307  -9.871  1.00  0.00     0.064 A 
ATOM     53  C   UNL     1       5.419   2.688 -10.750  1.00  0.00     0.173 A 
ATOM     54  C   UNL     1       3.154   3.042 -10.046  1.00  0.00     0.173 A 
ATOM     55  F   UNL     1       6.735   2.917 -10.635  1.00  0.00    -0.203 F 
ATOM     56  C   UNL     1       4.966   1.839 -11.760  1.00  0.00     0.198 A 
ATOM     57  C   UNL     1       2.704   2.173 -11.037  1.00  0.00     0.198 A 
ATOM     58  F   UNL     1       2.251   3.605  -9.228  1.00  0.00    -0.203 F 
ATOM     59  F   UNL     1       5.844   1.277 -12.602  1.00  0.00    -0.200 F 
ATOM     60  C   UNL     1       3.611   1.574 -11.896  1.00  0.00     0.200 A 
ATOM     61  F   UNL     1       1.396   1.907 -11.150  1.00  0.00    -0.200 F 
ATOM     62  F   UNL     1       3.180   0.744 -12.855  1.00  0.00    -0.200 F 
ENDBRANCH  28  52
BRANCH  40  63
ATOM     63  C   UNL     1       7.582   9.587  -9.308  1.00  0.00     0.064 A 
ATOM     64  C   UNL     1       6.714  10.398 -10.049  1.00  0.00     0.173 A 
ATOM     65  C   UNL     1       8.964   9.782  -9.452  1.00  0.00     0.173 A 
ATOM     66  F   UNL     1       5.386  10.235  -9.949  1.00  0.00    -0.203 F 
ATOM     67  C   UNL     1       7.214  11.374 -10.905  1.00  0.00     0.198 A 
ATOM     68  C   UNL     1       9.459  10.778 -10.285  1.00  0.00     0.198 A 
ATOM     69  F   UNL     1       9.830   9.032  -8.753  1.00  0.00    -0.203 F 
ATOM     70  F   UNL     1       6.370  12.127 -11.624  1.00  0.00    -0.200 F 
ATOM     71  C   UNL     1       8.584  11.572 -11.011  1.00  0.00     0.200 A 
ATOM     72  F   UNL     1      10.780  10.982 -10.371  1.00  0.00    -0.200 F 
ATOM     73  F   UNL     1       9.062  12.533 -11.813  1.00  0.00    -0.200 F 
ENDBRANCH  40  63
ENDBRANCH  14  15
ENDBRANCH   7   9
ENDBRANCH   6   7
ENDBRANCH   5   6
ENDBRANCH   4   5
ENDBRANCH   3   4
ENDBRANCH   2   3
ENDBRANCH   1   2
BRANCH   1  74
ATOM     74  O   UNL     1       2.666  -3.676  -1.533  1.00  0.00    -0.463 OA
BRANCH  74  75
ATOM     75  C   UNL     1       3.998  -3.884  -1.426  1.00  0.00     0.310 C 
ATOM     76  O   UNL     1       4.802  -3.683  -2.325  1.00  0.00    -0.252 OA
BRANCH  75  77
ATOM     77  C   UNL     1       4.386  -4.369  -0.051  1.00  0.00     0.119 C 
ATOM     78  C   UNL     1       4.776  -5.860  -0.175  1.00  0.00     0.100 C 
ATOM     79  C   UNL     1       3.375  -4.365   1.134  1.00  0.00     0.027 C 
ATOM     80  C   UNL     1       3.946  -6.496   0.972  1.00  0.00     0.025 C 
ATOM     81  C   UNL     1       2.124  -5.108   0.769  1.00  0.00    -0.027 C 
ATOM     82  C   UNL     1       4.019  -5.413   2.041  1.00  0.00     0.017 C 
ATOM     83  C   UNL     1       2.474  -6.390   0.618  1.00  0.00    -0.027 C 
BRANCH  78  84
ATOM     84  C   UNL     1       6.290  -5.974  -0.069  1.00  0.00     0.224 C 
ATOM     85  O   UNL     1       7.046  -5.004  -0.068  1.00  0.00    -0.275 OA
ATOM     86  N   UNL     1       6.837  -7.210  -0.056  1.00  0.00    -0.352 N 
ATOM     87  H   UNL     1       7.813  -7.259  -0.172  1.00  0.00     0.163 HD
BRANCH  86  88
ATOM     88  C   UNL     1       6.150  -8.455   0.108  1.00  0.00     0.155 C 
BRANCH  88  89
ATOM     89  C   UNL     1       6.801  -9.577  -0.617  1.00  0.00     0.013 A 
ATOM     90  C   UNL     1       6.622  -9.549  -2.022  1.00  0.00     0.009 A 
ATOM     91  C   UNL     1       7.421 -10.674  -0.020  1.00  0.00     0.124 A 
ATOM     92  C   UNL     1       6.926 -10.647  -2.810  1.00  0.00     0.001 A 
ATOM     93  C   UNL     1       7.677 -11.792  -0.828  1.00  0.00     0.047 A 
ATOM     94  C   UNL     1       7.418 -11.790  -2.202  1.00  0.00     0.004 A 
BRANCH  91  95
ATOM     95  O   UNL     1       7.840 -10.865   1.262  1.00  0.00    -0.489 OA
BRANCH  95  96
ATOM     96  C   UNL     1       8.023  -9.847   2.250  1.00  0.00     0.265 C 
BRANCH  96  97
ATOM     97  C   UNL     1       8.885  -8.640   1.935  1.00  0.00    -0.011 A 
ATOM     98  C   UNL     1       8.765  -7.492   2.742  1.00  0.00     0.007 A 
ATOM     99  C   UNL     1       9.794  -8.613   0.870  1.00  0.00     0.007 A 
ATOM    100  C   UNL     1       9.472  -6.327   2.439  1.00  0.00     0.000 A 
ATOM    101  C   UNL     1      10.486  -7.439   0.556  1.00  0.00     0.000 A 
ATOM    102  C   UNL     1      10.316  -6.294   1.333  1.00  0.00     0.000 A 
ENDBRANCH  96  97
ENDBRANCH  95  96
ENDBRANCH  91  95
ENDBRANCH  88  89
ENDBRANCH  86  88
ENDBRANCH  78  84
ENDBRANCH  75  77
ENDBRANCH  74  75
ENDBRANCH   1  74
TORSDOF 20
