REMARK SMILES C[C@H](C(=O)OCCOCCOC(=O)c1ccc(-c2c3nc(c(-c4c(F)c(F)c(F)c(F)c4F)c4ccc([nH]4)c(-c4c(F)c(F)c(F)c(F)c4F)c4nc(c(-c5c(F)c(F)c(F)c(F)c5F)c5ccc2[nH]5)C=C4)C=C3)cc1)[C@H](C)[NH+]1CC[NH+](CCO)CC1
REMARK SMILES IDX 6 1 5 2 3 3 4 4 2 5 1 6 77 7 78 8 79 9 80 10 87 11 81 13
REMARK SMILES IDX 86 14 82 15 83 17 84 18 85 19 7 21 8 22 9 23 10 24 11 25
REMARK SMILES IDX 12 26 13 27 14 28 15 29 76 30 16 31 75 32 17 33 18 34 19 35
REMARK SMILES IDX 69 36 20 37 74 38 68 39 70 40 21 41 73 42 67 43 66 44 22 46
REMARK SMILES IDX 54 47 34 48 53 49 35 50 38 51 52 52 71 53 36 54 37 55 51 57
REMARK SMILES IDX 72 58 39 59 23 60 24 61 32 62 25 63 26 64 30 65 33 66 27 67
REMARK SMILES IDX 28 68 31 69 29 70 55 71 56 72 64 73 57 74 58 75 62 76 65 77
REMARK SMILES IDX 59 78 60 79 63 80 61 81 40 82 41 83 49 84 42 85 43 86 47 87
REMARK SMILES IDX 50 88 44 89 45 90 48 91 46 92
REMARK H PARENT 79 12 82 16 85 20 70 45 38 56
REMARK Flexibility Score: inf
ROOT
ATOM      1  C   UNL     1       0.946  -2.833  -2.032  1.00  0.00     0.261 C 
ENDROOT
BRANCH   1   2
ATOM      2  O   UNL     1      -0.133  -2.029  -1.506  1.00  0.00    -0.463 OA
BRANCH   2   3
ATOM      3  C   UNL     1      -0.508  -2.329  -0.224  1.00  0.00     0.314 C 
ATOM      4  O   UNL     1       0.011  -3.223   0.423  1.00  0.00    -0.252 OA
BRANCH   3   5
ATOM      5  C   UNL     1      -1.674  -1.454   0.238  1.00  0.00     0.154 C 
ATOM      6  C   UNL     1      -2.954  -2.269   0.089  1.00  0.00     0.026 C 
BRANCH   5   7
ATOM      7  C   UNL     1      -1.495  -0.615   1.578  1.00  0.00     0.195 C 
ATOM      8  C   UNL     1      -0.192   0.192   1.487  1.00  0.00     0.076 C 
BRANCH   7   9
ATOM      9  N   UNL     1      -1.839  -1.037   2.957  1.00  0.00    -0.323 N 
ATOM     10  C   UNL     1      -2.340  -2.385   3.200  1.00  0.00     0.324 C 
ATOM     11  C   UNL     1      -0.918  -0.703   4.065  1.00  0.00     0.324 C 
ATOM     12  H   UNL     1      -2.631  -0.396   2.980  1.00  0.00     0.348 HD
ATOM     13  C   UNL     1      -1.218  -3.432   3.291  1.00  0.00     0.324 C 
ATOM     14  C   UNL     1       0.222  -1.730   4.292  1.00  0.00     0.324 C 
ATOM     15  N   UNL     1      -0.168  -3.147   4.269  1.00  0.00    -0.324 N 
ATOM     16  H   UNL     1       0.657  -3.633   3.917  1.00  0.00     0.348 HD
BRANCH  15  17
ATOM     17  C   UNL     1      -0.324  -3.792   5.572  1.00  0.00     0.291 C 
BRANCH  17  18
ATOM     18  C   UNL     1      -1.550  -3.423   6.420  1.00  0.00     0.217 C 
BRANCH  18  19
ATOM     19  O   UNL     1      -2.707  -4.184   6.086  1.00  0.00    -0.391 OA
ATOM     20  H   UNL     1      -2.953  -4.012   5.164  1.00  0.00     0.210 HD
ENDBRANCH  18  19
ENDBRANCH  17  18
ENDBRANCH  15  17
ENDBRANCH   7   9
ENDBRANCH   5   7
ENDBRANCH   3   5
ENDBRANCH   2   3
ENDBRANCH   1   2
BRANCH   1  21
ATOM     21  C   UNL     1       2.164  -1.996  -2.437  1.00  0.00     0.202 C 
BRANCH  21  22
ATOM     22  O   UNL     1       2.930  -1.332  -1.430  1.00  0.00    -0.374 OA
BRANCH  22  23
ATOM     23  C   UNL     1       2.271  -0.348  -0.644  1.00  0.00     0.202 C 
BRANCH  23  24
ATOM     24  C   UNL     1       2.071   1.056  -1.230  1.00  0.00     0.261 C 
BRANCH  24  25
ATOM     25  O   UNL     1       1.540   1.029  -2.551  1.00  0.00    -0.460 OA
BRANCH  25  26
ATOM     26  C   UNL     1       2.487   1.187  -3.501  1.00  0.00     0.338 C 
ATOM     27  O   UNL     1       3.668   1.460  -3.353  1.00  0.00    -0.246 OA
BRANCH  26  28
ATOM     28  C   UNL     1       1.917   0.770  -4.781  1.00  0.00     0.060 A 
ATOM     29  C   UNL     1       2.605  -0.226  -5.484  1.00  0.00     0.016 A 
ATOM     30  C   UNL     1       0.741   1.340  -5.272  1.00  0.00     0.016 A 
ATOM     31  C   UNL     1       2.147  -0.619  -6.727  1.00  0.00     0.010 A 
ATOM     32  C   UNL     1       0.290   0.958  -6.529  1.00  0.00     0.010 A 
ATOM     33  C   UNL     1       1.025   0.017  -7.270  1.00  0.00    -0.014 A 
BRANCH  33  34
ATOM     34  C   UNL     1       0.776  -0.138  -8.710  1.00  0.00     0.031 A 
ATOM     35  C   UNL     1       1.303   0.928  -9.624  1.00  0.00     0.074 A 
ATOM     36  C   UNL     1       0.162  -1.238  -9.168  1.00  0.00     0.049 A 
ATOM     37  N   UNL     1       1.222   1.021 -10.923  1.00  0.00    -0.248 NA
ATOM     38  C   UNL     1       2.018   2.047  -8.984  1.00  0.00     0.031 C 
ATOM     39  C   UNL     1      -0.328  -2.337  -8.337  1.00  0.00     0.029 A 
ATOM     40  N   UNL     1      -0.148  -1.611 -10.446  1.00  0.00    -0.354 N 
ATOM     41  C   UNL     1       1.865   2.207 -11.252  1.00  0.00     0.074 A 
ATOM     42  C   UNL     1       2.299   2.821 -10.019  1.00  0.00     0.031 C 
ATOM     43  C   UNL     1      -0.881  -3.268  -9.132  1.00  0.00     0.029 A 
ATOM     44  C   UNL     1      -0.813  -2.808 -10.516  1.00  0.00     0.049 A 
ATOM     45  H   UNL     1       0.084  -1.074 -11.238  1.00  0.00     0.167 HD
ATOM     46  C   UNL     1       2.077   2.724 -12.483  1.00  0.00     0.037 A 
ATOM     47  C   UNL     1      -1.322  -3.438 -11.590  1.00  0.00     0.037 A 
ATOM     48  C   UNL     1       1.632   2.084 -13.690  1.00  0.00     0.049 A 
ATOM     49  C   UNL     1      -1.132  -2.803 -12.943  1.00  0.00     0.074 A 
ATOM     50  C   UNL     1       1.796   2.496 -14.998  1.00  0.00     0.029 A 
ATOM     51  N   UNL     1       0.922   0.890 -13.728  1.00  0.00    -0.354 N 
ATOM     52  N   UNL     1      -0.504  -1.693 -13.257  1.00  0.00    -0.248 NA
ATOM     53  C   UNL     1      -1.715  -3.508 -14.089  1.00  0.00     0.031 C 
ATOM     54  C   UNL     1       1.128   1.586 -15.824  1.00  0.00     0.029 A 
ATOM     55  C   UNL     1       0.611   0.567 -15.037  1.00  0.00     0.049 A 
ATOM     56  H   UNL     1       0.677   0.353 -12.940  1.00  0.00     0.167 HD
ATOM     57  C   UNL     1      -0.588  -1.582 -14.638  1.00  0.00     0.074 A 
ATOM     58  C   UNL     1      -1.315  -2.749 -15.099  1.00  0.00     0.031 C 
ATOM     59  C   UNL     1      -0.111  -0.610 -15.455  1.00  0.00     0.037 A 
BRANCH  46  60
ATOM     60  C   UNL     1       2.774   4.050 -12.572  1.00  0.00     0.064 A 
ATOM     61  C   UNL     1       4.130   4.204 -12.243  1.00  0.00     0.173 A 
ATOM     62  C   UNL     1       2.075   5.186 -13.009  1.00  0.00     0.173 A 
ATOM     63  F   UNL     1       4.841   3.156 -11.797  1.00  0.00    -0.203 F 
ATOM     64  C   UNL     1       4.752   5.448 -12.324  1.00  0.00     0.198 A 
ATOM     65  C   UNL     1       2.708   6.420 -13.121  1.00  0.00     0.198 A 
ATOM     66  F   UNL     1       0.776   5.098 -13.330  1.00  0.00    -0.203 F 
ATOM     67  F   UNL     1       6.033   5.581 -11.953  1.00  0.00    -0.200 F 
ATOM     68  C   UNL     1       4.043   6.553 -12.772  1.00  0.00     0.200 A 
ATOM     69  F   UNL     1       2.023   7.484 -13.563  1.00  0.00    -0.200 F 
ATOM     70  F   UNL     1       4.644   7.747 -12.858  1.00  0.00    -0.200 F 
ENDBRANCH  46  60
BRANCH  47  71
ATOM     71  C   UNL     1      -2.053  -4.720 -11.425  1.00  0.00     0.064 A 
ATOM     72  C   UNL     1      -1.546  -5.916 -11.949  1.00  0.00     0.173 A 
ATOM     73  C   UNL     1      -3.277  -4.776 -10.741  1.00  0.00     0.173 A 
ATOM     74  F   UNL     1      -0.387  -5.913 -12.624  1.00  0.00    -0.203 F 
ATOM     75  C   UNL     1      -2.246  -7.114 -11.817  1.00  0.00     0.198 A 
ATOM     76  C   UNL     1      -3.960  -5.980 -10.581  1.00  0.00     0.198 A 
ATOM     77  F   UNL     1      -3.805  -3.662 -10.212  1.00  0.00    -0.203 F 
ATOM     78  F   UNL     1      -1.761  -8.234 -12.371  1.00  0.00    -0.200 F 
ATOM     79  C   UNL     1      -3.449  -7.146 -11.128  1.00  0.00     0.200 A 
ATOM     80  F   UNL     1      -5.112  -6.008  -9.897  1.00  0.00    -0.200 F 
ATOM     81  F   UNL     1      -4.119  -8.299 -10.998  1.00  0.00    -0.200 F 
ENDBRANCH  47  71
BRANCH  59  82
ATOM     82  C   UNL     1      -0.325  -0.793 -16.929  1.00  0.00     0.064 A 
ATOM     83  C   UNL     1      -1.596  -0.681 -17.510  1.00  0.00     0.173 A 
ATOM     84  C   UNL     1       0.767  -1.043 -17.774  1.00  0.00     0.173 A 
ATOM     85  F   UNL     1      -2.673  -0.456 -16.742  1.00  0.00    -0.203 F 
ATOM     86  C   UNL     1      -1.770  -0.845 -18.881  1.00  0.00     0.198 A 
ATOM     87  C   UNL     1       0.595  -1.167 -19.149  1.00  0.00     0.198 A 
ATOM     88  F   UNL     1       2.005  -1.147 -17.268  1.00  0.00    -0.203 F 
ATOM     89  F   UNL     1      -3.001  -0.793 -19.408  1.00  0.00    -0.200 F 
ATOM     90  C   UNL     1      -0.675  -1.079 -19.699  1.00  0.00     0.200 A 
ATOM     91  F   UNL     1       1.657  -1.371 -19.940  1.00  0.00    -0.200 F 
ATOM     92  F   UNL     1      -0.844  -1.226 -21.020  1.00  0.00    -0.200 F 
ENDBRANCH  59  82
ENDBRANCH  33  34
ENDBRANCH  26  28
ENDBRANCH  25  26
ENDBRANCH  24  25
ENDBRANCH  23  24
ENDBRANCH  22  23
ENDBRANCH  21  22
ENDBRANCH   1  21
TORSDOF 19
