REMARK SMILES O=C(OCCOCCOC(=O)[C@H]1CC2(CC[NH+](C(=O)C3CC3)CC2)CN1C(=O)CCn1cccn1)c1ccc(-c2c3nc(c(-c4c(F)c(F)c(F)c(F)c4F)c4ccc([nH]4)c(-c4c(F)c(F)c(F)c(F)c4F)c4nc(c(-c5c(F)c(F)c(F)c(F)c5F)c5ccc2[nH]5)C=C4)C=C3)cc1
REMARK SMILES IDX 7 1 6 2 5 3 4 4 3 5 2 6 1 7 36 8 37 9 98 10 38 11 97 12
REMARK SMILES IDX 39 13 40 14 41 15 91 16 42 17 96 18 90 19 92 20 43 21 95 22
REMARK SMILES IDX 89 23 88 24 44 26 76 27 56 28 75 29 57 30 60 31 74 32 93 33
REMARK SMILES IDX 58 34 59 35 73 37 94 38 61 39 45 40 46 41 54 42 47 43 48 44
REMARK SMILES IDX 52 45 55 46 49 47 50 48 53 49 51 50 77 51 78 52 86 53 79 54
REMARK SMILES IDX 80 55 84 56 87 57 81 58 82 59 85 60 83 61 62 62 63 63 71 64
REMARK SMILES IDX 64 65 65 66 69 67 72 68 66 69 67 70 70 71 68 72 8 73 9 74
REMARK SMILES IDX 10 75 11 76 12 77 13 78 26 79 14 80 25 81 15 82 24 83 16 84
REMARK SMILES IDX 23 85 17 86 27 88 28 89 29 90 30 91 31 92 32 93 35 94 33 95
REMARK SMILES IDX 34 96 18 97 19 98 20 99 21 100 22 101
REMARK H PARENT 92 25 60 36 17 87
REMARK Flexibility Score: inf
ROOT
ATOM      1  C   UNL     1       8.441   0.840   1.569  1.00  0.00     0.202 C 
ENDROOT
BRANCH   1   2
ATOM      2  O   UNL     1       7.961   1.787   0.599  1.00  0.00    -0.374 OA
BRANCH   2   3
ATOM      3  C   UNL     1       6.553   1.798   0.343  1.00  0.00     0.202 C 
BRANCH   3   4
ATOM      4  C   UNL     1       5.812   0.614  -0.308  1.00  0.00     0.261 C 
BRANCH   4   5
ATOM      5  O   UNL     1       6.340  -0.681  -0.033  1.00  0.00    -0.460 OA
BRANCH   5   6
ATOM      6  C   UNL     1       7.542  -1.156  -0.417  1.00  0.00     0.338 C 
ATOM      7  O   UNL     1       7.990  -2.152   0.148  1.00  0.00    -0.246 OA
BRANCH   6   8
ATOM      8  C   UNL     1       8.336  -0.555  -1.526  1.00  0.00     0.060 A 
ATOM      9  C   UNL     1       8.034   0.619  -2.224  1.00  0.00     0.016 A 
ATOM     10  C   UNL     1       9.461  -1.299  -1.919  1.00  0.00     0.016 A 
ATOM     11  C   UNL     1       8.669   0.924  -3.399  1.00  0.00     0.010 A 
ATOM     12  C   UNL     1      10.142  -0.977  -3.073  1.00  0.00     0.010 A 
ATOM     13  C   UNL     1       9.665   0.072  -3.845  1.00  0.00    -0.014 A 
BRANCH  13  14
ATOM     14  C   UNL     1      10.162   0.331  -5.172  1.00  0.00     0.031 A 
ATOM     15  C   UNL     1      10.843   1.641  -5.324  1.00  0.00     0.074 A 
ATOM     16  C   UNL     1       9.961  -0.589  -6.131  1.00  0.00     0.049 A 
ATOM     17  N   UNL     1      10.530   2.621  -6.107  1.00  0.00    -0.248 NA
ATOM     18  C   UNL     1      11.913   1.958  -4.363  1.00  0.00     0.031 C 
ATOM     19  C   UNL     1       9.455  -1.959  -5.996  1.00  0.00     0.029 A 
ATOM     20  N   UNL     1      10.265  -0.505  -7.447  1.00  0.00    -0.354 N 
ATOM     21  C   UNL     1      11.480   3.611  -5.870  1.00  0.00     0.074 A 
ATOM     22  C   UNL     1      12.211   3.213  -4.697  1.00  0.00     0.031 C 
ATOM     23  C   UNL     1       9.729  -2.648  -7.125  1.00  0.00     0.029 A 
ATOM     24  C   UNL     1      10.284  -1.728  -8.099  1.00  0.00     0.049 A 
ATOM     25  H   UNL     1      10.456   0.348  -7.900  1.00  0.00     0.167 HD
ATOM     26  C   UNL     1      11.744   4.574  -6.793  1.00  0.00     0.037 A 
ATOM     27  C   UNL     1      10.845  -1.943  -9.312  1.00  0.00     0.037 A 
ATOM     28  C   UNL     1      10.633   4.768  -7.685  1.00  0.00     0.049 A 
ATOM     29  C   UNL     1      10.939  -0.617  -9.986  1.00  0.00     0.074 A 
ATOM     30  C   UNL     1       9.335   5.209  -7.511  1.00  0.00     0.029 A 
ATOM     31  N   UNL     1      10.648   4.129  -8.900  1.00  0.00    -0.354 N 
ATOM     32  N   UNL     1       9.891   0.071 -10.357  1.00  0.00    -0.248 NA
ATOM     33  C   UNL     1      12.153   0.162  -9.776  1.00  0.00     0.031 C 
ATOM     34  C   UNL     1       8.549   4.385  -8.368  1.00  0.00     0.029 A 
ATOM     35  C   UNL     1       9.416   3.545  -9.067  1.00  0.00     0.049 A 
ATOM     36  H   UNL     1      11.401   4.096  -9.534  1.00  0.00     0.167 HD
ATOM     37  C   UNL     1      10.194   1.389 -10.039  1.00  0.00     0.074 A 
ATOM     38  C   UNL     1      11.623   1.389  -9.732  1.00  0.00     0.031 C 
ATOM     39  C   UNL     1       9.211   2.297  -9.766  1.00  0.00     0.037 A 
BRANCH  26  40
ATOM     40  C   UNL     1      13.134   5.074  -7.080  1.00  0.00     0.064 A 
ATOM     41  C   UNL     1      13.319   6.183  -7.926  1.00  0.00     0.173 A 
ATOM     42  C   UNL     1      14.299   4.329  -6.788  1.00  0.00     0.173 A 
ATOM     43  F   UNL     1      12.277   6.944  -8.292  1.00  0.00    -0.203 F 
ATOM     44  C   UNL     1      14.566   6.483  -8.484  1.00  0.00     0.198 A 
ATOM     45  C   UNL     1      15.549   4.661  -7.303  1.00  0.00     0.198 A 
ATOM     46  F   UNL     1      14.259   3.189  -6.087  1.00  0.00    -0.203 F 
ATOM     47  F   UNL     1      14.674   7.478  -9.374  1.00  0.00    -0.200 F 
ATOM     48  C   UNL     1      15.678   5.720  -8.175  1.00  0.00     0.200 A 
ATOM     49  F   UNL     1      16.608   3.894  -7.008  1.00  0.00    -0.200 F 
ATOM     50  F   UNL     1      16.860   5.970  -8.753  1.00  0.00    -0.200 F 
ENDBRANCH  26  40
BRANCH  27  51
ATOM     51  C   UNL     1      11.670  -3.112  -9.691  1.00  0.00     0.064 A 
ATOM     52  C   UNL     1      11.934  -3.404 -11.036  1.00  0.00     0.173 A 
ATOM     53  C   UNL     1      12.427  -3.820  -8.733  1.00  0.00     0.173 A 
ATOM     54  F   UNL     1      11.293  -2.736 -12.006  1.00  0.00    -0.203 F 
ATOM     55  C   UNL     1      12.907  -4.340 -11.402  1.00  0.00     0.198 A 
ATOM     56  C   UNL     1      13.391  -4.758  -9.099  1.00  0.00     0.198 A 
ATOM     57  F   UNL     1      12.312  -3.550  -7.425  1.00  0.00    -0.203 F 
ATOM     58  F   UNL     1      13.171  -4.556 -12.698  1.00  0.00    -0.200 F 
ATOM     59  C   UNL     1      13.639  -5.011 -10.435  1.00  0.00     0.200 A 
ATOM     60  F   UNL     1      14.117  -5.370  -8.153  1.00  0.00    -0.200 F 
ATOM     61  F   UNL     1      14.608  -5.866 -10.787  1.00  0.00    -0.200 F 
ENDBRANCH  27  51
BRANCH  39  62
ATOM     62  C   UNL     1       7.785   1.874  -9.998  1.00  0.00     0.064 A 
ATOM     63  C   UNL     1       7.150   0.844  -9.282  1.00  0.00     0.173 A 
ATOM     64  C   UNL     1       6.990   2.636 -10.862  1.00  0.00     0.173 A 
ATOM     65  F   UNL     1       7.811   0.144  -8.352  1.00  0.00    -0.203 F 
ATOM     66  C   UNL     1       5.796   0.559  -9.462  1.00  0.00     0.198 A 
ATOM     67  C   UNL     1       5.630   2.375 -11.014  1.00  0.00     0.198 A 
ATOM     68  F   UNL     1       7.524   3.676 -11.521  1.00  0.00    -0.203 F 
ATOM     69  F   UNL     1       5.218  -0.434  -8.770  1.00  0.00    -0.200 F 
ATOM     70  C   UNL     1       5.037   1.330 -10.325  1.00  0.00     0.200 A 
ATOM     71  F   UNL     1       4.887   3.160 -11.806  1.00  0.00    -0.200 F 
ATOM     72  F   UNL     1       3.726   1.088 -10.467  1.00  0.00    -0.200 F 
ENDBRANCH  39  62
ENDBRANCH  13  14
ENDBRANCH   6   8
ENDBRANCH   5   6
ENDBRANCH   4   5
ENDBRANCH   3   4
ENDBRANCH   2   3
ENDBRANCH   1   2
BRANCH   1  73
ATOM     73  C   UNL     1       8.953   1.384   2.919  1.00  0.00     0.261 C 
BRANCH  73  74
ATOM     74  O   UNL     1       7.958   1.903   4.105  1.00  0.00    -0.462 OA
BRANCH  74  75
ATOM     75  C   UNL     1       6.123   2.186   4.850  1.00  0.00     0.328 C 
ATOM     76  O   UNL     1       5.815   2.812   5.918  1.00  0.00    -0.250 OA
BRANCH  75  77
ATOM     77  C   UNL     1       4.656   1.674   4.046  1.00  0.00     0.195 C 
ATOM     78  C   UNL     1       4.013   0.709   5.064  1.00  0.00     0.046 C 
ATOM     79  N   UNL     1       3.643   2.720   3.859  1.00  0.00    -0.328 N 
ATOM     80  C   UNL     1       2.712   1.373   5.543  1.00  0.00     0.001 C 
ATOM     81  C   UNL     1       2.347   2.247   4.348  1.00  0.00     0.128 C 
ATOM     82  C   UNL     1       2.858   2.304   6.761  1.00  0.00     0.071 C 
ATOM     83  C   UNL     1       1.720   0.268   5.923  1.00  0.00     0.071 C 
ATOM     84  C   UNL     1       3.296   1.576   8.019  1.00  0.00     0.270 C 
ATOM     85  C   UNL     1       2.227  -0.485   7.165  1.00  0.00     0.270 C 
ATOM     86  N   UNL     1       2.447   0.420   8.300  1.00  0.00    -0.272 N 
ATOM     87  H   UNL     1       1.662  -0.173   8.334  1.00  0.00     0.356 HD
BRANCH  79  88
ATOM     88  C   UNL     1       3.732   3.867   3.117  1.00  0.00     0.225 C 
ATOM     89  O   UNL     1       2.760   4.624   3.016  1.00  0.00    -0.275 OA
BRANCH  88  90
ATOM     90  C   UNL     1       4.955   4.184   2.274  1.00  0.00     0.124 C 
BRANCH  90  91
ATOM     91  C   UNL     1       6.340   4.335   2.879  1.00  0.00     0.154 C 
BRANCH  91  92
ATOM     92  N   UNL     1       6.997   3.196   3.486  1.00  0.00    -0.272 N 
ATOM     93  C   UNL     1       7.808   3.349   5.160  1.00  0.00     0.108 A 
ATOM     94  N   UNL     1       6.575   1.368   3.197  1.00  0.00    -0.182 NA
ATOM     95  C   UNL     1       7.838   1.719   5.906  1.00  0.00     0.042 A 
ATOM     96  C   UNL     1       7.057   0.473   4.635  1.00  0.00     0.135 A 
ENDBRANCH  91  92
ENDBRANCH  90  91
ENDBRANCH  88  90
ENDBRANCH  79  88
BRANCH  86  97
ATOM     97  C   UNL     1       2.006  -0.017   9.552  1.00  0.00     0.315 C 
ATOM     98  O   UNL     1       1.519  -1.140   9.686  1.00  0.00    -0.231 OA
BRANCH  97  99
ATOM     99  C   UNL     1       2.018   0.818  10.792  1.00  0.00     0.119 C 
ATOM    100  C   UNL     1       3.006   1.855  11.237  1.00  0.00     0.019 C 
ATOM    101  C   UNL     1       1.628   2.274  10.788  1.00  0.00     0.019 C 
ENDBRANCH  97  99
ENDBRANCH  86  97
ENDBRANCH  75  77
ENDBRANCH  74  75
ENDBRANCH  73  74
ENDBRANCH   1  73
TORSDOF 20
