REMARK SMILES C/C(=N/OCc1ccccc1Nc1c(Cl)cccc1Cl)C(=O)OCCOCCOC(=O)c1ccc(-c2c3nc(c(-c4c(F)c(F)c(F)c(F)c4F)c4ccc([nH]4)c(-c4c(F)c(F)c(F)c(F)c4F)c4nc(c(-c5c(F)c(F)c(F)c(F)c5F)c5ccc2[nH]5)C=C4)C=C3)cc1
REMARK SMILES IDX 24 1 23 2 21 3 22 4 2 5 1 6 3 7 4 8 5 9 6 10 7 11 11 12 8 13
REMARK SMILES IDX 10 14 9 15 12 16 13 18 14 19 19 20 15 21 16 22 18 23 20 24
REMARK SMILES IDX 17 25 25 26 26 27 27 28 28 29 29 30 30 31 31 32 32 33 33 34
REMARK SMILES IDX 94 35 34 36 93 37 35 38 36 39 37 40 87 41 38 42 92 43 86 44
REMARK SMILES IDX 88 45 39 46 91 47 85 48 84 49 40 51 72 52 52 53 71 54 53 55
REMARK SMILES IDX 56 56 70 57 89 58 54 59 55 60 69 62 90 63 57 64 41 65 42 66
REMARK SMILES IDX 50 67 43 68 44 69 48 70 51 71 45 72 46 73 49 74 47 75 73 76
REMARK SMILES IDX 74 77 82 78 75 79 76 80 80 81 83 82 77 83 78 84 81 85 79 86
REMARK SMILES IDX 58 87 59 88 67 89 60 90 61 91 65 92 68 93 62 94 63 95 66 96
REMARK SMILES IDX 64 97
REMARK H PARENT 12 17 88 50 56 61
REMARK Flexibility Score: inf
ROOT
ATOM      1  C   UNL     1       1.579   0.674   4.528  1.00  0.00     0.261 C 
ENDROOT
BRANCH   1   2
ATOM      2  O   UNL     1       0.871   1.126   3.367  1.00  0.00    -0.459 OA
BRANCH   2   3
ATOM      3  C   UNL     1       1.475   0.886   2.188  1.00  0.00     0.355 C 
ATOM      4  O   UNL     1       2.595   0.429   2.035  1.00  0.00    -0.245 OA
BRANCH   3   5
ATOM      5  C   UNL     1       0.491   1.016   1.020  1.00  0.00     0.161 C 
ATOM      6  C   UNL     1       0.654  -0.000  -0.080  1.00  0.00     0.079 C 
ATOM      7  N   UNL     1      -0.492   1.864   0.928  1.00  0.00    -0.084 NA
BRANCH   7   8
ATOM      8  O   UNL     1      -0.533   2.772   1.994  1.00  0.00    -0.390 OA
BRANCH   8   9
ATOM      9  C   UNL     1      -1.320   3.909   1.617  1.00  0.00     0.302 C 
BRANCH   9  10
ATOM     10  C   UNL     1      -0.616   4.854   0.657  1.00  0.00     0.016 A 
ATOM     11  C   UNL     1      -1.439   5.685  -0.129  1.00  0.00     0.009 A 
ATOM     12  C   UNL     1       0.790   4.978   0.548  1.00  0.00     0.045 A 
ATOM     13  C   UNL     1      -0.891   6.587  -1.037  1.00  0.00     0.001 A 
ATOM     14  C   UNL     1       1.319   5.877  -0.389  1.00  0.00     0.026 A 
ATOM     15  C   UNL     1       0.488   6.674  -1.176  1.00  0.00     0.002 A 
BRANCH  12  16
ATOM     16  N   UNL     1       1.652   4.199   1.341  1.00  0.00    -0.353 N 
ATOM     17  H   UNL     1       1.212   3.476   1.842  1.00  0.00     0.167 HD
BRANCH  16  18
ATOM     18  C   UNL     1       3.047   4.289   1.533  1.00  0.00     0.076 A 
ATOM     19  C   UNL     1       3.915   3.323   0.985  1.00  0.00     0.066 A 
ATOM     20  C   UNL     1       3.599   5.213   2.441  1.00  0.00     0.066 A 
ATOM     21  Cl  UNL     1       3.404   2.280  -0.298  1.00  0.00    -0.082 Cl
ATOM     22  C   UNL     1       5.250   3.228   1.392  1.00  0.00     0.023 A 
ATOM     23  C   UNL     1       4.952   5.161   2.794  1.00  0.00     0.023 A 
ATOM     24  Cl  UNL     1       2.633   6.454   3.165  1.00  0.00    -0.082 Cl
ATOM     25  C   UNL     1       5.769   4.148   2.297  1.00  0.00     0.003 A 
ENDBRANCH  16  18
ENDBRANCH  12  16
ENDBRANCH   9  10
ENDBRANCH   8   9
ENDBRANCH   7   8
ENDBRANCH   3   5
ENDBRANCH   2   3
ENDBRANCH   1   2
BRANCH   1  26
ATOM     26  C   UNL     1       0.838  -0.494   5.181  1.00  0.00     0.202 C 
BRANCH  26  27
ATOM     27  O   UNL     1       0.776  -1.732   4.473  1.00  0.00    -0.374 OA
BRANCH  27  28
ATOM     28  C   UNL     1      -0.016  -1.821   3.294  1.00  0.00     0.202 C 
BRANCH  28  29
ATOM     29  C   UNL     1      -1.547  -1.826   3.410  1.00  0.00     0.261 C 
BRANCH  29  30
ATOM     30  O   UNL     1      -2.076  -0.759   4.207  1.00  0.00    -0.460 OA
BRANCH  30  31
ATOM     31  C   UNL     1      -2.446  -1.147   5.451  1.00  0.00     0.338 C 
ATOM     32  O   UNL     1      -2.413  -2.276   5.916  1.00  0.00    -0.246 OA
BRANCH  31  33
ATOM     33  C   UNL     1      -2.750   0.025   6.287  1.00  0.00     0.060 A 
ATOM     34  C   UNL     1      -2.049   0.139   7.493  1.00  0.00     0.016 A 
ATOM     35  C   UNL     1      -3.763   0.929   5.960  1.00  0.00     0.016 A 
ATOM     36  C   UNL     1      -2.405   1.119   8.410  1.00  0.00     0.010 A 
ATOM     37  C   UNL     1      -4.120   1.915   6.887  1.00  0.00     0.010 A 
ATOM     38  C   UNL     1      -3.472   1.984   8.134  1.00  0.00    -0.014 A 
BRANCH  38  39
ATOM     39  C   UNL     1      -3.967   2.861   9.223  1.00  0.00     0.031 A 
ATOM     40  C   UNL     1      -5.210   2.475   9.977  1.00  0.00     0.074 A 
ATOM     41  C   UNL     1      -3.255   3.938   9.595  1.00  0.00     0.049 A 
ATOM     42  N   UNL     1      -5.761   3.048  11.018  1.00  0.00    -0.248 NA
ATOM     43  C   UNL     1      -5.928   1.285   9.497  1.00  0.00     0.031 C 
ATOM     44  C   UNL     1      -2.022   4.393   8.956  1.00  0.00     0.029 A 
ATOM     45  N   UNL     1      -3.459   4.835  10.613  1.00  0.00    -0.354 N 
ATOM     46  C   UNL     1      -6.885   2.288  11.317  1.00  0.00     0.074 A 
ATOM     47  C   UNL     1      -6.962   1.239  10.323  1.00  0.00     0.031 C 
ATOM     48  C   UNL     1      -1.570   5.479   9.606  1.00  0.00     0.029 A 
ATOM     49  C   UNL     1      -2.496   5.809  10.687  1.00  0.00     0.049 A 
ATOM     50  H   UNL     1      -4.224   4.784  11.231  1.00  0.00     0.167 HD
ATOM     51  C   UNL     1      -7.763   2.444  12.337  1.00  0.00     0.037 A 
ATOM     52  C   UNL     1      -2.379   6.852  11.530  1.00  0.00     0.037 A 
ATOM     53  C   UNL     1      -7.682   3.491  13.324  1.00  0.00     0.049 A 
ATOM     54  C   UNL     1      -3.398   7.029  12.625  1.00  0.00     0.074 A 
ATOM     55  C   UNL     1      -8.512   3.725  14.406  1.00  0.00     0.029 A 
ATOM     56  N   UNL     1      -6.716   4.487  13.342  1.00  0.00    -0.354 N 
ATOM     57  N   UNL     1      -4.436   6.286  12.922  1.00  0.00    -0.248 NA
ATOM     58  C   UNL     1      -3.216   8.187  13.511  1.00  0.00     0.031 C 
ATOM     59  C   UNL     1      -8.085   4.896  15.043  1.00  0.00     0.029 A 
ATOM     60  C   UNL     1      -6.947   5.354  14.400  1.00  0.00     0.049 A 
ATOM     61  H   UNL     1      -5.976   4.567  12.698  1.00  0.00     0.167 HD
ATOM     62  C   UNL     1      -5.014   6.867  14.044  1.00  0.00     0.074 A 
ATOM     63  C   UNL     1      -4.193   8.010  14.387  1.00  0.00     0.031 C 
ATOM     64  C   UNL     1      -6.125   6.492  14.728  1.00  0.00     0.037 A 
BRANCH  51  65
ATOM     65  C   UNL     1      -8.908   1.473  12.424  1.00  0.00     0.064 A 
ATOM     66  C   UNL     1      -8.713   0.126  12.768  1.00  0.00     0.173 A 
ATOM     67  C   UNL     1     -10.223   1.905  12.194  1.00  0.00     0.173 A 
ATOM     68  F   UNL     1      -7.476  -0.344  12.986  1.00  0.00    -0.203 F 
ATOM     69  C   UNL     1      -9.789  -0.756  12.852  1.00  0.00     0.198 A 
ATOM     70  C   UNL     1     -11.299   1.028  12.311  1.00  0.00     0.198 A 
ATOM     71  F   UNL     1     -10.468   3.182  11.865  1.00  0.00    -0.203 F 
ATOM     72  F   UNL     1      -9.573  -2.049  13.133  1.00  0.00    -0.200 F 
ATOM     73  C   UNL     1     -11.081  -0.302  12.631  1.00  0.00     0.200 A 
ATOM     74  F   UNL     1     -12.547   1.473  12.112  1.00  0.00    -0.200 F 
ATOM     75  F   UNL     1     -12.115  -1.150  12.722  1.00  0.00    -0.200 F 
ENDBRANCH  51  65
BRANCH  52  76
ATOM     76  C   UNL     1      -1.250   7.808  11.376  1.00  0.00     0.064 A 
ATOM     77  C   UNL     1      -0.246   7.911  12.349  1.00  0.00     0.173 A 
ATOM     78  C   UNL     1      -1.165   8.652  10.259  1.00  0.00     0.173 A 
ATOM     79  F   UNL     1      -0.296   7.142  13.447  1.00  0.00    -0.203 F 
ATOM     80  C   UNL     1       0.785   8.839  12.223  1.00  0.00     0.198 A 
ATOM     81  C   UNL     1      -0.115   9.556  10.117  1.00  0.00     0.198 A 
ATOM     82  F   UNL     1      -2.099   8.592   9.299  1.00  0.00    -0.203 F 
ATOM     83  F   UNL     1       1.701   8.956  13.194  1.00  0.00    -0.200 F 
ATOM     84  C   UNL     1       0.854   9.656  11.104  1.00  0.00     0.200 A 
ATOM     85  F   UNL     1      -0.044  10.332   9.028  1.00  0.00    -0.200 F 
ATOM     86  F   UNL     1       1.848  10.546  10.982  1.00  0.00    -0.200 F 
ENDBRANCH  52  76
BRANCH  64  87
ATOM     87  C   UNL     1      -6.490   7.308  15.938  1.00  0.00     0.064 A 
ATOM     88  C   UNL     1      -6.931   8.636  15.832  1.00  0.00     0.173 A 
ATOM     89  C   UNL     1      -6.390   6.754  17.224  1.00  0.00     0.173 A 
ATOM     90  F   UNL     1      -7.034   9.219  14.628  1.00  0.00    -0.203 F 
ATOM     91  C   UNL     1      -7.206   9.394  16.968  1.00  0.00     0.198 A 
ATOM     92  C   UNL     1      -6.705   7.502  18.355  1.00  0.00     0.198 A 
ATOM     93  F   UNL     1      -5.986   5.485  17.386  1.00  0.00    -0.203 F 
ATOM     94  F   UNL     1      -7.549  10.683  16.843  1.00  0.00    -0.200 F 
ATOM     95  C   UNL     1      -7.096   8.825  18.228  1.00  0.00     0.200 A 
ATOM     96  F   UNL     1      -6.615   6.945  19.571  1.00  0.00    -0.200 F 
ATOM     97  F   UNL     1      -7.355   9.558  19.320  1.00  0.00    -0.200 F 
ENDBRANCH  64  87
ENDBRANCH  38  39
ENDBRANCH  31  33
ENDBRANCH  30  31
ENDBRANCH  29  30
ENDBRANCH  28  29
ENDBRANCH  27  28
ENDBRANCH  26  27
ENDBRANCH   1  26
TORSDOF 19
