REMARK SMILES Cc1ccc(S(=O)(=O)Nc2ccc(C(=O)CCC(=O)OCCOCCOC(=O)c3ccc(-c4c5nc(c(-c6c(F)c(F)c(F)c(F)c6F)c6ccc([nH]6)c(-c6c(F)c(F)c(F)c(F)c6F)c6nc(c(-c7c(F)c(F)c(F)c(F)c7F)c7ccc4[nH]7)C=C6)C=C5)cc3)cc2)c(C)c1
REMARK SMILES IDX 21 1 20 2 18 3 19 4 17 5 16 6 14 7 15 8 13 9 10 10 11 11
REMARK SMILES IDX 93 12 12 13 92 14 9 15 6 17 7 18 8 19 5 20 1 21 2 22 3 23
REMARK SMILES IDX 96 24 4 25 94 26 95 27 22 28 23 29 24 30 25 31 26 32 27 33
REMARK SMILES IDX 28 34 29 35 30 36 91 37 31 38 90 39 32 40 33 41 34 42 84 43
REMARK SMILES IDX 35 44 89 45 83 46 85 47 36 48 88 49 82 50 81 51 37 53 69 54
REMARK SMILES IDX 49 55 68 56 50 57 53 58 67 59 86 60 51 61 52 62 66 64 87 65
REMARK SMILES IDX 54 66 38 67 39 68 47 69 40 70 41 71 45 72 48 73 42 74 43 75
REMARK SMILES IDX 46 76 44 77 70 78 71 79 79 80 72 81 73 82 77 83 80 84 74 85
REMARK SMILES IDX 75 86 78 87 76 88 55 89 56 90 64 91 57 92 58 93 62 94 65 95
REMARK SMILES IDX 59 96 60 97 63 98 61 99
REMARK H PARENT 9 16 85 52 53 63
REMARK Flexibility Score: inf
ROOT
ATOM      1  C   UNL     1       2.078  -1.683   1.401  1.00  0.00     0.261 C 
ENDROOT
BRANCH   1   2
ATOM      2  O   UNL     1       2.788  -2.898   1.101  1.00  0.00    -0.463 OA
BRANCH   2   3
ATOM      3  C   UNL     1       4.001  -2.785   0.517  1.00  0.00     0.306 C 
ATOM      4  O   UNL     1       4.561  -1.722   0.280  1.00  0.00    -0.252 OA
BRANCH   3   5
ATOM      5  C   UNL     1       4.605  -4.130   0.156  1.00  0.00     0.131 C 
BRANCH   5   6
ATOM      6  C   UNL     1       3.809  -5.388   0.511  1.00  0.00     0.093 C 
BRANCH   6   7
ATOM      7  C   UNL     1       2.967  -5.889  -0.658  1.00  0.00     0.163 C 
ATOM      8  O   UNL     1       3.397  -6.745  -1.428  1.00  0.00    -0.294 OA
BRANCH   7   9
ATOM      9  C   UNL     1       1.634  -5.280  -0.930  1.00  0.00     0.018 A 
ATOM     10  C   UNL     1      -0.735  -3.852  -1.505  1.00  0.00     0.049 A 
ATOM     11  C   UNL     1      -0.052  -4.547  -2.510  1.00  0.00     0.027 A 
ATOM     12  C   UNL     1      -0.265  -3.953  -0.210  1.00  0.00     0.027 A 
ATOM     13  C   UNL     1       1.124  -5.259  -2.228  1.00  0.00     0.014 A 
ATOM     14  C   UNL     1       0.891  -4.685   0.078  1.00  0.00     0.014 A 
BRANCH  10  15
ATOM     15  N   UNL     1      -1.894  -3.104  -1.855  1.00  0.00    -0.280 N 
ATOM     16  H   UNL     1      -2.379  -3.389  -2.663  1.00  0.00     0.180 HD
BRANCH  15  17
ATOM     17  S   UNL     1      -2.515  -1.782  -1.026  1.00  0.00     0.262 S 
ATOM     18  O   UNL     1      -2.681  -2.150   0.364  1.00  0.00    -0.201 OA
ATOM     19  O   UNL     1      -3.639  -1.330  -1.819  1.00  0.00    -0.201 OA
BRANCH  17  20
ATOM     20  C   UNL     1      -1.281  -0.492  -1.087  1.00  0.00     0.090 A 
ATOM     21  C   UNL     1       2.144   2.003  -0.379  1.00  0.00     0.044 C 
ATOM     22  C   UNL     1       0.919   1.199  -0.702  1.00  0.00    -0.051 A 
ATOM     23  C   UNL     1       0.991   0.154  -1.624  1.00  0.00     0.005 A 
ATOM     24  C   UNL     1      -0.308   1.484  -0.091  1.00  0.00     0.008 A 
ATOM     25  C   UNL     1      -0.103  -0.689  -1.817  1.00  0.00     0.023 A 
ATOM     26  C   UNL     1      -1.425   0.649  -0.274  1.00  0.00    -0.030 A 
ATOM     27  C   UNL     1      -2.737   1.088   0.321  1.00  0.00     0.046 C 
ENDBRANCH  17  20
ENDBRANCH  15  17
ENDBRANCH  10  15
ENDBRANCH   7   9
ENDBRANCH   6   7
ENDBRANCH   5   6
ENDBRANCH   3   5
ENDBRANCH   2   3
ENDBRANCH   1   2
BRANCH   1  28
ATOM     28  C   UNL     1       1.043  -1.917   2.508  1.00  0.00     0.202 C 
BRANCH  28  29
ATOM     29  O   UNL     1       1.637  -2.215   3.769  1.00  0.00    -0.374 OA
BRANCH  29  30
ATOM     30  C   UNL     1       2.020  -3.579   3.967  1.00  0.00     0.202 C 
BRANCH  30  31
ATOM     31  C   UNL     1       0.866  -4.506   4.383  1.00  0.00     0.261 C 
BRANCH  31  32
ATOM     32  O   UNL     1       0.150  -5.050   3.244  1.00  0.00    -0.460 OA
BRANCH  32  33
ATOM     33  C   UNL     1      -1.208  -5.068   3.345  1.00  0.00     0.338 C 
ATOM     34  O   UNL     1      -1.861  -4.619   4.273  1.00  0.00    -0.246 OA
BRANCH  33  35
ATOM     35  C   UNL     1      -1.853  -5.659   2.135  1.00  0.00     0.060 A 
ATOM     36  C   UNL     1      -3.040  -5.074   1.672  1.00  0.00     0.016 A 
ATOM     37  C   UNL     1      -1.341  -6.773   1.459  1.00  0.00     0.016 A 
ATOM     38  C   UNL     1      -3.709  -5.590   0.551  1.00  0.00     0.010 A 
ATOM     39  C   UNL     1      -2.018  -7.297   0.338  1.00  0.00     0.010 A 
ATOM     40  C   UNL     1      -3.222  -6.724  -0.114  1.00  0.00    -0.014 A 
BRANCH  40  41
ATOM     41  C   UNL     1      -4.084  -7.427  -1.115  1.00  0.00     0.031 A 
ATOM     42  C   UNL     1      -5.066  -8.444  -0.613  1.00  0.00     0.074 A 
ATOM     43  C   UNL     1      -4.049  -7.183  -2.440  1.00  0.00     0.049 A 
ATOM     44  N   UNL     1      -5.944  -9.150  -1.279  1.00  0.00    -0.248 NA
ATOM     45  C   UNL     1      -5.051  -8.697   0.834  1.00  0.00     0.031 C 
ATOM     46  C   UNL     1      -3.174  -6.218  -3.076  1.00  0.00     0.029 A 
ATOM     47  N   UNL     1      -4.757  -7.724  -3.490  1.00  0.00    -0.354 N 
ATOM     48  C   UNL     1      -6.606  -9.910  -0.329  1.00  0.00     0.074 A 
ATOM     49  C   UNL     1      -5.996  -9.615   0.951  1.00  0.00     0.031 C 
ATOM     50  C   UNL     1      -3.381  -6.221  -4.404  1.00  0.00     0.029 A 
ATOM     51  C   UNL     1      -4.387  -7.233  -4.722  1.00  0.00     0.049 A 
ATOM     52  H   UNL     1      -5.463  -8.399  -3.371  1.00  0.00     0.167 HD
ATOM     53  C   UNL     1      -7.636 -10.771  -0.499  1.00  0.00     0.037 A 
ATOM     54  C   UNL     1      -4.786  -7.575  -5.966  1.00  0.00     0.037 A 
ATOM     55  C   UNL     1      -8.216 -11.119  -1.767  1.00  0.00     0.049 A 
ATOM     56  C   UNL     1      -5.842  -8.636  -6.146  1.00  0.00     0.074 A 
ATOM     57  C   UNL     1      -9.263 -11.987  -2.024  1.00  0.00     0.029 A 
ATOM     58  N   UNL     1      -7.777 -10.647  -2.995  1.00  0.00    -0.354 N 
ATOM     59  N   UNL     1      -6.507  -9.300  -5.233  1.00  0.00    -0.248 NA
ATOM     60  C   UNL     1      -6.206  -8.994  -7.527  1.00  0.00     0.031 C 
ATOM     61  C   UNL     1      -9.416 -12.089  -3.411  1.00  0.00     0.029 A 
ATOM     62  C   UNL     1      -8.506 -11.237  -4.016  1.00  0.00     0.049 A 
ATOM     63  H   UNL     1      -7.056  -9.989  -3.122  1.00  0.00     0.167 HD
ATOM     64  C   UNL     1      -7.392 -10.120  -5.922  1.00  0.00     0.074 A 
ATOM     65  C   UNL     1      -7.177  -9.877  -7.333  1.00  0.00     0.031 C 
ATOM     66  C   UNL     1      -8.307 -10.985  -5.421  1.00  0.00     0.037 A 
BRANCH  53  67
ATOM     67  C   UNL     1      -8.161 -11.428   0.739  1.00  0.00     0.064 A 
ATOM     68  C   UNL     1      -8.889 -10.707   1.698  1.00  0.00     0.173 A 
ATOM     69  C   UNL     1      -7.894 -12.780   0.989  1.00  0.00     0.173 A 
ATOM     70  F   UNL     1      -9.147  -9.403   1.511  1.00  0.00    -0.203 F 
ATOM     71  C   UNL     1      -9.294 -11.309   2.885  1.00  0.00     0.198 A 
ATOM     72  C   UNL     1      -8.327 -13.386   2.164  1.00  0.00     0.198 A 
ATOM     73  F   UNL     1      -7.199 -13.508   0.103  1.00  0.00    -0.203 F 
ATOM     74  F   UNL     1      -9.927 -10.585   3.819  1.00  0.00    -0.200 F 
ATOM     75  C   UNL     1      -9.015 -12.647   3.116  1.00  0.00     0.200 A 
ATOM     76  F   UNL     1      -8.060 -14.681   2.385  1.00  0.00    -0.200 F 
ATOM     77  F   UNL     1      -9.393 -13.222   4.266  1.00  0.00    -0.200 F 
ENDBRANCH  53  67
BRANCH  54  78
ATOM     78  C   UNL     1      -4.163  -6.930  -7.155  1.00  0.00     0.064 A 
ATOM     79  C   UNL     1      -4.894  -6.071  -7.988  1.00  0.00     0.173 A 
ATOM     80  C   UNL     1      -2.828  -7.188  -7.500  1.00  0.00     0.173 A 
ATOM     81  F   UNL     1      -6.184  -5.817  -7.721  1.00  0.00    -0.203 F 
ATOM     82  C   UNL     1      -4.317  -5.504  -9.124  1.00  0.00     0.198 A 
ATOM     83  C   UNL     1      -2.244  -6.601  -8.621  1.00  0.00     0.198 A 
ATOM     84  F   UNL     1      -2.085  -8.007  -6.741  1.00  0.00    -0.203 F 
ATOM     85  F   UNL     1      -5.050  -4.719  -9.926  1.00  0.00    -0.200 F 
ATOM     86  C   UNL     1      -2.991  -5.764  -9.436  1.00  0.00     0.200 A 
ATOM     87  F   UNL     1      -0.960  -6.847  -8.912  1.00  0.00    -0.200 F 
ATOM     88  F   UNL     1      -2.435  -5.215 -10.525  1.00  0.00    -0.200 F 
ENDBRANCH  54  78
BRANCH  66  89
ATOM     89  C   UNL     1      -9.200 -11.706  -6.389  1.00  0.00     0.064 A 
ATOM     90  C   UNL     1      -8.732 -12.753  -7.195  1.00  0.00     0.173 A 
ATOM     91  C   UNL     1     -10.569 -11.395  -6.449  1.00  0.00     0.173 A 
ATOM     92  F   UNL     1      -7.431 -13.079  -7.189  1.00  0.00    -0.203 F 
ATOM     93  C   UNL     1      -9.598 -13.458  -8.028  1.00  0.00     0.198 A 
ATOM     94  C   UNL     1     -11.436 -12.119  -7.261  1.00  0.00     0.198 A 
ATOM     95  F   UNL     1     -11.069 -10.403  -5.696  1.00  0.00    -0.203 F 
ATOM     96  F   UNL     1      -9.124 -14.437  -8.811  1.00  0.00    -0.200 F 
ATOM     97  C   UNL     1     -10.950 -13.149  -8.052  1.00  0.00     0.200 A 
ATOM     98  F   UNL     1     -12.744 -11.827  -7.271  1.00  0.00    -0.200 F 
ATOM     99  F   UNL     1     -11.785 -13.842  -8.838  1.00  0.00    -0.200 F 
ENDBRANCH  66  89
ENDBRANCH  40  41
ENDBRANCH  33  35
ENDBRANCH  32  33
ENDBRANCH  31  32
ENDBRANCH  30  31
ENDBRANCH  29  30
ENDBRANCH  28  29
ENDBRANCH   1  28
TORSDOF 20
