REMARK SMILES CC/C=C/C/C=C/C/C=C/C/C=C/CCSCCCC(=O)OCCOCCOC(=O)c1ccc(-c2c3nc(c(-c4c(F)c(F)c(F)c(F)c4F)c4ccc([nH]4)c(-c4c(F)c(F)c(F)c(F)c4F)c4nc(c(-c5c(F)c(F)c(F)c(F)c5F)c5ccc2[nH]5)C=C4)C=C3)cc1
REMARK SMILES IDX 18 1 17 2 16 3 15 4 14 5 13 6 12 7 11 8 10 9 9 10 8 11 7 12
REMARK SMILES IDX 6 13 5 14 4 15 3 16 2 17 1 18 19 19 20 20 21 21 22 22 23 23
REMARK SMILES IDX 24 24 25 25 26 26 27 27 28 28 29 29 30 30 31 31 32 32 93 33
REMARK SMILES IDX 33 34 92 35 34 36 35 37 36 38 86 39 37 40 91 41 85 42 87 43
REMARK SMILES IDX 38 44 90 45 84 46 83 47 39 49 71 50 51 51 70 52 52 53 55 54
REMARK SMILES IDX 69 55 88 56 53 57 54 58 68 60 89 61 56 62 40 63 41 64 49 65
REMARK SMILES IDX 42 66 43 67 47 68 50 69 44 70 45 71 48 72 46 73 72 74 73 75
REMARK SMILES IDX 81 76 74 77 75 78 79 79 82 80 76 81 77 82 80 83 78 84 57 85
REMARK SMILES IDX 58 86 66 87 59 88 60 89 64 90 67 91 61 92 62 93 65 94 63 95
REMARK H PARENT 87 48 55 59
REMARK Flexibility Score: inf
ROOT
ATOM      1  C   UNL     1      -5.314  12.911  -1.171  1.00  0.00     0.023 C 
ENDROOT
BRANCH   1   2
ATOM      2  C   UNL     1      -6.723  12.569  -0.662  1.00  0.00     0.070 C 
BRANCH   2   3
ATOM      3  S   UNL     1      -7.266  12.954   1.041  1.00  0.00    -0.162 SA
BRANCH   3   4
ATOM      4  C   UNL     1      -6.094  12.121   2.177  1.00  0.00     0.073 C 
BRANCH   4   5
ATOM      5  C   UNL     1      -6.561  10.831   2.881  1.00  0.00     0.038 C 
BRANCH   5   6
ATOM      6  C   UNL     1      -6.160   9.521   2.245  1.00  0.00    -0.030 C 
ATOM      7  C   UNL     1      -5.071   8.790   2.574  1.00  0.00    -0.027 C 
BRANCH   7   8
ATOM      8  C   UNL     1      -4.624   7.462   1.972  1.00  0.00     0.054 C 
BRANCH   8   9
ATOM      9  C   UNL     1      -3.205   7.502   1.446  1.00  0.00    -0.027 C 
ATOM     10  C   UNL     1      -2.745   6.910   0.325  1.00  0.00    -0.027 C 
BRANCH  10  11
ATOM     11  C   UNL     1      -1.332   7.029  -0.196  1.00  0.00     0.054 C 
BRANCH  11  12
ATOM     12  C   UNL     1      -0.389   6.323   0.731  1.00  0.00    -0.027 C 
ATOM     13  C   UNL     1       0.271   5.192   0.440  1.00  0.00    -0.027 C 
BRANCH  13  14
ATOM     14  C   UNL     1       0.975   4.379   1.487  1.00  0.00     0.054 C 
BRANCH  14  15
ATOM     15  C   UNL     1       0.410   2.986   1.503  1.00  0.00    -0.027 C 
ATOM     16  C   UNL     1       1.151   1.873   1.407  1.00  0.00    -0.031 C 
BRANCH  16  17
ATOM     17  C   UNL     1       0.572   0.491   1.336  1.00  0.00     0.023 C 
ATOM     18  C   UNL     1       1.000  -0.201   0.051  1.00  0.00     0.008 C 
ENDBRANCH  16  17
ENDBRANCH  14  15
ENDBRANCH  13  14
ENDBRANCH  11  12
ENDBRANCH  10  11
ENDBRANCH   8   9
ENDBRANCH   7   8
ENDBRANCH   5   6
ENDBRANCH   4   5
ENDBRANCH   3   4
ENDBRANCH   2   3
ENDBRANCH   1   2
BRANCH   1  19
ATOM     19  C   UNL     1      -4.128  12.093  -0.681  1.00  0.00     0.123 C 
BRANCH  19  20
ATOM     20  C   UNL     1      -4.356  10.614  -0.576  1.00  0.00     0.305 C 
ATOM     21  O   UNL     1      -3.675   9.915   0.162  1.00  0.00    -0.252 OA
BRANCH  20  22
ATOM     22  O   UNL     1      -5.312  10.168  -1.421  1.00  0.00    -0.463 OA
BRANCH  22  23
ATOM     23  C   UNL     1      -5.884   8.879  -1.191  1.00  0.00     0.261 C 
BRANCH  23  24
ATOM     24  C   UNL     1      -5.388   7.656  -1.972  1.00  0.00     0.202 C 
BRANCH  24  25
ATOM     25  O   UNL     1      -4.271   7.689  -2.836  1.00  0.00    -0.374 OA
BRANCH  25  26
ATOM     26  C   UNL     1      -3.892   8.907  -3.441  1.00  0.00     0.202 C 
BRANCH  26  27
ATOM     27  C   UNL     1      -4.882   9.597  -4.398  1.00  0.00     0.261 C 
BRANCH  27  28
ATOM     28  O   UNL     1      -6.253   9.684  -3.959  1.00  0.00    -0.460 OA
BRANCH  28  29
ATOM     29  C   UNL     1      -7.079   8.720  -4.428  1.00  0.00     0.338 C 
ATOM     30  O   UNL     1      -6.780   7.791  -5.168  1.00  0.00    -0.246 OA
BRANCH  29  31
ATOM     31  C   UNL     1      -8.421   8.838  -3.816  1.00  0.00     0.060 A 
ATOM     32  C   UNL     1      -8.962   7.718  -3.168  1.00  0.00     0.016 A 
ATOM     33  C   UNL     1      -9.187   9.995  -3.971  1.00  0.00     0.016 A 
ATOM     34  C   UNL     1     -10.284   7.730  -2.718  1.00  0.00     0.010 A 
ATOM     35  C   UNL     1     -10.522   9.997  -3.545  1.00  0.00     0.010 A 
ATOM     36  C   UNL     1     -11.089   8.849  -2.958  1.00  0.00    -0.014 A 
BRANCH  36  37
ATOM     37  C   UNL     1     -12.564   8.736  -2.818  1.00  0.00     0.031 A 
ATOM     38  C   UNL     1     -13.375   8.450  -4.055  1.00  0.00     0.074 A 
ATOM     39  C   UNL     1     -13.174   8.857  -1.626  1.00  0.00     0.049 A 
ATOM     40  N   UNL     1     -14.673   8.395  -4.211  1.00  0.00    -0.248 NA
ATOM     41  C   UNL     1     -12.611   8.193  -5.287  1.00  0.00     0.031 C 
ATOM     42  C   UNL     1     -12.498   9.066  -0.348  1.00  0.00     0.029 A 
ATOM     43  N   UNL     1     -14.509   8.832  -1.303  1.00  0.00    -0.354 N 
ATOM     44  C   UNL     1     -14.879   8.117  -5.557  1.00  0.00     0.074 A 
ATOM     45  C   UNL     1     -13.577   8.036  -6.179  1.00  0.00     0.031 C 
ATOM     46  C   UNL     1     -13.424   9.170   0.621  1.00  0.00     0.029 A 
ATOM     47  C   UNL     1     -14.757   9.077   0.026  1.00  0.00     0.049 A 
ATOM     48  H   UNL     1     -15.220   8.656  -1.961  1.00  0.00     0.167 HD
ATOM     49  C   UNL     1     -16.051   7.944  -6.214  1.00  0.00     0.037 A 
ATOM     50  C   UNL     1     -15.928   9.238   0.675  1.00  0.00     0.037 A 
ATOM     51  C   UNL     1     -17.345   8.022  -5.589  1.00  0.00     0.049 A 
ATOM     52  C   UNL     1     -17.221   9.125  -0.096  1.00  0.00     0.074 A 
ATOM     53  C   UNL     1     -18.592   7.848  -6.162  1.00  0.00     0.029 A 
ATOM     54  N   UNL     1     -17.556   8.306  -4.248  1.00  0.00    -0.354 N 
ATOM     55  N   UNL     1     -17.411   8.854  -1.365  1.00  0.00    -0.248 NA
ATOM     56  C   UNL     1     -18.464   9.342   0.659  1.00  0.00     0.031 C 
ATOM     57  C   UNL     1     -19.560   8.089  -5.181  1.00  0.00     0.029 A 
ATOM     58  C   UNL     1     -18.915   8.343  -3.981  1.00  0.00     0.049 A 
ATOM     59  H   UNL     1     -16.845   8.459  -3.584  1.00  0.00     0.167 HD
ATOM     60  C   UNL     1     -18.788   8.832  -1.552  1.00  0.00     0.074 A 
ATOM     61  C   UNL     1     -19.387   9.106  -0.263  1.00  0.00     0.031 C 
ATOM     62  C   UNL     1     -19.494   8.604  -2.687  1.00  0.00     0.037 A 
BRANCH  49  63
ATOM     63  C   UNL     1     -15.990   7.693  -7.694  1.00  0.00     0.064 A 
ATOM     64  C   UNL     1     -15.503   6.489  -8.226  1.00  0.00     0.173 A 
ATOM     65  C   UNL     1     -16.457   8.664  -8.595  1.00  0.00     0.173 A 
ATOM     66  F   UNL     1     -15.030   5.534  -7.411  1.00  0.00    -0.203 F 
ATOM     67  C   UNL     1     -15.462   6.277  -9.602  1.00  0.00     0.198 A 
ATOM     68  C   UNL     1     -16.445   8.435  -9.968  1.00  0.00     0.198 A 
ATOM     69  F   UNL     1     -16.936   9.832  -8.142  1.00  0.00    -0.203 F 
ATOM     70  F   UNL     1     -14.946   5.140 -10.088  1.00  0.00    -0.200 F 
ATOM     71  C   UNL     1     -15.940   7.246 -10.471  1.00  0.00     0.200 A 
ATOM     72  F   UNL     1     -16.921   9.368 -10.805  1.00  0.00    -0.200 F 
ATOM     73  F   UNL     1     -15.908   7.037 -11.794  1.00  0.00    -0.200 F 
ENDBRANCH  49  63
BRANCH  50  74
ATOM     74  C   UNL     1     -15.941   9.549   2.131  1.00  0.00     0.064 A 
ATOM     75  C   UNL     1     -16.470   8.642   3.062  1.00  0.00     0.173 A 
ATOM     76  C   UNL     1     -15.458  10.772   2.620  1.00  0.00     0.173 A 
ATOM     77  F   UNL     1     -16.972   7.471   2.643  1.00  0.00    -0.203 F 
ATOM     78  C   UNL     1     -16.535   8.956   4.418  1.00  0.00     0.198 A 
ATOM     79  C   UNL     1     -15.493  11.071   3.981  1.00  0.00     0.198 A 
ATOM     80  F   UNL     1     -14.949  11.680   1.774  1.00  0.00    -0.203 F 
ATOM     81  F   UNL     1     -17.097   8.094   5.276  1.00  0.00    -0.200 F 
ATOM     82  C   UNL     1     -16.041  10.167   4.878  1.00  0.00     0.200 A 
ATOM     83  F   UNL     1     -15.005  12.239   4.421  1.00  0.00    -0.200 F 
ATOM     84  F   UNL     1     -16.103  10.467   6.182  1.00  0.00    -0.200 F 
ENDBRANCH  50  74
BRANCH  62  85
ATOM     85  C   UNL     1     -20.994   8.588  -2.581  1.00  0.00     0.064 A 
ATOM     86  C   UNL     1     -21.734   9.757  -2.351  1.00  0.00     0.173 A 
ATOM     87  C   UNL     1     -21.702   7.388  -2.759  1.00  0.00     0.173 A 
ATOM     88  F   UNL     1     -21.106  10.928  -2.163  1.00  0.00    -0.203 F 
ATOM     89  C   UNL     1     -23.124   9.720  -2.274  1.00  0.00     0.198 A 
ATOM     90  C   UNL     1     -23.093   7.362  -2.716  1.00  0.00     0.198 A 
ATOM     91  F   UNL     1     -21.044   6.242  -2.992  1.00  0.00    -0.203 F 
ATOM     92  F   UNL     1     -23.807  10.841  -2.000  1.00  0.00    -0.200 F 
ATOM     93  C   UNL     1     -23.802   8.526  -2.464  1.00  0.00     0.200 A 
ATOM     94  F   UNL     1     -23.746   6.210  -2.920  1.00  0.00    -0.200 F 
ATOM     95  F   UNL     1     -25.140   8.495  -2.399  1.00  0.00    -0.200 F 
ENDBRANCH  62  85
ENDBRANCH  36  37
ENDBRANCH  29  31
ENDBRANCH  28  29
ENDBRANCH  27  28
ENDBRANCH  26  27
ENDBRANCH  25  26
ENDBRANCH  24  25
ENDBRANCH  23  24
ENDBRANCH  22  23
ENDBRANCH  20  22
ENDBRANCH  19  20
ENDBRANCH   1  19
TORSDOF 27
