REMARK SMILES CC[N@@H+](C/C(Cl)=C/Cl)C[C@@H](C)C(=O)OCCOCCOC(=O)c1ccc(-c2c3nc(c(-c4c(F)c(F)c(F)c(F)c4F)c4ccc([nH]4)c(-c4c(F)c(F)c(F)c(F)c4F)c4nc(c(-c5c(F)c(F)c(F)c(F)c5F)c5ccc2[nH]5)C=C4)C=C3)cc1
REMARK SMILES IDX 16 1 15 2 14 3 12 4 13 5 10 6 11 7 9 8 3 9 2 11 1 12 4 13
REMARK SMILES IDX 5 14 6 15 7 16 8 17 17 18 18 19 19 20 20 21 21 22 22 23
REMARK SMILES IDX 23 24 24 25 85 26 25 27 84 28 26 29 27 30 28 31 78 32 29 33
REMARK SMILES IDX 83 34 77 35 79 36 30 37 82 38 76 39 75 40 31 42 63 43 43 44
REMARK SMILES IDX 62 45 44 46 47 47 61 48 80 49 45 50 46 51 60 53 81 54 48 55
REMARK SMILES IDX 32 56 33 57 41 58 34 59 35 60 39 61 42 62 36 63 37 64 40 65
REMARK SMILES IDX 38 66 64 67 65 68 73 69 66 70 67 71 71 72 74 73 68 74 69 75
REMARK SMILES IDX 72 76 70 77 49 78 50 79 58 80 51 81 52 82 56 83 59 84 53 85
REMARK SMILES IDX 54 86 57 87 55 88
REMARK H PARENT 3 10 79 41 47 52
REMARK Flexibility Score: inf
ROOT
ATOM      1  C   UNL     1       7.351  -2.640  -1.130  1.00  0.00     0.202 C 
ENDROOT
BRANCH   1   2
ATOM      2  C   UNL     1       6.654  -1.537  -1.931  1.00  0.00     0.261 C 
BRANCH   2   3
ATOM      3  O   UNL     1       5.240  -1.445  -1.674  1.00  0.00    -0.463 OA
BRANCH   3   4
ATOM      4  C   UNL     1       4.441  -1.791  -2.721  1.00  0.00     0.314 C 
ATOM      5  O   UNL     1       4.848  -2.177  -3.811  1.00  0.00    -0.252 OA
BRANCH   4   6
ATOM      6  C   UNL     1       2.964  -1.567  -2.447  1.00  0.00     0.151 C 
ATOM      7  C   UNL     1       2.645  -0.119  -2.796  1.00  0.00     0.026 C 
BRANCH   6   8
ATOM      8  C   UNL     1       2.533  -2.023  -1.035  1.00  0.00     0.277 C 
BRANCH   8   9
ATOM      9  N   UNL     1       1.108  -2.194  -0.715  1.00  0.00    -0.330 N 
ATOM     10  H   UNL     1       1.224  -2.332   0.289  1.00  0.00     0.348 HD
BRANCH   9  11
ATOM     11  C   UNL     1       0.235  -1.030  -0.687  1.00  0.00     0.259 C 
ATOM     12  C   UNL     1       0.716   0.069   0.255  1.00  0.00     0.071 C 
ENDBRANCH   9  11
BRANCH   9  13
ATOM     13  C   UNL     1       0.477  -3.435  -1.184  1.00  0.00     0.312 C 
BRANCH  13  14
ATOM     14  C   UNL     1       0.501  -3.739  -2.662  1.00  0.00     0.083 C 
ATOM     15  Cl  UNL     1       1.460  -5.123  -3.097  1.00  0.00    -0.082 Cl
ATOM     16  C   UNL     1      -0.158  -3.022  -3.580  1.00  0.00     0.102 C 
ATOM     17  Cl  UNL     1      -0.132  -3.288  -5.274  1.00  0.00    -0.091 Cl
ENDBRANCH  13  14
ENDBRANCH   9  13
ENDBRANCH   8   9
ENDBRANCH   6   8
ENDBRANCH   4   6
ENDBRANCH   3   4
ENDBRANCH   2   3
ENDBRANCH   1   2
BRANCH   1  18
ATOM     18  O   UNL     1       6.936  -3.982  -1.363  1.00  0.00    -0.374 OA
BRANCH  18  19
ATOM     19  C   UNL     1       5.686  -4.391  -0.810  1.00  0.00     0.202 C 
BRANCH  19  20
ATOM     20  C   UNL     1       5.641  -4.596   0.709  1.00  0.00     0.261 C 
BRANCH  20  21
ATOM     21  O   UNL     1       5.840  -3.365   1.431  1.00  0.00    -0.460 OA
BRANCH  21  22
ATOM     22  C   UNL     1       6.921  -3.363   2.245  1.00  0.00     0.338 C 
ATOM     23  O   UNL     1       7.655  -4.306   2.507  1.00  0.00    -0.246 OA
BRANCH  22  24
ATOM     24  C   UNL     1       7.245  -1.996   2.690  1.00  0.00     0.060 A 
ATOM     25  C   UNL     1       8.541  -1.533   2.430  1.00  0.00     0.016 A 
ATOM     26  C   UNL     1       6.365  -1.245   3.472  1.00  0.00     0.016 A 
ATOM     27  C   UNL     1       8.994  -0.360   3.026  1.00  0.00     0.010 A 
ATOM     28  C   UNL     1       6.824  -0.067   4.077  1.00  0.00     0.010 A 
ATOM     29  C   UNL     1       8.159   0.345   3.904  1.00  0.00    -0.014 A 
BRANCH  29  30
ATOM     30  C   UNL     1       8.776   1.357   4.797  1.00  0.00     0.031 A 
ATOM     31  C   UNL     1       9.195   0.936   6.182  1.00  0.00     0.074 A 
ATOM     32  C   UNL     1       9.051   2.599   4.360  1.00  0.00     0.049 A 
ATOM     33  N   UNL     1       9.832   1.614   7.103  1.00  0.00    -0.248 NA
ATOM     34  C   UNL     1       8.852  -0.440   6.579  1.00  0.00     0.031 C 
ATOM     35  C   UNL     1       8.732   3.116   3.032  1.00  0.00     0.029 A 
ATOM     36  N   UNL     1       9.678   3.644   4.991  1.00  0.00    -0.354 N 
ATOM     37  C   UNL     1       9.966   0.750   8.183  1.00  0.00     0.074 A 
ATOM     38  C   UNL     1       9.314  -0.489   7.819  1.00  0.00     0.031 C 
ATOM     39  C   UNL     1       9.174   4.383   2.942  1.00  0.00     0.029 A 
ATOM     40  C   UNL     1       9.794   4.767   4.210  1.00  0.00     0.049 A 
ATOM     41  H   UNL     1      10.013   3.594   5.915  1.00  0.00     0.167 HD
ATOM     42  C   UNL     1      10.588   0.962   9.367  1.00  0.00     0.037 A 
ATOM     43  C   UNL     1      10.343   5.965   4.489  1.00  0.00     0.037 A 
ATOM     44  C   UNL     1      11.247   2.188   9.730  1.00  0.00     0.049 A 
ATOM     45  C   UNL     1      10.994   6.190   5.830  1.00  0.00     0.074 A 
ATOM     46  C   UNL     1      11.917   2.495  10.901  1.00  0.00     0.029 A 
ATOM     47  N   UNL     1      11.316   3.312   8.921  1.00  0.00    -0.354 N 
ATOM     48  N   UNL     1      11.145   5.356   6.829  1.00  0.00    -0.248 NA
ATOM     49  C   UNL     1      11.565   7.523   6.072  1.00  0.00     0.031 C 
ATOM     50  C   UNL     1      12.358   3.821  10.817  1.00  0.00     0.029 A 
ATOM     51  C   UNL     1      12.002   4.322   9.575  1.00  0.00     0.049 A 
ATOM     52  H   UNL     1      10.933   3.382   8.017  1.00  0.00     0.167 HD
ATOM     53  C   UNL     1      11.859   6.047   7.800  1.00  0.00     0.074 A 
ATOM     54  C   UNL     1      12.116   7.369   7.268  1.00  0.00     0.031 C 
ATOM     55  C   UNL     1      12.268   5.625   9.022  1.00  0.00     0.037 A 
BRANCH  42  56
ATOM     56  C   UNL     1      10.564  -0.156  10.367  1.00  0.00     0.064 A 
ATOM     57  C   UNL     1      11.340  -1.312  10.199  1.00  0.00     0.173 A 
ATOM     58  C   UNL     1       9.770  -0.059  11.520  1.00  0.00     0.173 A 
ATOM     59  F   UNL     1      12.103  -1.459   9.105  1.00  0.00    -0.203 F 
ATOM     60  C   UNL     1      11.302  -2.342  11.136  1.00  0.00     0.198 A 
ATOM     61  C   UNL     1       9.754  -1.079  12.467  1.00  0.00     0.198 A 
ATOM     62  F   UNL     1       9.011   1.028  11.728  1.00  0.00    -0.203 F 
ATOM     63  F   UNL     1      12.017  -3.458  10.932  1.00  0.00    -0.200 F 
ATOM     64  C   UNL     1      10.514  -2.222  12.271  1.00  0.00     0.200 A 
ATOM     65  F   UNL     1       8.999  -0.957  13.567  1.00  0.00    -0.200 F 
ATOM     66  F   UNL     1      10.481  -3.212  13.173  1.00  0.00    -0.200 F 
ENDBRANCH  42  56
BRANCH  43  67
ATOM     67  C   UNL     1      10.323   7.046   3.470  1.00  0.00     0.064 A 
ATOM     68  C   UNL     1      11.502   7.470   2.842  1.00  0.00     0.173 A 
ATOM     69  C   UNL     1       9.128   7.693   3.122  1.00  0.00     0.173 A 
ATOM     70  F   UNL     1      12.673   6.899   3.161  1.00  0.00    -0.203 F 
ATOM     71  C   UNL     1      11.490   8.513   1.918  1.00  0.00     0.198 A 
ATOM     72  C   UNL     1       9.113   8.719   2.180  1.00  0.00     0.198 A 
ATOM     73  F   UNL     1       7.974   7.326   3.698  1.00  0.00    -0.203 F 
ATOM     74  F   UNL     1      12.637   8.930   1.366  1.00  0.00    -0.200 F 
ATOM     75  C   UNL     1      10.295   9.133   1.584  1.00  0.00     0.200 A 
ATOM     76  F   UNL     1       7.956   9.309   1.854  1.00  0.00    -0.200 F 
ATOM     77  F   UNL     1      10.283  10.136   0.696  1.00  0.00    -0.200 F 
ENDBRANCH  43  67
BRANCH  55  78
ATOM     78  C   UNL     1      13.082   6.580   9.846  1.00  0.00     0.064 A 
ATOM     79  C   UNL     1      12.507   7.702  10.459  1.00  0.00     0.173 A 
ATOM     80  C   UNL     1      14.450   6.347  10.051  1.00  0.00     0.173 A 
ATOM     81  F   UNL     1      11.205   7.974  10.282  1.00  0.00    -0.203 F 
ATOM     82  C   UNL     1      13.278   8.572  11.224  1.00  0.00     0.198 A 
ATOM     83  C   UNL     1      15.213   7.204  10.839  1.00  0.00     0.198 A 
ATOM     84  F   UNL     1      15.046   5.282   9.493  1.00  0.00    -0.203 F 
ATOM     85  F   UNL     1      12.719   9.665  11.761  1.00  0.00    -0.200 F 
ATOM     86  C   UNL     1      14.629   8.320  11.418  1.00  0.00     0.200 A 
ATOM     87  F   UNL     1      16.514   6.952  11.036  1.00  0.00    -0.200 F 
ATOM     88  F   UNL     1      15.369   9.158  12.157  1.00  0.00    -0.200 F 
ENDBRANCH  55  78
ENDBRANCH  29  30
ENDBRANCH  22  24
ENDBRANCH  21  22
ENDBRANCH  20  21
ENDBRANCH  19  20
ENDBRANCH  18  19
ENDBRANCH   1  18
TORSDOF 19
