REMARK SMILES COc1ccccc1C(=O)N1[C@@H](C(=O)OCCOCCOC(=O)c2ccc(-c3c4nc(c(-c5c(F)c(F)c(F)c(F)c5F)c5ccc([nH]5)c(-c5c(F)c(F)c(F)c(F)c5F)c5nc(c(-c6c(F)c(F)c(F)c(F)c6F)c6ccc3[nH]6)C=C5)C=C4)cc2)COC12CC[NH+](Cc1ccccc1)CC2
REMARK SMILES IDX 17 1 16 2 15 3 13 4 14 5 12 6 11 7 89 8 87 9 88 10 90 11
REMARK SMILES IDX 101 12 91 13 100 14 92 15 9 17 10 18 8 19 3 20 4 21 5 22
REMARK SMILES IDX 7 23 6 24 2 25 1 26 93 27 94 28 95 29 99 30 96 31 98 32
REMARK SMILES IDX 97 33 18 34 19 35 20 36 21 37 22 38 23 39 24 40 25 41 86 42
REMARK SMILES IDX 26 43 85 44 27 45 28 46 29 47 79 48 30 49 84 50 78 51 80 52
REMARK SMILES IDX 31 53 83 54 77 55 76 56 32 58 64 59 44 60 63 61 45 62 48 63
REMARK SMILES IDX 62 64 81 65 46 66 47 67 61 69 82 70 49 71 33 72 34 73 42 74
REMARK SMILES IDX 35 75 36 76 40 77 43 78 37 79 38 80 41 81 39 82 65 83 66 84
REMARK SMILES IDX 74 85 67 86 68 87 72 88 75 89 69 90 70 91 73 92 71 93 50 94
REMARK SMILES IDX 51 95 59 96 52 97 53 98 57 99 60 100 54 101 55 102 58 103
REMARK SMILES IDX 56 104
REMARK H PARENT 92 16 80 57 48 68
REMARK Flexibility Score: inf
ROOT
ATOM      1  C   UNL     1       0.078   4.760  -0.417  1.00  0.00     0.202 C 
ENDROOT
BRANCH   1   2
ATOM      2  C   UNL     1       0.170   3.332  -0.951  1.00  0.00     0.261 C 
BRANCH   2   3
ATOM      3  O   UNL     1       0.965   2.484  -0.106  1.00  0.00    -0.462 OA
BRANCH   3   4
ATOM      4  C   UNL     1       1.985   1.831  -0.730  1.00  0.00     0.331 C 
ATOM      5  O   UNL     1       2.229   1.927  -1.929  1.00  0.00    -0.250 OA
BRANCH   4   6
ATOM      6  C   UNL     1       2.720   0.852   0.178  1.00  0.00     0.224 C 
ATOM      7  N   UNL     1       2.230  -0.487  -0.087  1.00  0.00    -0.293 N 
ATOM      8  C   UNL     1       2.131  -1.206   1.188  1.00  0.00     0.155 C 
ATOM      9  C   UNL     1       2.586   1.025   1.674  1.00  0.00     0.200 C 
ATOM     10  O   UNL     1       1.899  -0.145   2.154  1.00  0.00    -0.352 OA
ATOM     11  C   UNL     1       0.913  -2.126   1.240  1.00  0.00     0.120 C 
ATOM     12  C   UNL     1       3.434  -1.930   1.587  1.00  0.00     0.120 C 
ATOM     13  C   UNL     1       0.875  -3.037   2.450  1.00  0.00     0.267 C 
ATOM     14  C   UNL     1       3.256  -2.930   2.735  1.00  0.00     0.267 C 
ATOM     15  N   UNL     1       2.097  -3.806   2.618  1.00  0.00    -0.331 N 
ATOM     16  H   UNL     1       2.040  -4.270   3.525  1.00  0.00     0.348 HD
BRANCH   7  17
ATOM     17  C   UNL     1       2.714  -1.082  -1.244  1.00  0.00     0.260 C 
ATOM     18  O   UNL     1       3.931  -1.160  -1.428  1.00  0.00    -0.269 OA
BRANCH  17  19
ATOM     19  C   UNL     1       1.772  -1.437  -2.363  1.00  0.00     0.082 A 
ATOM     20  C   UNL     1       0.381  -1.605  -2.293  1.00  0.00     0.131 A 
ATOM     21  C   UNL     1      -0.340  -2.083  -3.400  1.00  0.00     0.047 A 
ATOM     22  C   UNL     1       0.294  -2.318  -4.615  1.00  0.00     0.004 A 
ATOM     23  C   UNL     1       2.384  -1.646  -3.617  1.00  0.00     0.018 A 
ATOM     24  C   UNL     1       1.655  -2.076  -4.731  1.00  0.00     0.001 A 
BRANCH  20  25
ATOM     25  O   UNL     1      -0.350  -1.445  -1.154  1.00  0.00    -0.496 OA
ATOM     26  C   UNL     1      -1.003  -0.181  -1.105  1.00  0.00     0.278 C 
ENDBRANCH  20  25
ENDBRANCH  17  19
ENDBRANCH   7  17
BRANCH  15  27
ATOM     27  C   UNL     1       2.218  -5.027   1.806  1.00  0.00     0.299 C 
BRANCH  27  28
ATOM     28  C   UNL     1       2.819  -4.940   0.417  1.00  0.00     0.006 A 
ATOM     29  C   UNL     1       2.014  -4.911  -0.730  1.00  0.00     0.009 A 
ATOM     30  C   UNL     1       4.214  -4.911   0.250  1.00  0.00     0.009 A 
ATOM     31  C   UNL     1       2.587  -4.797  -2.000  1.00  0.00     0.001 A 
ATOM     32  C   UNL     1       4.783  -4.759  -1.015  1.00  0.00     0.001 A 
ATOM     33  C   UNL     1       3.969  -4.695  -2.140  1.00  0.00     0.000 A 
ENDBRANCH  27  28
ENDBRANCH  15  27
ENDBRANCH   4   6
ENDBRANCH   3   4
ENDBRANCH   2   3
ENDBRANCH   1   2
BRANCH   1  34
ATOM     34  O   UNL     1       1.312   5.449  -0.260  1.00  0.00    -0.374 OA
BRANCH  34  35
ATOM     35  C   UNL     1       2.201   5.013   0.768  1.00  0.00     0.202 C 
BRANCH  35  36
ATOM     36  C   UNL     1       1.688   5.105   2.212  1.00  0.00     0.261 C 
BRANCH  36  37
ATOM     37  O   UNL     1       0.640   4.155   2.504  1.00  0.00    -0.460 OA
BRANCH  37  38
ATOM     38  C   UNL     1      -0.489   4.700   3.013  1.00  0.00     0.338 C 
ATOM     39  O   UNL     1      -0.700   5.887   3.239  1.00  0.00    -0.246 OA
BRANCH  38  40
ATOM     40  C   UNL     1      -1.554   3.701   3.192  1.00  0.00     0.060 A 
ATOM     41  C   UNL     1      -2.724   3.847   2.436  1.00  0.00     0.016 A 
ATOM     42  C   UNL     1      -1.507   2.798   4.256  1.00  0.00     0.016 A 
ATOM     43  C   UNL     1      -3.877   3.146   2.792  1.00  0.00     0.010 A 
ATOM     44  C   UNL     1      -2.667   2.098   4.613  1.00  0.00     0.010 A 
ATOM     45  C   UNL     1      -3.871   2.310   3.918  1.00  0.00    -0.014 A 
BRANCH  45  46
ATOM     46  C   UNL     1      -5.159   1.805   4.461  1.00  0.00     0.031 A 
ATOM     47  C   UNL     1      -5.802   2.522   5.620  1.00  0.00     0.074 A 
ATOM     48  C   UNL     1      -5.776   0.746   3.910  1.00  0.00     0.049 A 
ATOM     49  N   UNL     1      -6.913   2.246   6.258  1.00  0.00    -0.248 NA
ATOM     50  C   UNL     1      -5.101   3.712   6.126  1.00  0.00     0.031 C 
ATOM     51  C   UNL     1      -5.283  -0.015   2.765  1.00  0.00     0.029 A 
ATOM     52  N   UNL     1      -6.955   0.127   4.247  1.00  0.00    -0.354 N 
ATOM     53  C   UNL     1      -7.040   3.222   7.239  1.00  0.00     0.074 A 
ATOM     54  C   UNL     1      -5.881   4.082   7.131  1.00  0.00     0.031 C 
ATOM     55  C   UNL     1      -6.148  -1.010   2.500  1.00  0.00     0.029 A 
ATOM     56  C   UNL     1      -7.240  -0.969   3.472  1.00  0.00     0.049 A 
ATOM     57  H   UNL     1      -7.539   0.439   4.975  1.00  0.00     0.167 HD
ATOM     58  C   UNL     1      -8.037   3.394   8.141  1.00  0.00     0.037 A 
ATOM     59  C   UNL     1      -8.257  -1.851   3.550  1.00  0.00     0.037 A 
ATOM     60  C   UNL     1      -9.195   2.546   8.252  1.00  0.00     0.049 A 
ATOM     61  C   UNL     1      -9.323  -1.673   4.600  1.00  0.00     0.074 A 
ATOM     62  C   UNL     1     -10.263   2.653   9.127  1.00  0.00     0.029 A 
ATOM     63  N   UNL     1      -9.434   1.431   7.465  1.00  0.00    -0.354 N 
ATOM     64  N   UNL     1      -9.444  -0.736   5.507  1.00  0.00    -0.248 NA
ATOM     65  C   UNL     1     -10.397  -2.677   4.630  1.00  0.00     0.031 C 
ATOM     66  C   UNL     1     -11.129   1.578   8.895  1.00  0.00     0.029 A 
ATOM     67  C   UNL     1     -10.622   0.828   7.846  1.00  0.00     0.049 A 
ATOM     68  H   UNL     1      -8.846   1.113   6.741  1.00  0.00     0.167 HD
ATOM     69  C   UNL     1     -10.614  -1.021   6.199  1.00  0.00     0.074 A 
ATOM     70  C   UNL     1     -11.175  -2.213   5.598  1.00  0.00     0.031 C 
ATOM     71  C   UNL     1     -11.174  -0.354   7.237  1.00  0.00     0.037 A 
BRANCH  58  72
ATOM     72  C   UNL     1      -7.911   4.542   9.098  1.00  0.00     0.064 A 
ATOM     73  C   UNL     1      -8.111   5.867   8.685  1.00  0.00     0.173 A 
ATOM     74  C   UNL     1      -7.629   4.310  10.453  1.00  0.00     0.173 A 
ATOM     75  F   UNL     1      -8.373   6.141   7.398  1.00  0.00    -0.203 F 
ATOM     76  C   UNL     1      -8.012   6.921   9.590  1.00  0.00     0.198 A 
ATOM     77  C   UNL     1      -7.554   5.364  11.359  1.00  0.00     0.198 A 
ATOM     78  F   UNL     1      -7.435   3.060  10.899  1.00  0.00    -0.203 F 
ATOM     79  F   UNL     1      -8.169   8.183   9.167  1.00  0.00    -0.200 F 
ATOM     80  C   UNL     1      -7.739   6.669  10.927  1.00  0.00     0.200 A 
ATOM     81  F   UNL     1      -7.301   5.118  12.652  1.00  0.00    -0.200 F 
ATOM     82  F   UNL     1      -7.650   7.684  11.797  1.00  0.00    -0.200 F 
ENDBRANCH  58  72
BRANCH  59  83
ATOM     83  C   UNL     1      -8.311  -2.996   2.607  1.00  0.00     0.064 A 
ATOM     84  C   UNL     1      -9.284  -3.060   1.601  1.00  0.00     0.173 A 
ATOM     85  C   UNL     1      -7.396  -4.055   2.703  1.00  0.00     0.173 A 
ATOM     86  F   UNL     1     -10.196  -2.083   1.488  1.00  0.00    -0.203 F 
ATOM     87  C   UNL     1      -9.348  -4.148   0.733  1.00  0.00     0.198 A 
ATOM     88  C   UNL     1      -7.446  -5.130   1.818  1.00  0.00     0.198 A 
ATOM     89  F   UNL     1      -6.449  -4.040   3.651  1.00  0.00    -0.203 F 
ATOM     90  F   UNL     1     -10.312  -4.205  -0.196  1.00  0.00    -0.200 F 
ATOM     91  C   UNL     1      -8.426  -5.179   0.838  1.00  0.00     0.200 A 
ATOM     92  F   UNL     1      -6.547  -6.118   1.917  1.00  0.00    -0.200 F 
ATOM     93  F   UNL     1      -8.485  -6.222  -0.000  1.00  0.00    -0.200 F 
ENDBRANCH  59  83
BRANCH  71  94
ATOM     94  C   UNL     1     -12.476  -0.875   7.774  1.00  0.00     0.064 A 
ATOM     95  C   UNL     1     -12.536  -2.043   8.548  1.00  0.00     0.173 A 
ATOM     96  C   UNL     1     -13.670  -0.175   7.544  1.00  0.00     0.173 A 
ATOM     97  F   UNL     1     -11.424  -2.755   8.783  1.00  0.00    -0.203 F 
ATOM     98  C   UNL     1     -13.749  -2.502   9.055  1.00  0.00     0.198 A 
ATOM     99  C   UNL     1     -14.877  -0.624   8.073  1.00  0.00     0.198 A 
ATOM    100  F   UNL     1     -13.664   0.951   6.815  1.00  0.00    -0.203 F 
ATOM    101  F   UNL     1     -13.791  -3.643   9.758  1.00  0.00    -0.200 F 
ATOM    102  C   UNL     1     -14.917  -1.790   8.823  1.00  0.00     0.200 A 
ATOM    103  F   UNL     1     -16.002   0.071   7.857  1.00  0.00    -0.200 F 
ATOM    104  F   UNL     1     -16.082  -2.231   9.316  1.00  0.00    -0.200 F 
ENDBRANCH  71  94
ENDBRANCH  45  46
ENDBRANCH  38  40
ENDBRANCH  37  38
ENDBRANCH  36  37
ENDBRANCH  35  36
ENDBRANCH  34  35
ENDBRANCH   1  34
TORSDOF 19
