REMARK SMILES O=C(OCCOCCOC(=O)[C@@H](Cc1ccc(O)cc1)Nc1c2ccccc2nc2ccccc12)c1ccc(-c2c3nc(c(-c4c(F)c(F)c(F)c(F)c4F)c4ccc([nH]4)c(-c4c(F)c(F)c(F)c(F)c4F)c4nc(c(-c5c(F)c(F)c(F)c(F)c5F)c5ccc2[nH]5)C=C4)C=C3)cc1
REMARK SMILES IDX 7 1 6 2 5 3 4 4 3 5 2 6 1 7 36 8 37 9 98 10 38 11 97 12
REMARK SMILES IDX 39 13 40 14 41 15 91 16 42 17 96 18 90 19 92 20 43 21 95 22
REMARK SMILES IDX 89 23 88 24 44 26 76 27 56 28 75 29 57 30 60 31 74 32 93 33
REMARK SMILES IDX 58 34 59 35 73 37 94 38 61 39 45 40 46 41 54 42 47 43 48 44
REMARK SMILES IDX 52 45 55 46 49 47 50 48 53 49 51 50 77 51 78 52 86 53 79 54
REMARK SMILES IDX 80 55 84 56 87 57 81 58 82 59 85 60 83 61 62 62 63 63 71 64
REMARK SMILES IDX 64 65 65 66 69 67 72 68 66 69 67 70 70 71 68 72 8 73 9 74
REMARK SMILES IDX 10 75 11 76 12 77 13 78 14 79 15 80 20 81 16 82 19 83 17 84
REMARK SMILES IDX 18 85 21 87 22 89 23 90 35 91 24 92 28 93 30 94 34 95 25 96
REMARK SMILES IDX 27 97 29 98 31 99 33 100 26 101 32 102
REMARK H PARENT 92 25 60 36 18 86 21 88
REMARK Flexibility Score: inf
ROOT
ATOM      1  C   UNL     1       2.857   1.410  -1.535  1.00  0.00     0.202 C 
ENDROOT
BRANCH   1   2
ATOM      2  O   UNL     1       4.174   1.102  -1.067  1.00  0.00    -0.374 OA
BRANCH   2   3
ATOM      3  C   UNL     1       4.596  -0.256  -1.204  1.00  0.00     0.202 C 
BRANCH   3   4
ATOM      4  C   UNL     1       4.098  -1.255  -0.147  1.00  0.00     0.261 C 
BRANCH   4   5
ATOM      5  O   UNL     1       2.691  -1.116   0.106  1.00  0.00    -0.460 OA
BRANCH   5   6
ATOM      6  C   UNL     1       2.091  -0.395   1.085  1.00  0.00     0.338 C 
ATOM      7  O   UNL     1       0.871  -0.475   1.215  1.00  0.00    -0.246 OA
BRANCH   6   8
ATOM      8  C   UNL     1       2.833   0.515   2.013  1.00  0.00     0.060 A 
ATOM      9  C   UNL     1       4.118   1.000   1.788  1.00  0.00     0.016 A 
ATOM     10  C   UNL     1       2.167   0.962   3.168  1.00  0.00     0.016 A 
ATOM     11  C   UNL     1       4.746   1.860   2.656  1.00  0.00     0.010 A 
ATOM     12  C   UNL     1       2.790   1.840   4.065  1.00  0.00     0.010 A 
ATOM     13  C   UNL     1       4.092   2.273   3.805  1.00  0.00    -0.014 A 
BRANCH  13  14
ATOM     14  C   UNL     1       4.946   2.991   4.756  1.00  0.00     0.031 A 
ATOM     15  C   UNL     1       5.619   2.178   5.816  1.00  0.00     0.074 A 
ATOM     16  C   UNL     1       5.339   4.239   4.446  1.00  0.00     0.049 A 
ATOM     17  N   UNL     1       6.515   2.538   6.691  1.00  0.00    -0.248 NA
ATOM     18  C   UNL     1       5.266   0.747   5.865  1.00  0.00     0.031 C 
ATOM     19  C   UNL     1       4.879   4.997   3.278  1.00  0.00     0.029 A 
ATOM     20  N   UNL     1       6.274   5.050   5.024  1.00  0.00    -0.354 N 
ATOM     21  C   UNL     1       6.804   1.392   7.416  1.00  0.00     0.074 A 
ATOM     22  C   UNL     1       6.013   0.316   6.868  1.00  0.00     0.031 C 
ATOM     23  C   UNL     1       5.568   6.147   3.204  1.00  0.00     0.029 A 
ATOM     24  C   UNL     1       6.458   6.234   4.355  1.00  0.00     0.049 A 
ATOM     25  H   UNL     1       6.768   4.808   5.840  1.00  0.00     0.167 HD
ATOM     26  C   UNL     1       7.647   1.270   8.465  1.00  0.00     0.037 A 
ATOM     27  C   UNL     1       7.246   7.278   4.670  1.00  0.00     0.037 A 
ATOM     28  C   UNL     1       8.417   2.370   8.974  1.00  0.00     0.049 A 
ATOM     29  C   UNL     1       8.085   7.156   5.913  1.00  0.00     0.074 A 
ATOM     30  C   UNL     1       9.216   2.428  10.099  1.00  0.00     0.029 A 
ATOM     31  N   UNL     1       8.479   3.619   8.367  1.00  0.00    -0.354 N 
ATOM     32  N   UNL     1       8.259   6.113   6.693  1.00  0.00    -0.248 NA
ATOM     33  C   UNL     1       8.814   8.354   6.339  1.00  0.00     0.031 C 
ATOM     34  C   UNL     1       9.727   3.728  10.195  1.00  0.00     0.029 A 
ATOM     35  C   UNL     1       9.290   4.463   9.102  1.00  0.00     0.049 A 
ATOM     36  H   UNL     1       8.014   3.866   7.535  1.00  0.00     0.167 HD
ATOM     37  C   UNL     1       9.126   6.522   7.693  1.00  0.00     0.074 A 
ATOM     38  C   UNL     1       9.460   7.905   7.405  1.00  0.00     0.031 C 
ATOM     39  C   UNL     1       9.598   5.830   8.760  1.00  0.00     0.037 A 
BRANCH  26  40
ATOM     40  C   UNL     1       7.659  -0.051   9.172  1.00  0.00     0.064 A 
ATOM     41  C   UNL     1       8.255  -1.194   8.620  1.00  0.00     0.173 A 
ATOM     42  C   UNL     1       6.992  -0.186  10.399  1.00  0.00     0.173 A 
ATOM     43  F   UNL     1       8.869  -1.127   7.428  1.00  0.00    -0.203 F 
ATOM     44  C   UNL     1       8.157  -2.430   9.257  1.00  0.00     0.198 A 
ATOM     45  C   UNL     1       6.917  -1.417  11.044  1.00  0.00     0.198 A 
ATOM     46  F   UNL     1       6.389   0.873  10.960  1.00  0.00    -0.203 F 
ATOM     47  F   UNL     1       8.677  -3.523   8.680  1.00  0.00    -0.200 F 
ATOM     48  C   UNL     1       7.491  -2.540  10.469  1.00  0.00     0.200 A 
ATOM     49  F   UNL     1       6.268  -1.520  12.212  1.00  0.00    -0.200 F 
ATOM     50  F   UNL     1       7.383  -3.732  11.071  1.00  0.00    -0.200 F 
ENDBRANCH  26  40
BRANCH  27  51
ATOM     51  C   UNL     1       7.223   8.520   3.852  1.00  0.00     0.064 A 
ATOM     52  C   UNL     1       8.366   8.985   3.188  1.00  0.00     0.173 A 
ATOM     53  C   UNL     1       6.051   9.285   3.731  1.00  0.00     0.173 A 
ATOM     54  F   UNL     1       9.520   8.308   3.286  1.00  0.00    -0.203 F 
ATOM     55  C   UNL     1       8.342  10.170   2.451  1.00  0.00     0.198 A 
ATOM     56  C   UNL     1       6.018  10.450   2.968  1.00  0.00     0.198 A 
ATOM     57  F   UNL     1       4.926   8.896   4.351  1.00  0.00    -0.203 F 
ATOM     58  F   UNL     1       9.462  10.616   1.867  1.00  0.00    -0.200 F 
ATOM     59  C   UNL     1       7.166  10.897   2.336  1.00  0.00     0.200 A 
ATOM     60  F   UNL     1       4.875  11.140   2.851  1.00  0.00    -0.200 F 
ATOM     61  F   UNL     1       7.143  12.034   1.626  1.00  0.00    -0.200 F 
ENDBRANCH  27  51
BRANCH  39  62
ATOM     62  C   UNL     1      10.549   6.556   9.660  1.00  0.00     0.064 A 
ATOM     63  C   UNL     1      10.109   7.553  10.540  1.00  0.00     0.173 A 
ATOM     64  C   UNL     1      11.909   6.215   9.666  1.00  0.00     0.173 A 
ATOM     65  F   UNL     1       8.818   7.919  10.555  1.00  0.00    -0.203 F 
ATOM     66  C   UNL     1      11.005   8.204  11.380  1.00  0.00     0.198 A 
ATOM     67  C   UNL     1      12.797   6.848  10.529  1.00  0.00     0.198 A 
ATOM     68  F   UNL     1      12.372   5.261   8.845  1.00  0.00    -0.203 F 
ATOM     69  F   UNL     1      10.574   9.188  12.182  1.00  0.00    -0.200 F 
ATOM     70  C   UNL     1      12.346   7.846  11.379  1.00  0.00     0.200 A 
ATOM     71  F   UNL     1      14.089   6.492  10.537  1.00  0.00    -0.200 F 
ATOM     72  F   UNL     1      13.206   8.471  12.195  1.00  0.00    -0.200 F 
ENDBRANCH  39  62
ENDBRANCH  13  14
ENDBRANCH   6   8
ENDBRANCH   5   6
ENDBRANCH   4   5
ENDBRANCH   3   4
ENDBRANCH   2   3
ENDBRANCH   1   2
BRANCH   1  73
ATOM     73  C   UNL     1       2.921   2.314  -2.768  1.00  0.00     0.261 C 
BRANCH  73  74
ATOM     74  O   UNL     1       3.162   1.497  -3.926  1.00  0.00    -0.462 OA
BRANCH  74  75
ATOM     75  C   UNL     1       4.439   1.083  -4.092  1.00  0.00     0.328 C 
ATOM     76  O   UNL     1       5.418   1.659  -3.623  1.00  0.00    -0.250 OA
BRANCH  75  77
ATOM     77  C   UNL     1       4.541  -0.206  -4.919  1.00  0.00     0.194 C 
BRANCH  77  78
ATOM     78  C   UNL     1       3.766  -1.480  -4.496  1.00  0.00     0.072 C 
BRANCH  78  79
ATOM     79  C   UNL     1       2.283  -1.555  -4.204  1.00  0.00    -0.045 A 
ATOM     80  C   UNL     1       1.330  -0.605  -4.584  1.00  0.00     0.007 A 
ATOM     81  C   UNL     1       1.822  -2.721  -3.559  1.00  0.00     0.007 A 
ATOM     82  C   UNL     1      -0.024  -0.769  -4.259  1.00  0.00     0.046 A 
ATOM     83  C   UNL     1       0.469  -2.909  -3.272  1.00  0.00     0.046 A 
ATOM     84  C   UNL     1      -0.443  -1.923  -3.611  1.00  0.00     0.115 A 
BRANCH  84  85
ATOM     85  O   UNL     1      -1.753  -2.136  -3.302  1.00  0.00    -0.508 OA
ATOM     86  H   UNL     1      -2.396  -1.489  -3.517  1.00  0.00     0.293 HD
ENDBRANCH  84  85
ENDBRANCH  78  79
ENDBRANCH  77  78
BRANCH  77  87
ATOM     87  N   UNL     1       4.321   0.026  -6.346  1.00  0.00    -0.371 N 
ATOM     88  H   UNL     1       3.442  -0.155  -6.750  1.00  0.00     0.161 HD
BRANCH  87  89
ATOM     89  C   UNL     1       5.379   0.511  -7.133  1.00  0.00     0.054 A 
ATOM     90  C   UNL     1       6.591  -0.228  -7.300  1.00  0.00     0.024 A 
ATOM     91  C   UNL     1       5.254   1.798  -7.721  1.00  0.00     0.024 A 
ATOM     92  C   UNL     1       6.868  -1.498  -6.721  1.00  0.00     0.012 A 
ATOM     93  C   UNL     1       7.579   0.345  -8.120  1.00  0.00     0.073 A 
ATOM     94  C   UNL     1       6.296   2.224  -8.561  1.00  0.00     0.073 A 
ATOM     95  C   UNL     1       4.160   2.674  -7.493  1.00  0.00     0.012 A 
ATOM     96  C   UNL     1       8.103  -2.127  -6.865  1.00  0.00     0.001 A 
ATOM     97  C   UNL     1       8.788  -0.321  -8.288  1.00  0.00     0.029 A 
ATOM     98  N   UNL     1       7.414   1.512  -8.758  1.00  0.00    -0.248 NA
ATOM     99  C   UNL     1       6.174   3.448  -9.206  1.00  0.00     0.029 A 
ATOM    100  C   UNL     1       4.078   3.913  -8.123  1.00  0.00     0.001 A 
ATOM    101  C   UNL     1       9.070  -1.534  -7.655  1.00  0.00     0.002 A 
ATOM    102  C   UNL     1       5.080   4.291  -9.002  1.00  0.00     0.002 A 
ENDBRANCH  87  89
ENDBRANCH  77  87
ENDBRANCH  75  77
ENDBRANCH  74  75
ENDBRANCH  73  74
ENDBRANCH   1  73
TORSDOF 19
