REMARK SMILES CC[C@@](O)(C(=O)OCCOCCOC(=O)c1ccc(-c2c3nc(c(-c4c(F)c(F)c(F)c(F)c4F)c4ccc([nH]4)c(-c4c(F)c(F)c(F)c(F)c4F)c4nc(c(-c5c(F)c(F)c(F)c(F)c5F)c5ccc2[nH]5)C=C4)C=C3)cc1)[C@@H](C)c1ccc(OC(C)C)cc1
REMARK SMILES IDX 9 1 8 2 7 3 5 4 6 5 3 6 2 7 1 8 4 9 79 11 80 12 81 13 82 14
REMARK SMILES IDX 90 15 83 16 89 17 84 18 85 19 86 20 87 21 88 22 10 23 11 24
REMARK SMILES IDX 12 25 13 26 14 27 15 28 16 29 17 30 78 31 18 32 77 33 19 34
REMARK SMILES IDX 20 35 21 36 71 37 22 38 76 39 70 40 72 41 23 42 75 43 69 44
REMARK SMILES IDX 68 45 24 47 56 48 36 49 55 50 37 51 40 52 54 53 73 54 38 55
REMARK SMILES IDX 39 56 53 58 74 59 41 60 25 61 26 62 34 63 27 64 28 65 32 66
REMARK SMILES IDX 35 67 29 68 30 69 33 70 31 71 57 72 58 73 66 74 59 75 60 76
REMARK SMILES IDX 64 77 67 78 61 79 62 80 65 81 63 82 42 83 43 84 51 85 44 86
REMARK SMILES IDX 45 87 49 88 52 89 46 90 47 91 50 92 48 93
REMARK H PARENT 4 10 72 46 40 57
REMARK Flexibility Score: inf
ROOT
ATOM      1  C   UNL     1      -0.843   0.940  -6.051  1.00  0.00     0.202 C 
ENDROOT
BRANCH   1   2
ATOM      2  C   UNL     1      -0.659  -0.536  -5.690  1.00  0.00     0.261 C 
BRANCH   2   3
ATOM      3  O   UNL     1      -0.366  -0.657  -4.287  1.00  0.00    -0.461 OA
BRANCH   3   4
ATOM      4  C   UNL     1       0.759  -1.349  -3.956  1.00  0.00     0.338 C 
ATOM      5  O   UNL     1       1.442  -1.966  -4.768  1.00  0.00    -0.249 OA
BRANCH   4   6
ATOM      6  C   UNL     1       1.097  -1.245  -2.437  1.00  0.00     0.168 C 
BRANCH   6   7
ATOM      7  C   UNL     1       0.304  -0.111  -1.722  1.00  0.00     0.044 C 
ATOM      8  C   UNL     1       0.235  -0.133  -0.197  1.00  0.00     0.007 C 
ENDBRANCH   6   7
BRANCH   6   9
ATOM      9  O   UNL     1       0.621  -2.508  -1.925  1.00  0.00    -0.378 OA
ATOM     10  H   UNL     1      -0.346  -2.540  -1.991  1.00  0.00     0.212 HD
ENDBRANCH   6   9
BRANCH   6  11
ATOM     11  C   UNL     1       2.675  -1.153  -2.346  1.00  0.00     0.059 C 
ATOM     12  C   UNL     1       3.254   0.098  -3.036  1.00  0.00     0.016 C 
BRANCH  11  13
ATOM     13  C   UNL     1       3.227  -1.339  -0.938  1.00  0.00    -0.041 A 
ATOM     14  C   UNL     1       3.305  -2.631  -0.402  1.00  0.00     0.008 A 
ATOM     15  C   UNL     1       3.642  -0.269  -0.138  1.00  0.00     0.008 A 
ATOM     16  C   UNL     1       3.678  -2.827   0.928  1.00  0.00     0.047 A 
ATOM     17  C   UNL     1       4.022  -0.473   1.192  1.00  0.00     0.047 A 
ATOM     18  C   UNL     1       4.010  -1.746   1.746  1.00  0.00     0.119 A 
BRANCH  18  19
ATOM     19  O   UNL     1       4.282  -2.088   3.033  1.00  0.00    -0.491 OA
BRANCH  19  20
ATOM     20  C   UNL     1       4.561  -1.130   4.058  1.00  0.00     0.167 C 
ATOM     21  C   UNL     1       5.909  -0.440   3.879  1.00  0.00     0.052 C 
ATOM     22  C   UNL     1       3.393  -0.198   4.376  1.00  0.00     0.052 C 
ENDBRANCH  19  20
ENDBRANCH  18  19
ENDBRANCH  11  13
ENDBRANCH   6  11
ENDBRANCH   4   6
ENDBRANCH   3   4
ENDBRANCH   2   3
ENDBRANCH   1   2
BRANCH   1  23
ATOM     23  O   UNL     1       0.355   1.721  -6.101  1.00  0.00    -0.374 OA
BRANCH  23  24
ATOM     24  C   UNL     1       0.939   2.088  -4.854  1.00  0.00     0.202 C 
BRANCH  24  25
ATOM     25  C   UNL     1       0.371   3.342  -4.181  1.00  0.00     0.261 C 
BRANCH  25  26
ATOM     26  O   UNL     1      -1.028   3.202  -3.889  1.00  0.00    -0.460 OA
BRANCH  26  27
ATOM     27  C   UNL     1      -1.838   3.903  -4.713  1.00  0.00     0.338 C 
ATOM     28  O   UNL     1      -1.508   4.720  -5.564  1.00  0.00    -0.246 OA
BRANCH  27  29
ATOM     29  C   UNL     1      -3.224   3.424  -4.586  1.00  0.00     0.060 A 
ATOM     30  C   UNL     1      -3.891   3.084  -5.770  1.00  0.00     0.016 A 
ATOM     31  C   UNL     1      -3.881   3.364  -3.355  1.00  0.00     0.016 A 
ATOM     32  C   UNL     1      -5.238   2.743  -5.737  1.00  0.00     0.010 A 
ATOM     33  C   UNL     1      -5.239   3.031  -3.324  1.00  0.00     0.010 A 
ATOM     34  C   UNL     1      -5.930   2.761  -4.519  1.00  0.00    -0.014 A 
BRANCH  34  35
ATOM     35  C   UNL     1      -7.408   2.669  -4.535  1.00  0.00     0.031 A 
ATOM     36  C   UNL     1      -8.210   3.940  -4.477  1.00  0.00     0.074 A 
ATOM     37  C   UNL     1      -8.023   1.481  -4.659  1.00  0.00     0.049 A 
ATOM     38  N   UNL     1      -9.508   4.105  -4.479  1.00  0.00    -0.248 NA
ATOM     39  C   UNL     1      -7.443   5.194  -4.410  1.00  0.00     0.031 C 
ATOM     40  C   UNL     1      -7.348   0.190  -4.769  1.00  0.00     0.029 A 
ATOM     41  N   UNL     1      -9.358   1.171  -4.714  1.00  0.00    -0.354 N 
ATOM     42  C   UNL     1      -9.712   5.478  -4.416  1.00  0.00     0.074 A 
ATOM     43  C   UNL     1      -8.408   6.099  -4.341  1.00  0.00     0.031 C 
ATOM     44  C   UNL     1      -8.275  -0.778  -4.869  1.00  0.00     0.029 A 
ATOM     45  C   UNL     1      -9.605  -0.175  -4.803  1.00  0.00     0.049 A 
ATOM     46  H   UNL     1     -10.071   1.851  -4.692  1.00  0.00     0.167 HD
ATOM     47  C   UNL     1     -10.882   6.157  -4.431  1.00  0.00     0.037 A 
ATOM     48  C   UNL     1     -10.775  -0.843  -4.810  1.00  0.00     0.037 A 
ATOM     49  C   UNL     1     -12.177   5.535  -4.503  1.00  0.00     0.049 A 
ATOM     50  C   UNL     1     -12.066  -0.066  -4.756  1.00  0.00     0.074 A 
ATOM     51  C   UNL     1     -13.424   6.134  -4.527  1.00  0.00     0.029 A 
ATOM     52  N   UNL     1     -12.389   4.165  -4.557  1.00  0.00    -0.354 N 
ATOM     53  N   UNL     1     -12.251   1.231  -4.712  1.00  0.00    -0.248 NA
ATOM     54  C   UNL     1     -13.310  -0.848  -4.759  1.00  0.00     0.031 C 
ATOM     55  C   UNL     1     -14.393   5.125  -4.550  1.00  0.00     0.029 A 
ATOM     56  C   UNL     1     -13.748   3.898  -4.592  1.00  0.00     0.049 A 
ATOM     57  H   UNL     1     -11.679   3.483  -4.569  1.00  0.00     0.167 HD
ATOM     58  C   UNL     1     -13.627   1.422  -4.707  1.00  0.00     0.074 A 
ATOM     59  C   UNL     1     -14.229   0.107  -4.767  1.00  0.00     0.031 C 
ATOM     60  C   UNL     1     -14.328   2.581  -4.657  1.00  0.00     0.037 A 
BRANCH  47  61
ATOM     61  C   UNL     1     -10.814   7.654  -4.346  1.00  0.00     0.064 A 
ATOM     62  C   UNL     1     -10.360   8.433  -5.420  1.00  0.00     0.173 A 
ATOM     63  C   UNL     1     -11.234   8.319  -3.184  1.00  0.00     0.173 A 
ATOM     64  F   UNL     1      -9.932   7.845  -6.547  1.00  0.00    -0.203 F 
ATOM     65  C   UNL     1     -10.309   9.822  -5.327  1.00  0.00     0.198 A 
ATOM     66  C   UNL     1     -11.207   9.708  -3.103  1.00  0.00     0.198 A 
ATOM     67  F   UNL     1     -11.677   7.620  -2.128  1.00  0.00    -0.203 F 
ATOM     68  F   UNL     1      -9.830  10.543  -6.349  1.00  0.00    -0.200 F 
ATOM     69  C   UNL     1     -10.738  10.458  -4.172  1.00  0.00     0.200 A 
ATOM     70  F   UNL     1     -11.631  10.322  -1.990  1.00  0.00    -0.200 F 
ATOM     71  F   UNL     1     -10.694  11.795  -4.085  1.00  0.00    -0.200 F 
ENDBRANCH  47  61
BRANCH  48  72
ATOM     72  C   UNL     1     -10.780  -2.328  -4.859  1.00  0.00     0.064 A 
ATOM     73  C   UNL     1     -11.242  -3.017  -5.988  1.00  0.00     0.173 A 
ATOM     74  C   UNL     1     -10.332  -3.088  -3.768  1.00  0.00     0.173 A 
ATOM     75  F   UNL     1     -11.704  -2.334  -7.046  1.00  0.00    -0.203 F 
ATOM     76  C   UNL     1     -11.270  -4.410  -6.019  1.00  0.00     0.198 A 
ATOM     77  C   UNL     1     -10.336  -4.480  -3.810  1.00  0.00     0.198 A 
ATOM     78  F   UNL     1      -9.883  -2.476  -2.662  1.00  0.00    -0.203 F 
ATOM     79  F   UNL     1     -11.758  -5.044  -7.093  1.00  0.00    -0.200 F 
ATOM     80  C   UNL     1     -10.812  -5.140  -4.932  1.00  0.00     0.200 A 
ATOM     81  F   UNL     1      -9.882  -5.181  -2.762  1.00  0.00    -0.200 F 
ATOM     82  F   UNL     1     -10.837  -6.480  -4.964  1.00  0.00    -0.200 F 
ENDBRANCH  48  72
BRANCH  60  83
ATOM     83  C   UNL     1     -15.826   2.483  -4.698  1.00  0.00     0.064 A 
ATOM     84  C   UNL     1     -16.562   2.017  -3.599  1.00  0.00     0.173 A 
ATOM     85  C   UNL     1     -16.534   2.904  -5.834  1.00  0.00     0.173 A 
ATOM     86  F   UNL     1     -15.931   1.591  -2.495  1.00  0.00    -0.203 F 
ATOM     87  C   UNL     1     -17.952   1.954  -3.646  1.00  0.00     0.198 A 
ATOM     88  C   UNL     1     -17.924   2.866  -5.866  1.00  0.00     0.198 A 
ATOM     89  F   UNL     1     -15.876   3.365  -6.908  1.00  0.00    -0.203 F 
ATOM     90  F   UNL     1     -18.634   1.464  -2.601  1.00  0.00    -0.200 F 
ATOM     91  C   UNL     1     -18.632   2.385  -4.775  1.00  0.00     0.200 A 
ATOM     92  F   UNL     1     -18.580   3.297  -6.953  1.00  0.00    -0.200 F 
ATOM     93  F   UNL     1     -19.971   2.331  -4.815  1.00  0.00    -0.200 F 
ENDBRANCH  60  83
ENDBRANCH  34  35
ENDBRANCH  27  29
ENDBRANCH  26  27
ENDBRANCH  25  26
ENDBRANCH  24  25
ENDBRANCH  23  24
ENDBRANCH   1  23
TORSDOF 20
