REMARK SMILES COc1cccc(C(=O)/C=C(/Nc2cc(C)c(C)cc2[N+](=O)[O-])C(=O)OCCOCCOC(=O)c2ccc(-c3c4nc(c(-c5c(F)c(F)c(F)c(F)c5F)c5ccc([nH]5)c(-c5c(F)c(F)c(F)c(F)c5F)c5nc(c(-c6c(F)c(F)c(F)c(F)c6F)c6ccc3[nH]6)C=C5)C=C4)cc2)c1
REMARK SMILES IDX 28 1 27 2 26 3 24 4 25 5 11 6 10 7 8 8 9 9 7 10 3 11 4 12
REMARK SMILES IDX 98 13 5 14 6 15 2 16 1 17 12 18 13 20 14 21 20 22 15 23
REMARK SMILES IDX 19 24 16 25 17 26 18 27 21 28 22 29 23 30 29 31 30 32 31 33
REMARK SMILES IDX 32 34 33 35 34 36 35 37 36 38 97 39 37 40 96 41 38 42 39 43
REMARK SMILES IDX 40 44 90 45 41 46 95 47 89 48 91 49 42 50 94 51 88 52 87 53
REMARK SMILES IDX 43 55 75 56 55 57 74 58 56 59 59 60 73 61 92 62 57 63 58 64
REMARK SMILES IDX 72 66 93 67 60 68 44 69 45 70 53 71 46 72 47 73 51 74 54 75
REMARK SMILES IDX 48 76 49 77 52 78 50 79 76 80 77 81 85 82 78 83 79 84 83 85
REMARK SMILES IDX 86 86 80 87 81 88 84 89 82 90 61 91 62 92 70 93 63 94 64 95
REMARK SMILES IDX 68 96 71 97 65 98 66 99 69 100 67 101
REMARK H PARENT 12 19 91 54 59 65
REMARK Flexibility Score: inf
ROOT
ATOM      1  C   UNL     1       0.771   0.973  -1.078  1.00  0.00     0.202 C 
ENDROOT
BRANCH   1   2
ATOM      2  C   UNL     1       1.637   0.090  -0.171  1.00  0.00     0.261 C 
BRANCH   2   3
ATOM      3  O   UNL     1       2.981   0.114  -0.603  1.00  0.00    -0.459 OA
BRANCH   3   4
ATOM      4  C   UNL     1       3.500  -1.078  -0.934  1.00  0.00     0.354 C 
ATOM      5  O   UNL     1       3.094  -2.177  -0.611  1.00  0.00    -0.244 OA
BRANCH   4   6
ATOM      6  C   UNL     1       4.776  -0.810  -1.631  1.00  0.00     0.129 C 
ATOM      7  C   UNL     1       4.726  -0.689  -2.972  1.00  0.00     0.086 C 
BRANCH   7   8
ATOM      8  C   UNL     1       3.703  -0.759  -4.088  1.00  0.00     0.188 C 
ATOM      9  O   UNL     1       4.140  -0.466  -5.209  1.00  0.00    -0.289 OA
BRANCH   8  10
ATOM     10  C   UNL     1       2.232  -1.039  -4.004  1.00  0.00     0.026 A 
ATOM     11  C   UNL     1       0.216  -2.022  -3.039  1.00  0.00     0.119 A 
ATOM     12  C   UNL     1      -0.586  -1.372  -3.971  1.00  0.00     0.046 A 
ATOM     13  C   UNL     1       1.617  -1.935  -3.129  1.00  0.00     0.058 A 
ATOM     14  C   UNL     1       0.013  -0.594  -4.956  1.00  0.00     0.005 A 
ATOM     15  C   UNL     1       1.404  -0.411  -4.956  1.00  0.00     0.012 A 
BRANCH  11  16
ATOM     16  O   UNL     1      -0.314  -2.838  -2.074  1.00  0.00    -0.497 OA
ATOM     17  C   UNL     1      -1.228  -2.184  -1.190  1.00  0.00     0.278 C 
ENDBRANCH  11  16
ENDBRANCH   8  10
ENDBRANCH   7   8
BRANCH   6  18
ATOM     18  N   UNL     1       5.890  -0.575  -0.800  1.00  0.00    -0.344 N 
ATOM     19  H   UNL     1       6.726  -0.274  -1.225  1.00  0.00     0.167 HD
BRANCH  18  20
ATOM     20  C   UNL     1       5.885  -0.743   0.614  1.00  0.00     0.118 A 
ATOM     21  C   UNL     1       6.169   0.368   1.432  1.00  0.00     0.037 A 
ATOM     22  C   UNL     1       5.373  -1.884   1.264  1.00  0.00     0.292 A 
ATOM     23  C   UNL     1       5.823   0.392   2.807  1.00  0.00    -0.046 A 
ATOM     24  C   UNL     1       4.900  -1.823   2.584  1.00  0.00     0.091 A 
ATOM     25  C   UNL     1       6.275   1.557   3.650  1.00  0.00     0.045 C 
ATOM     26  C   UNL     1       5.068  -0.663   3.348  1.00  0.00    -0.041 A 
ATOM     27  C   UNL     1       4.485  -0.629   4.734  1.00  0.00     0.045 C 
BRANCH  22  28
ATOM     28  N   UNL     1       5.409  -3.205   0.618  1.00  0.00     0.064 N 
ATOM     29  O   UNL     1       4.662  -4.088   1.068  1.00  0.00    -0.258 OA
ATOM     30  O   UNL     1       6.246  -3.389  -0.279  1.00  0.00    -0.258 OA
ENDBRANCH  22  28
ENDBRANCH  18  20
ENDBRANCH   6  18
ENDBRANCH   4   6
ENDBRANCH   3   4
ENDBRANCH   2   3
ENDBRANCH   1   2
BRANCH   1  31
ATOM     31  O   UNL     1       1.374   1.600  -2.203  1.00  0.00    -0.374 OA
BRANCH  31  32
ATOM     32  C   UNL     1       2.499   2.459  -2.037  1.00  0.00     0.202 C 
BRANCH  32  33
ATOM     33  C   UNL     1       2.376   3.619  -1.050  1.00  0.00     0.261 C 
BRANCH  33  34
ATOM     34  O   UNL     1       2.268   3.174   0.315  1.00  0.00    -0.460 OA
BRANCH  34  35
ATOM     35  C   UNL     1       1.096   3.473   0.922  1.00  0.00     0.338 C 
ATOM     36  O   UNL     1       0.142   4.066   0.450  1.00  0.00    -0.246 OA
BRANCH  35  37
ATOM     37  C   UNL     1       1.039   2.830   2.244  1.00  0.00     0.060 A 
ATOM     38  C   UNL     1      -0.056   2.003   2.539  1.00  0.00     0.016 A 
ATOM     39  C   UNL     1       1.992   3.130   3.216  1.00  0.00     0.016 A 
ATOM     40  C   UNL     1      -0.235   1.522   3.833  1.00  0.00     0.010 A 
ATOM     41  C   UNL     1       1.800   2.664   4.516  1.00  0.00     0.010 A 
ATOM     42  C   UNL     1       0.663   1.900   4.837  1.00  0.00    -0.014 A 
BRANCH  42  43
ATOM     43  C   UNL     1       0.329   1.674   6.261  1.00  0.00     0.031 A 
ATOM     44  C   UNL     1      -0.239   2.819   7.051  1.00  0.00     0.074 A 
ATOM     45  C   UNL     1       0.556   0.486   6.844  1.00  0.00     0.049 A 
ATOM     46  N   UNL     1      -0.479   2.907   8.333  1.00  0.00    -0.248 NA
ATOM     47  C   UNL     1      -0.576   4.033   6.289  1.00  0.00     0.031 C 
ATOM     48  C   UNL     1       1.043  -0.709   6.162  1.00  0.00     0.029 A 
ATOM     49  N   UNL     1       0.431   0.104   8.155  1.00  0.00    -0.354 N 
ATOM     50  C   UNL     1      -0.988   4.184   8.532  1.00  0.00     0.074 A 
ATOM     51  C   UNL     1      -0.991   4.848   7.247  1.00  0.00     0.031 C 
ATOM     52  C   UNL     1       1.223  -1.683   7.070  1.00  0.00     0.029 A 
ATOM     53  C   UNL     1       0.889  -1.168   8.396  1.00  0.00     0.049 A 
ATOM     54  H   UNL     1       0.051   0.683   8.854  1.00  0.00     0.167 HD
ATOM     55  C   UNL     1      -1.420   4.747   9.686  1.00  0.00     0.037 A 
ATOM     56  C   UNL     1       1.048  -1.822   9.562  1.00  0.00     0.037 A 
ATOM     57  C   UNL     1      -1.405   4.079  10.960  1.00  0.00     0.049 A 
ATOM     58  C   UNL     1       0.644  -1.144  10.846  1.00  0.00     0.074 A 
ATOM     59  C   UNL     1      -1.837   4.549  12.187  1.00  0.00     0.029 A 
ATOM     60  N   UNL     1      -0.921   2.795  11.171  1.00  0.00    -0.354 N 
ATOM     61  N   UNL     1       0.142   0.054  11.028  1.00  0.00    -0.248 NA
ATOM     62  C   UNL     1       0.820  -1.913  12.085  1.00  0.00     0.031 C 
ATOM     63  C   UNL     1      -1.558   3.574  13.151  1.00  0.00     0.029 A 
ATOM     64  C   UNL     1      -1.015   2.469  12.514  1.00  0.00     0.049 A 
ATOM     65  H   UNL     1      -0.565   2.204  10.470  1.00  0.00     0.167 HD
ATOM     66  C   UNL     1      -0.095   0.167  12.393  1.00  0.00     0.074 A 
ATOM     67  C   UNL     1       0.313  -1.088  12.990  1.00  0.00     0.031 C 
ATOM     68  C   UNL     1      -0.610   1.211  13.089  1.00  0.00     0.037 A 
BRANCH  55  69
ATOM     69  C   UNL     1      -1.912   6.164   9.626  1.00  0.00     0.064 A 
ATOM     70  C   UNL     1      -3.116   6.504   8.990  1.00  0.00     0.173 A 
ATOM     71  C   UNL     1      -1.183   7.194  10.240  1.00  0.00     0.173 A 
ATOM     72  F   UNL     1      -3.844   5.561   8.373  1.00  0.00    -0.203 F 
ATOM     73  C   UNL     1      -3.557   7.825   8.949  1.00  0.00     0.198 A 
ATOM     74  C   UNL     1      -1.642   8.508  10.224  1.00  0.00     0.198 A 
ATOM     75  F   UNL     1      -0.025   6.924  10.863  1.00  0.00    -0.203 F 
ATOM     76  F   UNL     1      -4.684   8.133   8.292  1.00  0.00    -0.200 F 
ATOM     77  C   UNL     1      -2.824   8.824   9.572  1.00  0.00     0.200 A 
ATOM     78  F   UNL     1      -0.938   9.469  10.838  1.00  0.00    -0.200 F 
ATOM     79  F   UNL     1      -3.253  10.093   9.537  1.00  0.00    -0.200 F 
ENDBRANCH  55  69
BRANCH  56  80
ATOM     80  C   UNL     1       1.628  -3.191   9.570  1.00  0.00     0.064 A 
ATOM     81  C   UNL     1       0.854  -4.303   9.927  1.00  0.00     0.173 A 
ATOM     82  C   UNL     1       2.972  -3.413   9.233  1.00  0.00     0.173 A 
ATOM     83  F   UNL     1      -0.430  -4.138  10.278  1.00  0.00    -0.203 F 
ATOM     84  C   UNL     1       1.407  -5.581   9.971  1.00  0.00     0.198 A 
ATOM     85  C   UNL     1       3.516  -4.696   9.248  1.00  0.00     0.198 A 
ATOM     86  F   UNL     1       3.756  -2.384   8.879  1.00  0.00    -0.203 F 
ATOM     87  F   UNL     1       0.656  -6.619  10.365  1.00  0.00    -0.200 F 
ATOM     88  C   UNL     1       2.735  -5.777   9.626  1.00  0.00     0.200 A 
ATOM     89  F   UNL     1       4.797  -4.882   8.902  1.00  0.00    -0.200 F 
ATOM     90  F   UNL     1       3.266  -7.007   9.667  1.00  0.00    -0.200 F 
ENDBRANCH  56  80
BRANCH  68  91
ATOM     91  C   UNL     1      -0.805   1.027  14.568  1.00  0.00     0.064 A 
ATOM     92  C   UNL     1       0.278   0.964  15.456  1.00  0.00     0.173 A 
ATOM     93  C   UNL     1      -2.100   0.954  15.106  1.00  0.00     0.173 A 
ATOM     94  F   UNL     1       1.536   1.015  14.992  1.00  0.00    -0.203 F 
ATOM     95  C   UNL     1       0.073   0.805  16.824  1.00  0.00     0.198 A 
ATOM     96  C   UNL     1      -2.302   0.831  16.477  1.00  0.00     0.198 A 
ATOM     97  F   UNL     1      -3.171   1.019  14.301  1.00  0.00    -0.203 F 
ATOM     98  F   UNL     1       1.124   0.694  17.648  1.00  0.00    -0.200 F 
ATOM     99  C   UNL     1      -1.216   0.747  17.334  1.00  0.00     0.200 A 
ATOM    100  F   UNL     1      -3.548   0.794  16.969  1.00  0.00    -0.200 F 
ATOM    101  F   UNL     1      -1.410   0.604  18.652  1.00  0.00    -0.200 F 
ENDBRANCH  68  91
ENDBRANCH  42  43
ENDBRANCH  35  37
ENDBRANCH  34  35
ENDBRANCH  33  34
ENDBRANCH  32  33
ENDBRANCH  31  32
ENDBRANCH   1  31
TORSDOF 20
