REMARK SMILES O=C(OCCOCCOC(=O)[C@@H]([C@H](O)c1ccccc1)n1nnc2ccccc21)c1ccc(-c2c3nc(c(-c4c(F)c(F)c(F)c(F)c4F)c4ccc([nH]4)c(-c4c(F)c(F)c(F)c(F)c4F)c4nc(c(-c5c(F)c(F)c(F)c(F)c5F)c5ccc2[nH]5)C=C4)C=C3)cc1
REMARK SMILES IDX 6 1 5 2 4 3 3 4 2 5 1 6 30 7 31 8 92 9 32 10 91 11 33 12
REMARK SMILES IDX 34 13 35 14 85 15 36 16 90 17 84 18 86 19 37 20 89 21 83 22
REMARK SMILES IDX 82 23 38 25 70 26 50 27 69 28 51 29 54 30 68 31 87 32 52 33
REMARK SMILES IDX 53 34 67 36 88 37 55 38 39 39 40 40 48 41 41 42 42 43 46 44
REMARK SMILES IDX 49 45 43 46 44 47 47 48 45 49 71 50 72 51 80 52 73 53 74 54
REMARK SMILES IDX 78 55 81 56 75 57 76 58 79 59 77 60 56 61 57 62 65 63 58 64
REMARK SMILES IDX 59 65 63 66 66 67 60 68 61 69 64 70 62 71 7 72 8 73 9 74
REMARK SMILES IDX 10 75 11 76 12 77 21 78 22 79 29 80 23 81 24 82 28 83 25 84
REMARK SMILES IDX 27 85 26 86 13 87 15 88 16 89 20 90 17 91 19 92 18 93 14 94
REMARK H PARENT 86 24 54 35 14 95
REMARK Flexibility Score: inf
ROOT
ATOM      1  O   UNL     1       2.124  -4.576   1.081  1.00  0.00    -0.374 OA
ENDROOT
BRANCH   1   2
ATOM      2  C   UNL     1       2.674  -3.421   0.460  1.00  0.00     0.202 C 
BRANCH   2   3
ATOM      3  C   UNL     1       4.192  -3.258   0.571  1.00  0.00     0.261 C 
BRANCH   3   4
ATOM      4  O   UNL     1       4.926  -4.340  -0.025  1.00  0.00    -0.460 OA
BRANCH   4   5
ATOM      5  C   UNL     1       5.167  -5.584   0.428  1.00  0.00     0.338 C 
ATOM      6  O   UNL     1       5.342  -6.491  -0.384  1.00  0.00    -0.246 OA
BRANCH   5   7
ATOM      7  C   UNL     1       5.329  -5.960   1.845  1.00  0.00     0.060 A 
ATOM      8  C   UNL     1       5.184  -5.112   2.934  1.00  0.00     0.016 A 
ATOM      9  C   UNL     1       5.782  -7.282   2.057  1.00  0.00     0.016 A 
ATOM     10  C   UNL     1       5.682  -5.490   4.163  1.00  0.00     0.010 A 
ATOM     11  C   UNL     1       6.235  -7.685   3.293  1.00  0.00     0.010 A 
ATOM     12  C   UNL     1       6.260  -6.748   4.313  1.00  0.00    -0.014 A 
BRANCH  12  13
ATOM     13  C   UNL     1       6.803  -7.061   5.617  1.00  0.00     0.031 A 
ATOM     14  C   UNL     1       5.795  -7.071   6.704  1.00  0.00     0.074 A 
ATOM     15  C   UNL     1       8.098  -7.376   5.785  1.00  0.00     0.049 A 
ATOM     16  N   UNL     1       5.784  -6.372   7.791  1.00  0.00    -0.248 NA
ATOM     17  C   UNL     1       4.575  -7.864   6.484  1.00  0.00     0.031 C 
ATOM     18  C   UNL     1       9.098  -7.646   4.748  1.00  0.00     0.029 A 
ATOM     19  N   UNL     1       8.764  -7.645   6.938  1.00  0.00    -0.354 N 
ATOM     20  C   UNL     1       4.641  -6.769   8.480  1.00  0.00     0.074 A 
ATOM     21  C   UNL     1       3.863  -7.560   7.567  1.00  0.00     0.031 C 
ATOM     22  C   UNL     1      10.152  -8.275   5.311  1.00  0.00     0.029 A 
ATOM     23  C   UNL     1       9.945  -8.342   6.748  1.00  0.00     0.049 A 
ATOM     24  H   UNL     1       8.437  -7.371   7.825  1.00  0.00     0.167 HD
ATOM     25  C   UNL     1       4.566  -6.636   9.832  1.00  0.00     0.037 A 
ATOM     26  C   UNL     1      10.635  -9.018   7.697  1.00  0.00     0.037 A 
ATOM     27  C   UNL     1       5.442  -5.589  10.298  1.00  0.00     0.049 A 
ATOM     28  C   UNL     1      10.193  -8.514   9.023  1.00  0.00     0.074 A 
ATOM     29  C   UNL     1       5.565  -4.237  10.035  1.00  0.00     0.029 A 
ATOM     30  N   UNL     1       6.604  -5.941  10.940  1.00  0.00    -0.354 N 
ATOM     31  N   UNL     1      10.461  -7.323   9.483  1.00  0.00    -0.248 NA
ATOM     32  C   UNL     1       9.084  -9.195   9.678  1.00  0.00     0.031 C 
ATOM     33  C   UNL     1       6.964  -3.967  10.101  1.00  0.00     0.029 A 
ATOM     34  C   UNL     1       7.607  -5.158  10.435  1.00  0.00     0.049 A 
ATOM     35  H   UNL     1       6.698  -6.630  11.636  1.00  0.00     0.167 HD
ATOM     36  C   UNL     1       9.314  -6.940  10.161  1.00  0.00     0.074 A 
ATOM     37  C   UNL     1       8.551  -8.169  10.346  1.00  0.00     0.031 C 
ATOM     38  C   UNL     1       8.959  -5.624  10.252  1.00  0.00     0.037 A 
BRANCH  25  39
ATOM     39  C   UNL     1       4.069  -7.750  10.736  1.00  0.00     0.064 A 
ATOM     40  C   UNL     1       4.096  -7.539  12.129  1.00  0.00     0.173 A 
ATOM     41  C   UNL     1       3.916  -9.097  10.334  1.00  0.00     0.173 A 
ATOM     42  F   UNL     1       4.206  -6.300  12.631  1.00  0.00    -0.203 F 
ATOM     43  C   UNL     1       4.137  -8.601  13.036  1.00  0.00     0.198 A 
ATOM     44  C   UNL     1       3.909 -10.150  11.245  1.00  0.00     0.198 A 
ATOM     45  F   UNL     1       3.867  -9.473   9.053  1.00  0.00    -0.203 F 
ATOM     46  F   UNL     1       4.335  -8.353  14.337  1.00  0.00    -0.200 F 
ATOM     47  C   UNL     1       4.069  -9.907  12.591  1.00  0.00     0.200 A 
ATOM     48  F   UNL     1       3.840 -11.410  10.791  1.00  0.00    -0.200 F 
ATOM     49  F   UNL     1       4.203 -10.928  13.446  1.00  0.00    -0.200 F 
ENDBRANCH  25  39
BRANCH  26  50
ATOM     50  C   UNL     1      11.411 -10.268   7.529  1.00  0.00     0.064 A 
ATOM     51  C   UNL     1      12.314 -10.693   8.515  1.00  0.00     0.173 A 
ATOM     52  C   UNL     1      11.108 -11.200   6.515  1.00  0.00     0.173 A 
ATOM     53  F   UNL     1      12.617  -9.889   9.543  1.00  0.00    -0.203 F 
ATOM     54  C   UNL     1      12.868 -11.977   8.496  1.00  0.00     0.198 A 
ATOM     55  C   UNL     1      11.675 -12.474   6.487  1.00  0.00     0.198 A 
ATOM     56  F   UNL     1      10.184 -10.934   5.582  1.00  0.00    -0.203 F 
ATOM     57  F   UNL     1      13.677 -12.370   9.489  1.00  0.00    -0.200 F 
ATOM     58  C   UNL     1      12.545 -12.867   7.485  1.00  0.00     0.200 A 
ATOM     59  F   UNL     1      11.324 -13.335   5.521  1.00  0.00    -0.200 F 
ATOM     60  F   UNL     1      13.035 -14.114   7.494  1.00  0.00    -0.200 F 
ENDBRANCH  26  50
BRANCH  38  61
ATOM     61  C   UNL     1       9.990  -4.599   9.884  1.00  0.00     0.064 A 
ATOM     62  C   UNL     1      10.549  -4.475   8.601  1.00  0.00     0.173 A 
ATOM     63  C   UNL     1      10.337  -3.632  10.837  1.00  0.00     0.173 A 
ATOM     64  F   UNL     1      10.179  -5.291   7.606  1.00  0.00    -0.203 F 
ATOM     65  C   UNL     1      11.462  -3.464   8.307  1.00  0.00     0.198 A 
ATOM     66  C   UNL     1      11.219  -2.601  10.530  1.00  0.00     0.198 A 
ATOM     67  F   UNL     1       9.785  -3.665  12.061  1.00  0.00    -0.203 F 
ATOM     68  F   UNL     1      11.999  -3.380   7.081  1.00  0.00    -0.200 F 
ATOM     69  C   UNL     1      11.793  -2.526   9.271  1.00  0.00     0.200 A 
ATOM     70  F   UNL     1      11.495  -1.665  11.448  1.00  0.00    -0.200 F 
ATOM     71  F   UNL     1      12.643  -1.533   8.978  1.00  0.00    -0.200 F 
ENDBRANCH  38  61
ENDBRANCH  12  13
ENDBRANCH   5   7
ENDBRANCH   4   5
ENDBRANCH   3   4
ENDBRANCH   2   3
ENDBRANCH   1   2
BRANCH   1  72
ATOM     72  C   UNL     1       1.957  -5.761   0.291  1.00  0.00     0.202 C 
BRANCH  72  73
ATOM     73  C   UNL     1       1.079  -5.659  -0.963  1.00  0.00     0.261 C 
BRANCH  73  74
ATOM     74  O   UNL     1       1.888  -5.202  -2.076  1.00  0.00    -0.462 OA
BRANCH  74  75
ATOM     75  C   UNL     1       1.445  -4.127  -2.780  1.00  0.00     0.334 C 
ATOM     76  O   UNL     1       0.363  -3.608  -2.597  1.00  0.00    -0.250 OA
BRANCH  75  77
ATOM     77  C   UNL     1       2.480  -3.557  -3.733  1.00  0.00     0.252 C 
BRANCH  77  78
ATOM     78  N   UNL     1       2.304  -3.963  -5.111  1.00  0.00    -0.227 N 
ATOM     79  N   UNL     1       2.195  -2.977  -6.030  1.00  0.00    -0.065 NA
ATOM     80  C   UNL     1       2.391  -5.195  -5.711  1.00  0.00     0.090 A 
ATOM     81  N   UNL     1       2.341  -3.519  -7.227  1.00  0.00    -0.130 NA
ATOM     82  C   UNL     1       2.490  -4.866  -7.062  1.00  0.00     0.113 A 
ATOM     83  C   UNL     1       2.456  -6.521  -5.266  1.00  0.00     0.030 A 
ATOM     84  C   UNL     1       2.723  -5.867  -8.014  1.00  0.00     0.032 A 
ATOM     85  C   UNL     1       2.700  -7.510  -6.230  1.00  0.00     0.002 A 
ATOM     86  C   UNL     1       2.841  -7.190  -7.581  1.00  0.00     0.002 A 
ENDBRANCH  77  78
BRANCH  77  87
ATOM     87  C   UNL     1       3.947  -3.496  -3.233  1.00  0.00     0.180 C 
BRANCH  87  88
ATOM     88  C   UNL     1       4.894  -4.616  -3.626  1.00  0.00    -0.017 A 
ATOM     89  C   UNL     1       4.746  -5.896  -3.080  1.00  0.00     0.006 A 
ATOM     90  C   UNL     1       5.968  -4.418  -4.504  1.00  0.00     0.006 A 
ATOM     91  C   UNL     1       5.603  -6.948  -3.410  1.00  0.00     0.000 A 
ATOM     92  C   UNL     1       6.839  -5.465  -4.830  1.00  0.00     0.000 A 
ATOM     93  C   UNL     1       6.651  -6.734  -4.290  1.00  0.00     0.000 A 
ENDBRANCH  87  88
BRANCH  87  94
ATOM     94  O   UNL     1       4.557  -2.234  -3.583  1.00  0.00    -0.386 OA
ATOM     95  H   UNL     1       4.649  -2.176  -4.547  1.00  0.00     0.211 HD
ENDBRANCH  87  94
ENDBRANCH  77  87
ENDBRANCH  75  77
ENDBRANCH  74  75
ENDBRANCH  73  74
ENDBRANCH  72  73
ENDBRANCH   1  72
TORSDOF 18
