REMARK SMILES CC(C)CC(=O)N[C@@H](CC(=O)OCCOCCOC(=O)c1ccc(-c2c3nc(c(-c4c(F)c(F)c(F)c(F)c4F)c4ccc([nH]4)c(-c4c(F)c(F)c(F)c(F)c4F)c4nc(c(-c5c(F)c(F)c(F)c(F)c5F)c5ccc2[nH]5)C=C4)C=C3)cc1)c1ccccc1Cl
REMARK SMILES IDX 14 1 13 2 12 3 10 4 11 5 9 6 8 7 7 8 5 9 6 10 4 12 2 13 1 14
REMARK SMILES IDX 3 15 84 16 85 17 89 18 86 19 88 20 90 21 87 22 15 23 16 24
REMARK SMILES IDX 17 25 18 26 19 27 20 28 21 29 22 30 83 31 23 32 82 33 24 34
REMARK SMILES IDX 25 35 26 36 76 37 27 38 81 39 75 40 77 41 28 42 80 43 74 44
REMARK SMILES IDX 73 45 29 47 61 48 41 49 60 50 42 51 45 52 59 53 78 54 43 55
REMARK SMILES IDX 44 56 58 58 79 59 46 60 30 61 31 62 39 63 32 64 33 65 37 66
REMARK SMILES IDX 40 67 34 68 35 69 38 70 36 71 62 72 63 73 71 74 64 75 65 76
REMARK SMILES IDX 69 77 72 78 66 79 67 80 70 81 68 82 47 83 48 84 56 85 49 86
REMARK SMILES IDX 50 87 54 88 57 89 51 90 52 91 55 92 53 93
REMARK H PARENT 7 11 77 46 45 57
REMARK Flexibility Score: inf
ROOT
ATOM      1  C   UNL     1      -0.114   4.146   5.111  1.00  0.00     0.202 C 
ENDROOT
BRANCH   1   2
ATOM      2  C   UNL     1       0.533   3.910   3.739  1.00  0.00     0.261 C 
BRANCH   2   3
ATOM      3  O   UNL     1       0.152   2.642   3.177  1.00  0.00    -0.463 OA
BRANCH   3   4
ATOM      4  C   UNL     1       1.101   2.083   2.376  1.00  0.00     0.308 C 
ATOM      5  O   UNL     1       2.042   2.689   1.880  1.00  0.00    -0.252 OA
BRANCH   4   6
ATOM      6  C   UNL     1       0.940   0.588   2.300  1.00  0.00     0.152 C 
BRANCH   6   7
ATOM      7  C   UNL     1      -0.257   0.041   1.511  1.00  0.00     0.125 C 
BRANCH   7   8
ATOM      8  N   UNL     1      -1.001   1.064   0.787  1.00  0.00    -0.349 N 
ATOM      9  C   UNL     1      -1.244   1.164  -0.552  1.00  0.00     0.220 C 
ATOM     10  O   UNL     1      -1.810   2.174  -0.970  1.00  0.00    -0.275 OA
ATOM     11  H   UNL     1      -1.382   1.783   1.341  1.00  0.00     0.164 HD
BRANCH   9  12
ATOM     12  C   UNL     1      -0.835   0.039  -1.486  1.00  0.00     0.103 C 
BRANCH  12  13
ATOM     13  C   UNL     1       0.521   0.239  -2.185  1.00  0.00    -0.008 C 
ATOM     14  C   UNL     1       1.707   0.393  -1.234  1.00  0.00     0.008 C 
ATOM     15  C   UNL     1       0.785  -0.947  -3.117  1.00  0.00     0.008 C 
ENDBRANCH  12  13
ENDBRANCH   9  12
ENDBRANCH   7   8
BRANCH   7  16
ATOM     16  C   UNL     1      -1.127  -0.883   2.359  1.00  0.00    -0.006 A 
ATOM     17  C   UNL     1      -2.399  -0.492   2.808  1.00  0.00     0.007 A 
ATOM     18  C   UNL     1      -0.663  -2.161   2.747  1.00  0.00     0.046 A 
ATOM     19  C   UNL     1      -3.163  -1.326   3.633  1.00  0.00     0.000 A 
ATOM     20  C   UNL     1      -1.428  -2.990   3.573  1.00  0.00     0.021 A 
ATOM     21  Cl  UNL     1       0.870  -2.781   2.232  1.00  0.00    -0.084 Cl
ATOM     22  C   UNL     1      -2.675  -2.569   4.023  1.00  0.00     0.002 A 
ENDBRANCH   7  16
ENDBRANCH   6   7
ENDBRANCH   4   6
ENDBRANCH   3   4
ENDBRANCH   2   3
ENDBRANCH   1   2
BRANCH   1  23
ATOM     23  O   UNL     1       0.182   3.188   6.131  1.00  0.00    -0.374 OA
BRANCH  23  24
ATOM     24  C   UNL     1      -0.246   1.839   5.926  1.00  0.00     0.202 C 
BRANCH  24  25
ATOM     25  C   UNL     1      -1.760   1.613   5.833  1.00  0.00     0.261 C 
BRANCH  25  26
ATOM     26  O   UNL     1      -2.345   2.396   4.782  1.00  0.00    -0.460 OA
BRANCH  26  27
ATOM     27  C   UNL     1      -3.692   2.365   4.726  1.00  0.00     0.338 C 
ATOM     28  O   UNL     1      -4.437   1.554   5.256  1.00  0.00    -0.246 OA
BRANCH  27  29
ATOM     29  C   UNL     1      -4.155   3.528   3.949  1.00  0.00     0.060 A 
ATOM     30  C   UNL     1      -4.004   4.814   4.484  1.00  0.00     0.016 A 
ATOM     31  C   UNL     1      -4.818   3.343   2.735  1.00  0.00     0.016 A 
ATOM     32  C   UNL     1      -4.538   5.916   3.812  1.00  0.00     0.010 A 
ATOM     33  C   UNL     1      -5.335   4.452   2.054  1.00  0.00     0.010 A 
ATOM     34  C   UNL     1      -5.224   5.742   2.601  1.00  0.00    -0.014 A 
BRANCH  34  35
ATOM     35  C   UNL     1      -5.889   6.900   1.948  1.00  0.00     0.031 A 
ATOM     36  C   UNL     1      -7.374   7.091   2.092  1.00  0.00     0.074 A 
ATOM     37  C   UNL     1      -5.173   7.787   1.234  1.00  0.00     0.049 A 
ATOM     38  N   UNL     1      -8.142   8.034   1.603  1.00  0.00    -0.248 NA
ATOM     39  C   UNL     1      -8.091   6.089   2.895  1.00  0.00     0.031 C 
ATOM     40  C   UNL     1      -3.729   7.726   1.020  1.00  0.00     0.029 A 
ATOM     41  N   UNL     1      -5.569   8.909   0.548  1.00  0.00    -0.354 N 
ATOM     42  C   UNL     1      -9.427   7.741   2.039  1.00  0.00     0.074 A 
ATOM     43  C   UNL     1      -9.343   6.517   2.807  1.00  0.00     0.031 C 
ATOM     44  C   UNL     1      -3.359   8.762   0.249  1.00  0.00     0.029 A 
ATOM     45  C   UNL     1      -4.542   9.544  -0.106  1.00  0.00     0.049 A 
ATOM     46  H   UNL     1      -6.500   9.229   0.528  1.00  0.00     0.167 HD
ATOM     47  C   UNL     1     -10.571   8.436   1.829  1.00  0.00     0.037 A 
ATOM     48  C   UNL     1      -4.557  10.621  -0.916  1.00  0.00     0.037 A 
ATOM     49  C   UNL     1     -10.663   9.655   1.068  1.00  0.00     0.049 A 
ATOM     50  C   UNL     1      -5.854  11.333  -1.194  1.00  0.00     0.074 A 
ATOM     51  C   UNL     1     -11.771  10.458   0.856  1.00  0.00     0.029 A 
ATOM     52  N   UNL     1      -9.611  10.236   0.378  1.00  0.00    -0.354 N 
ATOM     53  N   UNL     1      -7.052  11.083  -0.727  1.00  0.00    -0.248 NA
ATOM     54  C   UNL     1      -5.799  12.476  -2.118  1.00  0.00     0.031 C 
ATOM     55  C   UNL     1     -11.401  11.499  -0.003  1.00  0.00     0.029 A 
ATOM     56  C   UNL     1     -10.053  11.366  -0.293  1.00  0.00     0.049 A 
ATOM     57  H   UNL     1      -8.687   9.897   0.366  1.00  0.00     0.167 HD
ATOM     58  C   UNL     1      -7.888  12.039  -1.288  1.00  0.00     0.074 A 
ATOM     59  C   UNL     1      -7.059  12.888  -2.116  1.00  0.00     0.031 C 
ATOM     60  C   UNL     1      -9.225  12.197  -1.129  1.00  0.00     0.037 A 
BRANCH  47  61
ATOM     61  C   UNL     1     -11.832   7.889   2.428  1.00  0.00     0.064 A 
ATOM     62  C   UNL     1     -12.089   7.979   3.804  1.00  0.00     0.173 A 
ATOM     63  C   UNL     1     -12.817   7.318   1.609  1.00  0.00     0.173 A 
ATOM     64  F   UNL     1     -11.173   8.510   4.628  1.00  0.00    -0.203 F 
ATOM     65  C   UNL     1     -13.280   7.499   4.341  1.00  0.00     0.198 A 
ATOM     66  C   UNL     1     -14.016   6.859   2.147  1.00  0.00     0.198 A 
ATOM     67  F   UNL     1     -12.621   7.216   0.286  1.00  0.00    -0.203 F 
ATOM     68  F   UNL     1     -13.492   7.565   5.663  1.00  0.00    -0.200 F 
ATOM     69  C   UNL     1     -14.245   6.946   3.512  1.00  0.00     0.200 A 
ATOM     70  F   UNL     1     -14.952   6.335   1.344  1.00  0.00    -0.200 F 
ATOM     71  F   UNL     1     -15.394   6.492   4.030  1.00  0.00    -0.200 F 
ENDBRANCH  47  61
BRANCH  48  72
ATOM     72  C   UNL     1      -3.293  11.090  -1.539  1.00  0.00     0.064 A 
ATOM     73  C   UNL     1      -2.688  12.286  -1.133  1.00  0.00     0.173 A 
ATOM     74  C   UNL     1      -2.672  10.354  -2.559  1.00  0.00     0.173 A 
ATOM     75  F   UNL     1      -3.262  13.038  -0.182  1.00  0.00    -0.203 F 
ATOM     76  C   UNL     1      -1.512  12.735  -1.731  1.00  0.00     0.198 A 
ATOM     77  C   UNL     1      -1.484  10.791  -3.139  1.00  0.00     0.198 A 
ATOM     78  F   UNL     1      -3.219   9.207  -2.987  1.00  0.00    -0.203 F 
ATOM     79  F   UNL     1      -0.973  13.901  -1.351  1.00  0.00    -0.200 F 
ATOM     80  C   UNL     1      -0.907  11.984  -2.728  1.00  0.00     0.200 A 
ATOM     81  F   UNL     1      -0.900  10.061  -4.099  1.00  0.00    -0.200 F 
ATOM     82  F   UNL     1       0.225  12.414  -3.300  1.00  0.00    -0.200 F 
ENDBRANCH  48  72
BRANCH  60  83
ATOM     83  C   UNL     1      -9.880  13.327  -1.868  1.00  0.00     0.064 A 
ATOM     84  C   UNL     1     -10.096  13.264  -3.252  1.00  0.00     0.173 A 
ATOM     85  C   UNL     1     -10.330  14.465  -1.183  1.00  0.00     0.173 A 
ATOM     86  F   UNL     1      -9.669  12.204  -3.954  1.00  0.00    -0.203 F 
ATOM     87  C   UNL     1     -10.725  14.308  -3.926  1.00  0.00     0.198 A 
ATOM     88  C   UNL     1     -10.980  15.496  -1.856  1.00  0.00     0.198 A 
ATOM     89  F   UNL     1     -10.151  14.572   0.142  1.00  0.00    -0.203 F 
ATOM     90  F   UNL     1     -10.888  14.243  -5.255  1.00  0.00    -0.200 F 
ATOM     91  C   UNL     1     -11.172  15.419  -3.228  1.00  0.00     0.200 A 
ATOM     92  F   UNL     1     -11.421  16.565  -1.178  1.00  0.00    -0.200 F 
ATOM     93  F   UNL     1     -11.783  16.420  -3.877  1.00  0.00    -0.200 F 
ENDBRANCH  60  83
ENDBRANCH  34  35
ENDBRANCH  27  29
ENDBRANCH  26  27
ENDBRANCH  25  26
ENDBRANCH  24  25
ENDBRANCH  23  24
ENDBRANCH   1  23
TORSDOF 19
