REMARK SMILES CC[C@@H](C(=O)Nc1ccc(OC(C)=O)cc1C(=O)OCCOCCOC(=O)c1ccc(-c2c3nc(c(-c4c(F)c(F)c(F)c(F)c4F)c4ccc([nH]4)c(-c4c(F)c(F)c(F)c(F)c4F)c4nc(c(-c5c(F)c(F)c(F)c(F)c5F)c5ccc2[nH]5)C=C4)C=C3)cc1)c1ccccc1
REMARK SMILES IDX 21 1 20 2 19 3 17 4 18 5 16 6 7 7 8 8 9 9 15 10 10 11 6 12
REMARK SMILES IDX 4 13 5 14 3 16 2 17 1 18 91 19 92 20 96 21 93 22 95 23 94 24
REMARK SMILES IDX 11 25 12 26 13 27 14 28 22 29 23 30 24 31 25 32 26 33 27 34
REMARK SMILES IDX 28 35 29 36 90 37 30 38 89 39 31 40 32 41 33 42 83 43 34 44
REMARK SMILES IDX 88 45 82 46 84 47 35 48 87 49 81 50 80 51 36 53 68 54 48 55
REMARK SMILES IDX 67 56 49 57 52 58 66 59 85 60 50 61 51 62 65 64 86 65 53 66
REMARK SMILES IDX 37 67 38 68 46 69 39 70 40 71 44 72 47 73 41 74 42 75 45 76
REMARK SMILES IDX 43 77 69 78 70 79 78 80 71 81 72 82 76 83 79 84 73 85 74 86
REMARK SMILES IDX 77 87 75 88 54 89 55 90 63 91 56 92 57 93 61 94 64 95 58 96
REMARK SMILES IDX 59 97 62 98 60 99
REMARK H PARENT 6 15 84 52 52 63
REMARK Flexibility Score: inf
ROOT
ATOM      1  C   UNL     1      -2.794   1.473   0.998  1.00  0.00     0.202 C 
ENDROOT
BRANCH   1   2
ATOM      2  C   UNL     1      -1.603   1.780   0.076  1.00  0.00     0.261 C 
BRANCH   2   3
ATOM      3  O   UNL     1      -0.877   0.666  -0.462  1.00  0.00    -0.460 OA
BRANCH   3   4
ATOM      4  C   UNL     1       0.129   0.273   0.351  1.00  0.00     0.340 C 
ATOM      5  O   UNL     1       0.325   0.666   1.495  1.00  0.00    -0.246 OA
BRANCH   4   6
ATOM      6  C   UNL     1       1.010  -0.757  -0.220  1.00  0.00     0.087 A 
ATOM      7  C   UNL     1       1.545  -0.812  -1.513  1.00  0.00     0.056 A 
ATOM      8  C   UNL     1       2.413  -1.881  -1.831  1.00  0.00     0.031 A 
ATOM      9  C   UNL     1       2.866  -2.766  -0.850  1.00  0.00     0.049 A 
ATOM     10  C   UNL     1       1.387  -1.726   0.729  1.00  0.00     0.065 A 
ATOM     11  C   UNL     1       2.379  -2.646   0.442  1.00  0.00     0.131 A 
BRANCH   7  12
ATOM     12  N   UNL     1       1.290   0.042  -2.588  1.00  0.00    -0.325 N 
ATOM     13  C   UNL     1       1.296   1.368  -2.851  1.00  0.00     0.231 C 
ATOM     14  O   UNL     1       0.881   1.613  -4.001  1.00  0.00    -0.274 OA
ATOM     15  H   UNL     1       1.031  -0.471  -3.388  1.00  0.00     0.169 HD
BRANCH  13  16
ATOM     16  C   UNL     1       1.928   2.531  -2.034  1.00  0.00     0.108 C 
BRANCH  16  17
ATOM     17  C   UNL     1       2.308   2.427  -0.550  1.00  0.00     0.015 C 
ATOM     18  C   UNL     1       3.526   1.584  -0.215  1.00  0.00     0.005 C 
ENDBRANCH  16  17
BRANCH  16  19
ATOM     19  C   UNL     1       1.123   3.843  -2.204  1.00  0.00    -0.036 A 
ATOM     20  C   UNL     1       1.775   5.077  -2.023  1.00  0.00     0.004 A 
ATOM     21  C   UNL     1      -0.253   3.865  -2.484  1.00  0.00     0.004 A 
ATOM     22  C   UNL     1       1.070   6.280  -2.079  1.00  0.00     0.000 A 
ATOM     23  C   UNL     1      -0.955   5.071  -2.561  1.00  0.00     0.000 A 
ATOM     24  C   UNL     1      -0.295   6.277  -2.346  1.00  0.00     0.000 A 
ENDBRANCH  16  19
ENDBRANCH  13  16
ENDBRANCH   7  12
BRANCH  11  25
ATOM     25  O   UNL     1       2.928  -3.496   1.426  1.00  0.00    -0.427 OA
BRANCH  25  26
ATOM     26  C   UNL     1       3.457  -3.121   2.668  1.00  0.00     0.308 C 
ATOM     27  C   UNL     1       3.131  -1.745   3.176  1.00  0.00     0.139 C 
ATOM     28  O   UNL     1       4.125  -3.914   3.327  1.00  0.00    -0.252 OA
ENDBRANCH  25  26
ENDBRANCH  11  25
ENDBRANCH   4   6
ENDBRANCH   3   4
ENDBRANCH   2   3
ENDBRANCH   1   2
BRANCH   1  29
ATOM     29  O   UNL     1      -2.693   0.438   1.960  1.00  0.00    -0.374 OA
BRANCH  29  30
ATOM     30  C   UNL     1      -2.623  -0.917   1.527  1.00  0.00     0.202 C 
BRANCH  30  31
ATOM     31  C   UNL     1      -3.677  -1.440   0.547  1.00  0.00     0.261 C 
BRANCH  31  32
ATOM     32  O   UNL     1      -3.598  -0.810  -0.745  1.00  0.00    -0.460 OA
BRANCH  32  33
ATOM     33  C   UNL     1      -4.731  -0.194  -1.145  1.00  0.00     0.338 C 
ATOM     34  O   UNL     1      -5.801  -0.138  -0.542  1.00  0.00    -0.246 OA
BRANCH  33  35
ATOM     35  C   UNL     1      -4.506   0.572  -2.376  1.00  0.00     0.060 A 
ATOM     36  C   UNL     1      -4.760   1.951  -2.355  1.00  0.00     0.016 A 
ATOM     37  C   UNL     1      -4.215  -0.083  -3.573  1.00  0.00     0.016 A 
ATOM     38  C   UNL     1      -4.782   2.672  -3.546  1.00  0.00     0.010 A 
ATOM     39  C   UNL     1      -4.256   0.639  -4.768  1.00  0.00     0.010 A 
ATOM     40  C   UNL     1      -4.584   2.006  -4.762  1.00  0.00    -0.014 A 
BRANCH  40  41
ATOM     41  C   UNL     1      -4.894   2.690  -6.038  1.00  0.00     0.031 A 
ATOM     42  C   UNL     1      -6.267   2.531  -6.630  1.00  0.00     0.074 A 
ATOM     43  C   UNL     1      -3.965   3.430  -6.664  1.00  0.00     0.049 A 
ATOM     44  N   UNL     1      -6.730   2.948  -7.781  1.00  0.00    -0.248 NA
ATOM     45  C   UNL     1      -7.251   1.803  -5.813  1.00  0.00     0.031 C 
ATOM     46  C   UNL     1      -2.618   3.692  -6.164  1.00  0.00     0.029 A 
ATOM     47  N   UNL     1      -4.014   4.080  -7.871  1.00  0.00    -0.354 N 
ATOM     48  C   UNL     1      -8.053   2.529  -7.829  1.00  0.00     0.074 A 
ATOM     49  C   UNL     1      -8.317   1.811  -6.600  1.00  0.00     0.031 C 
ATOM     50  C   UNL     1      -1.956   4.432  -7.070  1.00  0.00     0.029 A 
ATOM     51  C   UNL     1      -2.821   4.657  -8.228  1.00  0.00     0.049 A 
ATOM     52  H   UNL     1      -4.826   4.129  -8.426  1.00  0.00     0.167 HD
ATOM     53  C   UNL     1      -8.963   2.725  -8.811  1.00  0.00     0.037 A 
ATOM     54  C   UNL     1      -2.462   5.259  -9.377  1.00  0.00     0.037 A 
ATOM     55  C   UNL     1      -8.694   3.430 -10.036  1.00  0.00     0.049 A 
ATOM     56  C   UNL     1      -3.464   5.378 -10.497  1.00  0.00     0.074 A 
ATOM     57  C   UNL     1      -9.555   3.701 -11.084  1.00  0.00     0.029 A 
ATOM     58  N   UNL     1      -7.461   3.963 -10.380  1.00  0.00    -0.354 N 
ATOM     59  N   UNL     1      -4.718   4.998 -10.531  1.00  0.00    -0.248 NA
ATOM     60  C   UNL     1      -2.994   6.001 -11.743  1.00  0.00     0.031 C 
ATOM     61  C   UNL     1      -8.830   4.358 -12.085  1.00  0.00     0.029 A 
ATOM     62  C   UNL     1      -7.529   4.534 -11.640  1.00  0.00     0.049 A 
ATOM     63  H   UNL     1      -6.657   3.940  -9.813  1.00  0.00     0.167 HD
ATOM     64  C   UNL     1      -5.191   5.350 -11.788  1.00  0.00     0.074 A 
ATOM     65  C   UNL     1      -4.093   5.986 -12.485  1.00  0.00     0.031 C 
ATOM     66  C   UNL     1      -6.425   5.163 -12.318  1.00  0.00     0.037 A 
BRANCH  53  67
ATOM     67  C   UNL     1     -10.331   2.143  -8.614  1.00  0.00     0.064 A 
ATOM     68  C   UNL     1     -11.247   2.706  -7.715  1.00  0.00     0.173 A 
ATOM     69  C   UNL     1     -10.741   1.029  -9.361  1.00  0.00     0.173 A 
ATOM     70  F   UNL     1     -10.897   3.764  -6.968  1.00  0.00    -0.203 F 
ATOM     71  C   UNL     1     -12.520   2.163  -7.557  1.00  0.00     0.198 A 
ATOM     72  C   UNL     1     -12.021   0.502  -9.217  1.00  0.00     0.198 A 
ATOM     73  F   UNL     1      -9.901   0.455 -10.237  1.00  0.00    -0.203 F 
ATOM     74  F   UNL     1     -13.368   2.694  -6.665  1.00  0.00    -0.200 F 
ATOM     75  C   UNL     1     -12.908   1.066  -8.312  1.00  0.00     0.200 A 
ATOM     76  F   UNL     1     -12.398  -0.552  -9.954  1.00  0.00    -0.200 F 
ATOM     77  F   UNL     1     -14.134   0.547  -8.163  1.00  0.00    -0.200 F 
ENDBRANCH  53  67
BRANCH  54  78
ATOM     78  C   UNL     1      -1.075   5.763  -9.543  1.00  0.00     0.064 A 
ATOM     79  C   UNL     1      -0.809   7.137  -9.600  1.00  0.00     0.173 A 
ATOM     80  C   UNL     1       0.008   4.880  -9.664  1.00  0.00     0.173 A 
ATOM     81  F   UNL     1      -1.817   8.018  -9.522  1.00  0.00    -0.203 F 
ATOM     82  C   UNL     1       0.489   7.610  -9.781  1.00  0.00     0.198 A 
ATOM     83  C   UNL     1       1.309   5.355  -9.819  1.00  0.00     0.198 A 
ATOM     84  F   UNL     1      -0.197   3.556  -9.630  1.00  0.00    -0.203 F 
ATOM     85  F   UNL     1       0.712   8.928  -9.876  1.00  0.00    -0.200 F 
ATOM     86  C   UNL     1       1.547   6.719  -9.883  1.00  0.00     0.200 A 
ATOM     87  F   UNL     1       2.328   4.491  -9.916  1.00  0.00    -0.200 F 
ATOM     88  F   UNL     1       2.795   7.175 -10.058  1.00  0.00    -0.200 F 
ENDBRANCH  54  78
BRANCH  66  89
ATOM     89  C   UNL     1      -6.664   5.667 -13.710  1.00  0.00     0.064 A 
ATOM     90  C   UNL     1      -6.151   4.996 -14.829  1.00  0.00     0.173 A 
ATOM     91  C   UNL     1      -7.466   6.798 -13.930  1.00  0.00     0.173 A 
ATOM     92  F   UNL     1      -5.367   3.919 -14.670  1.00  0.00    -0.203 F 
ATOM     93  C   UNL     1      -6.422   5.447 -16.119  1.00  0.00     0.198 A 
ATOM     94  C   UNL     1      -7.755   7.230 -15.221  1.00  0.00     0.198 A 
ATOM     95  F   UNL     1      -7.985   7.470 -12.892  1.00  0.00    -0.203 F 
ATOM     96  F   UNL     1      -5.896   4.809 -17.174  1.00  0.00    -0.200 F 
ATOM     97  C   UNL     1      -7.230   6.557 -16.314  1.00  0.00     0.200 A 
ATOM     98  F   UNL     1      -8.546   8.296 -15.407  1.00  0.00    -0.200 F 
ATOM     99  F   UNL     1      -7.500   6.982 -17.556  1.00  0.00    -0.200 F 
ENDBRANCH  66  89
ENDBRANCH  40  41
ENDBRANCH  33  35
ENDBRANCH  32  33
ENDBRANCH  31  32
ENDBRANCH  30  31
ENDBRANCH  29  30
ENDBRANCH   1  29
TORSDOF 20
