REMARK SMILES COc1ccc(OC)c(/C=N/[NH+]=C2/NC(=O)[C@@H](CC(=O)OCCOCCOC(=O)c3ccc(-c4c5nc(c(-c6c(F)c(F)c(F)c(F)c6F)c6ccc([nH]6)c(-c6c(F)c(F)c(F)c(F)c6F)c6nc(c(-c7c(F)c(F)c(F)c(F)c7F)c7ccc4[nH]7)C=C6)C=C5)cc3)S2)c1
REMARK SMILES IDX 23 1 22 2 21 3 19 4 20 5 18 6 17 7 12 8 13 9 14 11 93 12
REMARK SMILES IDX 15 13 16 15 11 16 10 17 9 18 3 19 4 20 94 21 5 22 6 23 2 24
REMARK SMILES IDX 1 25 7 26 8 27 24 28 25 29 26 30 27 31 28 32 29 33 30 34
REMARK SMILES IDX 31 35 92 36 32 37 91 38 33 39 34 40 35 41 85 42 36 43 90 44
REMARK SMILES IDX 84 45 86 46 37 47 89 48 83 49 82 50 38 52 70 53 50 54 69 55
REMARK SMILES IDX 51 56 54 57 68 58 87 59 52 60 53 61 67 63 88 64 55 65 39 66
REMARK SMILES IDX 40 67 48 68 41 69 42 70 46 71 49 72 43 73 44 74 47 75 45 76
REMARK SMILES IDX 71 77 72 78 80 79 73 80 74 81 78 82 81 83 75 84 76 85 79 86
REMARK SMILES IDX 77 87 56 88 57 89 65 90 58 91 59 92 63 93 66 94 60 95 61 96
REMARK SMILES IDX 64 97 62 98
REMARK H PARENT 12 10 14 14 86 51 54 62
REMARK Flexibility Score: inf
ROOT
ATOM      1  C   UNL     1       8.528   3.341  -1.621  1.00  0.00     0.202 C 
ENDROOT
BRANCH   1   2
ATOM      2  C   UNL     1       9.576   2.229  -1.777  1.00  0.00     0.261 C 
BRANCH   2   3
ATOM      3  O   UNL     1       9.129   1.028  -2.450  1.00  0.00    -0.463 OA
BRANCH   3   4
ATOM      4  C   UNL     1       9.433  -0.125  -1.803  1.00  0.00     0.307 C 
ATOM      5  O   UNL     1       9.943  -0.171  -0.685  1.00  0.00    -0.252 OA
BRANCH   4   6
ATOM      6  C   UNL     1       9.122  -1.416  -2.525  1.00  0.00     0.150 C 
BRANCH   6   7
ATOM      7  C   UNL     1       8.516  -1.482  -3.912  1.00  0.00     0.184 C 
ATOM      8  N   UNL     1       5.548  -0.173  -6.009  1.00  0.00    -0.142 N 
ATOM      9  C   UNL     1       6.581  -0.527  -5.324  1.00  0.00     0.337 C 
ATOM     10  H   UNL     1       5.630   0.489  -6.734  1.00  0.00     0.343 HD
ATOM     11  N   UNL     1       7.800  -0.018  -5.633  1.00  0.00    -0.202 N 
ATOM     12  S   UNL     1       6.687  -1.546  -3.924  1.00  0.00    -0.020 SA
ATOM     13  C   UNL     1       8.885  -0.397  -4.894  1.00  0.00     0.322 C 
ATOM     14  H   UNL     1       7.902   0.616  -6.379  1.00  0.00     0.316 HD
ATOM     15  O   UNL     1      10.015   0.034  -5.074  1.00  0.00    -0.246 OA
BRANCH   8  16
ATOM     16  N   UNL     1       4.301  -0.748  -5.705  1.00  0.00    -0.093 NA
ATOM     17  C   UNL     1       3.675  -0.107  -4.772  1.00  0.00     0.170 C 
BRANCH  17  18
ATOM     18  C   UNL     1       2.266  -0.267  -4.418  1.00  0.00     0.042 A 
ATOM     19  C   UNL     1       0.655  -0.500  -2.631  1.00  0.00     0.119 A 
ATOM     20  C   UNL     1      -0.374  -0.301  -3.549  1.00  0.00     0.050 A 
ATOM     21  C   UNL     1       1.980  -0.500  -3.063  1.00  0.00     0.060 A 
ATOM     22  C   UNL     1      -0.081  -0.046  -4.892  1.00  0.00     0.051 A 
ATOM     23  C   UNL     1       1.243   0.010  -5.330  1.00  0.00     0.128 A 
BRANCH  19  24
ATOM     24  O   UNL     1       0.283  -0.756  -1.340  1.00  0.00    -0.497 OA
ATOM     25  C   UNL     1       0.969   0.040  -0.376  1.00  0.00     0.278 C 
ENDBRANCH  19  24
BRANCH  23  26
ATOM     26  O   UNL     1       1.407   0.322  -6.651  1.00  0.00    -0.496 OA
ATOM     27  C   UNL     1       2.276   1.426  -6.910  1.00  0.00     0.278 C 
ENDBRANCH  23  26
ENDBRANCH  17  18
ENDBRANCH   8  16
ENDBRANCH   6   7
ENDBRANCH   4   6
ENDBRANCH   3   4
ENDBRANCH   2   3
ENDBRANCH   1   2
BRANCH   1  28
ATOM     28  O   UNL     1       7.278   2.988  -1.037  1.00  0.00    -0.374 OA
BRANCH  28  29
ATOM     29  C   UNL     1       6.488   2.040  -1.739  1.00  0.00     0.202 C 
BRANCH  29  30
ATOM     30  C   UNL     1       6.029   2.441  -3.141  1.00  0.00     0.261 C 
BRANCH  30  31
ATOM     31  O   UNL     1       7.069   2.909  -4.000  1.00  0.00    -0.460 OA
BRANCH  31  32
ATOM     32  C   UNL     1       6.630   3.667  -5.028  1.00  0.00     0.338 C 
ATOM     33  O   UNL     1       5.475   3.863  -5.375  1.00  0.00    -0.246 OA
BRANCH  32  34
ATOM     34  C   UNL     1       7.794   4.267  -5.687  1.00  0.00     0.060 A 
ATOM     35  C   UNL     1       8.385   5.408  -5.134  1.00  0.00     0.016 A 
ATOM     36  C   UNL     1       8.243   3.737  -6.897  1.00  0.00     0.016 A 
ATOM     37  C   UNL     1       9.421   6.043  -5.819  1.00  0.00     0.010 A 
ATOM     38  C   UNL     1       9.300   4.357  -7.563  1.00  0.00     0.010 A 
ATOM     39  C   UNL     1       9.871   5.533  -7.046  1.00  0.00    -0.014 A 
BRANCH  39  40
ATOM     40  C   UNL     1      10.861   6.293  -7.847  1.00  0.00     0.031 A 
ATOM     41  C   UNL     1      10.393   7.088  -9.034  1.00  0.00     0.074 A 
ATOM     42  C   UNL     1      12.162   6.282  -7.509  1.00  0.00     0.049 A 
ATOM     43  N   UNL     1      11.087   7.818  -9.870  1.00  0.00    -0.248 NA
ATOM     44  C   UNL     1       8.951   7.051  -9.323  1.00  0.00     0.031 C 
ATOM     45  C   UNL     1      12.733   5.551  -6.379  1.00  0.00     0.029 A 
ATOM     46  N   UNL     1      13.240   6.901  -8.091  1.00  0.00    -0.354 N 
ATOM     47  C   UNL     1      10.170   8.324 -10.781  1.00  0.00     0.074 A 
ATOM     48  C   UNL     1       8.874   7.790 -10.420  1.00  0.00     0.031 C 
ATOM     49  C   UNL     1      14.059   5.766  -6.347  1.00  0.00     0.029 A 
ATOM     50  C   UNL     1      14.432   6.626  -7.468  1.00  0.00     0.049 A 
ATOM     51  H   UNL     1      13.165   7.486  -8.879  1.00  0.00     0.167 HD
ATOM     52  C   UNL     1      10.386   9.169 -11.816  1.00  0.00     0.037 A 
ATOM     53  C   UNL     1      15.683   7.017  -7.779  1.00  0.00     0.037 A 
ATOM     54  C   UNL     1      11.673   9.706 -12.169  1.00  0.00     0.049 A 
ATOM     55  C   UNL     1      15.903   7.921  -8.962  1.00  0.00     0.074 A 
ATOM     56  C   UNL     1      11.989  10.604 -13.174  1.00  0.00     0.029 A 
ATOM     57  N   UNL     1      12.862   9.387 -11.530  1.00  0.00    -0.354 N 
ATOM     58  N   UNL     1      15.023   8.434  -9.786  1.00  0.00    -0.248 NA
ATOM     59  C   UNL     1      17.293   8.302  -9.257  1.00  0.00     0.031 C 
ATOM     60  C   UNL     1      13.375  10.794 -13.170  1.00  0.00     0.029 A 
ATOM     61  C   UNL     1      13.917  10.048 -12.136  1.00  0.00     0.049 A 
ATOM     62  H   UNL     1      12.943   8.780 -10.758  1.00  0.00     0.167 HD
ATOM     63  C   UNL     1      15.745   9.211 -10.682  1.00  0.00     0.074 A 
ATOM     64  C   UNL     1      17.136   9.114 -10.293  1.00  0.00     0.031 C 
ATOM     65  C   UNL     1      15.296   9.938 -11.735  1.00  0.00     0.037 A 
BRANCH  52  66
ATOM     66  C   UNL     1       9.203   9.558 -12.650  1.00  0.00     0.064 A 
ATOM     67  C   UNL     1       8.225  10.442 -12.170  1.00  0.00     0.173 A 
ATOM     68  C   UNL     1       9.062   9.068 -13.957  1.00  0.00     0.173 A 
ATOM     69  F   UNL     1       8.307  10.927 -10.922  1.00  0.00    -0.203 F 
ATOM     70  C   UNL     1       7.137  10.803 -12.961  1.00  0.00     0.198 A 
ATOM     71  C   UNL     1       7.986   9.450 -14.753  1.00  0.00     0.198 A 
ATOM     72  F   UNL     1       9.972   8.222 -14.463  1.00  0.00    -0.203 F 
ATOM     73  F   UNL     1       6.193  11.617 -12.468  1.00  0.00    -0.200 F 
ATOM     74  C   UNL     1       7.021  10.312 -14.253  1.00  0.00     0.200 A 
ATOM     75  F   UNL     1       7.880   8.982 -16.004  1.00  0.00    -0.200 F 
ATOM     76  F   UNL     1       5.977  10.665 -15.014  1.00  0.00    -0.200 F 
ENDBRANCH  52  66
BRANCH  53  77
ATOM     77  C   UNL     1      16.827   6.553  -6.952  1.00  0.00     0.064 A 
ATOM     78  C   UNL     1      17.524   7.440  -6.120  1.00  0.00     0.173 A 
ATOM     79  C   UNL     1      17.248   5.216  -6.981  1.00  0.00     0.173 A 
ATOM     80  F   UNL     1      17.173   8.734  -6.079  1.00  0.00    -0.203 F 
ATOM     81  C   UNL     1      18.607   7.008  -5.357  1.00  0.00     0.198 A 
ATOM     82  C   UNL     1      18.315   4.780  -6.199  1.00  0.00     0.198 A 
ATOM     83  F   UNL     1      16.615   4.329  -7.763  1.00  0.00    -0.203 F 
ATOM     84  F   UNL     1      19.280   7.884  -4.598  1.00  0.00    -0.200 F 
ATOM     85  C   UNL     1      18.997   5.678  -5.392  1.00  0.00     0.200 A 
ATOM     86  F   UNL     1      18.683   3.492  -6.228  1.00  0.00    -0.200 F 
ATOM     87  F   UNL     1      20.036   5.263  -4.654  1.00  0.00    -0.200 F 
ENDBRANCH  53  77
BRANCH  65  88
ATOM     88  C   UNL     1      16.315  10.699 -12.530  1.00  0.00     0.064 A 
ATOM     89  C   UNL     1      17.186  10.047 -13.415  1.00  0.00     0.173 A 
ATOM     90  C   UNL     1      16.387  12.097 -12.442  1.00  0.00     0.173 A 
ATOM     91  F   UNL     1      17.164   8.710 -13.521  1.00  0.00    -0.203 F 
ATOM     92  C   UNL     1      18.106  10.768 -14.171  1.00  0.00     0.198 A 
ATOM     93  C   UNL     1      17.291  12.816 -13.218  1.00  0.00     0.198 A 
ATOM     94  F   UNL     1      15.571  12.766 -11.614  1.00  0.00    -0.203 F 
ATOM     95  F   UNL     1      18.955  10.123 -14.983  1.00  0.00    -0.200 F 
ATOM     96  C   UNL     1      18.153  12.152 -14.078  1.00  0.00     0.200 A 
ATOM     97  F   UNL     1      17.328  14.153 -13.135  1.00  0.00    -0.200 F 
ATOM     98  F   UNL     1      19.034  12.844 -14.812  1.00  0.00    -0.200 F 
ENDBRANCH  65  88
ENDBRANCH  39  40
ENDBRANCH  32  34
ENDBRANCH  31  32
ENDBRANCH  30  31
ENDBRANCH  29  30
ENDBRANCH  28  29
ENDBRANCH   1  28
TORSDOF 19
