REMARK SMILES CC(C)CN(C)c1cc2c(cc1Cl)C=C(C(=O)OCCOCCOC(=O)c1ccc(-c3c4nc(c(-c5c(F)c(F)c(F)c(F)c5F)c5ccc([nH]5)c(-c5c(F)c(F)c(F)c(F)c5F)c5nc(c(-c6c(F)c(F)c(F)c(F)c6F)c6ccc3[nH]6)C=C5)C=C4)cc1)[C@H](C(F)(F)F)O2
REMARK SMILES IDX 20 1 19 2 18 3 16 4 17 5 15 6 7 7 8 8 12 9 9 10 11 11 13 12
REMARK SMILES IDX 10 13 95 14 14 15 90 16 5 17 6 18 4 19 2 20 1 21 3 22 91 23
REMARK SMILES IDX 92 24 93 25 94 26 21 27 22 28 23 29 24 30 25 31 26 32 27 33
REMARK SMILES IDX 28 34 89 35 29 36 88 37 30 38 31 39 32 40 82 41 33 42 87 43
REMARK SMILES IDX 81 44 83 45 34 46 86 47 80 48 79 49 35 51 67 52 47 53 66 54
REMARK SMILES IDX 48 55 51 56 65 57 84 58 49 59 50 60 64 62 85 63 52 64 36 65
REMARK SMILES IDX 37 66 45 67 38 68 39 69 43 70 46 71 40 72 41 73 44 74 42 75
REMARK SMILES IDX 68 76 69 77 77 78 70 79 71 80 75 81 78 82 72 83 73 84 76 85
REMARK SMILES IDX 74 86 53 87 54 88 62 89 55 90 56 91 60 92 63 93 57 94 58 95
REMARK SMILES IDX 61 96 59 97
REMARK H PARENT 83 50 51 61
REMARK Flexibility Score: inf
ROOT
ATOM      1  C   UNL     1      -0.220   2.921  -9.842  1.00  0.00     0.202 C 
ENDROOT
BRANCH   1   2
ATOM      2  C   UNL     1      -0.704   1.472  -9.760  1.00  0.00     0.261 C 
BRANCH   2   3
ATOM      3  O   UNL     1      -1.302   1.177  -8.488  1.00  0.00    -0.460 OA
BRANCH   3   4
ATOM      4  C   UNL     1      -0.608   0.290  -7.747  1.00  0.00     0.338 C 
ATOM      5  O   UNL     1       0.342  -0.378  -8.131  1.00  0.00    -0.246 OA
BRANCH   4   6
ATOM      6  C   UNL     1      -1.046   0.296  -6.340  1.00  0.00     0.087 C 
ATOM      7  C   UNL     1      -0.800  -1.253  -1.565  1.00  0.00     0.059 A 
ATOM      8  C   UNL     1      -1.847  -0.792  -2.394  1.00  0.00     0.074 A 
ATOM      9  C   UNL     1       0.503  -1.219  -2.109  1.00  0.00     0.065 A 
ATOM     10  C   UNL     1      -1.602  -0.321  -3.691  1.00  0.00     0.130 A 
ATOM     11  C   UNL     1       0.760  -0.616  -3.339  1.00  0.00     0.034 A 
ATOM     12  Cl  UNL     1       1.847  -2.054  -1.405  1.00  0.00    -0.082 Cl
ATOM     13  C   UNL     1      -0.294  -0.187  -4.136  1.00  0.00     0.019 A 
ATOM     14  O   UNL     1      -2.684  -0.043  -4.477  1.00  0.00    -0.475 OA
ATOM     15  C   UNL     1      -0.015   0.224  -5.491  1.00  0.00     0.027 C 
ATOM     16  C   UNL     1      -2.487   0.179  -5.915  1.00  0.00     0.316 C 
BRANCH   7  17
ATOM     17  N   UNL     1      -1.062  -1.757  -0.283  1.00  0.00    -0.373 N 
ATOM     18  C   UNL     1      -2.110  -2.772  -0.197  1.00  0.00     0.143 C 
BRANCH  17  19
ATOM     19  C   UNL     1      -0.930  -0.844   0.877  1.00  0.00     0.119 C 
BRANCH  19  20
ATOM     20  C   UNL     1       0.532  -0.575   1.289  1.00  0.00     0.002 C 
ATOM     21  C   UNL     1       1.081   0.709   0.656  1.00  0.00     0.009 C 
ATOM     22  C   UNL     1       0.704  -0.486   2.808  1.00  0.00     0.009 C 
ENDBRANCH  19  20
ENDBRANCH  17  19
ENDBRANCH   7  17
BRANCH  16  23
ATOM     23  C   UNL     1      -3.356   1.391  -6.303  1.00  0.00     0.430 C 
ATOM     24  F   UNL     1      -2.748   2.566  -6.018  1.00  0.00    -0.167 F 
ATOM     25  F   UNL     1      -3.675   1.393  -7.617  1.00  0.00    -0.167 F 
ATOM     26  F   UNL     1      -4.538   1.385  -5.635  1.00  0.00    -0.167 F 
ENDBRANCH  16  23
ENDBRANCH   4   6
ENDBRANCH   3   4
ENDBRANCH   2   3
ENDBRANCH   1   2
BRANCH   1  27
ATOM     27  O   UNL     1       0.663   3.377  -8.822  1.00  0.00    -0.374 OA
BRANCH  27  28
ATOM     28  C   UNL     1       0.123   3.667  -7.531  1.00  0.00     0.202 C 
BRANCH  28  29
ATOM     29  C   UNL     1      -0.840   4.854  -7.395  1.00  0.00     0.261 C 
BRANCH  29  30
ATOM     30  O   UNL     1      -2.095   4.619  -8.057  1.00  0.00    -0.460 OA
BRANCH  30  31
ATOM     31  C   UNL     1      -2.358   5.428  -9.110  1.00  0.00     0.338 C 
ATOM     32  O   UNL     1      -1.677   6.356  -9.522  1.00  0.00    -0.246 OA
BRANCH  31  33
ATOM     33  C   UNL     1      -3.507   4.889  -9.860  1.00  0.00     0.060 A 
ATOM     34  C   UNL     1      -4.741   4.677  -9.245  1.00  0.00     0.016 A 
ATOM     35  C   UNL     1      -3.338   4.630 -11.227  1.00  0.00     0.016 A 
ATOM     36  C   UNL     1      -5.819   4.232 -10.015  1.00  0.00     0.010 A 
ATOM     37  C   UNL     1      -4.414   4.182 -11.992  1.00  0.00     0.010 A 
ATOM     38  C   UNL     1      -5.670   4.001 -11.396  1.00  0.00    -0.014 A 
BRANCH  38  39
ATOM     39  C   UNL     1      -6.853   3.695 -12.239  1.00  0.00     0.031 A 
ATOM     40  C   UNL     1      -7.081   2.327 -12.805  1.00  0.00     0.074 A 
ATOM     41  C   UNL     1      -7.715   4.691 -12.517  1.00  0.00     0.049 A 
ATOM     42  N   UNL     1      -8.086   1.890 -13.522  1.00  0.00    -0.248 NA
ATOM     43  C   UNL     1      -6.045   1.318 -12.543  1.00  0.00     0.031 C 
ATOM     44  C   UNL     1      -7.572   6.074 -12.060  1.00  0.00     0.029 A 
ATOM     45  N   UNL     1      -8.880   4.697 -13.243  1.00  0.00    -0.354 N 
ATOM     46  C   UNL     1      -7.818   0.554 -13.780  1.00  0.00     0.074 A 
ATOM     47  C   UNL     1      -6.527   0.264 -13.190  1.00  0.00     0.031 C 
ATOM     48  C   UNL     1      -8.624   6.787 -12.488  1.00  0.00     0.029 A 
ATOM     49  C   UNL     1      -9.499   5.923 -13.276  1.00  0.00     0.049 A 
ATOM     50  H   UNL     1      -9.237   3.900 -13.696  1.00  0.00     0.167 HD
ATOM     51  C   UNL     1      -8.592  -0.349 -14.429  1.00  0.00     0.037 A 
ATOM     52  C   UNL     1     -10.644   6.308 -13.872  1.00  0.00     0.037 A 
ATOM     53  C   UNL     1      -9.870  -0.049 -15.026  1.00  0.00     0.049 A 
ATOM     54  C   UNL     1     -11.459   5.295 -14.627  1.00  0.00     0.074 A 
ATOM     55  C   UNL     1     -10.744  -0.910 -15.668  1.00  0.00     0.029 A 
ATOM     56  N   UNL     1     -10.453   1.210 -15.068  1.00  0.00    -0.354 N 
ATOM     57  N   UNL     1     -11.238   4.014 -14.792  1.00  0.00    -0.248 NA
ATOM     58  C   UNL     1     -12.687   5.779 -15.273  1.00  0.00     0.031 C 
ATOM     59  C   UNL     1     -11.822  -0.164 -16.151  1.00  0.00     0.029 A 
ATOM     60  C   UNL     1     -11.656   1.153 -15.755  1.00  0.00     0.049 A 
ATOM     61  H   UNL     1     -10.068   2.024 -14.669  1.00  0.00     0.167 HD
ATOM     62  C   UNL     1     -12.305   3.535 -15.541  1.00  0.00     0.074 A 
ATOM     63  C   UNL     1     -13.185   4.660 -15.779  1.00  0.00     0.031 C 
ATOM     64  C   UNL     1     -12.529   2.276 -15.992  1.00  0.00     0.037 A 
BRANCH  51  65
ATOM     65  C   UNL     1      -8.094  -1.763 -14.524  1.00  0.00     0.064 A 
ATOM     66  C   UNL     1      -8.047  -2.596 -13.396  1.00  0.00     0.173 A 
ATOM     67  C   UNL     1      -7.751  -2.321 -15.765  1.00  0.00     0.173 A 
ATOM     68  F   UNL     1      -8.361  -2.112 -12.184  1.00  0.00    -0.203 F 
ATOM     69  C   UNL     1      -7.660  -3.930 -13.504  1.00  0.00     0.198 A 
ATOM     70  C   UNL     1      -7.394  -3.663 -15.874  1.00  0.00     0.198 A 
ATOM     71  F   UNL     1      -7.789  -1.573 -16.877  1.00  0.00    -0.203 F 
ATOM     72  F   UNL     1      -7.593  -4.697 -12.407  1.00  0.00    -0.200 F 
ATOM     73  C   UNL     1      -7.345  -4.465 -14.744  1.00  0.00     0.200 A 
ATOM     74  F   UNL     1      -7.107  -4.184 -17.076  1.00  0.00    -0.200 F 
ATOM     75  F   UNL     1      -6.994  -5.754 -14.849  1.00  0.00    -0.200 F 
ENDBRANCH  51  65
BRANCH  52  76
ATOM     76  C   UNL     1     -11.100   7.716 -13.740  1.00  0.00     0.064 A 
ATOM     77  C   UNL     1     -12.235   8.036 -12.984  1.00  0.00     0.173 A 
ATOM     78  C   UNL     1     -10.398   8.771 -14.344  1.00  0.00     0.173 A 
ATOM     79  F   UNL     1     -12.950   7.061 -12.404  1.00  0.00    -0.203 F 
ATOM     80  C   UNL     1     -12.658   9.356 -12.844  1.00  0.00     0.198 A 
ATOM     81  C   UNL     1     -10.803  10.093 -14.177  1.00  0.00     0.198 A 
ATOM     82  F   UNL     1      -9.303   8.517 -15.075  1.00  0.00    -0.203 F 
ATOM     83  F   UNL     1     -13.768   9.631 -12.146  1.00  0.00    -0.200 F 
ATOM     84  C   UNL     1     -11.936  10.384 -13.433  1.00  0.00     0.200 A 
ATOM     85  F   UNL     1     -10.094  11.084 -14.733  1.00  0.00    -0.200 F 
ATOM     86  F   UNL     1     -12.335  11.655 -13.286  1.00  0.00    -0.200 F 
ENDBRANCH  52  76
BRANCH  64  87
ATOM     87  C   UNL     1     -13.783   2.032 -16.784  1.00  0.00     0.064 A 
ATOM     88  C   UNL     1     -13.938   2.533 -18.085  1.00  0.00     0.173 A 
ATOM     89  C   UNL     1     -14.811   1.230 -16.264  1.00  0.00     0.173 A 
ATOM     90  F   UNL     1     -12.992   3.316 -18.625  1.00  0.00    -0.203 F 
ATOM     91  C   UNL     1     -15.083   2.253 -18.829  1.00  0.00     0.198 A 
ATOM     92  C   UNL     1     -15.938   0.925 -17.023  1.00  0.00     0.198 A 
ATOM     93  F   UNL     1     -14.711   0.719 -15.027  1.00  0.00    -0.203 F 
ATOM     94  F   UNL     1     -15.226   2.776 -20.055  1.00  0.00    -0.200 F 
ATOM     95  C   UNL     1     -16.075   1.441 -18.302  1.00  0.00     0.200 A 
ATOM     96  F   UNL     1     -16.887   0.125 -16.518  1.00  0.00    -0.200 F 
ATOM     97  F   UNL     1     -17.166   1.158 -19.026  1.00  0.00    -0.200 F 
ENDBRANCH  64  87
ENDBRANCH  38  39
ENDBRANCH  31  33
ENDBRANCH  30  31
ENDBRANCH  29  30
ENDBRANCH  28  29
ENDBRANCH  27  28
ENDBRANCH   1  27
TORSDOF 18
