REMARK SMILES Cc1cc(C)nc(N2CCCC[C@H]2C(=O)OCCOCCOC(=O)c2ccc(-c3c4nc(c(-c5c(F)c(F)c(F)c(F)c5F)c5ccc([nH]5)c(-c5c(F)c(F)c(F)c(F)c5F)c5nc(c(-c6c(F)c(F)c(F)c(F)c6F)c6ccc3[nH]6)C=C5)C=C4)cc2)n1
REMARK SMILES IDX 20 1 19 2 18 3 17 4 16 5 14 6 15 7 13 8 8 9 9 10 10 11 12 12
REMARK SMILES IDX 11 13 7 14 1 15 2 16 3 17 88 18 4 19 5 20 6 21 21 22 22 23
REMARK SMILES IDX 23 24 24 25 25 26 26 27 87 28 27 29 86 30 28 31 29 32 30 33
REMARK SMILES IDX 80 34 31 35 85 36 79 37 81 38 32 39 84 40 78 41 77 42 33 44
REMARK SMILES IDX 65 45 45 46 64 47 46 48 49 49 63 50 82 51 47 52 48 53 62 55
REMARK SMILES IDX 83 56 50 57 34 58 35 59 43 60 36 61 37 62 41 63 44 64 38 65
REMARK SMILES IDX 39 66 42 67 40 68 66 69 67 70 75 71 68 72 69 73 73 74 76 75
REMARK SMILES IDX 70 76 71 77 74 78 72 79 51 80 52 81 60 82 53 83 54 84 58 85
REMARK SMILES IDX 61 86 55 87 56 88 59 89 57 90
REMARK H PARENT 81 43 49 54
REMARK Flexibility Score: inf
ROOT
ATOM      1  C   UNL     1       3.817  -4.494   2.919  1.00  0.00     0.202 C 
ENDROOT
BRANCH   1   2
ATOM      2  O   UNL     1       4.862  -4.921   2.045  1.00  0.00    -0.374 OA
BRANCH   2   3
ATOM      3  C   UNL     1       5.332  -4.010   1.053  1.00  0.00     0.202 C 
BRANCH   3   4
ATOM      4  C   UNL     1       4.400  -3.716  -0.124  1.00  0.00     0.261 C 
BRANCH   4   5
ATOM      5  O   UNL     1       3.129  -3.244   0.332  1.00  0.00    -0.462 OA
BRANCH   5   6
ATOM      6  C   UNL     1       2.052  -3.980  -0.072  1.00  0.00     0.328 C 
ATOM      7  O   UNL     1       2.102  -4.875  -0.909  1.00  0.00    -0.250 OA
BRANCH   6   8
ATOM      8  C   UNL     1       0.791  -3.587   0.719  1.00  0.00     0.195 C 
ATOM      9  N   UNL     1      -0.237  -2.998  -0.129  1.00  0.00    -0.327 N 
ATOM     10  C   UNL     1      -0.829  -3.819  -1.168  1.00  0.00     0.120 C 
ATOM     11  C   UNL     1      -1.371  -5.124  -0.572  1.00  0.00     0.022 C 
ATOM     12  C   UNL     1       0.161  -4.793   1.432  1.00  0.00     0.037 C 
ATOM     13  C   UNL     1      -0.457  -5.794   0.457  1.00  0.00     0.005 C 
BRANCH   9  14
ATOM     14  C   UNL     1      -0.188  -1.636  -0.297  1.00  0.00     0.226 A 
ATOM     15  C   UNL     1       2.358   0.993  -0.086  1.00  0.00     0.067 C 
ATOM     16  C   UNL     1       1.018   0.330  -0.190  1.00  0.00     0.043 A 
ATOM     17  C   UNL     1      -0.137   1.077  -0.238  1.00  0.00     0.047 A 
ATOM     18  N   UNL     1       0.999  -1.016  -0.190  1.00  0.00    -0.218 NA
ATOM     19  C   UNL     1      -1.316   0.368  -0.330  1.00  0.00     0.043 A 
ATOM     20  C   UNL     1      -2.632   1.084  -0.285  1.00  0.00     0.067 C 
ATOM     21  N   UNL     1      -1.350  -0.978  -0.401  1.00  0.00    -0.218 NA
ENDBRANCH   9  14
ENDBRANCH   6   8
ENDBRANCH   5   6
ENDBRANCH   4   5
ENDBRANCH   3   4
ENDBRANCH   2   3
ENDBRANCH   1   2
BRANCH   1  22
ATOM     22  C   UNL     1       4.133  -3.391   3.936  1.00  0.00     0.261 C 
BRANCH  22  23
ATOM     23  O   UNL     1       4.435  -2.129   3.313  1.00  0.00    -0.460 OA
BRANCH  23  24
ATOM     24  C   UNL     1       5.684  -1.669   3.548  1.00  0.00     0.338 C 
ATOM     25  O   UNL     1       6.543  -2.171   4.263  1.00  0.00    -0.246 OA
BRANCH  24  26
ATOM     26  C   UNL     1       5.978  -0.521   2.679  1.00  0.00     0.060 A 
ATOM     27  C   UNL     1       7.053  -0.639   1.788  1.00  0.00     0.016 A 
ATOM     28  C   UNL     1       5.302   0.691   2.825  1.00  0.00     0.016 A 
ATOM     29  C   UNL     1       7.488   0.471   1.071  1.00  0.00     0.010 A 
ATOM     30  C   UNL     1       5.750   1.810   2.116  1.00  0.00     0.010 A 
ATOM     31  C   UNL     1       6.869   1.711   1.268  1.00  0.00    -0.014 A 
BRANCH  31  32
ATOM     32  C   UNL     1       7.501   2.929   0.712  1.00  0.00     0.031 A 
ATOM     33  C   UNL     1       8.407   3.745   1.591  1.00  0.00     0.074 A 
ATOM     34  C   UNL     1       7.305   3.277  -0.571  1.00  0.00     0.049 A 
ATOM     35  N   UNL     1       9.062   4.844   1.319  1.00  0.00    -0.248 NA
ATOM     36  C   UNL     1       8.600   3.252   2.964  1.00  0.00     0.031 C 
ATOM     37  C   UNL     1       6.489   2.536  -1.530  1.00  0.00     0.029 A 
ATOM     38  N   UNL     1       7.783   4.346  -1.285  1.00  0.00    -0.354 N 
ATOM     39  C   UNL     1       9.737   5.178   2.486  1.00  0.00     0.074 A 
ATOM     40  C   UNL     1       9.394   4.181   3.476  1.00  0.00     0.031 C 
ATOM     41  C   UNL     1       6.522   3.175  -2.712  1.00  0.00     0.029 A 
ATOM     42  C   UNL     1       7.336   4.383  -2.581  1.00  0.00     0.049 A 
ATOM     43  H   UNL     1       8.389   5.022  -0.904  1.00  0.00     0.167 HD
ATOM     44  C   UNL     1      10.573   6.221   2.707  1.00  0.00     0.037 A 
ATOM     45  C   UNL     1       7.552   5.297  -3.546  1.00  0.00     0.037 A 
ATOM     46  C   UNL     1      10.917   7.207   1.717  1.00  0.00     0.049 A 
ATOM     47  C   UNL     1       8.428   6.487  -3.252  1.00  0.00     0.074 A 
ATOM     48  C   UNL     1      11.780   8.283   1.832  1.00  0.00     0.029 A 
ATOM     49  N   UNL     1      10.403   7.241   0.429  1.00  0.00    -0.354 N 
ATOM     50  N   UNL     1       9.085   6.782  -2.157  1.00  0.00    -0.248 NA
ATOM     51  C   UNL     1       8.590   7.472  -4.332  1.00  0.00     0.031 C 
ATOM     52  C   UNL     1      11.748   8.997   0.629  1.00  0.00     0.029 A 
ATOM     53  C   UNL     1      10.905   8.338  -0.252  1.00  0.00     0.049 A 
ATOM     54  H   UNL     1       9.774   6.582   0.054  1.00  0.00     0.167 HD
ATOM     55  C   UNL     1       9.759   7.967  -2.422  1.00  0.00     0.074 A 
ATOM     56  C   UNL     1       9.437   8.333  -3.786  1.00  0.00     0.031 C 
ATOM     57  C   UNL     1      10.574   8.686  -1.611  1.00  0.00     0.037 A 
BRANCH  44  58
ATOM     58  C   UNL     1      11.146   6.364   4.087  1.00  0.00     0.064 A 
ATOM     59  C   UNL     1      12.130   5.492   4.574  1.00  0.00     0.173 A 
ATOM     60  C   UNL     1      10.713   7.401   4.927  1.00  0.00     0.173 A 
ATOM     61  F   UNL     1      12.566   4.475   3.816  1.00  0.00    -0.203 F 
ATOM     62  C   UNL     1      12.638   5.635   5.864  1.00  0.00     0.198 A 
ATOM     63  C   UNL     1      11.242   7.557   6.205  1.00  0.00     0.198 A 
ATOM     64  F   UNL     1       9.775   8.264   4.507  1.00  0.00    -0.203 F 
ATOM     65  F   UNL     1      13.541   4.760   6.327  1.00  0.00    -0.200 F 
ATOM     66  C   UNL     1      12.197   6.670   6.675  1.00  0.00     0.200 A 
ATOM     67  F   UNL     1      10.822   8.563   6.984  1.00  0.00    -0.200 F 
ATOM     68  F   UNL     1      12.688   6.806   7.915  1.00  0.00    -0.200 F 
ENDBRANCH  44  58
BRANCH  45  69
ATOM     69  C   UNL     1       6.928   5.122  -4.882  1.00  0.00     0.064 A 
ATOM     70  C   UNL     1       7.705   4.817  -6.007  1.00  0.00     0.173 A 
ATOM     71  C   UNL     1       5.543   5.258  -5.061  1.00  0.00     0.173 A 
ATOM     72  F   UNL     1       9.037   4.703  -5.889  1.00  0.00    -0.203 F 
ATOM     73  C   UNL     1       7.123   4.665  -7.263  1.00  0.00     0.198 A 
ATOM     74  C   UNL     1       4.959   5.081  -6.312  1.00  0.00     0.198 A 
ATOM     75  F   UNL     1       4.757   5.553  -4.015  1.00  0.00    -0.203 F 
ATOM     76  F   UNL     1       7.893   4.409  -8.329  1.00  0.00    -0.200 F 
ATOM     77  C   UNL     1       5.750   4.790  -7.414  1.00  0.00     0.200 A 
ATOM     78  F   UNL     1       3.631   5.194  -6.451  1.00  0.00    -0.200 F 
ATOM     79  F   UNL     1       5.189   4.637  -8.621  1.00  0.00    -0.200 F 
ENDBRANCH  45  69
BRANCH  57  80
ATOM     80  C   UNL     1      11.199   9.924  -2.185  1.00  0.00     0.064 A 
ATOM     81  C   UNL     1      10.450  11.088  -2.410  1.00  0.00     0.173 A 
ATOM     82  C   UNL     1      12.572   9.959  -2.472  1.00  0.00     0.173 A 
ATOM     83  F   UNL     1       9.131  11.100  -2.166  1.00  0.00    -0.203 F 
ATOM     84  C   UNL     1      11.050  12.235  -2.924  1.00  0.00     0.198 A 
ATOM     85  C   UNL     1      13.173  11.116  -2.959  1.00  0.00     0.198 A 
ATOM     86  F   UNL     1      13.333   8.873  -2.267  1.00  0.00    -0.203 F 
ATOM     87  F   UNL     1      10.307  13.323  -3.172  1.00  0.00    -0.200 F 
ATOM     88  C   UNL     1      12.411  12.251  -3.191  1.00  0.00     0.200 A 
ATOM     89  F   UNL     1      14.491  11.132  -3.204  1.00  0.00    -0.200 F 
ATOM     90  F   UNL     1      12.987  13.358  -3.678  1.00  0.00    -0.200 F 
ENDBRANCH  57  80
ENDBRANCH  31  32
ENDBRANCH  24  26
ENDBRANCH  23  24
ENDBRANCH  22  23
ENDBRANCH   1  22
TORSDOF 15
