REMARK SMILES CCN1C(=O)C[C@@H](C(=O)OCCOCCOC(=O)c2ccc(-c3c4nc(c(-c5c(F)c(F)c(F)c(F)c5F)c5ccc([nH]5)c(-c5c(F)c(F)c(F)c(F)c5F)c5nc(c(-c6c(F)c(F)c(F)c(F)c6F)c6ccc3[nH]6)C=C5)C=C4)cc2)[C@H]1c1ccccc1C1CC1
REMARK SMILES IDX 13 1 12 2 11 3 10 4 8 5 9 6 7 7 3 8 4 9 82 10 5 11 6 12 2 13
REMARK SMILES IDX 1 14 83 15 84 16 88 17 85 18 87 19 86 20 89 21 90 22 91 23
REMARK SMILES IDX 14 24 15 25 16 26 17 27 18 28 19 29 20 30 81 31 21 32 80 33
REMARK SMILES IDX 22 34 23 35 24 36 74 37 25 38 79 39 73 40 75 41 26 42 78 43
REMARK SMILES IDX 72 44 71 45 27 47 59 48 39 49 58 50 40 51 43 52 57 53 76 54
REMARK SMILES IDX 41 55 42 56 56 58 77 59 44 60 28 61 29 62 37 63 30 64 31 65
REMARK SMILES IDX 35 66 38 67 32 68 33 69 36 70 34 71 60 72 61 73 69 74 62 75
REMARK SMILES IDX 63 76 67 77 70 78 64 79 65 80 68 81 66 82 45 83 46 84 54 85
REMARK SMILES IDX 47 86 48 87 52 88 55 89 49 90 50 91 53 92 51 93
REMARK H PARENT 75 46 43 57
REMARK Flexibility Score: inf
ROOT
ATOM      1  O   UNL     1      -1.819   4.346  -5.277  1.00  0.00    -0.374 OA
ENDROOT
BRANCH   1   2
ATOM      2  C   UNL     1      -2.754   4.994  -4.420  1.00  0.00     0.202 C 
BRANCH   2   3
ATOM      3  C   UNL     1      -2.816   4.523  -2.967  1.00  0.00     0.261 C 
BRANCH   3   4
ATOM      4  O   UNL     1      -1.598   4.789  -2.256  1.00  0.00    -0.463 OA
BRANCH   4   5
ATOM      5  C   UNL     1      -0.782   3.707  -2.120  1.00  0.00     0.312 C 
ATOM      6  O   UNL     1      -1.009   2.601  -2.592  1.00  0.00    -0.252 OA
BRANCH   5   7
ATOM      7  C   UNL     1       0.457   4.060  -1.329  1.00  0.00     0.135 C 
ATOM      8  N   UNL     1       0.836   2.065  -0.189  1.00  0.00    -0.335 N 
ATOM      9  C   UNL     1       1.653   2.006  -1.324  1.00  0.00     0.224 C 
ATOM     10  C   UNL     1       0.461   3.446   0.070  1.00  0.00     0.130 C 
ATOM     11  O   UNL     1       2.321   1.069  -1.727  1.00  0.00    -0.275 OA
ATOM     12  C   UNL     1       1.653   3.371  -1.984  1.00  0.00     0.118 C 
BRANCH   8  13
ATOM     13  C   UNL     1       0.666   1.002   0.796  1.00  0.00     0.117 C 
ATOM     14  C   UNL     1       1.056  -0.395   0.340  1.00  0.00     0.027 C 
ENDBRANCH   8  13
BRANCH  10  15
ATOM     15  C   UNL     1      -0.761   3.756   0.918  1.00  0.00    -0.021 A 
ATOM     16  C   UNL     1      -1.992   3.165   0.527  1.00  0.00     0.006 A 
ATOM     17  C   UNL     1      -0.761   4.701   1.984  1.00  0.00    -0.040 A 
ATOM     18  C   UNL     1      -3.216   3.580   1.042  1.00  0.00     0.000 A 
ATOM     19  C   UNL     1      -2.038   5.100   2.467  1.00  0.00     0.004 A 
ATOM     20  C   UNL     1      -3.241   4.577   1.996  1.00  0.00     0.000 A 
BRANCH  17  21
ATOM     21  C   UNL     1       0.417   5.345   2.724  1.00  0.00     0.019 C 
ATOM     22  C   UNL     1       1.797   4.764   2.860  1.00  0.00     0.009 C 
ATOM     23  C   UNL     1       1.574   6.003   2.029  1.00  0.00     0.009 C 
ENDBRANCH  17  21
ENDBRANCH  10  15
ENDBRANCH   5   7
ENDBRANCH   4   5
ENDBRANCH   3   4
ENDBRANCH   2   3
ENDBRANCH   1   2
BRANCH   1  24
ATOM     24  C   UNL     1      -0.447   4.726  -5.185  1.00  0.00     0.202 C 
BRANCH  24  25
ATOM     25  C   UNL     1      -0.048   6.045  -5.852  1.00  0.00     0.261 C 
BRANCH  25  26
ATOM     26  O   UNL     1      -0.633   7.177  -5.183  1.00  0.00    -0.460 OA
BRANCH  26  27
ATOM     27  C   UNL     1      -1.602   7.805  -5.885  1.00  0.00     0.338 C 
ATOM     28  O   UNL     1      -1.957   7.573  -7.035  1.00  0.00    -0.246 OA
BRANCH  27  29
ATOM     29  C   UNL     1      -2.343   8.732  -5.015  1.00  0.00     0.060 A 
ATOM     30  C   UNL     1      -3.738   8.607  -4.982  1.00  0.00     0.016 A 
ATOM     31  C   UNL     1      -1.702   9.761  -4.322  1.00  0.00     0.016 A 
ATOM     32  C   UNL     1      -4.506   9.554  -4.315  1.00  0.00     0.010 A 
ATOM     33  C   UNL     1      -2.476  10.721  -3.664  1.00  0.00     0.010 A 
ATOM     34  C   UNL     1      -3.880  10.646  -3.701  1.00  0.00    -0.014 A 
BRANCH  34  35
ATOM     35  C   UNL     1      -4.704  11.801  -3.278  1.00  0.00     0.031 A 
ATOM     36  C   UNL     1      -4.840  12.966  -4.219  1.00  0.00     0.074 A 
ATOM     37  C   UNL     1      -5.356  11.791  -2.104  1.00  0.00     0.049 A 
ATOM     38  N   UNL     1      -5.486  14.093  -4.060  1.00  0.00    -0.248 NA
ATOM     39  C   UNL     1      -4.154  12.844  -5.516  1.00  0.00     0.031 C 
ATOM     40  C   UNL     1      -5.337  10.696  -1.137  1.00  0.00     0.029 A 
ATOM     41  N   UNL     1      -6.159  12.741  -1.526  1.00  0.00    -0.354 N 
ATOM     42  C   UNL     1      -5.280  14.812  -5.231  1.00  0.00     0.074 A 
ATOM     43  C   UNL     1      -4.427  14.010  -6.080  1.00  0.00     0.031 C 
ATOM     44  C   UNL     1      -6.086  11.041  -0.076  1.00  0.00     0.029 A 
ATOM     45  C   UNL     1      -6.611  12.390  -0.278  1.00  0.00     0.049 A 
ATOM     46  H   UNL     1      -6.389  13.592  -1.963  1.00  0.00     0.167 HD
ATOM     47  C   UNL     1      -5.767  16.029  -5.569  1.00  0.00     0.037 A 
ATOM     48  C   UNL     1      -7.347  13.093   0.604  1.00  0.00     0.037 A 
ATOM     49  C   UNL     1      -6.617  16.821  -4.721  1.00  0.00     0.049 A 
ATOM     50  C   UNL     1      -7.819  14.475   0.232  1.00  0.00     0.074 A 
ATOM     51  C   UNL     1      -7.175  18.061  -4.973  1.00  0.00     0.029 A 
ATOM     52  N   UNL     1      -7.027  16.447  -3.449  1.00  0.00    -0.354 N 
ATOM     53  N   UNL     1      -7.636  15.141  -0.883  1.00  0.00    -0.248 NA
ATOM     54  C   UNL     1      -8.604  15.200   1.240  1.00  0.00     0.031 C 
ATOM     55  C   UNL     1      -7.885  18.459  -3.835  1.00  0.00     0.029 A 
ATOM     56  C   UNL     1      -7.811  17.444  -2.894  1.00  0.00     0.049 A 
ATOM     57  H   UNL     1      -6.795  15.599  -3.007  1.00  0.00     0.167 HD
ATOM     58  C   UNL     1      -8.303  16.349  -0.721  1.00  0.00     0.074 A 
ATOM     59  C   UNL     1      -8.906  16.318   0.595  1.00  0.00     0.031 C 
ATOM     60  C   UNL     1      -8.409  17.389  -1.584  1.00  0.00     0.037 A 
BRANCH  47  61
ATOM     61  C   UNL     1      -5.368  16.589  -6.902  1.00  0.00     0.064 A 
ATOM     62  C   UNL     1      -5.880  16.073  -8.102  1.00  0.00     0.173 A 
ATOM     63  C   UNL     1      -4.484  17.676  -6.978  1.00  0.00     0.173 A 
ATOM     64  F   UNL     1      -6.715  15.023  -8.083  1.00  0.00    -0.203 F 
ATOM     65  C   UNL     1      -5.504  16.611  -9.330  1.00  0.00     0.198 A 
ATOM     66  C   UNL     1      -4.131  18.228  -8.207  1.00  0.00     0.198 A 
ATOM     67  F   UNL     1      -3.967  18.206  -5.860  1.00  0.00    -0.203 F 
ATOM     68  F   UNL     1      -5.971  16.074 -10.466  1.00  0.00    -0.200 F 
ATOM     69  C   UNL     1      -4.636  17.691  -9.381  1.00  0.00     0.200 A 
ATOM     70  F   UNL     1      -3.300  19.278  -8.253  1.00  0.00    -0.200 F 
ATOM     71  F   UNL     1      -4.280  18.212 -10.564  1.00  0.00    -0.200 F 
ENDBRANCH  47  61
BRANCH  48  72
ATOM     72  C   UNL     1      -7.672  12.508   1.930  1.00  0.00     0.064 A 
ATOM     73  C   UNL     1      -8.986  12.152   2.263  1.00  0.00     0.173 A 
ATOM     74  C   UNL     1      -6.676  12.307   2.898  1.00  0.00     0.173 A 
ATOM     75  F   UNL     1      -9.976  12.348   1.381  1.00  0.00    -0.203 F 
ATOM     76  C   UNL     1      -9.294  11.632   3.519  1.00  0.00     0.198 A 
ATOM     77  C   UNL     1      -6.981  11.762   4.143  1.00  0.00     0.198 A 
ATOM     78  F   UNL     1      -5.403  12.633   2.629  1.00  0.00    -0.203 F 
ATOM     79  F   UNL     1     -10.565  11.341   3.827  1.00  0.00    -0.200 F 
ATOM     80  C   UNL     1      -8.291  11.432   4.455  1.00  0.00     0.200 A 
ATOM     81  F   UNL     1      -6.006  11.559   5.039  1.00  0.00    -0.200 F 
ATOM     82  F   UNL     1      -8.587  10.928   5.661  1.00  0.00    -0.200 F 
ENDBRANCH  48  72
BRANCH  60  83
ATOM     83  C   UNL     1      -9.233  18.565  -1.147  1.00  0.00     0.064 A 
ATOM     84  C   UNL     1      -8.778  19.459  -0.168  1.00  0.00     0.173 A 
ATOM     85  C   UNL     1     -10.474  18.824  -1.750  1.00  0.00     0.173 A 
ATOM     86  F   UNL     1      -7.605  19.247   0.448  1.00  0.00    -0.203 F 
ATOM     87  C   UNL     1      -9.547  20.557   0.210  1.00  0.00     0.198 A 
ATOM     88  C   UNL     1     -11.226  19.938  -1.391  1.00  0.00     0.198 A 
ATOM     89  F   UNL     1     -10.949  18.002  -2.699  1.00  0.00    -0.203 F 
ATOM     90  F   UNL     1      -9.114  21.373   1.180  1.00  0.00    -0.200 F 
ATOM     91  C   UNL     1     -10.766  20.799  -0.407  1.00  0.00     0.200 A 
ATOM     92  F   UNL     1     -12.397  20.178  -1.997  1.00  0.00    -0.200 F 
ATOM     93  F   UNL     1     -11.501  21.861  -0.047  1.00  0.00    -0.200 F 
ENDBRANCH  60  83
ENDBRANCH  34  35
ENDBRANCH  27  29
ENDBRANCH  26  27
ENDBRANCH  25  26
ENDBRANCH  24  25
ENDBRANCH   1  24
TORSDOF 17
