REMARK SMILES C[C@H](Cc1cccs1)N(C)C(=O)N1CC[C@@H](CC(=O)OCCOCCOC(=O)c2ccc(-c3c4nc(c(-c5c(F)c(F)c(F)c(F)c5F)c5ccc([nH]5)c(-c5c(F)c(F)c(F)c(F)c5F)c5nc(c(-c6c(F)c(F)c(F)c(F)c6F)c6ccc3[nH]6)C=C5)C=C4)cc2)C1
REMARK SMILES IDX 21 1 20 2 18 3 19 4 17 5 16 6 13 7 14 8 92 9 15 10 11 11
REMARK SMILES IDX 12 12 9 13 10 14 2 15 1 16 3 17 4 18 5 19 8 20 6 21 7 22
REMARK SMILES IDX 22 23 23 24 24 25 25 26 26 27 27 28 28 29 29 30 30 31 91 32
REMARK SMILES IDX 31 33 90 34 32 35 33 36 34 37 84 38 35 39 89 40 83 41 85 42
REMARK SMILES IDX 36 43 88 44 82 45 81 46 37 48 69 49 49 50 68 51 50 52 53 53
REMARK SMILES IDX 67 54 86 55 51 56 52 57 66 59 87 60 54 61 38 62 39 63 47 64
REMARK SMILES IDX 40 65 41 66 45 67 48 68 42 69 43 70 46 71 44 72 70 73 71 74
REMARK SMILES IDX 79 75 72 76 73 77 77 78 80 79 74 80 75 81 78 82 76 83 55 84
REMARK SMILES IDX 56 85 64 86 57 87 58 88 62 89 65 90 59 91 60 92 63 93 61 94
REMARK H PARENT 85 47 53 58
REMARK Flexibility Score: inf
ROOT
ATOM      1  C   UNL     1      -5.561   4.742   2.686  1.00  0.00     0.261 C 
ENDROOT
BRANCH   1   2
ATOM      2  O   UNL     1      -5.636   3.361   2.280  1.00  0.00    -0.463 OA
BRANCH   2   3
ATOM      3  C   UNL     1      -6.833   2.992   1.776  1.00  0.00     0.306 C 
ATOM      4  O   UNL     1      -7.821   3.721   1.734  1.00  0.00    -0.252 OA
BRANCH   3   5
ATOM      5  C   UNL     1      -6.920   1.562   1.290  1.00  0.00     0.128 C 
BRANCH   5   6
ATOM      6  C   UNL     1      -5.747   0.668   0.852  1.00  0.00     0.021 C 
ATOM      7  N   UNL     1      -3.424   0.282   1.192  1.00  0.00    -0.324 N 
ATOM      8  C   UNL     1      -4.095  -0.285   2.342  1.00  0.00     0.122 C 
ATOM      9  C   UNL     1      -4.348   1.222   0.560  1.00  0.00     0.125 C 
ATOM     10  C   UNL     1      -5.498  -0.512   1.816  1.00  0.00     0.027 C 
BRANCH   7  11
ATOM     11  C   UNL     1      -2.107   0.295   0.813  1.00  0.00     0.320 C 
ATOM     12  O   UNL     1      -1.722   1.241   0.130  1.00  0.00    -0.248 OA
BRANCH  11  13
ATOM     13  N   UNL     1      -1.243  -0.721   1.168  1.00  0.00    -0.325 N 
ATOM     14  C   UNL     1      -1.676  -2.013   1.672  1.00  0.00     0.149 C 
BRANCH  13  15
ATOM     15  C   UNL     1       0.239  -0.536   1.083  1.00  0.00     0.088 C 
ATOM     16  C   UNL     1       0.763   0.169   2.329  1.00  0.00     0.031 C 
BRANCH  15  17
ATOM     17  C   UNL     1       0.872  -0.107  -0.274  1.00  0.00     0.071 C 
BRANCH  17  18
ATOM     18  C   UNL     1       0.929   1.347  -0.679  1.00  0.00     0.007 A 
ATOM     19  C   UNL     1       1.552   2.424  -0.076  1.00  0.00     0.015 A 
ATOM     20  S   UNL     1       0.250   1.820  -2.196  1.00  0.00    -0.149 S 
ATOM     21  C   UNL     1       1.323   3.652  -0.770  1.00  0.00     0.012 A 
ATOM     22  C   UNL     1       0.586   3.469  -1.915  1.00  0.00     0.065 A 
ENDBRANCH  17  18
ENDBRANCH  15  17
ENDBRANCH  13  15
ENDBRANCH  11  13
ENDBRANCH   7  11
ENDBRANCH   5   6
ENDBRANCH   3   5
ENDBRANCH   2   3
ENDBRANCH   1   2
BRANCH   1  23
ATOM     23  C   UNL     1      -4.833   5.637   1.678  1.00  0.00     0.202 C 
BRANCH  23  24
ATOM     24  O   UNL     1      -5.353   5.711   0.354  1.00  0.00    -0.374 OA
BRANCH  24  25
ATOM     25  C   UNL     1      -5.068   4.640  -0.546  1.00  0.00     0.202 C 
BRANCH  25  26
ATOM     26  C   UNL     1      -3.628   4.516  -1.063  1.00  0.00     0.261 C 
BRANCH  26  27
ATOM     27  O   UNL     1      -2.694   4.304   0.006  1.00  0.00    -0.460 OA
BRANCH  27  28
ATOM     28  C   UNL     1      -1.840   5.326   0.231  1.00  0.00     0.338 C 
ATOM     29  O   UNL     1      -1.732   6.352  -0.434  1.00  0.00    -0.246 OA
BRANCH  28  30
ATOM     30  C   UNL     1      -1.102   5.148   1.501  1.00  0.00     0.060 A 
ATOM     31  C   UNL     1      -0.741   6.300   2.211  1.00  0.00     0.016 A 
ATOM     32  C   UNL     1      -0.682   3.899   1.952  1.00  0.00     0.016 A 
ATOM     33  C   UNL     1       0.154   6.217   3.276  1.00  0.00     0.010 A 
ATOM     34  C   UNL     1       0.226   3.818   3.008  1.00  0.00     0.010 A 
ATOM     35  C   UNL     1       0.698   4.979   3.624  1.00  0.00    -0.014 A 
BRANCH  35  36
ATOM     36  C   UNL     1       1.834   4.890   4.562  1.00  0.00     0.031 A 
ATOM     37  C   UNL     1       3.239   4.872   4.034  1.00  0.00     0.074 A 
ATOM     38  C   UNL     1       1.597   4.764   5.875  1.00  0.00     0.049 A 
ATOM     39  N   UNL     1       4.374   4.905   4.684  1.00  0.00    -0.248 NA
ATOM     40  C   UNL     1       3.386   4.778   2.575  1.00  0.00     0.031 C 
ATOM     41  C   UNL     1       0.272   4.683   6.482  1.00  0.00     0.029 A 
ATOM     42  N   UNL     1       2.466   4.676   6.928  1.00  0.00    -0.354 N 
ATOM     43  C   UNL     1       5.367   4.855   3.713  1.00  0.00     0.074 A 
ATOM     44  C   UNL     1       4.702   4.718   2.436  1.00  0.00     0.031 C 
ATOM     45  C   UNL     1       0.414   4.576   7.812  1.00  0.00     0.029 A 
ATOM     46  C   UNL     1       1.838   4.585   8.142  1.00  0.00     0.049 A 
ATOM     47  H   UNL     1       3.445   4.678   6.824  1.00  0.00     0.167 HD
ATOM     48  C   UNL     1       6.710   4.942   3.880  1.00  0.00     0.037 A 
ATOM     49  C   UNL     1       2.361   4.544   9.380  1.00  0.00     0.037 A 
ATOM     50  C   UNL     1       7.346   5.062   5.168  1.00  0.00     0.049 A 
ATOM     51  C   UNL     1       3.851   4.650   9.549  1.00  0.00     0.074 A 
ATOM     52  C   UNL     1       8.685   5.253   5.461  1.00  0.00     0.029 A 
ATOM     53  N   UNL     1       6.681   4.974   6.385  1.00  0.00    -0.354 N 
ATOM     54  N   UNL     1       4.784   4.756   8.633  1.00  0.00    -0.248 NA
ATOM     55  C   UNL     1       4.357   4.656  10.927  1.00  0.00     0.031 C 
ATOM     56  C   UNL     1       8.839   5.209   6.852  1.00  0.00     0.029 A 
ATOM     57  C   UNL     1       7.587   5.063   7.431  1.00  0.00     0.049 A 
ATOM     58  H   UNL     1       5.709   4.865   6.489  1.00  0.00     0.167 HD
ATOM     59  C   UNL     1       5.984   4.877   9.321  1.00  0.00     0.074 A 
ATOM     60  C   UNL     1       5.655   4.841  10.733  1.00  0.00     0.031 C 
ATOM     61  C   UNL     1       7.242   5.013   8.831  1.00  0.00     0.037 A 
BRANCH  48  62
ATOM     62  C   UNL     1       7.576   4.908   2.649  1.00  0.00     0.064 A 
ATOM     63  C   UNL     1       7.539   5.933   1.689  1.00  0.00     0.173 A 
ATOM     64  C   UNL     1       8.482   3.857   2.440  1.00  0.00     0.173 A 
ATOM     65  F   UNL     1       6.694   6.965   1.833  1.00  0.00    -0.203 F 
ATOM     66  C   UNL     1       8.343   5.885   0.551  1.00  0.00     0.198 A 
ATOM     67  C   UNL     1       9.311   3.831   1.320  1.00  0.00     0.198 A 
ATOM     68  F   UNL     1       8.573   2.854   3.327  1.00  0.00    -0.203 F 
ATOM     69  F   UNL     1       8.246   6.847  -0.377  1.00  0.00    -0.200 F 
ATOM     70  C   UNL     1       9.233   4.838   0.371  1.00  0.00     0.200 A 
ATOM     71  F   UNL     1      10.186   2.828   1.158  1.00  0.00    -0.200 F 
ATOM     72  F   UNL     1      10.011   4.797  -0.720  1.00  0.00    -0.200 F 
ENDBRANCH  48  62
BRANCH  49  73
ATOM     73  C   UNL     1       1.444   4.502  10.544  1.00  0.00     0.064 A 
ATOM     74  C   UNL     1       1.260   5.637  11.345  1.00  0.00     0.173 A 
ATOM     75  C   UNL     1       0.687   3.360  10.838  1.00  0.00     0.173 A 
ATOM     76  F   UNL     1       1.970   6.749  11.104  1.00  0.00    -0.203 F 
ATOM     77  C   UNL     1       0.355   5.629  12.404  1.00  0.00     0.198 A 
ATOM     78  C   UNL     1      -0.236   3.362  11.881  1.00  0.00     0.198 A 
ATOM     79  F   UNL     1       0.817   2.256  10.089  1.00  0.00    -0.203 F 
ATOM     80  F   UNL     1       0.213   6.720  13.168  1.00  0.00    -0.200 F 
ATOM     81  C   UNL     1      -0.399   4.495  12.665  1.00  0.00     0.200 A 
ATOM     82  F   UNL     1      -0.979   2.272  12.117  1.00  0.00    -0.200 F 
ATOM     83  F   UNL     1      -1.284   4.494  13.671  1.00  0.00    -0.200 F 
ENDBRANCH  49  73
BRANCH  61  84
ATOM     84  C   UNL     1       8.355   5.158   9.831  1.00  0.00     0.064 A 
ATOM     85  C   UNL     1       8.758   4.091  10.648  1.00  0.00     0.173 A 
ATOM     86  C   UNL     1       9.046   6.374   9.954  1.00  0.00     0.173 A 
ATOM     87  F   UNL     1       8.122   2.911  10.580  1.00  0.00    -0.203 F 
ATOM     88  C   UNL     1       9.786   4.246  11.575  1.00  0.00     0.198 A 
ATOM     89  C   UNL     1      10.097   6.515  10.856  1.00  0.00     0.198 A 
ATOM     90  F   UNL     1       8.707   7.425   9.192  1.00  0.00    -0.203 F 
ATOM     91  F   UNL     1      10.113   3.231  12.386  1.00  0.00    -0.200 F 
ATOM     92  C   UNL     1      10.459   5.455  11.673  1.00  0.00     0.200 A 
ATOM     93  F   UNL     1      10.756   7.679  10.937  1.00  0.00    -0.200 F 
ATOM     94  F   UNL     1      11.451   5.601  12.562  1.00  0.00    -0.200 F 
ENDBRANCH  61  84
ENDBRANCH  35  36
ENDBRANCH  28  30
ENDBRANCH  27  28
ENDBRANCH  26  27
ENDBRANCH  25  26
ENDBRANCH  24  25
ENDBRANCH  23  24
ENDBRANCH   1  23
TORSDOF 20
