REMARK SMILES C[C@@H]1[C@H](C(=O)OCCOCCOC(=O)c2ccc(-c3c4nc(c(-c5c(F)c(F)c(F)c(F)c5F)c5ccc([nH]5)c(-c5c(F)c(F)c(F)c(F)c5F)c5nc(c(-c6c(F)c(F)c(F)c(F)c6F)c6ccc3[nH]6)C=C5)C=C4)cc2)CCN1C(=O)c1c(Cl)cccc1[N+](=O)[O-]
REMARK SMILES IDX 8 1 7 2 6 3 4 4 5 5 3 6 1 7 2 8 80 9 78 10 79 11 81 12 82 13
REMARK SMILES IDX 83 14 84 15 89 16 85 17 86 18 88 19 87 20 90 21 91 22 92 23
REMARK SMILES IDX 9 24 10 25 11 26 12 27 13 28 14 29 15 30 16 31 77 32 17 33
REMARK SMILES IDX 76 34 18 35 19 36 20 37 70 38 21 39 75 40 69 41 71 42 22 43
REMARK SMILES IDX 74 44 68 45 67 46 23 48 55 49 35 50 54 51 36 52 39 53 53 54
REMARK SMILES IDX 72 55 37 56 38 57 52 59 73 60 40 61 24 62 25 63 33 64 26 65
REMARK SMILES IDX 27 66 31 67 34 68 28 69 29 70 32 71 30 72 56 73 57 74 65 75
REMARK SMILES IDX 58 76 59 77 63 78 66 79 60 80 61 81 64 82 62 83 41 84 42 85
REMARK SMILES IDX 50 86 43 87 44 88 48 89 51 90 45 91 46 92 49 93 47 94
REMARK H PARENT 71 47 39 58
REMARK Flexibility Score: inf
ROOT
ATOM      1  C   UNL     1       2.501   4.268   0.401  1.00  0.00     0.202 C 
ENDROOT
BRANCH   1   2
ATOM      2  C   UNL     1       1.069   4.225   0.949  1.00  0.00     0.261 C 
BRANCH   2   3
ATOM      3  O   UNL     1       0.539   2.886   0.878  1.00  0.00    -0.463 OA
BRANCH   3   4
ATOM      4  C   UNL     1      -0.295   2.620  -0.153  1.00  0.00     0.311 C 
ATOM      5  O   UNL     1      -0.773   3.470  -0.895  1.00  0.00    -0.252 OA
BRANCH   4   6
ATOM      6  C   UNL     1      -0.584   1.144  -0.326  1.00  0.00     0.123 C 
ATOM      7  C   UNL     1       1.628   0.258   0.745  1.00  0.00     0.032 C 
ATOM      8  C   UNL     1       0.542   0.080  -0.312  1.00  0.00     0.096 C 
ATOM      9  N   UNL     1      -0.213  -1.171  -0.059  1.00  0.00    -0.335 N 
ATOM     10  C   UNL     1      -1.577   0.618   0.698  1.00  0.00     0.039 C 
ATOM     11  C   UNL     1      -1.567  -0.871   0.397  1.00  0.00     0.121 C 
BRANCH   9  12
ATOM     12  C   UNL     1       0.101  -2.504  -0.277  1.00  0.00     0.262 C 
ATOM     13  O   UNL     1      -0.697  -3.418  -0.076  1.00  0.00    -0.269 OA
BRANCH  12  14
ATOM     14  C   UNL     1       1.410  -2.908  -0.809  1.00  0.00     0.136 A 
ATOM     15  C   UNL     1       1.488  -3.326  -2.149  1.00  0.00     0.060 A 
ATOM     16  C   UNL     1       2.534  -3.095   0.007  1.00  0.00     0.283 A 
ATOM     17  Cl  UNL     1       0.147  -3.217  -3.238  1.00  0.00    -0.083 Cl
ATOM     18  C   UNL     1       2.676  -3.867  -2.662  1.00  0.00     0.022 A 
ATOM     19  C   UNL     1       3.741  -3.594  -0.521  1.00  0.00     0.086 A 
ATOM     20  C   UNL     1       3.806  -3.985  -1.855  1.00  0.00     0.009 A 
BRANCH  16  21
ATOM     21  N   UNL     1       2.511  -2.808   1.438  1.00  0.00     0.063 N 
ATOM     22  O   UNL     1       3.548  -2.331   1.925  1.00  0.00    -0.258 OA
ATOM     23  O   UNL     1       1.485  -3.055   2.077  1.00  0.00    -0.258 OA
ENDBRANCH  16  21
ENDBRANCH  12  14
ENDBRANCH   9  12
ENDBRANCH   4   6
ENDBRANCH   3   4
ENDBRANCH   2   3
ENDBRANCH   1   2
BRANCH   1  24
ATOM     24  O   UNL     1       2.625   4.231  -1.021  1.00  0.00    -0.374 OA
BRANCH  24  25
ATOM     25  C   UNL     1       2.639   2.949  -1.645  1.00  0.00     0.202 C 
BRANCH  25  26
ATOM     26  C   UNL     1       3.984   2.210  -1.656  1.00  0.00     0.261 C 
BRANCH  26  27
ATOM     27  O   UNL     1       4.434   1.880  -0.329  1.00  0.00    -0.460 OA
BRANCH  27  28
ATOM     28  C   UNL     1       5.404   2.693   0.151  1.00  0.00     0.338 C 
ATOM     29  O   UNL     1       5.987   3.579  -0.458  1.00  0.00    -0.246 OA
BRANCH  28  30
ATOM     30  C   UNL     1       5.570   2.503   1.606  1.00  0.00     0.060 A 
ATOM     31  C   UNL     1       5.634   3.659   2.394  1.00  0.00     0.016 A 
ATOM     32  C   UNL     1       5.726   1.243   2.188  1.00  0.00     0.016 A 
ATOM     33  C   UNL     1       5.923   3.566   3.754  1.00  0.00     0.010 A 
ATOM     34  C   UNL     1       6.018   1.151   3.556  1.00  0.00     0.010 A 
ATOM     35  C   UNL     1       6.160   2.314   4.337  1.00  0.00    -0.014 A 
BRANCH  35  36
ATOM     36  C   UNL     1       6.700   2.248   5.719  1.00  0.00     0.031 A 
ATOM     37  C   UNL     1       8.168   1.980   5.923  1.00  0.00     0.074 A 
ATOM     38  C   UNL     1       5.909   2.478   6.782  1.00  0.00     0.049 A 
ATOM     39  N   UNL     1       8.850   1.877   7.036  1.00  0.00    -0.248 NA
ATOM     40  C   UNL     1       8.976   1.807   4.706  1.00  0.00     0.031 C 
ATOM     41  C   UNL     1       4.483   2.790   6.720  1.00  0.00     0.029 A 
ATOM     42  N   UNL     1       6.197   2.482   8.125  1.00  0.00    -0.354 N 
ATOM     43  C   UNL     1      10.161   1.621   6.654  1.00  0.00     0.074 A 
ATOM     44  C   UNL     1      10.174   1.549   5.209  1.00  0.00     0.031 C 
ATOM     45  C   UNL     1       4.018   2.951   7.971  1.00  0.00     0.029 A 
ATOM     46  C   UNL     1       5.104   2.719   8.922  1.00  0.00     0.049 A 
ATOM     47  H   UNL     1       7.102   2.330   8.483  1.00  0.00     0.167 HD
ATOM     48  C   UNL     1      11.257   1.471   7.436  1.00  0.00     0.037 A 
ATOM     49  C   UNL     1       4.989   2.725  10.265  1.00  0.00     0.037 A 
ATOM     50  C   UNL     1      11.245   1.545   8.875  1.00  0.00     0.049 A 
ATOM     51  C   UNL     1       6.210   2.476  11.114  1.00  0.00     0.074 A 
ATOM     52  C   UNL     1      12.308   1.427   9.753  1.00  0.00     0.029 A 
ATOM     53  N   UNL     1      10.110   1.745   9.647  1.00  0.00    -0.354 N 
ATOM     54  N   UNL     1       7.451   2.266  10.746  1.00  0.00    -0.248 NA
ATOM     55  C   UNL     1       6.013   2.471  12.572  1.00  0.00     0.031 C 
ATOM     56  C   UNL     1      11.808   1.492  11.058  1.00  0.00     0.029 A 
ATOM     57  C   UNL     1      10.444   1.721  10.993  1.00  0.00     0.049 A 
ATOM     58  H   UNL     1       9.202   1.883   9.292  1.00  0.00     0.167 HD
ATOM     59  C   UNL     1       8.184   2.138  11.919  1.00  0.00     0.074 A 
ATOM     60  C   UNL     1       7.252   2.309  13.013  1.00  0.00     0.031 C 
ATOM     61  C   UNL     1       9.510   1.902  12.076  1.00  0.00     0.037 A 
BRANCH  48  62
ATOM     62  C   UNL     1      12.565   1.183   6.755  1.00  0.00     0.064 A 
ATOM     63  C   UNL     1      13.229   2.151   5.987  1.00  0.00     0.173 A 
ATOM     64  C   UNL     1      13.183  -0.067   6.909  1.00  0.00     0.173 A 
ATOM     65  F   UNL     1      12.676   3.359   5.797  1.00  0.00    -0.203 F 
ATOM     66  C   UNL     1      14.448   1.869   5.375  1.00  0.00     0.198 A 
ATOM     67  C   UNL     1      14.418  -0.335   6.324  1.00  0.00     0.198 A 
ATOM     68  F   UNL     1      12.595  -1.028   7.638  1.00  0.00    -0.203 F 
ATOM     69  F   UNL     1      15.040   2.793   4.605  1.00  0.00    -0.200 F 
ATOM     70  C   UNL     1      15.045   0.630   5.551  1.00  0.00     0.200 A 
ATOM     71  F   UNL     1      15.000  -1.528   6.508  1.00  0.00    -0.200 F 
ATOM     72  F   UNL     1      16.223   0.363   4.970  1.00  0.00    -0.200 F 
ENDBRANCH  48  62
BRANCH  49  73
ATOM     73  C   UNL     1       3.664   2.962  10.898  1.00  0.00     0.064 A 
ATOM     74  C   UNL     1       3.420   4.113  11.660  1.00  0.00     0.173 A 
ATOM     75  C   UNL     1       2.625   2.028  10.777  1.00  0.00     0.173 A 
ATOM     76  F   UNL     1       4.389   5.024  11.828  1.00  0.00    -0.203 F 
ATOM     77  C   UNL     1       2.195   4.308  12.296  1.00  0.00     0.198 A 
ATOM     78  C   UNL     1       1.390   2.240  11.386  1.00  0.00     0.198 A 
ATOM     79  F   UNL     1       2.807   0.908  10.062  1.00  0.00    -0.203 F 
ATOM     80  F   UNL     1       2.007   5.390  13.065  1.00  0.00    -0.200 F 
ATOM     81  C   UNL     1       1.179   3.375  12.154  1.00  0.00     0.200 A 
ATOM     82  F   UNL     1       0.407   1.342  11.235  1.00  0.00    -0.200 F 
ATOM     83  F   UNL     1       0.002   3.564  12.765  1.00  0.00    -0.200 F 
ENDBRANCH  49  73
BRANCH  61  84
ATOM     84  C   UNL     1      10.048   1.860  13.479  1.00  0.00     0.064 A 
ATOM     85  C   UNL     1       9.744   0.810  14.360  1.00  0.00     0.173 A 
ATOM     86  C   UNL     1      10.914   2.866  13.937  1.00  0.00     0.173 A 
ATOM     87  F   UNL     1       8.911  -0.170  13.979  1.00  0.00    -0.203 F 
ATOM     88  C   UNL     1      10.260   0.786  15.653  1.00  0.00     0.198 A 
ATOM     89  C   UNL     1      11.457   2.820  15.218  1.00  0.00     0.198 A 
ATOM     90  F   UNL     1      11.247   3.888  13.135  1.00  0.00    -0.203 F 
ATOM     91  F   UNL     1       9.912  -0.198  16.494  1.00  0.00    -0.200 F 
ATOM     92  C   UNL     1      11.123   1.786  16.078  1.00  0.00     0.200 A 
ATOM     93  F   UNL     1      12.305   3.777  15.620  1.00  0.00    -0.200 F 
ATOM     94  F   UNL     1      11.626   1.756  17.320  1.00  0.00    -0.200 F 
ENDBRANCH  61  84
ENDBRANCH  35  36
ENDBRANCH  28  30
ENDBRANCH  27  28
ENDBRANCH  26  27
ENDBRANCH  25  26
ENDBRANCH  24  25
ENDBRANCH   1  24
TORSDOF 17
