REMARK SMILES C[C@@H](C(=O)NCc1ccco1)[N@H+]1CCCC[C@@H]1C(=O)OCCOCCOC(=O)c1ccc(-c2c3nc(c(-c4c(F)c(F)c(F)c(F)c4F)c4ccc([nH]4)c(-c4c(F)c(F)c(F)c(F)c4F)c4nc(c(-c5c(F)c(F)c(F)c(F)c5F)c5ccc2[nH]5)C=C4)C=C3)cc1
REMARK SMILES IDX 22 1 21 2 20 3 18 4 19 5 17 6 12 7 13 8 14 10 16 11 15 12
REMARK SMILES IDX 2 13 1 14 3 15 4 16 5 17 6 19 7 20 8 21 11 22 9 23 10 24
REMARK SMILES IDX 23 25 24 26 25 27 26 28 27 29 28 30 29 31 30 32 91 33 31 34
REMARK SMILES IDX 90 35 32 36 33 37 34 38 84 39 35 40 89 41 83 42 85 43 36 44
REMARK SMILES IDX 88 45 82 46 81 47 37 49 69 50 49 51 68 52 50 53 53 54 67 55
REMARK SMILES IDX 86 56 51 57 52 58 66 60 87 61 54 62 38 63 39 64 47 65 40 66
REMARK SMILES IDX 41 67 45 68 48 69 42 70 43 71 46 72 44 73 70 74 71 75 79 76
REMARK SMILES IDX 72 77 73 78 77 79 80 80 74 81 75 82 78 83 76 84 55 85 56 86
REMARK SMILES IDX 64 87 57 88 58 89 62 90 65 91 59 92 60 93 63 94 61 95
REMARK H PARENT 12 9 5 18 85 48 53 59
REMARK Flexibility Score: inf
ROOT
ATOM      1  C   UNL     1      -0.615  -5.393  -0.043  1.00  0.00     0.202 C 
ENDROOT
BRANCH   1   2
ATOM      2  C   UNL     1      -0.225  -3.989   0.443  1.00  0.00     0.261 C 
BRANCH   2   3
ATOM      3  O   UNL     1      -0.955  -2.909  -0.153  1.00  0.00    -0.459 OA
BRANCH   3   4
ATOM      4  C   UNL     1      -0.356  -2.413  -1.272  1.00  0.00     0.365 C 
ATOM      5  O   UNL     1       0.663  -2.899  -1.754  1.00  0.00    -0.245 OA
BRANCH   4   6
ATOM      6  C   UNL     1      -1.103  -1.232  -1.913  1.00  0.00     0.295 C 
ATOM      7  N   UNL     1      -0.637   0.118  -1.468  1.00  0.00    -0.313 N 
ATOM      8  C   UNL     1      -1.298   1.159  -2.279  1.00  0.00     0.263 C 
ATOM      9  H   UNL     1      -0.914   0.161  -0.487  1.00  0.00     0.349 HD
ATOM     10  C   UNL     1      -2.820   1.108  -2.126  1.00  0.00     0.062 C 
ATOM     11  C   UNL     1      -2.627  -1.344  -1.697  1.00  0.00     0.078 C 
ATOM     12  C   UNL     1      -3.372  -0.265  -2.474  1.00  0.00     0.013 C 
BRANCH   7  13
ATOM     13  C   UNL     1       0.842   0.362  -1.411  1.00  0.00     0.271 C 
ATOM     14  C   UNL     1       1.249   0.196   0.054  1.00  0.00     0.086 C 
BRANCH  13  15
ATOM     15  C   UNL     1       1.663  -0.445  -2.448  1.00  0.00     0.278 C 
ATOM     16  O   UNL     1       1.329  -0.541  -3.630  1.00  0.00    -0.268 OA
ATOM     17  N   UNL     1       2.764  -1.122  -1.993  1.00  0.00    -0.344 N 
ATOM     18  H   UNL     1       2.695  -2.091  -1.835  1.00  0.00     0.164 HD
BRANCH  17  19
ATOM     19  C   UNL     1       4.021  -0.462  -1.739  1.00  0.00     0.191 C 
BRANCH  19  20
ATOM     20  C   UNL     1       4.629  -0.928  -0.468  1.00  0.00     0.122 A 
ATOM     21  C   UNL     1       5.242  -0.255   0.570  1.00  0.00     0.047 A 
ATOM     22  O   UNL     1       4.661  -2.273  -0.228  1.00  0.00    -0.467 OA
ATOM     23  C   UNL     1       5.660  -1.238   1.498  1.00  0.00     0.042 A 
ATOM     24  C   UNL     1       5.279  -2.448   0.970  1.00  0.00     0.195 A 
ENDBRANCH  19  20
ENDBRANCH  17  19
ENDBRANCH  13  15
ENDBRANCH   7  13
ENDBRANCH   4   6
ENDBRANCH   3   4
ENDBRANCH   2   3
ENDBRANCH   1   2
BRANCH   1  25
ATOM     25  O   UNL     1      -0.646  -5.673  -1.436  1.00  0.00    -0.374 OA
BRANCH  25  26
ATOM     26  C   UNL     1      -1.728  -5.171  -2.219  1.00  0.00     0.202 C 
BRANCH  26  27
ATOM     27  C   UNL     1      -3.133  -5.713  -1.936  1.00  0.00     0.261 C 
BRANCH  27  28
ATOM     28  O   UNL     1      -3.608  -5.326  -0.633  1.00  0.00    -0.460 OA
BRANCH  28  29
ATOM     29  C   UNL     1      -3.910  -6.360   0.184  1.00  0.00     0.338 C 
ATOM     30  O   UNL     1      -3.927  -7.553  -0.097  1.00  0.00    -0.246 OA
BRANCH  29  31
ATOM     31  C   UNL     1      -4.039  -5.889   1.571  1.00  0.00     0.060 A 
ATOM     32  C   UNL     1      -3.192  -6.464   2.529  1.00  0.00     0.016 A 
ATOM     33  C   UNL     1      -5.035  -4.988   1.948  1.00  0.00     0.016 A 
ATOM     34  C   UNL     1      -3.376  -6.186   3.879  1.00  0.00     0.010 A 
ATOM     35  C   UNL     1      -5.229  -4.721   3.307  1.00  0.00     0.010 A 
ATOM     36  C   UNL     1      -4.429  -5.354   4.277  1.00  0.00    -0.014 A 
BRANCH  36  37
ATOM     37  C   UNL     1      -4.804  -5.307   5.709  1.00  0.00     0.031 A 
ATOM     38  C   UNL     1      -5.911  -6.201   6.193  1.00  0.00     0.074 A 
ATOM     39  C   UNL     1      -4.138  -4.520   6.571  1.00  0.00     0.049 A 
ATOM     40  N   UNL     1      -6.422  -6.320   7.391  1.00  0.00    -0.248 NA
ATOM     41  C   UNL     1      -6.526  -7.084   5.187  1.00  0.00     0.031 C 
ATOM     42  C   UNL     1      -3.018  -3.649   6.225  1.00  0.00     0.029 A 
ATOM     43  N   UNL     1      -4.316  -4.327   7.917  1.00  0.00    -0.354 N 
ATOM     44  C   UNL     1      -7.418  -7.282   7.282  1.00  0.00     0.074 A 
ATOM     45  C   UNL     1      -7.460  -7.697   5.897  1.00  0.00     0.031 C 
ATOM     46  C   UNL     1      -2.615  -3.000   7.331  1.00  0.00     0.029 A 
ATOM     47  C   UNL     1      -3.467  -3.391   8.453  1.00  0.00     0.049 A 
ATOM     48  H   UNL     1      -4.988  -4.813   8.448  1.00  0.00     0.167 HD
ATOM     49  C   UNL     1      -8.220  -7.778   8.253  1.00  0.00     0.037 A 
ATOM     50  C   UNL     1      -3.406  -2.893   9.703  1.00  0.00     0.037 A 
ATOM     51  C   UNL     1      -8.172  -7.365   9.630  1.00  0.00     0.049 A 
ATOM     52  C   UNL     1      -4.355  -3.414  10.751  1.00  0.00     0.074 A 
ATOM     53  C   UNL     1      -8.928  -7.820  10.696  1.00  0.00     0.029 A 
ATOM     54  N   UNL     1      -7.321  -6.390  10.130  1.00  0.00    -0.354 N 
ATOM     55  N   UNL     1      -5.278  -4.339  10.647  1.00  0.00    -0.248 NA
ATOM     56  C   UNL     1      -4.250  -2.823  12.093  1.00  0.00     0.031 C 
ATOM     57  C   UNL     1      -8.569  -7.085  11.831  1.00  0.00     0.029 A 
ATOM     58  C   UNL     1      -7.552  -6.210  11.483  1.00  0.00     0.049 A 
ATOM     59  H   UNL     1      -6.652  -5.899   9.600  1.00  0.00     0.167 HD
ATOM     60  C   UNL     1      -5.844  -4.460  11.909  1.00  0.00     0.074 A 
ATOM     61  C   UNL     1      -5.152  -3.522  12.768  1.00  0.00     0.031 C 
ATOM     62  C   UNL     1      -6.847  -5.275  12.322  1.00  0.00     0.037 A 
BRANCH  49  63
ATOM     63  C   UNL     1      -9.239  -8.805   7.853  1.00  0.00     0.064 A 
ATOM     64  C   UNL     1      -8.872 -10.115   7.512  1.00  0.00     0.173 A 
ATOM     65  C   UNL     1     -10.603  -8.480   7.841  1.00  0.00     0.173 A 
ATOM     66  F   UNL     1      -7.579 -10.472   7.494  1.00  0.00    -0.203 F 
ATOM     67  C   UNL     1      -9.834 -11.056   7.152  1.00  0.00     0.198 A 
ATOM     68  C   UNL     1     -11.564  -9.430   7.507  1.00  0.00     0.198 A 
ATOM     69  F   UNL     1     -11.006  -7.241   8.161  1.00  0.00    -0.203 F 
ATOM     70  F   UNL     1      -9.458 -12.290   6.789  1.00  0.00    -0.200 F 
ATOM     71  C   UNL     1     -11.178 -10.715   7.157  1.00  0.00     0.200 A 
ATOM     72  F   UNL     1     -12.863  -9.102   7.522  1.00  0.00    -0.200 F 
ATOM     73  F   UNL     1     -12.103 -11.624   6.817  1.00  0.00    -0.200 F 
ENDBRANCH  49  63
BRANCH  50  74
ATOM     74  C   UNL     1      -2.420  -1.831  10.030  1.00  0.00     0.064 A 
ATOM     75  C   UNL     1      -1.339  -2.082  10.886  1.00  0.00     0.173 A 
ATOM     76  C   UNL     1      -2.548  -0.537   9.502  1.00  0.00     0.173 A 
ATOM     77  F   UNL     1      -1.189  -3.296  11.436  1.00  0.00    -0.203 F 
ATOM     78  C   UNL     1      -0.434  -1.075  11.216  1.00  0.00     0.198 A 
ATOM     79  C   UNL     1      -1.627   0.461   9.811  1.00  0.00     0.198 A 
ATOM     80  F   UNL     1      -3.566  -0.244   8.680  1.00  0.00    -0.203 F 
ATOM     81  F   UNL     1       0.564  -1.329  12.073  1.00  0.00    -0.200 F 
ATOM     82  C   UNL     1      -0.575   0.194  10.674  1.00  0.00     0.200 A 
ATOM     83  F   UNL     1      -1.760   1.682   9.276  1.00  0.00    -0.200 F 
ATOM     84  F   UNL     1       0.298   1.160  10.989  1.00  0.00    -0.200 F 
ENDBRANCH  50  74
BRANCH  62  85
ATOM     85  C   UNL     1      -7.233  -5.213  13.772  1.00  0.00     0.064 A 
ATOM     86  C   UNL     1      -7.935  -4.121  14.300  1.00  0.00     0.173 A 
ATOM     87  C   UNL     1      -6.935  -6.282  14.630  1.00  0.00     0.173 A 
ATOM     88  F   UNL     1      -8.231  -3.068  13.523  1.00  0.00    -0.203 F 
ATOM     89  C   UNL     1      -8.305  -4.091  15.643  1.00  0.00     0.198 A 
ATOM     90  C   UNL     1      -7.332  -6.262  15.964  1.00  0.00     0.198 A 
ATOM     91  F   UNL     1      -6.272  -7.354  14.171  1.00  0.00    -0.203 F 
ATOM     92  F   UNL     1      -8.936  -3.017  16.138  1.00  0.00    -0.200 F 
ATOM     93  C   UNL     1      -8.010  -5.163  16.471  1.00  0.00     0.200 A 
ATOM     94  F   UNL     1      -7.058  -7.305  16.760  1.00  0.00    -0.200 F 
ATOM     95  F   UNL     1      -8.373  -5.136  17.761  1.00  0.00    -0.200 F 
ENDBRANCH  62  85
ENDBRANCH  36  37
ENDBRANCH  29  31
ENDBRANCH  28  29
ENDBRANCH  27  28
ENDBRANCH  26  27
ENDBRANCH  25  26
ENDBRANCH   1  25
TORSDOF 18
