REMARK SMILES COc1cccc(NC(=O)c2nccnc2C(=O)OCCOCCOC(=O)c2ccc(-c3c4nc(c(-c5c(F)c(F)c(F)c(F)c5F)c5ccc([nH]5)c(-c5c(F)c(F)c(F)c(F)c5F)c5nc(c(-c6c(F)c(F)c(F)c(F)c6F)c6ccc3[nH]6)C=C5)C=C4)cc2)c1
REMARK SMILES IDX 21 1 20 2 19 3 17 4 18 5 16 6 11 7 12 8 13 9 15 10 14 11
REMARK SMILES IDX 9 12 8 13 10 15 7 16 3 17 4 18 91 19 5 20 6 21 2 22 1 23
REMARK SMILES IDX 22 24 23 25 24 26 25 27 26 28 27 29 28 30 29 31 90 32 30 33
REMARK SMILES IDX 89 34 31 35 32 36 33 37 83 38 34 39 88 40 82 41 84 42 35 43
REMARK SMILES IDX 87 44 81 45 80 46 36 48 68 49 48 50 67 51 49 52 52 53 66 54
REMARK SMILES IDX 85 55 50 56 51 57 65 59 86 60 53 61 37 62 38 63 46 64 39 65
REMARK SMILES IDX 40 66 44 67 47 68 41 69 42 70 45 71 43 72 69 73 70 74 78 75
REMARK SMILES IDX 71 76 72 77 76 78 79 79 73 80 74 81 77 82 75 83 54 84 55 85
REMARK SMILES IDX 63 86 56 87 57 88 61 89 64 90 58 91 59 92 62 93 60 94
REMARK H PARENT 8 14 84 47 52 58
REMARK Flexibility Score: inf
ROOT
ATOM      1  C   UNL     1       7.233   5.153  -6.436  1.00  0.00     0.202 C 
ENDROOT
BRANCH   1   2
ATOM      2  C   UNL     1       7.278   6.040  -5.193  1.00  0.00     0.261 C 
BRANCH   2   3
ATOM      3  O   UNL     1       6.019   6.004  -4.500  1.00  0.00    -0.458 OA
BRANCH   3   4
ATOM      4  C   UNL     1       5.625   7.196  -3.990  1.00  0.00     0.359 C 
ATOM      5  O   UNL     1       6.284   8.226  -3.979  1.00  0.00    -0.244 OA
BRANCH   4   6
ATOM      6  C   UNL     1       4.196   7.162  -3.598  1.00  0.00     0.179 A 
ATOM      7  C   UNL     1       3.642   6.242  -2.720  1.00  0.00     0.161 A 
ATOM      8  N   UNL     1       2.361   6.391  -2.255  1.00  0.00    -0.247 NA
ATOM      9  C   UNL     1       1.643   7.413  -2.772  1.00  0.00     0.132 A 
ATOM     10  N   UNL     1       3.445   8.178  -4.136  1.00  0.00    -0.245 NA
ATOM     11  C   UNL     1       2.167   8.272  -3.715  1.00  0.00     0.132 A 
BRANCH   7  12
ATOM     12  C   UNL     1       4.395   5.081  -2.187  1.00  0.00     0.276 C 
ATOM     13  N   UNL     1       3.803   3.851  -1.948  1.00  0.00    -0.320 N 
ATOM     14  H   UNL     1       4.383   3.232  -1.448  1.00  0.00     0.170 HD
ATOM     15  O   UNL     1       5.575   5.233  -1.866  1.00  0.00    -0.267 OA
BRANCH  13  16
ATOM     16  C   UNL     1       2.544   3.296  -2.270  1.00  0.00     0.045 A 
ATOM     17  C   UNL     1       0.886   1.585  -1.739  1.00  0.00     0.120 A 
ATOM     18  C   UNL     1       0.019   2.139  -2.679  1.00  0.00     0.046 A 
ATOM     19  C   UNL     1       2.148   2.158  -1.545  1.00  0.00     0.072 A 
ATOM     20  C   UNL     1       0.419   3.231  -3.442  1.00  0.00     0.006 A 
ATOM     21  C   UNL     1       1.688   3.785  -3.258  1.00  0.00     0.026 A 
BRANCH  17  22
ATOM     22  O   UNL     1       0.388   0.489  -1.090  1.00  0.00    -0.497 OA
ATOM     23  C   UNL     1       1.089   0.045   0.063  1.00  0.00     0.278 C 
ENDBRANCH  17  22
ENDBRANCH  13  16
ENDBRANCH   7  12
ENDBRANCH   4   6
ENDBRANCH   3   4
ENDBRANCH   2   3
ENDBRANCH   1   2
BRANCH   1  24
ATOM     24  O   UNL     1       6.285   5.534  -7.434  1.00  0.00    -0.374 OA
BRANCH  24  25
ATOM     25  C   UNL     1       4.906   5.283  -7.162  1.00  0.00     0.202 C 
BRANCH  25  26
ATOM     26  C   UNL     1       4.439   3.831  -7.330  1.00  0.00     0.261 C 
BRANCH  26  27
ATOM     27  O   UNL     1       5.106   2.921  -6.436  1.00  0.00    -0.460 OA
BRANCH  27  28
ATOM     28  C   UNL     1       5.920   2.027  -7.046  1.00  0.00     0.338 C 
ATOM     29  O   UNL     1       6.074   1.865  -8.250  1.00  0.00    -0.246 OA
BRANCH  28  30
ATOM     30  C   UNL     1       6.764   1.329  -6.059  1.00  0.00     0.060 A 
ATOM     31  C   UNL     1       8.151   1.371  -6.255  1.00  0.00     0.016 A 
ATOM     32  C   UNL     1       6.219   0.567  -5.024  1.00  0.00     0.016 A 
ATOM     33  C   UNL     1       8.995   0.615  -5.443  1.00  0.00     0.010 A 
ATOM     34  C   UNL     1       7.069  -0.200  -4.215  1.00  0.00     0.010 A 
ATOM     35  C   UNL     1       8.458  -0.204  -4.441  1.00  0.00    -0.014 A 
BRANCH  35  36
ATOM     36  C   UNL     1       9.357  -1.136  -3.713  1.00  0.00     0.031 A 
ATOM     37  C   UNL     1       9.433  -2.578  -4.136  1.00  0.00     0.074 A 
ATOM     38  C   UNL     1      10.137  -0.688  -2.713  1.00  0.00     0.049 A 
ATOM     39  N   UNL     1      10.183  -3.543  -3.665  1.00  0.00    -0.248 NA
ATOM     40  C   UNL     1       8.545  -2.990  -5.235  1.00  0.00     0.031 C 
ATOM     41  C   UNL     1      10.166   0.686  -2.216  1.00  0.00     0.029 A 
ATOM     42  N   UNL     1      11.058  -1.347  -1.935  1.00  0.00    -0.354 N 
ATOM     43  C   UNL     1       9.857  -4.672  -4.404  1.00  0.00     0.074 A 
ATOM     44  C   UNL     1       8.823  -4.283  -5.339  1.00  0.00     0.031 C 
ATOM     45  C   UNL     1      11.054   0.768  -1.210  1.00  0.00     0.029 A 
ATOM     46  C   UNL     1      11.643  -0.550  -0.981  1.00  0.00     0.049 A 
ATOM     47  H   UNL     1      11.277  -2.299  -2.049  1.00  0.00     0.167 HD
ATOM     48  C   UNL     1      10.380  -5.919  -4.317  1.00  0.00     0.037 A 
ATOM     49  C   UNL     1      12.543  -0.854  -0.026  1.00  0.00     0.037 A 
ATOM     50  C   UNL     1      11.424  -6.304  -3.404  1.00  0.00     0.049 A 
ATOM     51  C   UNL     1      13.087  -2.257   0.062  1.00  0.00     0.074 A 
ATOM     52  C   UNL     1      12.061  -7.529  -3.291  1.00  0.00     0.029 A 
ATOM     53  N   UNL     1      11.980  -5.475  -2.443  1.00  0.00    -0.354 N 
ATOM     54  N   UNL     1      12.821  -3.299  -0.687  1.00  0.00    -0.248 NA
ATOM     55  C   UNL     1      14.066  -2.522   1.127  1.00  0.00     0.031 C 
ATOM     56  C   UNL     1      12.966  -7.456  -2.227  1.00  0.00     0.029 A 
ATOM     57  C   UNL     1      12.927  -6.172  -1.709  1.00  0.00     0.049 A 
ATOM     58  H   UNL     1      11.737  -4.531  -2.302  1.00  0.00     0.167 HD
ATOM     59  C   UNL     1      13.613  -4.331  -0.202  1.00  0.00     0.074 A 
ATOM     60  C   UNL     1      14.387  -3.787   0.893  1.00  0.00     0.031 C 
ATOM     61  C   UNL     1      13.691  -5.617  -0.623  1.00  0.00     0.037 A 
BRANCH  48  62
ATOM     62  C   UNL     1       9.827  -6.977  -5.224  1.00  0.00     0.064 A 
ATOM     63  C   UNL     1      10.149  -7.020  -6.588  1.00  0.00     0.173 A 
ATOM     64  C   UNL     1       9.034  -8.010  -4.701  1.00  0.00     0.173 A 
ATOM     65  F   UNL     1      10.896  -6.050  -7.136  1.00  0.00    -0.203 F 
ATOM     66  C   UNL     1       9.689  -8.055  -7.398  1.00  0.00     0.198 A 
ATOM     67  C   UNL     1       8.595  -9.055  -5.509  1.00  0.00     0.198 A 
ATOM     68  F   UNL     1       8.704  -8.017  -3.401  1.00  0.00    -0.203 F 
ATOM     69  F   UNL     1       9.990  -8.066  -8.704  1.00  0.00    -0.200 F 
ATOM     70  C   UNL     1       8.922  -9.076  -6.856  1.00  0.00     0.200 A 
ATOM     71  F   UNL     1       7.864 -10.047  -4.981  1.00  0.00    -0.200 F 
ATOM     72  F   UNL     1       8.496 -10.081  -7.634  1.00  0.00    -0.200 F 
ENDBRANCH  48  62
BRANCH  49  73
ATOM     73  C   UNL     1      12.984   0.184   0.943  1.00  0.00     0.064 A 
ATOM     74  C   UNL     1      14.300   0.666   0.945  1.00  0.00     0.173 A 
ATOM     75  C   UNL     1      12.107   0.675   1.921  1.00  0.00     0.173 A 
ATOM     76  F   UNL     1      15.184   0.204   0.048  1.00  0.00    -0.203 F 
ATOM     77  C   UNL     1      14.730   1.578   1.906  1.00  0.00     0.198 A 
ATOM     78  C   UNL     1      12.530   1.610   2.863  1.00  0.00     0.198 A 
ATOM     79  F   UNL     1      10.838   0.242   1.965  1.00  0.00    -0.203 F 
ATOM     80  F   UNL     1      16.010   1.975   1.924  1.00  0.00    -0.200 F 
ATOM     81  C   UNL     1      13.844   2.052   2.862  1.00  0.00     0.200 A 
ATOM     82  F   UNL     1      11.669   2.069   3.781  1.00  0.00    -0.200 F 
ATOM     83  F   UNL     1      14.261   2.921   3.793  1.00  0.00    -0.200 F 
ENDBRANCH  49  73
BRANCH  61  84
ATOM     84  C   UNL     1      14.660  -6.516   0.089  1.00  0.00     0.064 A 
ATOM     85  C   UNL     1      14.420  -6.963   1.397  1.00  0.00     0.173 A 
ATOM     86  C   UNL     1      15.829  -6.955  -0.551  1.00  0.00     0.173 A 
ATOM     87  F   UNL     1      13.324  -6.561   2.058  1.00  0.00    -0.203 F 
ATOM     88  C   UNL     1      15.331  -7.791   2.049  1.00  0.00     0.198 A 
ATOM     89  C   UNL     1      16.723  -7.806   0.093  1.00  0.00     0.198 A 
ATOM     90  F   UNL     1      16.101  -6.564  -1.805  1.00  0.00    -0.203 F 
ATOM     91  F   UNL     1      15.107  -8.162   3.317  1.00  0.00    -0.200 F 
ATOM     92  C   UNL     1      16.478  -8.216   1.395  1.00  0.00     0.200 A 
ATOM     93  F   UNL     1      17.824  -8.227  -0.544  1.00  0.00    -0.200 F 
ATOM     94  F   UNL     1      17.352  -9.014   2.024  1.00  0.00    -0.200 F 
ENDBRANCH  61  84
ENDBRANCH  35  36
ENDBRANCH  28  30
ENDBRANCH  27  28
ENDBRANCH  26  27
ENDBRANCH  25  26
ENDBRANCH  24  25
ENDBRANCH   1  24
TORSDOF 17
