REMARK SMILES O=C(OCCOCCOC(=O)c1ccc(Cl)cc1-c1ccc(O)c(F)c1)c1ccc(-c2c3nc(c(-c4c(F)c(F)c(F)c(F)c4F)c4ccc([nH]4)c(-c4c(F)c(F)c(F)c(F)c4F)c4nc(c(-c5c(F)c(F)c(F)c(F)c5F)c5ccc2[nH]5)C=C4)C=C3)cc1
REMARK SMILES IDX 6 1 5 2 4 3 3 4 2 5 1 6 27 7 28 8 89 9 29 10 88 11 30 12
REMARK SMILES IDX 31 13 32 14 82 15 33 16 87 17 81 18 83 19 34 20 86 21 80 22
REMARK SMILES IDX 79 23 35 25 67 26 47 27 66 28 48 29 51 30 65 31 84 32 49 33
REMARK SMILES IDX 50 34 64 36 85 37 52 38 36 39 37 40 45 41 38 42 39 43 43 44
REMARK SMILES IDX 46 45 40 46 41 47 44 48 42 49 68 50 69 51 77 52 70 53 71 54
REMARK SMILES IDX 75 55 78 56 72 57 73 58 76 59 74 60 53 61 54 62 62 63 55 64
REMARK SMILES IDX 56 65 60 66 63 67 57 68 58 69 61 70 59 71 7 72 8 73 9 74
REMARK SMILES IDX 10 75 11 76 12 77 13 78 18 79 14 80 17 81 15 82 16 83 19 84
REMARK SMILES IDX 20 85 26 86 21 87 24 88 22 89 25 90 23 91
REMARK H PARENT 83 24 51 35 23 92
REMARK Flexibility Score: inf
ROOT
ATOM      1  O   UNL     1       3.361   0.411  -1.632  1.00  0.00    -0.374 OA
ENDROOT
BRANCH   1   2
ATOM      2  C   UNL     1       3.773  -0.836  -1.084  1.00  0.00     0.202 C 
BRANCH   2   3
ATOM      3  C   UNL     1       3.313  -1.046   0.359  1.00  0.00     0.261 C 
BRANCH   3   4
ATOM      4  O   UNL     1       1.942  -0.654   0.512  1.00  0.00    -0.460 OA
BRANCH   4   5
ATOM      5  C   UNL     1       1.506   0.541   0.979  1.00  0.00     0.338 C 
ATOM      6  O   UNL     1       0.299   0.732   1.105  1.00  0.00    -0.246 OA
BRANCH   5   7
ATOM      7  C   UNL     1       2.436   1.628   1.410  1.00  0.00     0.060 A 
ATOM      8  C   UNL     1       3.658   1.906   0.800  1.00  0.00     0.016 A 
ATOM      9  C   UNL     1       2.014   2.478   2.442  1.00  0.00     0.016 A 
ATOM     10  C   UNL     1       4.462   2.951   1.193  1.00  0.00     0.010 A 
ATOM     11  C   UNL     1       2.794   3.576   2.819  1.00  0.00     0.010 A 
ATOM     12  C   UNL     1       4.017   3.812   2.179  1.00  0.00    -0.014 A 
BRANCH  12  13
ATOM     13  C   UNL     1       4.938   4.886   2.565  1.00  0.00     0.031 A 
ATOM     14  C   UNL     1       5.659   4.751   3.860  1.00  0.00     0.074 A 
ATOM     15  C   UNL     1       5.224   5.852   1.674  1.00  0.00     0.049 A 
ATOM     16  N   UNL     1       6.447   5.596   4.460  1.00  0.00    -0.248 NA
ATOM     17  C   UNL     1       5.470   3.479   4.580  1.00  0.00     0.031 C 
ATOM     18  C   UNL     1       4.686   5.933   0.311  1.00  0.00     0.029 A 
ATOM     19  N   UNL     1       6.068   6.922   1.760  1.00  0.00    -0.354 N 
ATOM     20  C   UNL     1       6.797   4.988   5.656  1.00  0.00     0.074 A 
ATOM     21  C   UNL     1       6.146   3.698   5.694  1.00  0.00     0.031 C 
ATOM     22  C   UNL     1       5.240   6.980  -0.319  1.00  0.00     0.029 A 
ATOM     23  C   UNL     1       6.089   7.693   0.625  1.00  0.00     0.049 A 
ATOM     24  H   UNL     1       6.609   7.121   2.559  1.00  0.00     0.167 HD
ATOM     25  C   UNL     1       7.579   5.494   6.636  1.00  0.00     0.037 A 
ATOM     26  C   UNL     1       6.698   8.871   0.407  1.00  0.00     0.037 A 
ATOM     27  C   UNL     1       8.211   6.781   6.532  1.00  0.00     0.049 A 
ATOM     28  C   UNL     1       7.480   9.459   1.549  1.00  0.00     0.074 A 
ATOM     29  C   UNL     1       8.973   7.454   7.466  1.00  0.00     0.029 A 
ATOM     30  N   UNL     1       8.148   7.590   5.401  1.00  0.00    -0.354 N 
ATOM     31  N   UNL     1       7.726   8.946   2.733  1.00  0.00    -0.248 NA
ATOM     32  C   UNL     1       8.048  10.793   1.340  1.00  0.00     0.031 C 
ATOM     33  C   UNL     1       9.324   8.694   6.919  1.00  0.00     0.029 A 
ATOM     34  C   UNL     1       8.841   8.767   5.619  1.00  0.00     0.049 A 
ATOM     35  H   UNL     1       7.678   7.359   4.567  1.00  0.00     0.167 HD
ATOM     36  C   UNL     1       8.502   9.878   3.402  1.00  0.00     0.074 A 
ATOM     37  C   UNL     1       8.693  10.985   2.482  1.00  0.00     0.031 C 
ATOM     38  C   UNL     1       9.014   9.831   4.658  1.00  0.00     0.037 A 
BRANCH  25  39
ATOM     39  C   UNL     1       7.669   4.699   7.904  1.00  0.00     0.064 A 
ATOM     40  C   UNL     1       8.316   3.455   7.971  1.00  0.00     0.173 A 
ATOM     41  C   UNL     1       7.009   5.154   9.057  1.00  0.00     0.173 A 
ATOM     42  F   UNL     1       8.929   2.953   6.888  1.00  0.00    -0.203 F 
ATOM     43  C   UNL     1       8.254   2.676   9.125  1.00  0.00     0.198 A 
ATOM     44  C   UNL     1       6.980   4.389  10.219  1.00  0.00     0.198 A 
ATOM     45  F   UNL     1       6.363   6.330   9.047  1.00  0.00    -0.203 F 
ATOM     46  F   UNL     1       8.799   1.451   9.134  1.00  0.00    -0.200 F 
ATOM     47  C   UNL     1       7.588   3.144  10.248  1.00  0.00     0.200 A 
ATOM     48  F   UNL     1       6.335   4.844  11.302  1.00  0.00    -0.200 F 
ATOM     49  F   UNL     1       7.510   2.384  11.349  1.00  0.00    -0.200 F 
ENDBRANCH  25  39
BRANCH  26  50
ATOM     50  C   UNL     1       6.549   9.573  -0.896  1.00  0.00     0.064 A 
ATOM     51  C   UNL     1       7.654   9.796  -1.729  1.00  0.00     0.173 A 
ATOM     52  C   UNL     1       5.301  10.038  -1.340  1.00  0.00     0.173 A 
ATOM     53  F   UNL     1       8.873   9.389  -1.346  1.00  0.00    -0.203 F 
ATOM     54  C   UNL     1       7.520  10.469  -2.943  1.00  0.00     0.198 A 
ATOM     55  C   UNL     1       5.162  10.682  -2.568  1.00  0.00     0.198 A 
ATOM     56  F   UNL     1       4.207   9.855  -0.586  1.00  0.00    -0.203 F 
ATOM     57  F   UNL     1       8.602  10.708  -3.697  1.00  0.00    -0.200 F 
ATOM     58  C   UNL     1       6.273  10.906  -3.365  1.00  0.00     0.200 A 
ATOM     59  F   UNL     1       3.952  11.089  -2.977  1.00  0.00    -0.200 F 
ATOM     60  F   UNL     1       6.145  11.550  -4.533  1.00  0.00    -0.200 F 
ENDBRANCH  26  50
BRANCH  38  61
ATOM     61  C   UNL     1       9.879  10.981   5.072  1.00  0.00     0.064 A 
ATOM     62  C   UNL     1       9.347  12.248   5.346  1.00  0.00     0.173 A 
ATOM     63  C   UNL     1      11.259  10.790   5.239  1.00  0.00     0.173 A 
ATOM     64  F   UNL     1       8.036  12.481   5.184  1.00  0.00    -0.203 F 
ATOM     65  C   UNL     1      10.172  13.293   5.748  1.00  0.00     0.198 A 
ATOM     66  C   UNL     1      12.074  11.827   5.676  1.00  0.00     0.198 A 
ATOM     67  F   UNL     1      11.811   9.592   4.996  1.00  0.00    -0.203 F 
ATOM     68  F   UNL     1       9.654  14.512   5.954  1.00  0.00    -0.200 F 
ATOM     69  C   UNL     1      11.532  13.080   5.922  1.00  0.00     0.200 A 
ATOM     70  F   UNL     1      13.384  11.614   5.862  1.00  0.00    -0.200 F 
ATOM     71  F   UNL     1      12.323  14.085   6.321  1.00  0.00    -0.200 F 
ENDBRANCH  38  61
ENDBRANCH  12  13
ENDBRANCH   5   7
ENDBRANCH   4   5
ENDBRANCH   3   4
ENDBRANCH   2   3
ENDBRANCH   1   2
BRANCH   1  72
ATOM     72  C   UNL     1       2.273   0.371  -2.536  1.00  0.00     0.202 C 
BRANCH  72  73
ATOM     73  C   UNL     1       2.816   0.422  -3.960  1.00  0.00     0.261 C 
BRANCH  73  74
ATOM     74  O   UNL     1       3.535  -0.794  -4.237  1.00  0.00    -0.460 OA
BRANCH  74  75
ATOM     75  C   UNL     1       4.879  -0.811  -4.014  1.00  0.00     0.338 C 
ATOM     76  O   UNL     1       5.587   0.134  -3.719  1.00  0.00    -0.246 OA
BRANCH  75  77
ATOM     77  C   UNL     1       5.323  -2.230  -4.121  1.00  0.00     0.068 A 
ATOM     78  C   UNL     1       4.702  -2.998  -5.131  1.00  0.00     0.018 A 
ATOM     79  C   UNL     1       6.265  -2.833  -3.249  1.00  0.00    -0.002 A 
ATOM     80  C   UNL     1       4.988  -4.351  -5.284  1.00  0.00     0.021 A 
ATOM     81  C   UNL     1       6.553  -4.202  -3.450  1.00  0.00     0.030 A 
ATOM     82  C   UNL     1       5.920  -4.946  -4.447  1.00  0.00     0.041 A 
ATOM     83  Cl  UNL     1       6.282  -6.616  -4.625  1.00  0.00    -0.084 Cl
BRANCH  79  84
ATOM     84  C   UNL     1       6.916  -2.190  -2.087  1.00  0.00    -0.014 A 
ATOM     85  C   UNL     1       6.567  -2.583  -0.773  1.00  0.00     0.013 A 
ATOM     86  C   UNL     1       7.940  -1.245  -2.232  1.00  0.00     0.052 A 
ATOM     87  C   UNL     1       7.150  -1.989   0.355  1.00  0.00     0.050 A 
ATOM     88  C   UNL     1       8.546  -0.681  -1.106  1.00  0.00     0.165 A 
ATOM     89  C   UNL     1       8.137  -1.028   0.180  1.00  0.00     0.151 A 
ATOM     90  F   UNL     1       9.537   0.205  -1.279  1.00  0.00    -0.203 F 
BRANCH  89  91
ATOM     91  O   UNL     1       8.715  -0.414   1.254  1.00  0.00    -0.505 OA
ATOM     92  H   UNL     1       8.448  -0.639   2.123  1.00  0.00     0.293 HD
ENDBRANCH  89  91
ENDBRANCH  79  84
ENDBRANCH  75  77
ENDBRANCH  74  75
ENDBRANCH  73  74
ENDBRANCH  72  73
ENDBRANCH   1  72
TORSDOF 16
