REMARK SMILES O=C(OCCOCCOC(=O)c1ccc(-n2cc(CSc3nc4ccccc4c(=O)n3-c3ccccc3)nn2)cc1)c1ccc(-c2c3nc(c(-c4c(F)c(F)c(F)c(F)c4F)c4ccc([nH]4)c(-c4c(F)c(F)c(F)c(F)c4F)c4nc(c(-c5c(F)c(F)c(F)c(F)c5F)c5ccc2[nH]5)C=C4)C=C3)cc1
REMARK SMILES IDX 7 1 6 2 5 3 4 4 3 5 2 6 1 7 42 8 43 9 104 10 44 11 103 12
REMARK SMILES IDX 45 13 46 14 47 15 97 16 48 17 102 18 96 19 98 20 49 21
REMARK SMILES IDX 101 22 95 23 94 24 50 26 82 27 62 28 81 29 63 30 66 31 80 32
REMARK SMILES IDX 99 33 64 34 65 35 79 37 100 38 67 39 51 40 52 41 60 42 53 43
REMARK SMILES IDX 54 44 58 45 61 46 55 47 56 48 59 49 57 50 83 51 84 52 92 53
REMARK SMILES IDX 85 54 86 55 90 56 93 57 87 58 88 59 91 60 89 61 68 62 69 63
REMARK SMILES IDX 77 64 70 65 71 66 75 67 78 68 72 69 73 70 76 71 74 72 8 73
REMARK SMILES IDX 9 74 10 75 11 76 12 77 13 78 41 79 14 80 40 81 15 82 16 83
REMARK SMILES IDX 17 84 39 85 18 86 38 87 19 88 20 89 21 90 22 91 31 92 23 93
REMARK SMILES IDX 29 94 24 95 28 96 30 97 25 98 27 99 26 100 32 101 33 102
REMARK SMILES IDX 37 103 34 104 36 105 35 106
REMARK H PARENT 98 25 66 36
REMARK Flexibility Score: inf
ROOT
ATOM      1  C   UNL     1       3.098   1.781  -1.262  1.00  0.00     0.202 C 
ENDROOT
BRANCH   1   2
ATOM      2  O   UNL     1       4.141   1.202  -0.453  1.00  0.00    -0.374 OA
BRANCH   2   3
ATOM      3  C   UNL     1       4.773   0.050  -0.998  1.00  0.00     0.202 C 
BRANCH   3   4
ATOM      4  C   UNL     1       4.677  -1.236  -0.186  1.00  0.00     0.261 C 
BRANCH   4   5
ATOM      5  O   UNL     1       3.352  -1.789  -0.046  1.00  0.00    -0.460 OA
BRANCH   5   6
ATOM      6  C   UNL     1       2.264  -1.001   0.124  1.00  0.00     0.338 C 
ATOM      7  O   UNL     1       1.344  -0.970  -0.684  1.00  0.00    -0.246 OA
BRANCH   6   8
ATOM      8  C   UNL     1       2.097  -0.462   1.498  1.00  0.00     0.060 A 
ATOM      9  C   UNL     1       3.150  -0.384   2.408  1.00  0.00     0.016 A 
ATOM     10  C   UNL     1       0.795  -0.150   1.920  1.00  0.00     0.016 A 
ATOM     11  C   UNL     1       2.896  -0.214   3.749  1.00  0.00     0.010 A 
ATOM     12  C   UNL     1       0.538   0.067   3.267  1.00  0.00     0.010 A 
ATOM     13  C   UNL     1       1.583  -0.063   4.180  1.00  0.00    -0.014 A 
BRANCH  13  14
ATOM     14  C   UNL     1       1.396  -0.079   5.621  1.00  0.00     0.031 A 
ATOM     15  C   UNL     1       2.091   0.997   6.375  1.00  0.00     0.074 A 
ATOM     16  C   UNL     1       0.648  -1.021   6.222  1.00  0.00     0.049 A 
ATOM     17  N   UNL     1       2.933   0.885   7.354  1.00  0.00    -0.248 NA
ATOM     18  C   UNL     1       1.884   2.377   5.912  1.00  0.00     0.031 C 
ATOM     19  C   UNL     1      -0.259  -1.986   5.597  1.00  0.00     0.029 A 
ATOM     20  N   UNL     1       0.464  -1.234   7.554  1.00  0.00    -0.354 N 
ATOM     21  C   UNL     1       3.244   2.188   7.738  1.00  0.00     0.074 A 
ATOM     22  C   UNL     1       2.665   3.058   6.749  1.00  0.00     0.031 C 
ATOM     23  C   UNL     1      -1.073  -2.497   6.545  1.00  0.00     0.029 A 
ATOM     24  C   UNL     1      -0.658  -1.990   7.842  1.00  0.00     0.049 A 
ATOM     25  H   UNL     1       1.070  -0.883   8.245  1.00  0.00     0.167 HD
ATOM     26  C   UNL     1       3.772   2.465   8.961  1.00  0.00     0.037 A 
ATOM     27  C   UNL     1      -1.265  -2.094   9.047  1.00  0.00     0.037 A 
ATOM     28  C   UNL     1       4.473   1.332   9.506  1.00  0.00     0.049 A 
ATOM     29  C   UNL     1      -0.291  -1.684  10.089  1.00  0.00     0.074 A 
ATOM     30  C   UNL     1       5.553   0.571   9.099  1.00  0.00     0.029 A 
ATOM     31  N   UNL     1       3.902   0.625  10.533  1.00  0.00    -0.354 N 
ATOM     32  N   UNL     1       0.761  -2.376  10.427  1.00  0.00    -0.248 NA
ATOM     33  C   UNL     1      -0.270  -0.283  10.487  1.00  0.00     0.031 C 
ATOM     34  C   UNL     1       5.278  -0.749   9.562  1.00  0.00     0.029 A 
ATOM     35  C   UNL     1       4.060  -0.702  10.239  1.00  0.00     0.049 A 
ATOM     36  H   UNL     1       3.461   1.001  11.330  1.00  0.00     0.167 HD
ATOM     37  C   UNL     1       1.735  -1.427  10.697  1.00  0.00     0.074 A 
ATOM     38  C   UNL     1       1.016  -0.165  10.826  1.00  0.00     0.031 C 
ATOM     39  C   UNL     1       3.059  -1.702  10.514  1.00  0.00     0.037 A 
BRANCH  26  40
ATOM     40  C   UNL     1       3.317   3.630   9.816  1.00  0.00     0.064 A 
ATOM     41  C   UNL     1       3.936   3.841  11.066  1.00  0.00     0.173 A 
ATOM     42  C   UNL     1       2.104   4.325   9.618  1.00  0.00     0.173 A 
ATOM     43  F   UNL     1       5.098   3.241  11.366  1.00  0.00    -0.203 F 
ATOM     44  C   UNL     1       3.321   4.581  12.079  1.00  0.00     0.198 A 
ATOM     45  C   UNL     1       1.519   5.105  10.614  1.00  0.00     0.198 A 
ATOM     46  F   UNL     1       1.376   4.199   8.504  1.00  0.00    -0.203 F 
ATOM     47  F   UNL     1       3.874   4.625  13.299  1.00  0.00    -0.200 F 
ATOM     48  C   UNL     1       2.104   5.198  11.858  1.00  0.00     0.200 A 
ATOM     49  F   UNL     1       0.336   5.691  10.380  1.00  0.00    -0.200 F 
ATOM     50  F   UNL     1       1.474   5.839  12.850  1.00  0.00    -0.200 F 
ENDBRANCH  26  40
BRANCH  27  51
ATOM     51  C   UNL     1      -2.717  -2.218   9.302  1.00  0.00     0.064 A 
ATOM     52  C   UNL     1      -3.199  -2.647  10.547  1.00  0.00     0.173 A 
ATOM     53  C   UNL     1      -3.672  -1.687   8.409  1.00  0.00     0.173 A 
ATOM     54  F   UNL     1      -2.349  -3.112  11.474  1.00  0.00    -0.203 F 
ATOM     55  C   UNL     1      -4.553  -2.544  10.882  1.00  0.00     0.198 A 
ATOM     56  C   UNL     1      -5.023  -1.601   8.737  1.00  0.00     0.198 A 
ATOM     57  F   UNL     1      -3.301  -1.154   7.236  1.00  0.00    -0.203 F 
ATOM     58  F   UNL     1      -4.967  -2.908  12.103  1.00  0.00    -0.200 F 
ATOM     59  C   UNL     1      -5.462  -2.018   9.978  1.00  0.00     0.200 A 
ATOM     60  F   UNL     1      -5.885  -1.057   7.866  1.00  0.00    -0.200 F 
ATOM     61  F   UNL     1      -6.751  -1.875  10.317  1.00  0.00    -0.200 F 
ENDBRANCH  27  51
BRANCH  39  62
ATOM     62  C   UNL     1       3.454  -3.132  10.298  1.00  0.00     0.064 A 
ATOM     63  C   UNL     1       3.045  -3.889   9.187  1.00  0.00     0.173 A 
ATOM     64  C   UNL     1       4.390  -3.708  11.167  1.00  0.00     0.173 A 
ATOM     65  F   UNL     1       2.239  -3.364   8.255  1.00  0.00    -0.203 F 
ATOM     66  C   UNL     1       3.514  -5.185   8.988  1.00  0.00     0.198 A 
ATOM     67  C   UNL     1       4.885  -4.990  10.945  1.00  0.00     0.198 A 
ATOM     68  F   UNL     1       4.863  -3.005  12.209  1.00  0.00    -0.203 F 
ATOM     69  F   UNL     1       3.100  -5.894   7.927  1.00  0.00    -0.200 F 
ATOM     70  C   UNL     1       4.438  -5.732   9.864  1.00  0.00     0.200 A 
ATOM     71  F   UNL     1       5.817  -5.495  11.765  1.00  0.00    -0.200 F 
ATOM     72  F   UNL     1       4.921  -6.964   9.649  1.00  0.00    -0.200 F 
ENDBRANCH  39  62
ENDBRANCH  13  14
ENDBRANCH   6   8
ENDBRANCH   5   6
ENDBRANCH   4   5
ENDBRANCH   3   4
ENDBRANCH   2   3
ENDBRANCH   1   2
BRANCH   1  73
ATOM     73  C   UNL     1       3.431   2.225  -2.701  1.00  0.00     0.261 C 
BRANCH  73  74
ATOM     74  O   UNL     1       3.644   1.099  -3.582  1.00  0.00    -0.460 OA
BRANCH  74  75
ATOM     75  C   UNL     1       4.904   0.948  -4.063  1.00  0.00     0.338 C 
ATOM     76  O   UNL     1       5.812   1.763  -3.997  1.00  0.00    -0.246 OA
BRANCH  75  77
ATOM     77  C   UNL     1       5.127  -0.475  -4.427  1.00  0.00     0.060 A 
ATOM     78  C   UNL     1       6.297  -1.089  -3.950  1.00  0.00     0.018 A 
ATOM     79  C   UNL     1       4.193  -1.218  -5.152  1.00  0.00     0.018 A 
ATOM     80  C   UNL     1       6.556  -2.435  -4.218  1.00  0.00     0.029 A 
ATOM     81  C   UNL     1       4.433  -2.575  -5.399  1.00  0.00     0.029 A 
ATOM     82  C   UNL     1       5.622  -3.176  -4.946  1.00  0.00     0.066 A 
BRANCH  82  83
ATOM     83  N   UNL     1       5.902  -4.510  -5.317  1.00  0.00    -0.220 N 
ATOM     84  C   UNL     1       7.106  -5.009  -5.785  1.00  0.00     0.141 A 
ATOM     85  N   UNL     1       4.931  -5.426  -5.491  1.00  0.00    -0.062 NA
ATOM     86  C   UNL     1       6.761  -6.155  -6.469  1.00  0.00     0.093 A 
ATOM     87  N   UNL     1       5.452  -6.449  -6.145  1.00  0.00    -0.134 NA
BRANCH  86  88
ATOM     88  C   UNL     1       7.321  -6.956  -7.586  1.00  0.00     0.138 C 
BRANCH  88  89
ATOM     89  S   UNL     1       8.992  -7.151  -8.145  1.00  0.00    -0.081 SA
BRANCH  89  90
ATOM     90  C   UNL     1      10.130  -6.038  -7.468  1.00  0.00     0.176 A 
ATOM     91  N   UNL     1      11.221  -6.656  -7.124  1.00  0.00    -0.223 NA
ATOM     92  N   UNL     1       9.976  -4.664  -7.326  1.00  0.00    -0.255 N 
ATOM     93  C   UNL     1      12.248  -5.936  -6.518  1.00  0.00     0.079 A 
ATOM     94  C   UNL     1      10.667  -4.130  -6.224  1.00  0.00     0.266 A 
ATOM     95  C   UNL     1      13.529  -6.475  -6.405  1.00  0.00     0.029 A 
ATOM     96  C   UNL     1      11.982  -4.712  -5.931  1.00  0.00     0.066 A 
ATOM     97  O   UNL     1      10.244  -3.273  -5.449  1.00  0.00    -0.268 OA
ATOM     98  C   UNL     1      14.508  -5.810  -5.659  1.00  0.00     0.002 A 
ATOM     99  C   UNL     1      12.931  -4.058  -5.141  1.00  0.00     0.016 A 
ATOM    100  C   UNL     1      14.199  -4.617  -5.001  1.00  0.00     0.001 A 
BRANCH  92 101
ATOM    101  C   UNL     1       9.131  -3.768  -8.107  1.00  0.00     0.051 A 
ATOM    102  C   UNL     1       9.176  -2.375  -7.877  1.00  0.00     0.027 A 
ATOM    103  C   UNL     1       8.270  -4.170  -9.135  1.00  0.00     0.027 A 
ATOM    104  C   UNL     1       8.297  -1.477  -8.491  1.00  0.00     0.002 A 
ATOM    105  C   UNL     1       7.352  -3.286  -9.725  1.00  0.00     0.002 A 
ATOM    106  C   UNL     1       7.347  -1.943  -9.383  1.00  0.00     0.000 A 
ENDBRANCH  92 101
ENDBRANCH  89  90
ENDBRANCH  88  89
ENDBRANCH  86  88
ENDBRANCH  82  83
ENDBRANCH  75  77
ENDBRANCH  74  75
ENDBRANCH  73  74
ENDBRANCH   1  73
TORSDOF 19
