REMARK SMILES CC(C)C[C@H](NC(=O)CNC(=O)[C@@H](NC(=O)OCc1ccccc1)C(C)C)C(=O)OCCOCCOC(=O)c1ccc(-c2c3nc(c(-c4c(F)c(F)c(F)c(F)c4F)c4ccc([nH]4)c(-c4c(F)c(F)c(F)c(F)c4F)c4nc(c(-c5c(F)c(F)c(F)c(F)c5F)c5ccc2[nH]5)C=C4)C=C3)cc1
REMARK SMILES IDX 30 1 28 2 29 3 5 4 4 5 2 6 1 7 3 8 6 9 7 10 8 12 9 13 10 14
REMARK SMILES IDX 11 15 12 17 13 18 14 19 15 20 16 22 17 23 18 24 19 25 20 26
REMARK SMILES IDX 24 27 21 28 23 29 22 30 25 31 26 32 27 33 31 34 32 35 33 36
REMARK SMILES IDX 34 37 35 38 36 39 37 40 38 41 39 42 40 43 101 44 41 45
REMARK SMILES IDX 100 46 42 47 43 48 44 49 94 50 45 51 99 52 93 53 95 54 46 55
REMARK SMILES IDX 98 56 92 57 91 58 47 60 79 61 59 62 78 63 60 64 63 65 77 66
REMARK SMILES IDX 96 67 61 68 62 69 76 71 97 72 64 73 48 74 49 75 57 76 50 77
REMARK SMILES IDX 51 78 55 79 58 80 52 81 53 82 56 83 54 84 80 85 81 86 89 87
REMARK SMILES IDX 82 88 83 89 87 90 90 91 84 92 85 93 88 94 86 95 65 96 66 97
REMARK SMILES IDX 74 98 67 99 68 100 72 101 75 102 69 103 70 104 73 105 71 106
REMARK H PARENT 6 11 10 16 14 21 95 59 63 70
REMARK Flexibility Score: inf
ROOT
ATOM      1  O   UNL     1      -3.905  -1.265  -1.792  1.00  0.00    -0.462 OA
ENDROOT
BRANCH   1   2
ATOM      2  C   UNL     1      -3.098  -0.211  -2.090  1.00  0.00     0.328 C 
ATOM      3  O   UNL     1      -3.502   0.919  -2.352  1.00  0.00    -0.250 OA
BRANCH   2   4
ATOM      4  C   UNL     1      -1.618  -0.585  -2.202  1.00  0.00     0.192 C 
BRANCH   4   5
ATOM      5  C   UNL     1      -1.257  -0.971  -3.642  1.00  0.00     0.040 C 
BRANCH   5   6
ATOM      6  C   UNL     1      -1.794  -0.038  -4.753  1.00  0.00    -0.015 C 
ATOM      7  C   UNL     1      -1.495   1.453  -4.573  1.00  0.00     0.007 C 
ATOM      8  C   UNL     1      -1.232  -0.479  -6.105  1.00  0.00     0.007 C 
ENDBRANCH   5   6
ENDBRANCH   4   5
BRANCH   4   9
ATOM      9  N   UNL     1      -1.174  -1.594  -1.243  1.00  0.00    -0.341 N 
ATOM     10  C   UNL     1      -0.087  -1.577  -0.415  1.00  0.00     0.240 C 
ATOM     11  H   UNL     1      -1.737  -2.400  -1.185  1.00  0.00     0.164 HD
ATOM     12  O   UNL     1      -0.054  -2.425   0.484  1.00  0.00    -0.273 OA
BRANCH  10  13
ATOM     13  C   UNL     1       1.003  -0.476  -0.467  1.00  0.00     0.216 C 
BRANCH  13  14
ATOM     14  N   UNL     1       1.364   0.053  -1.769  1.00  0.00    -0.345 N 
ATOM     15  C   UNL     1       1.260   1.264  -2.368  1.00  0.00     0.243 C 
ATOM     16  H   UNL     1       1.781  -0.623  -2.351  1.00  0.00     0.164 HD
ATOM     17  O   UNL     1       1.743   1.314  -3.508  1.00  0.00    -0.273 OA
BRANCH  15  18
ATOM     18  C   UNL     1       0.688   2.567  -1.723  1.00  0.00     0.177 C 
BRANCH  18  19
ATOM     19  N   UNL     1      -0.495   2.347  -0.881  1.00  0.00    -0.309 N 
ATOM     20  C   UNL     1      -0.659   2.218   0.457  1.00  0.00     0.408 C 
ATOM     21  H   UNL     1      -1.335   2.279  -1.390  1.00  0.00     0.167 HD
ATOM     22  O   UNL     1      -1.653   1.662   0.906  1.00  0.00    -0.225 OA
BRANCH  20  23
ATOM     23  O   UNL     1       0.299   2.814   1.191  1.00  0.00    -0.445 OA
BRANCH  23  24
ATOM     24  C   UNL     1      -0.028   3.001   2.575  1.00  0.00     0.270 C 
BRANCH  24  25
ATOM     25  C   UNL     1      -0.991   4.143   2.856  1.00  0.00    -0.011 A 
ATOM     26  C   UNL     1      -1.787   4.749   1.870  1.00  0.00     0.007 A 
ATOM     27  C   UNL     1      -1.145   4.579   4.181  1.00  0.00     0.007 A 
ATOM     28  C   UNL     1      -2.709   5.745   2.192  1.00  0.00     0.000 A 
ATOM     29  C   UNL     1      -2.062   5.583   4.503  1.00  0.00     0.000 A 
ATOM     30  C   UNL     1      -2.847   6.163   3.510  1.00  0.00     0.000 A 
ENDBRANCH  24  25
ENDBRANCH  23  24
ENDBRANCH  20  23
ENDBRANCH  18  19
BRANCH  18  31
ATOM     31  C   UNL     1       1.789   3.503  -1.172  1.00  0.00     0.015 C 
ATOM     32  C   UNL     1       2.943   3.693  -2.170  1.00  0.00     0.010 C 
ATOM     33  C   UNL     1       1.229   4.901  -0.864  1.00  0.00     0.010 C 
ENDBRANCH  18  31
ENDBRANCH  15  18
ENDBRANCH  13  14
ENDBRANCH  10  13
ENDBRANCH   4   9
ENDBRANCH   2   4
ENDBRANCH   1   2
BRANCH   1  34
ATOM     34  C   UNL     1      -5.302  -0.961  -1.933  1.00  0.00     0.261 C 
BRANCH  34  35
ATOM     35  C   UNL     1      -6.042  -0.703  -0.618  1.00  0.00     0.202 C 
BRANCH  35  36
ATOM     36  O   UNL     1      -5.575   0.318   0.249  1.00  0.00    -0.374 OA
BRANCH  36  37
ATOM     37  C   UNL     1      -4.333   0.141   0.929  1.00  0.00     0.202 C 
BRANCH  37  38
ATOM     38  C   UNL     1      -4.208  -0.987   1.961  1.00  0.00     0.261 C 
BRANCH  38  39
ATOM     39  O   UNL     1      -4.399  -2.294   1.390  1.00  0.00    -0.460 OA
BRANCH  39  40
ATOM     40  C   UNL     1      -5.504  -2.943   1.831  1.00  0.00     0.338 C 
ATOM     41  O   UNL     1      -6.314  -2.566   2.660  1.00  0.00    -0.246 OA
BRANCH  40  42
ATOM     42  C   UNL     1      -5.730  -4.145   1.012  1.00  0.00     0.060 A 
ATOM     43  C   UNL     1      -6.939  -4.241   0.309  1.00  0.00     0.016 A 
ATOM     44  C   UNL     1      -4.825  -5.206   1.030  1.00  0.00     0.016 A 
ATOM     45  C   UNL     1      -7.273  -5.423  -0.345  1.00  0.00     0.010 A 
ATOM     46  C   UNL     1      -5.170  -6.399   0.391  1.00  0.00     0.010 A 
ATOM     47  C   UNL     1      -6.412  -6.523  -0.262  1.00  0.00    -0.014 A 
BRANCH  47  48
ATOM     48  C   UNL     1      -6.894  -7.859  -0.677  1.00  0.00     0.031 A 
ATOM     49  C   UNL     1      -7.420  -8.789   0.379  1.00  0.00     0.074 A 
ATOM     50  C   UNL     1      -6.877  -8.229  -1.968  1.00  0.00     0.049 A 
ATOM     51  N   UNL     1      -7.806 -10.034   0.275  1.00  0.00    -0.248 NA
ATOM     52  C   UNL     1      -7.517  -8.238   1.740  1.00  0.00     0.031 C 
ATOM     53  C   UNL     1      -6.445  -7.389  -3.081  1.00  0.00     0.029 A 
ATOM     54  N   UNL     1      -7.221  -9.421  -2.553  1.00  0.00    -0.354 N 
ATOM     55  C   UNL     1      -8.176 -10.419   1.557  1.00  0.00     0.074 A 
ATOM     56  C   UNL     1      -7.947  -9.286   2.426  1.00  0.00     0.031 C 
ATOM     57  C   UNL     1      -6.529  -8.100  -4.219  1.00  0.00     0.029 A 
ATOM     58  C   UNL     1      -6.983  -9.454  -3.904  1.00  0.00     0.049 A 
ATOM     59  H   UNL     1      -7.602 -10.178  -2.053  1.00  0.00     0.167 HD
ATOM     60  C   UNL     1      -8.665 -11.613   1.969  1.00  0.00     0.037 A 
ATOM     61  C   UNL     1      -7.090 -10.475  -4.776  1.00  0.00     0.037 A 
ATOM     62  C   UNL     1      -8.890 -12.734   1.095  1.00  0.00     0.049 A 
ATOM     63  C   UNL     1      -7.566 -11.817  -4.282  1.00  0.00     0.074 A 
ATOM     64  C   UNL     1      -9.392 -13.984   1.406  1.00  0.00     0.029 A 
ATOM     65  N   UNL     1      -8.615 -12.738  -0.265  1.00  0.00    -0.354 N 
ATOM     66  N   UNL     1      -7.922 -12.176  -3.072  1.00  0.00    -0.248 NA
ATOM     67  C   UNL     1      -7.656 -12.895  -5.277  1.00  0.00     0.031 C 
ATOM     68  C   UNL     1      -9.372 -14.763   0.244  1.00  0.00     0.029 A 
ATOM     69  C   UNL     1      -8.915 -13.979  -0.804  1.00  0.00     0.049 A 
ATOM     70  H   UNL     1      -8.260 -11.973  -0.772  1.00  0.00     0.167 HD
ATOM     71  C   UNL     1      -8.309 -13.507  -3.165  1.00  0.00     0.074 A 
ATOM     72  C   UNL     1      -8.149 -13.890  -4.553  1.00  0.00     0.031 C 
ATOM     73  C   UNL     1      -8.761 -14.336  -2.192  1.00  0.00     0.037 A 
BRANCH  60  74
ATOM     74  C   UNL     1      -8.950 -11.774   3.434  1.00  0.00     0.064 A 
ATOM     75  C   UNL     1     -10.014 -11.107   4.060  1.00  0.00     0.173 A 
ATOM     76  C   UNL     1      -8.152 -12.619   4.220  1.00  0.00     0.173 A 
ATOM     77  F   UNL     1     -10.798 -10.275   3.357  1.00  0.00    -0.203 F 
ATOM     78  C   UNL     1     -10.249 -11.256   5.425  1.00  0.00     0.198 A 
ATOM     79  C   UNL     1      -8.409 -12.789   5.578  1.00  0.00     0.198 A 
ATOM     80  F   UNL     1      -7.124 -13.282   3.671  1.00  0.00    -0.203 F 
ATOM     81  F   UNL     1     -11.237 -10.567   6.012  1.00  0.00    -0.200 F 
ATOM     82  C   UNL     1      -9.451 -12.101   6.181  1.00  0.00     0.200 A 
ATOM     83  F   UNL     1      -7.644 -13.616   6.304  1.00  0.00    -0.200 F 
ATOM     84  F   UNL     1      -9.680 -12.246   7.494  1.00  0.00    -0.200 F 
ENDBRANCH  60  74
BRANCH  61  85
ATOM     85  C   UNL     1      -6.724 -10.269  -6.201  1.00  0.00     0.064 A 
ATOM     86  C   UNL     1      -7.699 -10.286  -7.207  1.00  0.00     0.173 A 
ATOM     87  C   UNL     1      -5.393 -10.053  -6.586  1.00  0.00     0.173 A 
ATOM     88  F   UNL     1      -8.982 -10.514  -6.892  1.00  0.00    -0.203 F 
ATOM     89  C   UNL     1      -7.354 -10.108  -8.546  1.00  0.00     0.198 A 
ATOM     90  C   UNL     1      -5.053  -9.846  -7.921  1.00  0.00     0.198 A 
ATOM     91  F   UNL     1      -4.421 -10.027  -5.661  1.00  0.00    -0.203 F 
ATOM     92  F   UNL     1      -8.301 -10.169  -9.492  1.00  0.00    -0.200 F 
ATOM     93  C   UNL     1      -6.033  -9.881  -8.901  1.00  0.00     0.200 A 
ATOM     94  F   UNL     1      -3.777  -9.614  -8.257  1.00  0.00    -0.200 F 
ATOM     95  F   UNL     1      -5.704  -9.701 -10.187  1.00  0.00    -0.200 F 
ENDBRANCH  61  85
BRANCH  73  96
ATOM     96  C   UNL     1      -9.166 -15.724  -2.597  1.00  0.00     0.064 A 
ATOM     97  C   UNL     1      -8.220 -16.697  -2.949  1.00  0.00     0.173 A 
ATOM     98  C   UNL     1     -10.519 -16.099  -2.576  1.00  0.00     0.173 A 
ATOM     99  F   UNL     1      -6.916 -16.386  -2.997  1.00  0.00    -0.203 F 
ATOM    100  C   UNL     1      -8.616 -17.989  -3.288  1.00  0.00     0.198 A 
ATOM    101  C   UNL     1     -10.908 -17.398  -2.885  1.00  0.00     0.198 A 
ATOM    102  F   UNL     1     -11.462 -15.207  -2.238  1.00  0.00    -0.203 F 
ATOM    103  F   UNL     1      -7.699 -18.892  -3.664  1.00  0.00    -0.200 F 
ATOM    104  C   UNL     1      -9.957 -18.341  -3.247  1.00  0.00     0.200 A 
ATOM    105  F   UNL     1     -12.203 -17.740  -2.829  1.00  0.00    -0.200 F 
ATOM    106  F   UNL     1     -10.335 -19.587  -3.562  1.00  0.00    -0.200 F 
ENDBRANCH  73  96
ENDBRANCH  47  48
ENDBRANCH  40  42
ENDBRANCH  39  40
ENDBRANCH  38  39
ENDBRANCH  37  38
ENDBRANCH  36  37
ENDBRANCH  35  36
ENDBRANCH  34  35
ENDBRANCH   1  34
TORSDOF 25
