REMARK SMILES CCc1ccc(-c2cc(Cl)cc3c2O[C@@H](C(F)(F)F)C(C(=O)OCCOCCOC(=O)c2ccc(-c4c5nc(c(-c6c(F)c(F)c(F)c(F)c6F)c6ccc([nH]6)c(-c6c(F)c(F)c(F)c(F)c6F)c6nc(c(-c7c(F)c(F)c(F)c(F)c7F)c7ccc4[nH]7)C=C6)C=C5)cc2)=C3)cc1
REMARK SMILES IDX 26 1 25 2 24 3 23 4 21 5 22 6 20 7 7 8 8 9 13 10 9 11 12 12
REMARK SMILES IDX 14 13 10 14 11 15 95 16 15 17 6 18 3 19 4 20 97 21 5 22
REMARK SMILES IDX 96 23 2 24 1 25 16 26 17 27 18 28 19 29 27 30 28 31 29 32
REMARK SMILES IDX 30 33 31 34 32 35 33 36 94 37 34 38 93 39 35 40 36 41 37 42
REMARK SMILES IDX 87 43 38 44 92 45 86 46 88 47 39 48 91 49 85 50 84 51 40 53
REMARK SMILES IDX 72 54 52 55 71 56 53 57 56 58 70 59 89 60 54 61 55 62 69 64
REMARK SMILES IDX 90 65 57 66 41 67 42 68 50 69 43 70 44 71 48 72 51 73 45 74
REMARK SMILES IDX 46 75 49 76 47 77 73 78 74 79 82 80 75 81 76 82 80 83 83 84
REMARK SMILES IDX 77 85 78 86 81 87 79 88 58 89 59 90 67 91 60 92 61 93 65 94
REMARK SMILES IDX 68 95 62 96 63 97 66 98 64 99
REMARK H PARENT 88 52 56 63
REMARK Flexibility Score: inf
ROOT
ATOM      1  O   UNL     1       1.634 -11.292   2.778  1.00  0.00    -0.374 OA
ENDROOT
BRANCH   1   2
ATOM      2  C   UNL     1       2.119 -12.255   3.703  1.00  0.00     0.202 C 
BRANCH   2   3
ATOM      3  C   UNL     1       2.507 -11.789   5.116  1.00  0.00     0.261 C 
BRANCH   3   4
ATOM      4  O   UNL     1       1.881 -10.555   5.497  1.00  0.00    -0.460 OA
BRANCH   4   5
ATOM      5  C   UNL     1       2.610  -9.748   6.291  1.00  0.00     0.338 C 
ATOM      6  O   UNL     1       3.666 -10.054   6.829  1.00  0.00    -0.246 OA
BRANCH   5   7
ATOM      7  C   UNL     1       2.090  -8.360   6.314  1.00  0.00     0.087 C 
ATOM      8  C   UNL     1       1.085  -6.735   2.621  1.00  0.00     0.026 A 
ATOM      9  C   UNL     1       1.891  -7.424   1.683  1.00  0.00     0.033 A 
ATOM     10  C   UNL     1       1.343  -7.045   3.975  1.00  0.00     0.135 A 
ATOM     11  C   UNL     1       3.053  -8.088   2.071  1.00  0.00     0.042 A 
ATOM     12  C   UNL     1       2.633  -7.473   4.337  1.00  0.00     0.019 A 
ATOM     13  O   UNL     1       0.286  -7.366   4.844  1.00  0.00    -0.475 OA
ATOM     14  Cl  UNL     1       4.011  -8.893   0.895  1.00  0.00    -0.084 Cl
ATOM     15  C   UNL     1       3.483  -8.021   3.386  1.00  0.00     0.032 A 
ATOM     16  C   UNL     1       2.990  -7.525   5.770  1.00  0.00     0.027 C 
ATOM     17  C   UNL     1       0.652  -7.901   6.189  1.00  0.00     0.316 C 
BRANCH   8  18
ATOM     18  C   UNL     1       0.571  -5.408   2.108  1.00  0.00    -0.015 A 
ATOM     19  C   UNL     1       0.439  -2.897   0.677  1.00  0.00    -0.048 A 
ATOM     20  C   UNL     1      -0.071  -4.083   0.131  1.00  0.00     0.004 A 
ATOM     21  C   UNL     1       0.941  -2.962   1.980  1.00  0.00     0.004 A 
ATOM     22  C   UNL     1      -0.023  -5.303   0.835  1.00  0.00     0.009 A 
ATOM     23  C   UNL     1       1.002  -4.192   2.681  1.00  0.00     0.009 A 
BRANCH  19  24
ATOM     24  C   UNL     1       0.437  -1.654  -0.195  1.00  0.00     0.032 C 
ATOM     25  C   UNL     1       1.000  -0.356   0.375  1.00  0.00     0.009 C 
ENDBRANCH  19  24
ENDBRANCH   8  18
BRANCH  17  26
ATOM     26  C   UNL     1      -0.378  -8.825   6.879  1.00  0.00     0.430 C 
ATOM     27  F   UNL     1      -0.177  -8.787   8.227  1.00  0.00    -0.167 F 
ATOM     28  F   UNL     1      -1.649  -8.412   6.673  1.00  0.00    -0.167 F 
ATOM     29  F   UNL     1      -0.319 -10.121   6.520  1.00  0.00    -0.167 F 
ENDBRANCH  17  26
ENDBRANCH   5   7
ENDBRANCH   4   5
ENDBRANCH   3   4
ENDBRANCH   2   3
ENDBRANCH   1   2
BRANCH   1  30
ATOM     30  C   UNL     1       0.385 -10.661   3.052  1.00  0.00     0.202 C 
BRANCH  30  31
ATOM     31  C   UNL     1      -0.890 -11.510   3.031  1.00  0.00     0.261 C 
BRANCH  31  32
ATOM     32  O   UNL     1      -0.875 -12.599   3.968  1.00  0.00    -0.460 OA
BRANCH  32  33
ATOM     33  C   UNL     1      -0.898 -13.827   3.400  1.00  0.00     0.338 C 
ATOM     34  O   UNL     1      -0.941 -14.099   2.206  1.00  0.00    -0.246 OA
BRANCH  33  35
ATOM     35  C   UNL     1      -0.707 -14.863   4.423  1.00  0.00     0.060 A 
ATOM     36  C   UNL     1       0.414 -15.695   4.310  1.00  0.00     0.016 A 
ATOM     37  C   UNL     1      -1.674 -15.095   5.403  1.00  0.00     0.016 A 
ATOM     38  C   UNL     1       0.551 -16.793   5.154  1.00  0.00     0.010 A 
ATOM     39  C   UNL     1      -1.537 -16.203   6.245  1.00  0.00     0.010 A 
ATOM     40  C   UNL     1      -0.444 -17.076   6.099  1.00  0.00    -0.014 A 
BRANCH  40  41
ATOM     41  C   UNL     1      -0.398 -18.363   6.834  1.00  0.00     0.031 A 
ATOM     42  C   UNL     1      -1.288 -19.491   6.391  1.00  0.00     0.074 A 
ATOM     43  C   UNL     1       0.458 -18.532   7.857  1.00  0.00     0.049 A 
ATOM     44  N   UNL     1      -1.418 -20.692   6.894  1.00  0.00    -0.248 NA
ATOM     45  C   UNL     1      -2.147 -19.231   5.225  1.00  0.00     0.031 C 
ATOM     46  C   UNL     1       1.390 -17.520   8.351  1.00  0.00     0.029 A 
ATOM     47  N   UNL     1       0.680 -19.618   8.665  1.00  0.00    -0.354 N 
ATOM     48  C   UNL     1      -2.377 -21.326   6.113  1.00  0.00     0.074 A 
ATOM     49  C   UNL     1      -2.819 -20.368   5.123  1.00  0.00     0.031 C 
ATOM     50  C   UNL     1       2.080 -18.031   9.384  1.00  0.00     0.029 A 
ATOM     51  C   UNL     1       1.614 -19.391   9.645  1.00  0.00     0.049 A 
ATOM     52  H   UNL     1       0.213 -20.478   8.553  1.00  0.00     0.167 HD
ATOM     53  C   UNL     1      -2.838 -22.596   6.210  1.00  0.00     0.037 A 
ATOM     54  C   UNL     1       2.027 -20.186  10.651  1.00  0.00     0.037 A 
ATOM     55  C   UNL     1      -2.386 -23.546   7.194  1.00  0.00     0.049 A 
ATOM     56  C   UNL     1       1.452 -21.575  10.771  1.00  0.00     0.074 A 
ATOM     57  C   UNL     1      -2.768 -24.866   7.356  1.00  0.00     0.029 A 
ATOM     58  N   UNL     1      -1.458 -23.272   8.188  1.00  0.00    -0.354 N 
ATOM     59  N   UNL     1       0.575 -22.179  10.007  1.00  0.00    -0.248 NA
ATOM     60  C   UNL     1       1.932 -22.395  11.893  1.00  0.00     0.031 C 
ATOM     61  C   UNL     1      -2.118 -25.372   8.486  1.00  0.00     0.029 A 
ATOM     62  C   UNL     1      -1.279 -24.389   8.988  1.00  0.00     0.049 A 
ATOM     63  H   UNL     1      -0.995 -22.411   8.307  1.00  0.00     0.167 HD
ATOM     64  C   UNL     1       0.421 -23.455  10.534  1.00  0.00     0.074 A 
ATOM     65  C   UNL     1       1.309 -23.544  11.674  1.00  0.00     0.031 C 
ATOM     66  C   UNL     1      -0.384 -24.463  10.114  1.00  0.00     0.037 A 
BRANCH  53  67
ATOM     67  C   UNL     1      -3.904 -23.030   5.246  1.00  0.00     0.064 A 
ATOM     68  C   UNL     1      -3.635 -23.232   3.884  1.00  0.00     0.173 A 
ATOM     69  C   UNL     1      -5.204 -23.297   5.703  1.00  0.00     0.173 A 
ATOM     70  F   UNL     1      -2.412 -22.980   3.392  1.00  0.00    -0.203 F 
ATOM     71  C   UNL     1      -4.631 -23.666   3.013  1.00  0.00     0.198 A 
ATOM     72  C   UNL     1      -6.189 -23.761   4.835  1.00  0.00     0.198 A 
ATOM     73  F   UNL     1      -5.515 -23.125   6.996  1.00  0.00    -0.203 F 
ATOM     74  F   UNL     1      -4.362 -23.813   1.708  1.00  0.00    -0.200 F 
ATOM     75  C   UNL     1      -5.904 -23.939   3.490  1.00  0.00     0.200 A 
ATOM     76  F   UNL     1      -7.415 -24.038   5.302  1.00  0.00    -0.200 F 
ATOM     77  F   UNL     1      -6.858 -24.369   2.653  1.00  0.00    -0.200 F 
ENDBRANCH  53  67
BRANCH  54  78
ATOM     78  C   UNL     1       3.023 -19.687  11.636  1.00  0.00     0.064 A 
ATOM     79  C   UNL     1       4.303 -20.252  11.727  1.00  0.00     0.173 A 
ATOM     80  C   UNL     1       2.704 -18.653  12.529  1.00  0.00     0.173 A 
ATOM     81  F   UNL     1       4.649 -21.260  10.912  1.00  0.00    -0.203 F 
ATOM     82  C   UNL     1       5.214 -19.821  12.690  1.00  0.00     0.198 A 
ATOM     83  C   UNL     1       3.627 -18.200  13.469  1.00  0.00     0.198 A 
ATOM     84  F   UNL     1       1.493 -18.077  12.486  1.00  0.00    -0.203 F 
ATOM     85  F   UNL     1       6.408 -20.420  12.793  1.00  0.00    -0.200 F 
ATOM     86  C   UNL     1       4.877 -18.792  13.556  1.00  0.00     0.200 A 
ATOM     87  F   UNL     1       3.302 -17.196  14.294  1.00  0.00    -0.200 F 
ATOM     88  F   UNL     1       5.753 -18.380  14.482  1.00  0.00    -0.200 F 
ENDBRANCH  54  78
BRANCH  66  89
ATOM     89  C   UNL     1      -0.312 -25.763  10.865  1.00  0.00     0.064 A 
ATOM     90  C   UNL     1      -0.810 -25.892  12.170  1.00  0.00     0.173 A 
ATOM     91  C   UNL     1       0.226 -26.906  10.252  1.00  0.00     0.173 A 
ATOM     92  F   UNL     1      -1.322 -24.828  12.806  1.00  0.00    -0.203 F 
ATOM     93  C   UNL     1      -0.743 -27.109  12.844  1.00  0.00     0.198 A 
ATOM     94  C   UNL     1       0.259 -28.129  10.916  1.00  0.00     0.198 A 
ATOM     95  F   UNL     1       0.707 -26.840   9.002  1.00  0.00    -0.203 F 
ATOM     96  F   UNL     1      -1.174 -27.195  14.110  1.00  0.00    -0.200 F 
ATOM     97  C   UNL     1      -0.217 -28.227  12.215  1.00  0.00     0.200 A 
ATOM     98  F   UNL     1       0.750 -29.212  10.299  1.00  0.00    -0.200 F 
ATOM     99  F   UNL     1      -0.162 -29.399  12.863  1.00  0.00    -0.200 F 
ENDBRANCH  66  89
ENDBRANCH  40  41
ENDBRANCH  33  35
ENDBRANCH  32  33
ENDBRANCH  31  32
ENDBRANCH  30  31
ENDBRANCH   1  30
TORSDOF 17
