REMARK SMILES O=C(C[C@H](C(=O)OCCOCCOC(=O)c1ccc(-c2c3nc(c(-c4c(F)c(F)c(F)c(F)c4F)c4ccc([nH]4)c(-c4c(F)c(F)c(F)c(F)c4F)c4nc(c(-c5c(F)c(F)c(F)c(F)c5F)c5ccc2[nH]5)C=C4)C=C3)cc1)c1ccccc1)Nc1ccc(Cl)cc1Cl
REMARK SMILES IDX 9 1 8 2 7 3 5 4 6 5 4 6 3 7 2 8 1 9 85 10 86 12 87 13 92 14
REMARK SMILES IDX 88 15 91 16 93 17 89 18 90 19 79 20 80 21 84 22 81 23 83 24
REMARK SMILES IDX 82 25 10 26 11 27 12 28 13 29 14 30 15 31 16 32 17 33 78 34
REMARK SMILES IDX 18 35 77 36 19 37 20 38 21 39 71 40 22 41 76 42 70 43 72 44
REMARK SMILES IDX 23 45 75 46 69 47 68 48 24 50 56 51 36 52 55 53 37 54 40 55
REMARK SMILES IDX 54 56 73 57 38 58 39 59 53 61 74 62 41 63 25 64 26 65 34 66
REMARK SMILES IDX 27 67 28 68 32 69 35 70 29 71 30 72 33 73 31 74 57 75 58 76
REMARK SMILES IDX 66 77 59 78 60 79 64 80 67 81 61 82 62 83 65 84 63 85 42 86
REMARK SMILES IDX 43 87 51 88 44 89 45 90 49 91 52 92 46 93 47 94 50 95 48 96
REMARK H PARENT 85 11 72 49 40 60
REMARK Flexibility Score: inf
ROOT
ATOM      1  C   UNL     1       1.785   0.060  -2.830  1.00  0.00     0.202 C 
ENDROOT
BRANCH   1   2
ATOM      2  C   UNL     1       1.371   0.632  -1.472  1.00  0.00     0.261 C 
BRANCH   2   3
ATOM      3  O   UNL     1       2.392   1.512  -0.975  1.00  0.00    -0.463 OA
BRANCH   3   4
ATOM      4  C   UNL     1       2.441   1.645   0.372  1.00  0.00     0.314 C 
ATOM      5  O   UNL     1       1.556   1.286   1.142  1.00  0.00    -0.252 OA
BRANCH   4   6
ATOM      6  C   UNL     1       3.761   2.220   0.870  1.00  0.00     0.138 C 
BRANCH   6   7
ATOM      7  C   UNL     1       4.698   1.085   1.309  1.00  0.00     0.120 C 
BRANCH   7   8
ATOM      8  C   UNL     1       4.107   0.065   2.264  1.00  0.00     0.225 C 
ATOM      9  O   UNL     1       4.082  -1.124   1.959  1.00  0.00    -0.275 OA
ATOM     10  N   UNL     1       3.643   0.598   3.448  1.00  0.00    -0.325 N 
ATOM     11  H   UNL     1       3.553   1.577   3.503  1.00  0.00     0.169 HD
BRANCH  10  12
ATOM     12  C   UNL     1       3.287  -0.155   4.589  1.00  0.00     0.060 A 
ATOM     13  C   UNL     1       2.159   0.300   5.288  1.00  0.00     0.029 A 
ATOM     14  C   UNL     1       3.996  -1.264   5.088  1.00  0.00     0.066 A 
ATOM     15  C   UNL     1       1.703  -0.374   6.422  1.00  0.00     0.023 A 
ATOM     16  C   UNL     1       3.535  -1.937   6.226  1.00  0.00     0.043 A 
ATOM     17  Cl  UNL     1       5.552  -1.741   4.497  1.00  0.00    -0.082 Cl
ATOM     18  C   UNL     1       2.388  -1.496   6.879  1.00  0.00     0.042 A 
ATOM     19  Cl  UNL     1       1.831  -2.318   8.284  1.00  0.00    -0.084 Cl
ENDBRANCH  10  12
ENDBRANCH   7   8
ENDBRANCH   6   7
BRANCH   6  20
ATOM     20  C   UNL     1       4.410   3.250  -0.054  1.00  0.00    -0.033 A 
ATOM     21  C   UNL     1       5.648   3.046  -0.689  1.00  0.00     0.004 A 
ATOM     22  C   UNL     1       3.775   4.492  -0.233  1.00  0.00     0.004 A 
ATOM     23  C   UNL     1       6.241   4.057  -1.449  1.00  0.00     0.000 A 
ATOM     24  C   UNL     1       4.370   5.501  -0.993  1.00  0.00     0.000 A 
ATOM     25  C   UNL     1       5.607   5.286  -1.594  1.00  0.00     0.000 A 
ENDBRANCH   6  20
ENDBRANCH   4   6
ENDBRANCH   3   4
ENDBRANCH   2   3
ENDBRANCH   1   2
BRANCH   1  26
ATOM     26  O   UNL     1       2.917  -0.813  -2.819  1.00  0.00    -0.374 OA
BRANCH  26  27
ATOM     27  C   UNL     1       4.190  -0.243  -2.513  1.00  0.00     0.202 C 
BRANCH  27  28
ATOM     28  C   UNL     1       4.866   0.545  -3.639  1.00  0.00     0.261 C 
BRANCH  28  29
ATOM     29  O   UNL     1       4.080   1.666  -4.078  1.00  0.00    -0.460 OA
BRANCH  29  30
ATOM     30  C   UNL     1       3.651   1.578  -5.358  1.00  0.00     0.338 C 
ATOM     31  O   UNL     1       3.946   0.721  -6.181  1.00  0.00    -0.246 OA
BRANCH  30  32
ATOM     32  C   UNL     1       2.629   2.599  -5.649  1.00  0.00     0.060 A 
ATOM     33  C   UNL     1       1.439   2.152  -6.238  1.00  0.00     0.016 A 
ATOM     34  C   UNL     1       2.873   3.965  -5.490  1.00  0.00     0.016 A 
ATOM     35  C   UNL     1       0.527   3.070  -6.751  1.00  0.00     0.010 A 
ATOM     36  C   UNL     1       1.958   4.888  -6.015  1.00  0.00     0.010 A 
ATOM     37  C   UNL     1       0.810   4.441  -6.696  1.00  0.00    -0.014 A 
BRANCH  37  38
ATOM     38  C   UNL     1       0.011   5.363  -7.542  1.00  0.00     0.031 A 
ATOM     39  C   UNL     1       0.542   5.736  -8.902  1.00  0.00     0.074 A 
ATOM     40  C   UNL     1      -1.204   5.789  -7.154  1.00  0.00     0.049 A 
ATOM     41  N   UNL     1       0.008   6.494  -9.826  1.00  0.00    -0.248 NA
ATOM     42  C   UNL     1       1.851   5.173  -9.272  1.00  0.00     0.031 C 
ATOM     43  C   UNL     1      -1.849   5.459  -5.886  1.00  0.00     0.029 A 
ATOM     44  N   UNL     1      -2.115   6.589  -7.799  1.00  0.00    -0.354 N 
ATOM     45  C   UNL     1       0.907   6.489 -10.885  1.00  0.00     0.074 A 
ATOM     46  C   UNL     1       2.040   5.687 -10.478  1.00  0.00     0.031 C 
ATOM     47  C   UNL     1      -3.053   6.058  -5.841  1.00  0.00     0.029 A 
ATOM     48  C   UNL     1      -3.253   6.826  -7.069  1.00  0.00     0.049 A 
ATOM     49  H   UNL     1      -1.966   6.957  -8.699  1.00  0.00     0.167 HD
ATOM     50  C   UNL     1       0.795   7.087 -12.095  1.00  0.00     0.037 A 
ATOM     51  C   UNL     1      -4.327   7.586  -7.359  1.00  0.00     0.037 A 
ATOM     52  C   UNL     1      -0.327   7.888 -12.504  1.00  0.00     0.049 A 
ATOM     53  C   UNL     1      -4.403   8.285  -8.693  1.00  0.00     0.074 A 
ATOM     54  C   UNL     1      -0.517   8.566 -13.696  1.00  0.00     0.029 A 
ATOM     55  N   UNL     1      -1.454   8.114 -11.731  1.00  0.00    -0.354 N 
ATOM     56  N   UNL     1      -3.547   8.274  -9.685  1.00  0.00    -0.248 NA
ATOM     57  C   UNL     1      -5.605   9.092  -8.952  1.00  0.00     0.031 C 
ATOM     58  C   UNL     1      -1.749   9.225 -13.633  1.00  0.00     0.029 A 
ATOM     59  C   UNL     1      -2.344   8.923 -12.419  1.00  0.00     0.049 A 
ATOM     60  H   UNL     1      -1.602   7.753 -10.826  1.00  0.00     0.167 HD
ATOM     61  C   UNL     1      -4.120   9.037 -10.694  1.00  0.00     0.074 A 
ATOM     62  C   UNL     1      -5.402   9.490 -10.200  1.00  0.00     0.031 C 
ATOM     63  C   UNL     1      -3.628   9.338 -11.921  1.00  0.00     0.037 A 
BRANCH  50  64
ATOM     64  C   UNL     1       1.923   6.902 -13.065  1.00  0.00     0.064 A 
ATOM     65  C   UNL     1       2.116   5.686 -13.737  1.00  0.00     0.173 A 
ATOM     66  C   UNL     1       2.791   7.963 -13.361  1.00  0.00     0.173 A 
ATOM     67  F   UNL     1       1.321   4.637 -13.476  1.00  0.00    -0.203 F 
ATOM     68  C   UNL     1       3.148   5.535 -14.660  1.00  0.00     0.198 A 
ATOM     69  C   UNL     1       3.807   7.815 -14.301  1.00  0.00     0.198 A 
ATOM     70  F   UNL     1       2.646   9.146 -12.746  1.00  0.00    -0.203 F 
ATOM     71  F   UNL     1       3.335   4.354 -15.266  1.00  0.00    -0.200 F 
ATOM     72  C   UNL     1       3.987   6.601 -14.947  1.00  0.00     0.200 A 
ATOM     73  F   UNL     1       4.611   8.849 -14.584  1.00  0.00    -0.200 F 
ATOM     74  F   UNL     1       4.973   6.457 -15.843  1.00  0.00    -0.200 F 
ENDBRANCH  50  64
BRANCH  51  75
ATOM     75  C   UNL     1      -5.425   7.737  -6.368  1.00  0.00     0.064 A 
ATOM     76  C   UNL     1      -6.699   7.203  -6.606  1.00  0.00     0.173 A 
ATOM     77  C   UNL     1      -5.232   8.463  -5.184  1.00  0.00     0.173 A 
ATOM     78  F   UNL     1      -6.941   6.524  -7.737  1.00  0.00    -0.203 F 
ATOM     79  C   UNL     1      -7.746   7.413  -5.710  1.00  0.00     0.198 A 
ATOM     80  C   UNL     1      -6.272   8.648  -4.275  1.00  0.00     0.198 A 
ATOM     81  F   UNL     1      -4.033   8.996  -4.910  1.00  0.00    -0.203 F 
ATOM     82  F   UNL     1      -8.969   6.941  -5.989  1.00  0.00    -0.200 F 
ATOM     83  C   UNL     1      -7.530   8.132  -4.544  1.00  0.00     0.200 A 
ATOM     84  F   UNL     1      -6.057   9.336  -3.146  1.00  0.00    -0.200 F 
ATOM     85  F   UNL     1      -8.539   8.340  -3.686  1.00  0.00    -0.200 F 
ENDBRANCH  51  75
BRANCH  63  86
ATOM     86  C   UNL     1      -4.501  10.146 -12.836  1.00  0.00     0.064 A 
ATOM     87  C   UNL     1      -4.718  11.515 -12.630  1.00  0.00     0.173 A 
ATOM     88  C   UNL     1      -5.095   9.546 -13.957  1.00  0.00     0.173 A 
ATOM     89  F   UNL     1      -4.181  12.131 -11.566  1.00  0.00    -0.203 F 
ATOM     90  C   UNL     1      -5.521  12.250 -13.499  1.00  0.00     0.198 A 
ATOM     91  C   UNL     1      -5.875  10.289 -14.838  1.00  0.00     0.198 A 
ATOM     92  F   UNL     1      -4.910   8.240 -14.203  1.00  0.00    -0.203 F 
ATOM     93  F   UNL     1      -5.752  13.548 -13.258  1.00  0.00    -0.200 F 
ATOM     94  C   UNL     1      -6.094  11.638 -14.604  1.00  0.00     0.200 A 
ATOM     95  F   UNL     1      -6.418   9.699 -15.912  1.00  0.00    -0.200 F 
ATOM     96  F   UNL     1      -6.863  12.348 -15.441  1.00  0.00    -0.200 F 
ENDBRANCH  63  86
ENDBRANCH  37  38
ENDBRANCH  30  32
ENDBRANCH  29  30
ENDBRANCH  28  29
ENDBRANCH  27  28
ENDBRANCH  26  27
ENDBRANCH   1  26
TORSDOF 18
