REMARK SMILES C[C@@H]1CN(C(=O)Nc2ccc(O)c(C(=O)OCCOCCOC(=O)c3ccc(-c4c5nc(c(-c6c(F)c(F)c(F)c(F)c6F)c6ccc([nH]6)c(-c6c(F)c(F)c(F)c(F)c6F)c6nc(c(-c7c(F)c(F)c(F)c(F)c7F)c7ccc4[nH]7)C=C6)C=C5)cc3)c2)C[C@H]1C
REMARK SMILES IDX 20 1 19 2 18 3 17 4 16 5 14 6 15 7 13 8 8 9 9 10 88 11 10 12
REMARK SMILES IDX 11 13 7 14 1 15 2 16 3 17 90 18 4 19 89 20 91 21 5 22 6 23
REMARK SMILES IDX 12 25 21 27 22 28 23 29 24 30 25 31 26 32 87 33 27 34 86 35
REMARK SMILES IDX 28 36 29 37 30 38 80 39 31 40 85 41 79 42 81 43 32 44 84 45
REMARK SMILES IDX 78 46 77 47 33 49 65 50 45 51 64 52 46 53 49 54 63 55 82 56
REMARK SMILES IDX 47 57 48 58 62 60 83 61 50 62 34 63 35 64 43 65 36 66 37 67
REMARK SMILES IDX 41 68 44 69 38 70 39 71 42 72 40 73 66 74 67 75 75 76 68 77
REMARK SMILES IDX 69 78 73 79 76 80 70 81 71 82 74 83 72 84 51 85 52 86 60 87
REMARK SMILES IDX 53 88 54 89 58 90 61 91 55 92 56 93 59 94 57 95
REMARK H PARENT 7 24 12 26 81 48 49 59
REMARK Flexibility Score: inf
ROOT
ATOM      1  C   UNL     1      -4.052   6.948   0.334  1.00  0.00     0.202 C 
ENDROOT
BRANCH   1   2
ATOM      2  O   UNL     1      -4.569   7.088   1.658  1.00  0.00    -0.374 OA
BRANCH   2   3
ATOM      3  C   UNL     1      -3.630   7.062   2.737  1.00  0.00     0.202 C 
BRANCH   3   4
ATOM      4  C   UNL     1      -3.073   5.683   3.095  1.00  0.00     0.261 C 
BRANCH   4   5
ATOM      5  O   UNL     1      -2.186   5.256   2.052  1.00  0.00    -0.460 OA
BRANCH   5   6
ATOM      6  C   UNL     1      -2.392   4.011   1.575  1.00  0.00     0.342 C 
ATOM      7  O   UNL     1      -3.094   3.144   2.077  1.00  0.00    -0.246 OA
BRANCH   6   8
ATOM      8  C   UNL     1      -1.839   3.900   0.207  1.00  0.00     0.103 A 
ATOM      9  C   UNL     1      -2.129   2.958  -1.995  1.00  0.00     0.044 A 
ATOM     10  C   UNL     1      -0.947   3.564  -2.420  1.00  0.00     0.030 A 
ATOM     11  C   UNL     1      -2.620   3.188  -0.715  1.00  0.00     0.045 A 
ATOM     12  C   UNL     1      -0.182   4.306  -1.517  1.00  0.00     0.049 A 
ATOM     13  C   UNL     1      -0.610   4.441  -0.194  1.00  0.00     0.130 A 
BRANCH   9  14
ATOM     14  N   UNL     1      -2.799   2.049  -2.810  1.00  0.00    -0.308 N 
ATOM     15  C   UNL     1       1.080  -0.536   0.070  1.00  0.00     0.010 C 
ATOM     16  C   UNL     1       0.518  -0.557  -1.343  1.00  0.00     0.010 C 
ATOM     17  C   UNL     1      -0.445   0.597  -1.591  1.00  0.00     0.125 C 
ATOM     18  C   UNL     1      -0.348  -1.775  -1.677  1.00  0.00     0.010 C 
ATOM     19  N   UNL     1      -1.374   0.141  -2.615  1.00  0.00    -0.324 N 
ATOM     20  C   UNL     1      -1.161  -1.277  -2.877  1.00  0.00     0.125 C 
ATOM     21  C   UNL     1       0.464  -3.023  -1.970  1.00  0.00     0.010 C 
ATOM     22  C   UNL     1      -2.445   0.783  -3.180  1.00  0.00     0.321 C 
ATOM     23  O   UNL     1      -3.195   0.206  -3.974  1.00  0.00    -0.248 OA
ATOM     24  H   UNL     1      -3.656   2.367  -3.175  1.00  0.00     0.171 HD
ENDBRANCH   9  14
BRANCH  13  25
ATOM     25  O   UNL     1       0.204   5.065   0.708  1.00  0.00    -0.507 OA
ATOM     26  H   UNL     1       1.024   5.423   0.429  1.00  0.00     0.293 HD
ENDBRANCH  13  25
ENDBRANCH   6   8
ENDBRANCH   5   6
ENDBRANCH   4   5
ENDBRANCH   3   4
ENDBRANCH   2   3
ENDBRANCH   1   2
BRANCH   1  27
ATOM     27  C   UNL     1      -3.472   8.214  -0.305  1.00  0.00     0.261 C 
BRANCH  27  28
ATOM     28  O   UNL     1      -2.305   8.694   0.388  1.00  0.00    -0.460 OA
BRANCH  28  29
ATOM     29  C   UNL     1      -2.506   9.815   1.116  1.00  0.00     0.338 C 
ATOM     30  O   UNL     1      -3.527  10.488   1.179  1.00  0.00    -0.246 OA
BRANCH  29  31
ATOM     31  C   UNL     1      -1.348  10.075   1.989  1.00  0.00     0.060 A 
ATOM     32  C   UNL     1      -1.605  10.306   3.346  1.00  0.00     0.016 A 
ATOM     33  C   UNL     1      -0.051  10.190   1.482  1.00  0.00     0.016 A 
ATOM     34  C   UNL     1      -0.577  10.716   4.191  1.00  0.00     0.010 A 
ATOM     35  C   UNL     1       0.980  10.609   2.331  1.00  0.00     0.010 A 
ATOM     36  C   UNL     1       0.712  10.915   3.678  1.00  0.00    -0.014 A 
BRANCH  36  37
ATOM     37  C   UNL     1       1.722  11.612   4.512  1.00  0.00     0.031 A 
ATOM     38  C   UNL     1       1.943  13.085   4.300  1.00  0.00     0.074 A 
ATOM     39  C   UNL     1       2.390  10.961   5.480  1.00  0.00     0.049 A 
ATOM     40  N   UNL     1       2.781  13.896   4.895  1.00  0.00    -0.248 NA
ATOM     41  C   UNL     1       1.103  13.733   3.279  1.00  0.00     0.031 C 
ATOM     42  C   UNL     1       2.230   9.547   5.813  1.00  0.00     0.029 A 
ATOM     43  N   UNL     1       3.341  11.410   6.362  1.00  0.00    -0.354 N 
ATOM     44  C   UNL     1       2.563  15.146   4.329  1.00  0.00     0.074 A 
ATOM     45  C   UNL     1       1.546  14.981   3.313  1.00  0.00     0.031 C 
ATOM     46  C   UNL     1       3.066   9.241   6.822  1.00  0.00     0.029 A 
ATOM     47  C   UNL     1       3.835  10.429   7.186  1.00  0.00     0.049 A 
ATOM     48  H   UNL     1       3.641  12.347   6.399  1.00  0.00     0.167 HD
ATOM     49  C   UNL     1       3.146  16.328   4.639  1.00  0.00     0.037 A 
ATOM     50  C   UNL     1       4.809  10.486   8.115  1.00  0.00     0.037 A 
ATOM     51  C   UNL     1       4.163  16.493   5.643  1.00  0.00     0.049 A 
ATOM     52  C   UNL     1       5.493  11.801   8.390  1.00  0.00     0.074 A 
ATOM     53  C   UNL     1       4.841  17.644   6.008  1.00  0.00     0.029 A 
ATOM     54  N   UNL     1       4.645  15.473   6.448  1.00  0.00    -0.354 N 
ATOM     55  N   UNL     1       5.280  12.977   7.849  1.00  0.00    -0.248 NA
ATOM     56  C   UNL     1       6.547  11.799   9.415  1.00  0.00     0.031 C 
ATOM     57  C   UNL     1       5.757  17.312   7.011  1.00  0.00     0.029 A 
ATOM     58  C   UNL     1       5.615  15.966   7.305  1.00  0.00     0.049 A 
ATOM     59  H   UNL     1       4.343  14.536   6.415  1.00  0.00     0.167 HD
ATOM     60  C   UNL     1       6.141  13.856   8.494  1.00  0.00     0.074 A 
ATOM     61  C   UNL     1       6.873  13.082   9.473  1.00  0.00     0.031 C 
ATOM     62  C   UNL     1       6.312  15.186   8.294  1.00  0.00     0.037 A 
BRANCH  49  63
ATOM     63  C   UNL     1       2.699  17.541   3.877  1.00  0.00     0.064 A 
ATOM     64  C   UNL     1       1.442  18.123   4.102  1.00  0.00     0.173 A 
ATOM     65  C   UNL     1       3.549  18.153   2.945  1.00  0.00     0.173 A 
ATOM     66  F   UNL     1       0.586  17.565   4.972  1.00  0.00    -0.203 F 
ATOM     67  C   UNL     1       1.046  19.263   3.409  1.00  0.00     0.198 A 
ATOM     68  C   UNL     1       3.161  19.309   2.273  1.00  0.00     0.198 A 
ATOM     69  F   UNL     1       4.762  17.637   2.695  1.00  0.00    -0.203 F 
ATOM     70  F   UNL     1      -0.173  19.780   3.612  1.00  0.00    -0.200 F 
ATOM     71  C   UNL     1       1.909  19.860   2.501  1.00  0.00     0.200 A 
ATOM     72  F   UNL     1       3.999  19.890   1.404  1.00  0.00    -0.200 F 
ATOM     73  F   UNL     1       1.531  20.964   1.842  1.00  0.00    -0.200 F 
ENDBRANCH  49  63
BRANCH  50  74
ATOM     74  C   UNL     1       5.215   9.259   8.851  1.00  0.00     0.064 A 
ATOM     75  C   UNL     1       4.993   9.132  10.229  1.00  0.00     0.173 A 
ATOM     76  C   UNL     1       5.882   8.212   8.198  1.00  0.00     0.173 A 
ATOM     77  F   UNL     1       4.383  10.118  10.903  1.00  0.00    -0.203 F 
ATOM     78  C   UNL     1       5.452   8.020  10.932  1.00  0.00     0.198 A 
ATOM     79  C   UNL     1       6.313   7.086   8.897  1.00  0.00     0.198 A 
ATOM     80  F   UNL     1       6.121   8.284   6.881  1.00  0.00    -0.203 F 
ATOM     81  F   UNL     1       5.284   7.953  12.260  1.00  0.00    -0.200 F 
ATOM     82  C   UNL     1       6.109   6.996  10.265  1.00  0.00     0.200 A 
ATOM     83  F   UNL     1       6.938   6.096   8.246  1.00  0.00    -0.200 F 
ATOM     84  F   UNL     1       6.558   5.931  10.943  1.00  0.00    -0.200 F 
ENDBRANCH  50  74
BRANCH  62  85
ATOM     85  C   UNL     1       7.280  15.901   9.191  1.00  0.00     0.064 A 
ATOM     86  C   UNL     1       8.667  15.724   9.075  1.00  0.00     0.173 A 
ATOM     87  C   UNL     1       6.811  16.802  10.160  1.00  0.00     0.173 A 
ATOM     88  F   UNL     1       9.164  14.865   8.173  1.00  0.00    -0.203 F 
ATOM     89  C   UNL     1       9.546  16.401   9.916  1.00  0.00     0.198 A 
ATOM     90  C   UNL     1       7.695  17.498  10.979  1.00  0.00     0.198 A 
ATOM     91  F   UNL     1       5.495  17.013  10.306  1.00  0.00    -0.203 F 
ATOM     92  F   UNL     1      10.865  16.178   9.822  1.00  0.00    -0.200 F 
ATOM     93  C   UNL     1       9.061  17.291  10.863  1.00  0.00     0.200 A 
ATOM     94  F   UNL     1       7.225  18.368  11.884  1.00  0.00    -0.200 F 
ATOM     95  F   UNL     1       9.910  17.943  11.669  1.00  0.00    -0.200 F 
ENDBRANCH  62  85
ENDBRANCH  36  37
ENDBRANCH  29  31
ENDBRANCH  28  29
ENDBRANCH  27  28
ENDBRANCH   1  27
TORSDOF 16
