REMARK SMILES COc1ccc(C(=O)Nc2cc(C(=O)OCCOCCOC(=O)c3ccc(-c4c5nc(c(-c6c(F)c(F)c(F)c(F)c6F)c6ccc([nH]6)c(-c6c(F)c(F)c(F)c(F)c6F)c6nc(c(-c7c(F)c(F)c(F)c(F)c7F)c7ccc4[nH]7)C=C6)C=C5)cc3)c(Cl)cc2Cl)cc1Cl
REMARK SMILES IDX 17 1 16 2 15 3 13 4 14 5 12 6 10 7 11 8 90 9 89 10 91 11
REMARK SMILES IDX 87 12 88 13 9 14 7 15 8 16 6 18 3 19 4 20 93 21 5 22 92 23
REMARK SMILES IDX 94 24 2 25 1 26 18 27 19 28 20 29 21 30 22 31 23 32 24 33
REMARK SMILES IDX 25 34 86 35 26 36 85 37 27 38 28 39 29 40 79 41 30 42 84 43
REMARK SMILES IDX 78 44 80 45 31 46 83 47 77 48 76 49 32 51 64 52 44 53 63 54
REMARK SMILES IDX 45 55 48 56 62 57 81 58 46 59 47 60 61 62 82 63 49 64 33 65
REMARK SMILES IDX 34 66 42 67 35 68 36 69 40 70 43 71 37 72 38 73 41 74 39 75
REMARK SMILES IDX 65 76 66 77 74 78 67 79 68 80 72 81 75 82 69 83 70 84 73 85
REMARK SMILES IDX 71 86 50 87 51 88 59 89 52 90 53 91 57 92 60 93 54 94 55 95
REMARK SMILES IDX 58 96 56 97
REMARK H PARENT 9 17 80 50 48 61
REMARK Flexibility Score: inf
ROOT
ATOM      1  C   UNL     1       5.958   0.611   2.765  1.00  0.00     0.202 C 
ENDROOT
BRANCH   1   2
ATOM      2  C   UNL     1       6.874  -0.577   3.076  1.00  0.00     0.261 C 
BRANCH   2   3
ATOM      3  O   UNL     1       6.571  -1.744   2.296  1.00  0.00    -0.460 OA
BRANCH   3   4
ATOM      4  C   UNL     1       6.314  -2.859   3.019  1.00  0.00     0.339 C 
ATOM      5  O   UNL     1       6.309  -2.966   4.235  1.00  0.00    -0.246 OA
BRANCH   4   6
ATOM      6  C   UNL     1       5.847  -3.956   2.153  1.00  0.00     0.080 A 
ATOM      7  C   UNL     1       4.204  -5.726   1.866  1.00  0.00     0.061 A 
ATOM      8  C   UNL     1       4.628  -4.564   2.514  1.00  0.00     0.045 A 
ATOM      9  C   UNL     1       5.023  -6.292   0.878  1.00  0.00     0.066 A 
ATOM     10  C   UNL     1       6.193  -5.648   0.469  1.00  0.00     0.044 A 
ATOM     11  Cl  UNL     1       4.577  -7.763   0.088  1.00  0.00    -0.082 Cl
ATOM     12  C   UNL     1       6.610  -4.475   1.104  1.00  0.00     0.057 A 
ATOM     13  Cl  UNL     1       8.093  -3.768   0.578  1.00  0.00    -0.083 Cl
BRANCH   7  14
ATOM     14  N   UNL     1       3.012  -6.374   2.238  1.00  0.00    -0.321 N 
ATOM     15  C   UNL     1       1.808  -5.852   2.653  1.00  0.00     0.255 C 
ATOM     16  O   UNL     1       1.046  -6.540   3.329  1.00  0.00    -0.269 OA
ATOM     17  H   UNL     1       3.044  -7.357   2.193  1.00  0.00     0.170 HD
BRANCH  15  18
ATOM     18  C   UNL     1       1.322  -4.536   2.138  1.00  0.00     0.041 A 
ATOM     19  C   UNL     1       0.108  -2.223   1.059  1.00  0.00     0.137 A 
ATOM     20  C   UNL     1      -0.288  -2.727   2.303  1.00  0.00     0.049 A 
ATOM     21  C   UNL     1       1.089  -2.910   0.335  1.00  0.00     0.083 A 
ATOM     22  C   UNL     1       0.309  -3.874   2.839  1.00  0.00     0.018 A 
ATOM     23  C   UNL     1       1.694  -4.054   0.876  1.00  0.00     0.038 A 
ATOM     24  Cl  UNL     1       1.539  -2.498  -1.282  1.00  0.00    -0.080 Cl
BRANCH  19  25
ATOM     25  O   UNL     1      -0.628  -1.156   0.619  1.00  0.00    -0.495 OA
ATOM     26  C   UNL     1       0.119  -0.044   0.133  1.00  0.00     0.278 C 
ENDBRANCH  19  25
ENDBRANCH  15  18
ENDBRANCH   7  14
ENDBRANCH   4   6
ENDBRANCH   3   4
ENDBRANCH   2   3
ENDBRANCH   1   2
BRANCH   1  27
ATOM     27  O   UNL     1       4.546   0.444   2.828  1.00  0.00    -0.374 OA
BRANCH  27  28
ATOM     28  C   UNL     1       3.934  -0.590   2.073  1.00  0.00     0.202 C 
BRANCH  28  29
ATOM     29  C   UNL     1       4.063  -0.615   0.541  1.00  0.00     0.261 C 
BRANCH  29  30
ATOM     30  O   UNL     1       5.246  -0.047  -0.014  1.00  0.00    -0.460 OA
BRANCH  30  31
ATOM     31  C   UNL     1       5.102   1.233  -0.439  1.00  0.00     0.338 C 
ATOM     32  O   UNL     1       4.130   1.956  -0.341  1.00  0.00    -0.246 OA
BRANCH  31  33
ATOM     33  C   UNL     1       6.382   1.653  -1.019  1.00  0.00     0.060 A 
ATOM     34  C   UNL     1       7.158   2.604  -0.349  1.00  0.00     0.016 A 
ATOM     35  C   UNL     1       6.785   1.120  -2.244  1.00  0.00     0.016 A 
ATOM     36  C   UNL     1       8.355   3.033  -0.916  1.00  0.00     0.010 A 
ATOM     37  C   UNL     1       7.981   1.553  -2.811  1.00  0.00     0.010 A 
ATOM     38  C   UNL     1       8.760   2.523  -2.158  1.00  0.00    -0.014 A 
BRANCH  38  39
ATOM     39  C   UNL     1       9.948   3.079  -2.840  1.00  0.00     0.031 A 
ATOM     40  C   UNL     1       9.747   4.054  -3.963  1.00  0.00     0.074 A 
ATOM     41  C   UNL     1      11.181   2.697  -2.465  1.00  0.00     0.049 A 
ATOM     42  N   UNL     1      10.630   4.599  -4.758  1.00  0.00    -0.248 NA
ATOM     43  C   UNL     1       8.358   4.464  -4.232  1.00  0.00     0.031 C 
ATOM     44  C   UNL     1      11.482   1.775  -1.370  1.00  0.00     0.029 A 
ATOM     45  N   UNL     1      12.410   3.029  -2.973  1.00  0.00    -0.354 N 
ATOM     46  C   UNL     1       9.907   5.414  -5.619  1.00  0.00     0.074 A 
ATOM     47  C   UNL     1       8.510   5.263  -5.278  1.00  0.00     0.031 C 
ATOM     48  C   UNL     1      12.813   1.609  -1.294  1.00  0.00     0.029 A 
ATOM     49  C   UNL     1      13.452   2.381  -2.356  1.00  0.00     0.049 A 
ATOM     50  H   UNL     1      12.534   3.671  -3.710  1.00  0.00     0.167 HD
ATOM     51  C   UNL     1      10.375   6.226  -6.596  1.00  0.00     0.037 A 
ATOM     52  C   UNL     1      14.768   2.397  -2.641  1.00  0.00     0.037 A 
ATOM     53  C   UNL     1      11.768   6.359  -6.927  1.00  0.00     0.049 A 
ATOM     54  C   UNL     1      15.252   3.251  -3.785  1.00  0.00     0.074 A 
ATOM     55  C   UNL     1      12.355   7.147  -7.901  1.00  0.00     0.029 A 
ATOM     56  N   UNL     1      12.796   5.677  -6.290  1.00  0.00    -0.354 N 
ATOM     57  N   UNL     1      14.566   4.037  -4.582  1.00  0.00    -0.248 NA
ATOM     58  C   UNL     1      16.693   3.222  -4.070  1.00  0.00     0.031 C 
ATOM     59  C   UNL     1      13.732   6.909  -7.882  1.00  0.00     0.029 A 
ATOM     60  C   UNL     1      14.011   6.016  -6.860  1.00  0.00     0.049 A 
ATOM     61  H   UNL     1      12.678   5.047  -5.543  1.00  0.00     0.167 HD
ATOM     62  C   UNL     1      15.494   4.624  -5.432  1.00  0.00     0.074 A 
ATOM     63  C   UNL     1      16.793   4.111  -5.048  1.00  0.00     0.031 C 
ATOM     64  C   UNL     1      15.293   5.508  -6.439  1.00  0.00     0.037 A 
BRANCH  51  65
ATOM     65  C   UNL     1       9.372   7.021  -7.380  1.00  0.00     0.064 A 
ATOM     66  C   UNL     1       8.675   8.095  -6.804  1.00  0.00     0.173 A 
ATOM     67  C   UNL     1       9.132   6.734  -8.732  1.00  0.00     0.173 A 
ATOM     68  F   UNL     1       8.857   8.401  -5.510  1.00  0.00    -0.203 F 
ATOM     69  C   UNL     1       7.760   8.837  -7.546  1.00  0.00     0.198 A 
ATOM     70  C   UNL     1       8.238   7.497  -9.479  1.00  0.00     0.198 A 
ATOM     71  F   UNL     1       9.772   5.720  -9.332  1.00  0.00    -0.203 F 
ATOM     72  F   UNL     1       7.074   9.830  -6.963  1.00  0.00    -0.200 F 
ATOM     73  C   UNL     1       7.549   8.543  -8.885  1.00  0.00     0.200 A 
ATOM     74  F   UNL     1       8.044   7.219 -10.776  1.00  0.00    -0.200 F 
ATOM     75  F   UNL     1       6.676   9.265  -9.601  1.00  0.00    -0.200 F 
ENDBRANCH  51  65
BRANCH  52  76
ATOM     76  C   UNL     1      15.722   1.583  -1.841  1.00  0.00     0.064 A 
ATOM     77  C   UNL     1      16.695   2.195  -1.038  1.00  0.00     0.173 A 
ATOM     78  C   UNL     1      15.705   0.181  -1.888  1.00  0.00     0.173 A 
ATOM     79  F   UNL     1      16.766   3.533  -0.975  1.00  0.00    -0.203 F 
ATOM     80  C   UNL     1      17.632   1.438  -0.337  1.00  0.00     0.198 A 
ATOM     81  C   UNL     1      16.622  -0.576  -1.161  1.00  0.00     0.198 A 
ATOM     82  F   UNL     1      14.795  -0.456  -2.639  1.00  0.00    -0.203 F 
ATOM     83  F   UNL     1      18.587   2.050   0.376  1.00  0.00    -0.200 F 
ATOM     84  C   UNL     1      17.592   0.053  -0.396  1.00  0.00     0.200 A 
ATOM     85  F   UNL     1      16.571  -1.914  -1.211  1.00  0.00    -0.200 F 
ATOM     86  F   UNL     1      18.495  -0.675   0.275  1.00  0.00    -0.200 F 
ENDBRANCH  52  76
BRANCH  64  87
ATOM     87  C   UNL     1      16.507   6.023  -7.156  1.00  0.00     0.064 A 
ATOM     88  C   UNL     1      17.243   5.218  -8.036  1.00  0.00     0.173 A 
ATOM     89  C   UNL     1      16.905   7.360  -6.997  1.00  0.00     0.173 A 
ATOM     90  F   UNL     1      16.911   3.930  -8.211  1.00  0.00    -0.203 F 
ATOM     91  C   UNL     1      18.350   5.725  -8.712  1.00  0.00     0.198 A 
ATOM     92  C   UNL     1      17.992   7.872  -7.699  1.00  0.00     0.198 A 
ATOM     93  F   UNL     1      16.228   8.174  -6.173  1.00  0.00    -0.203 F 
ATOM     94  F   UNL     1      19.068   4.925  -9.512  1.00  0.00    -0.200 F 
ATOM     95  C   UNL     1      18.717   7.053  -8.550  1.00  0.00     0.200 A 
ATOM     96  F   UNL     1      18.335   9.159  -7.553  1.00  0.00    -0.200 F 
ATOM     97  F   UNL     1      19.776   7.541  -9.210  1.00  0.00    -0.200 F 
ENDBRANCH  64  87
ENDBRANCH  38  39
ENDBRANCH  31  33
ENDBRANCH  30  31
ENDBRANCH  29  30
ENDBRANCH  28  29
ENDBRANCH  27  28
ENDBRANCH   1  27
TORSDOF 17
