REMARK SMILES O=C(C[N@@H+]1CCC[C@@H]1C(=O)OCCOCCOC(=O)c1ccc(-c2c3nc(c(-c4c(F)c(F)c(F)c(F)c4F)c4ccc([nH]4)c(-c4c(F)c(F)c(F)c(F)c4F)c4nc(c(-c5c(F)c(F)c(F)c(F)c5F)c5ccc2[nH]5)C=C4)C=C3)cc1)NCc1ccc(Cl)cc1
REMARK SMILES IDX 13 1 12 2 11 3 9 4 10 5 8 6 4 7 5 8 6 10 7 11 3 12 2 13 1 14
REMARK SMILES IDX 83 15 84 17 85 18 86 19 91 20 87 21 90 22 88 23 89 24 14 25
REMARK SMILES IDX 15 26 16 27 17 28 18 29 19 30 20 31 21 32 82 33 22 34 81 35
REMARK SMILES IDX 23 36 24 37 25 38 75 39 26 40 80 41 74 42 76 43 27 44 79 45
REMARK SMILES IDX 73 46 72 47 28 49 60 50 40 51 59 52 41 53 44 54 58 55 77 56
REMARK SMILES IDX 42 57 43 58 57 60 78 61 45 62 29 63 30 64 38 65 31 66 32 67
REMARK SMILES IDX 36 68 39 69 33 70 34 71 37 72 35 73 61 74 62 75 70 76 63 77
REMARK SMILES IDX 64 78 68 79 71 80 65 81 66 82 69 83 67 84 46 85 47 86 55 87
REMARK SMILES IDX 48 88 49 89 53 90 56 91 50 92 51 93 54 94 52 95
REMARK H PARENT 4 9 83 16 76 48 44 59
REMARK Flexibility Score: inf
ROOT
ATOM      1  C   UNL     1       0.801   3.739   0.707  1.00  0.00     0.202 C 
ENDROOT
BRANCH   1   2
ATOM      2  C   UNL     1       0.682   3.049  -0.683  1.00  0.00     0.261 C 
BRANCH   2   3
ATOM      3  O   UNL     1       1.658   2.000  -0.927  1.00  0.00    -0.459 OA
BRANCH   3   4
ATOM      4  C   UNL     1       2.542   2.137  -1.937  1.00  0.00     0.365 C 
ATOM      5  O   UNL     1       2.511   3.093  -2.710  1.00  0.00    -0.245 OA
BRANCH   4   6
ATOM      6  C   UNL     1       3.727   1.150  -1.924  1.00  0.00     0.295 C 
ATOM      7  N   UNL     1       3.602  -0.308  -2.217  1.00  0.00    -0.315 N 
ATOM      8  C   UNL     1       5.034  -0.716  -2.185  1.00  0.00     0.263 C 
ATOM      9  H   UNL     1       3.025  -0.362  -3.057  1.00  0.00     0.349 HD
ATOM     10  C   UNL     1       5.603  -0.013  -0.954  1.00  0.00     0.068 C 
ATOM     11  C   UNL     1       4.806   1.287  -0.854  1.00  0.00     0.083 C 
BRANCH   7  12
ATOM     12  C   UNL     1       2.834  -1.281  -1.395  1.00  0.00     0.364 C 
BRANCH  12  13
ATOM     13  C   UNL     1       1.818  -0.742  -0.414  1.00  0.00     0.275 C 
ATOM     14  O   UNL     1       0.607  -0.810  -0.597  1.00  0.00    -0.268 OA
ATOM     15  N   UNL     1       2.376  -0.198   0.718  1.00  0.00    -0.347 N 
ATOM     16  H   UNL     1       3.281  -0.467   0.999  1.00  0.00     0.164 HD
BRANCH  15  17
ATOM     17  C   UNL     1       1.640   0.765   1.493  1.00  0.00     0.151 C 
BRANCH  17  18
ATOM     18  C   UNL     1       1.996   0.787   2.927  1.00  0.00    -0.029 A 
ATOM     19  C   UNL     1       2.661  -0.705   3.473  1.00  0.00     0.007 A 
ATOM     20  C   UNL     1       1.813   2.270   3.942  1.00  0.00     0.007 A 
ATOM     21  C   UNL     1       3.195  -0.780   5.127  1.00  0.00     0.021 A 
ATOM     22  C   UNL     1       2.336   2.334   5.636  1.00  0.00     0.021 A 
ATOM     23  C   UNL     1       3.053   0.832   6.349  1.00  0.00     0.041 A 
ATOM     24  Cl  UNL     1       3.442   1.287   8.050  1.00  0.00    -0.084 Cl
ENDBRANCH  17  18
ENDBRANCH  15  17
ENDBRANCH  12  13
ENDBRANCH   7  12
ENDBRANCH   4   6
ENDBRANCH   3   4
ENDBRANCH   2   3
ENDBRANCH   1   2
BRANCH   1  25
ATOM     25  O   UNL     1       1.930   4.541   1.070  1.00  0.00    -0.374 OA
BRANCH  25  26
ATOM     26  C   UNL     1       3.262   4.118   0.782  1.00  0.00     0.202 C 
BRANCH  26  27
ATOM     27  C   UNL     1       4.148   3.797   2.008  1.00  0.00     0.261 C 
BRANCH  27  28
ATOM     28  O   UNL     1       3.912   2.447   2.475  1.00  0.00    -0.460 OA
BRANCH  28  29
ATOM     29  C   UNL     1       4.336   2.178   3.741  1.00  0.00     0.338 C 
ATOM     30  O   UNL     1       5.217   2.827   4.295  1.00  0.00    -0.246 OA
BRANCH  29  31
ATOM     31  C   UNL     1       3.618   0.985   4.523  1.00  0.00     0.060 A 
ATOM     32  C   UNL     1       1.737   0.415   5.053  1.00  0.00     0.016 A 
ATOM     33  C   UNL     1       4.973   0.269   5.486  1.00  0.00     0.016 A 
ATOM     34  C   UNL     1       1.493  -0.693   6.412  1.00  0.00     0.010 A 
ATOM     35  C   UNL     1       4.590  -0.884   6.769  1.00  0.00     0.010 A 
ATOM     36  C   UNL     1       2.911  -1.352   7.202  1.00  0.00    -0.014 A 
BRANCH  36  37
ATOM     37  C   UNL     1       2.598  -2.463   8.120  1.00  0.00     0.031 A 
ATOM     38  C   UNL     1       3.056  -2.324   9.521  1.00  0.00     0.074 A 
ATOM     39  C   UNL     1       1.756  -3.437   7.706  1.00  0.00     0.049 A 
ATOM     40  N   UNL     1       2.538  -2.830  10.603  1.00  0.00    -0.248 NA
ATOM     41  C   UNL     1       4.190  -1.428   9.764  1.00  0.00     0.031 C 
ATOM     42  C   UNL     1       1.252  -3.627   6.335  1.00  0.00     0.029 A 
ATOM     43  N   UNL     1       1.121  -4.429   8.405  1.00  0.00    -0.354 N 
ATOM     44  C   UNL     1       3.225  -2.222  11.642  1.00  0.00     0.074 A 
ATOM     45  C   UNL     1       4.189  -1.321  11.075  1.00  0.00     0.031 C 
ATOM     46  C   UNL     1       0.336  -4.606   6.315  1.00  0.00     0.029 A 
ATOM     47  C   UNL     1       0.242  -5.175   7.648  1.00  0.00     0.049 A 
ATOM     48  H   UNL     1       1.277  -4.594   9.363  1.00  0.00     0.167 HD
ATOM     49  C   UNL     1       3.110  -2.451  12.964  1.00  0.00     0.037 A 
ATOM     50  C   UNL     1      -0.537  -6.213   8.007  1.00  0.00     0.037 A 
ATOM     51  C   UNL     1       2.378  -3.577  13.455  1.00  0.00     0.049 A 
ATOM     52  C   UNL     1      -0.495  -6.589   9.463  1.00  0.00     0.074 A 
ATOM     53  C   UNL     1       2.370  -4.124  14.718  1.00  0.00     0.029 A 
ATOM     54  N   UNL     1       1.597  -4.397  12.642  1.00  0.00    -0.354 N 
ATOM     55  N   UNL     1       0.138  -5.988  10.447  1.00  0.00    -0.248 NA
ATOM     56  C   UNL     1      -1.251  -7.775   9.865  1.00  0.00     0.031 C 
ATOM     57  C   UNL     1       1.678  -5.339  14.641  1.00  0.00     0.029 A 
ATOM     58  C   UNL     1       1.157  -5.489  13.360  1.00  0.00     0.049 A 
ATOM     59  H   UNL     1       1.391  -4.223  11.695  1.00  0.00     0.167 HD
ATOM     60  C   UNL     1      -0.140  -6.717  11.589  1.00  0.00     0.074 A 
ATOM     61  C   UNL     1      -1.031  -7.789  11.173  1.00  0.00     0.031 C 
ATOM     62  C   UNL     1       0.296  -6.536  12.862  1.00  0.00     0.037 A 
BRANCH  49  63
ATOM     63  C   UNL     1       3.997  -1.611  13.834  1.00  0.00     0.064 A 
ATOM     64  C   UNL     1       3.769  -0.232  13.999  1.00  0.00     0.173 A 
ATOM     65  C   UNL     1       5.207  -2.137  14.309  1.00  0.00     0.173 A 
ATOM     66  F   UNL     1       2.665   0.336  13.490  1.00  0.00    -0.203 F 
ATOM     67  C   UNL     1       4.737   0.589  14.577  1.00  0.00     0.198 A 
ATOM     68  C   UNL     1       6.159  -1.316  14.906  1.00  0.00     0.198 A 
ATOM     69  F   UNL     1       5.501  -3.431  14.118  1.00  0.00    -0.203 F 
ATOM     70  F   UNL     1       4.543   1.915  14.636  1.00  0.00    -0.200 F 
ATOM     71  C   UNL     1       5.930   0.046  15.028  1.00  0.00     0.200 A 
ATOM     72  F   UNL     1       7.325  -1.837  15.313  1.00  0.00    -0.200 F 
ATOM     73  F   UNL     1       6.878   0.841  15.544  1.00  0.00    -0.200 F 
ENDBRANCH  49  63
BRANCH  50  74
ATOM     74  C   UNL     1      -1.339  -6.965   6.995  1.00  0.00     0.064 A 
ATOM     75  C   UNL     1      -2.738  -7.048   7.055  1.00  0.00     0.173 A 
ATOM     76  C   UNL     1      -0.710  -7.628   5.925  1.00  0.00     0.173 A 
ATOM     77  F   UNL     1      -3.402  -6.458   8.060  1.00  0.00    -0.203 F 
ATOM     78  C   UNL     1      -3.468  -7.762   6.099  1.00  0.00     0.198 A 
ATOM     79  C   UNL     1      -1.440  -8.314   4.954  1.00  0.00     0.198 A 
ATOM     80  F   UNL     1       0.627  -7.599   5.810  1.00  0.00    -0.203 F 
ATOM     81  F   UNL     1      -4.801  -7.854   6.206  1.00  0.00    -0.200 F 
ATOM     82  C   UNL     1      -2.819  -8.386   5.044  1.00  0.00     0.200 A 
ATOM     83  F   UNL     1      -0.804  -8.902   3.931  1.00  0.00    -0.200 F 
ATOM     84  F   UNL     1      -3.520  -9.061   4.122  1.00  0.00    -0.200 F 
ENDBRANCH  50  74
BRANCH  62  85
ATOM     85  C   UNL     1      -0.210  -7.512  13.876  1.00  0.00     0.064 A 
ATOM     86  C   UNL     1       0.205  -8.850  13.886  1.00  0.00     0.173 A 
ATOM     87  C   UNL     1      -1.090  -7.077  14.876  1.00  0.00     0.173 A 
ATOM     88  F   UNL     1       1.043  -9.308  12.942  1.00  0.00    -0.203 F 
ATOM     89  C   UNL     1      -0.284  -9.734  14.839  1.00  0.00     0.198 A 
ATOM     90  C   UNL     1      -1.541  -7.952  15.854  1.00  0.00     0.198 A 
ATOM     91  F   UNL     1      -1.497  -5.798  14.912  1.00  0.00    -0.203 F 
ATOM     92  F   UNL     1       0.067 -11.026  14.794  1.00  0.00    -0.200 F 
ATOM     93  C   UNL     1      -1.150  -9.282  15.826  1.00  0.00     0.200 A 
ATOM     94  F   UNL     1      -2.356  -7.509  16.820  1.00  0.00    -0.200 F 
ATOM     95  F   UNL     1      -1.616 -10.134  16.748  1.00  0.00    -0.200 F 
ENDBRANCH  62  85
ENDBRANCH  36  37
ENDBRANCH  29  31
ENDBRANCH  28  29
ENDBRANCH  27  28
ENDBRANCH  26  27
ENDBRANCH  25  26
ENDBRANCH   1  25
TORSDOF 18
