REMARK SMILES [NH3+][C@@H](Cc1c[nH]c2ccccc12)C(=O)N[C@@H](CS)C(=O)N[C@@H](CO)C(=O)OCCOCCOC(=O)c1ccc(-c2c3nc(c(-c4c(F)c(F)c(F)c(F)c4F)c4ccc([nH]4)c(-c4c(F)c(F)c(F)c(F)c4F)c4nc(c(-c5c(F)c(F)c(F)c(F)c5F)c5ccc2[nH]5)C=C4)C=C3)cc1
REMARK SMILES IDX 28 1 27 2 25 3 26 4 22 5 21 6 19 7 20 8 16 10 15 11 13 12
REMARK SMILES IDX 14 13 2 15 1 16 3 20 4 21 5 22 12 23 6 24 7 25 11 26 8 28
REMARK SMILES IDX 10 29 9 30 17 31 18 32 23 34 24 35 29 37 30 38 31 39 32 40
REMARK SMILES IDX 33 41 34 42 35 43 36 44 37 45 98 46 38 47 97 48 39 49 40 50
REMARK SMILES IDX 41 51 91 52 42 53 96 54 90 55 92 56 43 57 95 58 89 59 88 60
REMARK SMILES IDX 44 62 76 63 56 64 75 65 57 66 60 67 74 68 93 69 58 70 59 71
REMARK SMILES IDX 73 73 94 74 61 75 45 76 46 77 54 78 47 79 48 80 52 81 55 82
REMARK SMILES IDX 49 83 50 84 53 85 51 86 77 87 78 88 86 89 79 90 80 91 84 92
REMARK SMILES IDX 87 93 81 94 82 95 85 96 83 97 62 98 63 99 71 100 64 101
REMARK SMILES IDX 65 102 69 103 72 104 66 105 67 106 70 107 68 108
REMARK H PARENT 21 9 15 14 1 17 1 18 1 19 6 27 18 33 24 36 92 61 60 72
REMARK Flexibility Score: inf
ROOT
ATOM      1  C   UNL     1      -6.281  -5.054  -2.494  1.00  0.00     0.261 C 
ENDROOT
BRANCH   1   2
ATOM      2  O   UNL     1      -5.546  -3.850  -2.752  1.00  0.00    -0.462 OA
BRANCH   2   3
ATOM      3  C   UNL     1      -5.990  -2.753  -2.079  1.00  0.00     0.331 C 
ATOM      4  O   UNL     1      -7.062  -2.685  -1.488  1.00  0.00    -0.250 OA
BRANCH   3   5
ATOM      5  C   UNL     1      -5.017  -1.581  -2.194  1.00  0.00     0.218 C 
BRANCH   5   6
ATOM      6  N   UNL     1      -3.656  -1.958  -2.631  1.00  0.00    -0.339 N 
ATOM      7  C   UNL     1      -2.687  -1.000  -2.541  1.00  0.00     0.244 C 
ATOM      8  O   UNL     1      -2.724  -0.064  -3.341  1.00  0.00    -0.273 OA
ATOM      9  H   UNL     1      -3.457  -2.859  -2.973  1.00  0.00     0.164 HD
BRANCH   7  10
ATOM     10  C   UNL     1      -1.676  -1.054  -1.369  1.00  0.00     0.181 C 
BRANCH  10  11
ATOM     11  N   UNL     1      -1.694   0.266  -0.751  1.00  0.00    -0.338 N 
ATOM     12  C   UNL     1      -0.776   1.266  -0.897  1.00  0.00     0.279 C 
ATOM     13  O   UNL     1      -1.203   2.424  -0.820  1.00  0.00    -0.268 OA
ATOM     14  H   UNL     1      -2.457   0.458  -0.159  1.00  0.00     0.164 HD
BRANCH  12  15
ATOM     15  C   UNL     1       0.743   1.003  -1.070  1.00  0.00     0.275 C 
BRANCH  15  16
ATOM     16  N   UNL     1       1.221  -0.027  -0.117  1.00  0.00    -0.347 N 
ATOM     17  H   UNL     1       2.221  -0.179  -0.253  1.00  0.00     0.345 HD
ATOM     18  H   UNL     1       0.720  -0.900  -0.280  1.00  0.00     0.345 HD
ATOM     19  H   UNL     1       1.053   0.289   0.838  1.00  0.00     0.345 HD
ENDBRANCH  15  16
BRANCH  15  20
ATOM     20  C   UNL     1       1.268   0.901  -2.524  1.00  0.00     0.113 C 
BRANCH  20  21
ATOM     21  C   UNL     1       1.147  -0.430  -3.220  1.00  0.00    -0.016 A 
ATOM     22  C   UNL     1       1.783  -1.614  -2.887  1.00  0.00     0.087 A 
ATOM     23  C   UNL     1       0.345  -0.719  -4.377  1.00  0.00     0.003 A 
ATOM     24  N   UNL     1       1.296  -2.611  -3.691  1.00  0.00    -0.361 N 
ATOM     25  C   UNL     1       0.376  -2.101  -4.575  1.00  0.00     0.046 A 
ATOM     26  C   UNL     1      -0.458   0.058  -5.236  1.00  0.00     0.010 A 
ATOM     27  H   UNL     1       1.565  -3.557  -3.641  1.00  0.00     0.166 HD
ATOM     28  C   UNL     1      -0.417  -2.750  -5.530  1.00  0.00     0.026 A 
ATOM     29  C   UNL     1      -1.243  -0.572  -6.210  1.00  0.00     0.001 A 
ATOM     30  C   UNL     1      -1.239  -1.958  -6.337  1.00  0.00     0.002 A 
ENDBRANCH  20  21
ENDBRANCH  15  20
ENDBRANCH  12  15
ENDBRANCH  10  11
BRANCH  10  31
ATOM     31  C   UNL     1      -1.732  -2.219  -0.379  1.00  0.00     0.101 C 
BRANCH  31  32
ATOM     32  S   UNL     1      -3.165  -2.283   0.738  1.00  0.00    -0.177 SA
ATOM     33  H   UNL     1      -3.149  -1.198   1.558  1.00  0.00     0.102 HD
ENDBRANCH  31  32
ENDBRANCH  10  31
ENDBRANCH   7  10
ENDBRANCH   5   6
BRANCH   5  34
ATOM     34  C   UNL     1      -5.649  -0.539  -3.131  1.00  0.00     0.193 C 
BRANCH  34  35
ATOM     35  O   UNL     1      -5.410  -0.886  -4.498  1.00  0.00    -0.394 OA
ATOM     36  H   UNL     1      -4.455  -0.911  -4.664  1.00  0.00     0.210 HD
ENDBRANCH  34  35
ENDBRANCH   5  34
ENDBRANCH   3   5
ENDBRANCH   2   3
ENDBRANCH   1   2
BRANCH   1  37
ATOM     37  C   UNL     1      -5.363  -6.269  -2.628  1.00  0.00     0.202 C 
BRANCH  37  38
ATOM     38  O   UNL     1      -4.289  -6.368  -1.692  1.00  0.00    -0.374 OA
BRANCH  38  39
ATOM     39  C   UNL     1      -3.224  -5.428  -1.810  1.00  0.00     0.202 C 
BRANCH  39  40
ATOM     40  C   UNL     1      -2.205  -5.663  -2.935  1.00  0.00     0.261 C 
BRANCH  40  41
ATOM     41  O   UNL     1      -2.794  -5.699  -4.246  1.00  0.00    -0.460 OA
BRANCH  41  42
ATOM     42  C   UNL     1      -2.812  -6.930  -4.818  1.00  0.00     0.338 C 
ATOM     43  O   UNL     1      -2.322  -7.958  -4.389  1.00  0.00    -0.246 OA
BRANCH  42  44
ATOM     44  C   UNL     1      -3.661  -6.907  -6.021  1.00  0.00     0.060 A 
ATOM     45  C   UNL     1      -4.821  -7.692  -6.019  1.00  0.00     0.016 A 
ATOM     46  C   UNL     1      -3.276  -6.205  -7.164  1.00  0.00     0.016 A 
ATOM     47  C   UNL     1      -5.595  -7.795  -7.172  1.00  0.00     0.010 A 
ATOM     48  C   UNL     1      -4.045  -6.323  -8.326  1.00  0.00     0.010 A 
ATOM     49  C   UNL     1      -5.192  -7.139  -8.342  1.00  0.00    -0.014 A 
BRANCH  49  50
ATOM     50  C   UNL     1      -5.891  -7.420  -9.618  1.00  0.00     0.031 A 
ATOM     51  C   UNL     1      -5.287  -8.409 -10.575  1.00  0.00     0.074 A 
ATOM     52  C   UNL     1      -7.056  -6.816  -9.909  1.00  0.00     0.049 A 
ATOM     53  N   UNL     1      -5.688  -8.762 -11.769  1.00  0.00    -0.248 NA
ATOM     54  C   UNL     1      -4.065  -9.091 -10.123  1.00  0.00     0.031 C 
ATOM     55  C   UNL     1      -7.760  -5.878  -9.037  1.00  0.00     0.029 A 
ATOM     56  N   UNL     1      -7.847  -6.899 -11.027  1.00  0.00    -0.354 N 
ATOM     57  C   UNL     1      -4.766  -9.700 -12.213  1.00  0.00     0.074 A 
ATOM     58  C   UNL     1      -3.769  -9.842 -11.174  1.00  0.00     0.031 C 
ATOM     59  C   UNL     1      -8.875  -5.460  -9.660  1.00  0.00     0.029 A 
ATOM     60  C   UNL     1      -8.942  -6.072 -10.986  1.00  0.00     0.049 A 
ATOM     61  H   UNL     1      -7.649  -7.494 -11.786  1.00  0.00     0.167 HD
ATOM     62  C   UNL     1      -4.758 -10.387 -13.381  1.00  0.00     0.037 A 
ATOM     63  C   UNL     1      -9.874  -5.820 -11.925  1.00  0.00     0.037 A 
ATOM     64  C   UNL     1      -5.752 -10.239 -14.411  1.00  0.00     0.049 A 
ATOM     65  C   UNL     1      -9.795  -6.534 -13.250  1.00  0.00     0.074 A 
ATOM     66  C   UNL     1      -5.840 -10.895 -15.626  1.00  0.00     0.029 A 
ATOM     67  N   UNL     1      -6.828  -9.366 -14.349  1.00  0.00    -0.354 N 
ATOM     68  N   UNL     1      -8.932  -7.433 -13.658  1.00  0.00    -0.248 NA
ATOM     69  C   UNL     1     -10.822  -6.198 -14.247  1.00  0.00     0.031 C 
ATOM     70  C   UNL     1      -6.940 -10.382 -16.321  1.00  0.00     0.029 A 
ATOM     71  C   UNL     1      -7.571  -9.447 -15.515  1.00  0.00     0.049 A 
ATOM     72  H   UNL     1      -7.034  -8.776 -13.588  1.00  0.00     0.167 HD
ATOM     73  C   UNL     1      -9.328  -7.792 -14.940  1.00  0.00     0.074 A 
ATOM     74  C   UNL     1     -10.516  -7.021 -15.240  1.00  0.00     0.031 C 
ATOM     75  C   UNL     1      -8.760  -8.681 -15.791  1.00  0.00     0.037 A 
BRANCH  62  76
ATOM     76  C   UNL     1      -3.622 -11.339 -13.618  1.00  0.00     0.064 A 
ATOM     77  C   UNL     1      -3.509 -12.544 -12.909  1.00  0.00     0.173 A 
ATOM     78  C   UNL     1      -2.652 -11.057 -14.592  1.00  0.00     0.173 A 
ATOM     79  F   UNL     1      -4.402 -12.855 -11.957  1.00  0.00    -0.203 F 
ATOM     80  C   UNL     1      -2.452 -13.419 -13.148  1.00  0.00     0.198 A 
ATOM     81  C   UNL     1      -1.613 -11.948 -14.849  1.00  0.00     0.198 A 
ATOM     82  F   UNL     1      -2.715  -9.920 -15.300  1.00  0.00    -0.203 F 
ATOM     83  F   UNL     1      -2.337 -14.542 -12.426  1.00  0.00    -0.200 F 
ATOM     84  C   UNL     1      -1.510 -13.124 -14.122  1.00  0.00     0.200 A 
ATOM     85  F   UNL     1      -0.711 -11.666 -15.799  1.00  0.00    -0.200 F 
ATOM     86  F   UNL     1      -0.497 -13.970 -14.356  1.00  0.00    -0.200 F 
ENDBRANCH  62  76
BRANCH  63  87
ATOM     87  C   UNL     1     -10.955  -4.835 -11.656  1.00  0.00     0.064 A 
ATOM     88  C   UNL     1     -12.291  -5.241 -11.539  1.00  0.00     0.173 A 
ATOM     89  C   UNL     1     -10.677  -3.465 -11.532  1.00  0.00     0.173 A 
ATOM     90  F   UNL     1     -12.612  -6.536 -11.677  1.00  0.00    -0.203 F 
ATOM     91  C   UNL     1     -13.310  -4.313 -11.327  1.00  0.00     0.198 A 
ATOM     92  C   UNL     1     -11.692  -2.542 -11.290  1.00  0.00     0.198 A 
ATOM     93  F   UNL     1      -9.415  -3.024 -11.640  1.00  0.00    -0.203 F 
ATOM     94  F   UNL     1     -14.584  -4.723 -11.269  1.00  0.00    -0.200 F 
ATOM     95  C   UNL     1     -13.009  -2.966 -11.197  1.00  0.00     0.200 A 
ATOM     96  F   UNL     1     -11.395  -1.243 -11.155  1.00  0.00    -0.200 F 
ATOM     97  F   UNL     1     -13.988  -2.075 -10.992  1.00  0.00    -0.200 F 
ENDBRANCH  63  87
BRANCH  75  98
ATOM     98  C   UNL     1      -9.439  -8.905 -17.112  1.00  0.00     0.064 A 
ATOM     99  C   UNL     1      -9.408  -7.943 -18.131  1.00  0.00     0.173 A 
ATOM    100  C   UNL     1     -10.085 -10.123 -17.378  1.00  0.00     0.173 A 
ATOM    101  F   UNL     1      -8.816  -6.757 -17.922  1.00  0.00    -0.203 F 
ATOM    102  C   UNL     1     -10.018  -8.182 -19.360  1.00  0.00     0.198 A 
ATOM    103  C   UNL     1     -10.666 -10.371 -18.618  1.00  0.00     0.198 A 
ATOM    104  F   UNL     1     -10.135 -11.081 -16.439  1.00  0.00    -0.203 F 
ATOM    105  F   UNL     1     -10.014  -7.231 -20.304  1.00  0.00    -0.200 F 
ATOM    106  C   UNL     1     -10.638  -9.399 -19.605  1.00  0.00     0.200 A 
ATOM    107  F   UNL     1     -11.250 -11.553 -18.858  1.00  0.00    -0.200 F 
ATOM    108  F   UNL     1     -11.214  -9.632 -20.793  1.00  0.00    -0.200 F 
ENDBRANCH  75  98
ENDBRANCH  49  50
ENDBRANCH  42  44
ENDBRANCH  41  42
ENDBRANCH  40  41
ENDBRANCH  39  40
ENDBRANCH  38  39
ENDBRANCH  37  38
ENDBRANCH   1  37
TORSDOF 25
