REMARK SMILES C=CCn1nc(C(=O)OCCOCCOC(=O)c2ccc(-c3c4nc(c(-c5c(F)c(F)c(F)c(F)c5F)c5ccc([nH]5)c(-c5c(F)c(F)c(F)c(F)c5F)c5nc(c(-c6c(F)c(F)c(F)c(F)c6F)c6ccc3[nH]6)C=C5)C=C4)cc2)c2c1CC[C@@H]([NH+]1CCC(C(C)(C)O)CC1)C2
REMARK SMILES IDX 11 1 10 2 9 3 7 4 8 5 6 6 4 7 5 8 82 9 81 10 83 11 96 12
REMARK SMILES IDX 84 13 85 14 3 15 2 16 1 17 86 18 87 19 95 20 88 22 94 23
REMARK SMILES IDX 89 24 90 25 91 26 92 27 93 28 12 30 13 31 14 32 15 33 16 34
REMARK SMILES IDX 17 35 18 36 19 37 80 38 20 39 79 40 21 41 22 42 23 43 73 44
REMARK SMILES IDX 24 45 78 46 72 47 74 48 25 49 77 50 71 51 70 52 26 54 58 55
REMARK SMILES IDX 38 56 57 57 39 58 42 59 56 60 75 61 40 62 41 63 55 65 76 66
REMARK SMILES IDX 43 67 27 68 28 69 36 70 29 71 30 72 34 73 37 74 31 75 32 76
REMARK SMILES IDX 35 77 33 78 59 79 60 80 68 81 61 82 62 83 66 84 69 85 63 86
REMARK SMILES IDX 64 87 67 88 65 89 44 90 45 91 53 92 46 93 47 94 51 95 54 96
REMARK SMILES IDX 48 97 49 98 52 99 50 100
REMARK H PARENT 86 21 93 29 74 53 42 64
REMARK Flexibility Score: inf
ROOT
ATOM      1  C   UNL     1      -1.639  -8.227  -3.505  1.00  0.00     0.202 C 
ENDROOT
BRANCH   1   2
ATOM      2  C   UNL     1      -3.039  -7.776  -3.088  1.00  0.00     0.261 C 
BRANCH   2   3
ATOM      3  O   UNL     1      -3.076  -6.357  -2.901  1.00  0.00    -0.458 OA
BRANCH   3   4
ATOM      4  C   UNL     1      -2.994  -5.917  -1.608  1.00  0.00     0.359 C 
ATOM      5  O   UNL     1      -3.054  -6.648  -0.628  1.00  0.00    -0.244 OA
BRANCH   4   6
ATOM      6  C   UNL     1      -2.760  -4.465  -1.554  1.00  0.00     0.174 A 
ATOM      7  N   UNL     1      -2.432  -2.518  -0.742  1.00  0.00    -0.265 N 
ATOM      8  N   UNL     1      -2.399  -3.830  -0.414  1.00  0.00    -0.165 NA
ATOM      9  C   UNL     1      -3.028  -2.335  -1.954  1.00  0.00     0.043 A 
ATOM     10  C   UNL     1      -2.861  -3.528  -2.615  1.00  0.00     0.014 A 
ATOM     11  C   UNL     1      -3.673  -1.130  -2.504  1.00  0.00     0.062 C 
ATOM     12  C   UNL     1      -3.011  -3.661  -4.092  1.00  0.00     0.105 C 
ATOM     13  C   UNL     1      -3.996  -1.338  -3.996  1.00  0.00     0.072 C 
ATOM     14  C   UNL     1      -3.032  -2.257  -4.799  1.00  0.00     0.189 C 
BRANCH   7  15
ATOM     15  C   UNL     1      -1.839  -1.519   0.147  1.00  0.00     0.171 C 
BRANCH  15  16
ATOM     16  C   UNL     1      -0.327  -1.497   0.073  1.00  0.00    -0.011 C 
ATOM     17  C   UNL     1       0.433  -0.402  -0.080  1.00  0.00     0.006 C 
ENDBRANCH  15  16
ENDBRANCH   7  15
BRANCH  14  18
ATOM     18  N   UNL     1      -1.694  -1.777  -5.229  1.00  0.00    -0.332 N 
ATOM     19  C   UNL     1      -0.669  -1.454  -4.251  1.00  0.00     0.262 C 
ATOM     20  C   UNL     1      -1.677  -0.772  -6.288  1.00  0.00     0.262 C 
ATOM     21  H   UNL     1      -1.409  -2.684  -5.597  1.00  0.00     0.348 HD
ATOM     22  C   UNL     1      -0.733  -0.052  -3.644  1.00  0.00     0.068 C 
ATOM     23  C   UNL     1      -1.986   0.645  -5.822  1.00  0.00     0.068 C 
ATOM     24  C   UNL     1      -1.270   1.103  -4.527  1.00  0.00     0.031 C 
BRANCH  24  25
ATOM     25  C   UNL     1      -2.129   2.178  -3.748  1.00  0.00     0.062 C 
ATOM     26  C   UNL     1      -1.584   2.523  -2.356  1.00  0.00     0.042 C 
ATOM     27  C   UNL     1      -2.268   3.465  -4.572  1.00  0.00     0.042 C 
BRANCH  25  28
ATOM     28  O   UNL     1      -3.461   1.694  -3.550  1.00  0.00    -0.390 OA
ATOM     29  H   UNL     1      -3.433   0.875  -3.030  1.00  0.00     0.211 HD
ENDBRANCH  25  28
ENDBRANCH  24  25
ENDBRANCH  14  18
ENDBRANCH   4   6
ENDBRANCH   3   4
ENDBRANCH   2   3
ENDBRANCH   1   2
BRANCH   1  30
ATOM     30  O   UNL     1      -0.638  -8.178  -2.488  1.00  0.00    -0.374 OA
BRANCH  30  31
ATOM     31  C   UNL     1      -0.024  -6.928  -2.190  1.00  0.00     0.202 C 
BRANCH  31  32
ATOM     32  C   UNL     1       1.037  -6.438  -3.158  1.00  0.00     0.261 C 
BRANCH  32  33
ATOM     33  O   UNL     1       0.471  -6.068  -4.410  1.00  0.00    -0.460 OA
BRANCH  33  34
ATOM     34  C   UNL     1       0.688  -6.958  -5.405  1.00  0.00     0.338 C 
ATOM     35  O   UNL     1       0.976  -8.132  -5.298  1.00  0.00    -0.246 OA
BRANCH  34  36
ATOM     36  C   UNL     1       0.737  -6.212  -6.669  1.00  0.00     0.060 A 
ATOM     37  C   UNL     1       1.204  -6.917  -7.777  1.00  0.00     0.016 A 
ATOM     38  C   UNL     1       0.596  -4.814  -6.687  1.00  0.00     0.016 A 
ATOM     39  C   UNL     1       1.721  -6.201  -8.832  1.00  0.00     0.010 A 
ATOM     40  C   UNL     1       1.117  -4.098  -7.742  1.00  0.00     0.010 A 
ATOM     41  C   UNL     1       1.743  -4.799  -8.765  1.00  0.00    -0.014 A 
BRANCH  41  42
ATOM     42  C   UNL     1       2.311  -4.092  -9.894  1.00  0.00     0.031 A 
ATOM     43  C   UNL     1       1.500  -4.278 -11.115  1.00  0.00     0.074 A 
ATOM     44  C   UNL     1       3.430  -3.348  -9.836  1.00  0.00     0.049 A 
ATOM     45  N   UNL     1       1.805  -5.008 -12.133  1.00  0.00    -0.248 NA
ATOM     46  C   UNL     1       0.118  -3.775 -11.124  1.00  0.00     0.031 C 
ATOM     47  C   UNL     1       4.175  -2.911  -8.654  1.00  0.00     0.029 A 
ATOM     48  N   UNL     1       4.113  -2.764 -10.862  1.00  0.00    -0.354 N 
ATOM     49  C   UNL     1       0.730  -4.909 -13.005  1.00  0.00     0.074 A 
ATOM     50  C   UNL     1      -0.337  -4.280 -12.273  1.00  0.00     0.031 C 
ATOM     51  C   UNL     1       5.067  -1.957  -9.014  1.00  0.00     0.029 A 
ATOM     52  C   UNL     1       5.059  -1.829 -10.461  1.00  0.00     0.049 A 
ATOM     53  H   UNL     1       3.949  -2.986 -11.807  1.00  0.00     0.167 HD
ATOM     54  C   UNL     1       0.915  -5.117 -14.335  1.00  0.00     0.037 A 
ATOM     55  C   UNL     1       5.751  -0.995 -11.277  1.00  0.00     0.037 A 
ATOM     56  C   UNL     1       2.171  -5.780 -14.578  1.00  0.00     0.049 A 
ATOM     57  C   UNL     1       5.751  -1.607 -12.626  1.00  0.00     0.074 A 
ATOM     58  C   UNL     1       2.681  -7.045 -14.383  1.00  0.00     0.029 A 
ATOM     59  N   UNL     1       3.236  -4.933 -14.733  1.00  0.00    -0.354 N 
ATOM     60  N   UNL     1       6.394  -2.701 -12.919  1.00  0.00    -0.248 NA
ATOM     61  C   UNL     1       4.721  -1.214 -13.577  1.00  0.00     0.031 C 
ATOM     62  C   UNL     1       4.079  -6.867 -14.148  1.00  0.00     0.029 A 
ATOM     63  C   UNL     1       4.382  -5.509 -14.259  1.00  0.00     0.049 A 
ATOM     64  H   UNL     1       3.184  -4.034 -15.130  1.00  0.00     0.167 HD
ATOM     65  C   UNL     1       5.567  -3.357 -13.813  1.00  0.00     0.074 A 
ATOM     66  C   UNL     1       4.654  -2.331 -14.306  1.00  0.00     0.031 C 
ATOM     67  C   UNL     1       5.515  -4.721 -13.826  1.00  0.00     0.037 A 
BRANCH  54  68
ATOM     68  C   UNL     1       0.246  -4.295 -15.411  1.00  0.00     0.064 A 
ATOM     69  C   UNL     1       0.440  -4.652 -16.760  1.00  0.00     0.173 A 
ATOM     70  C   UNL     1      -0.284  -3.004 -15.192  1.00  0.00     0.173 A 
ATOM     71  F   UNL     1       0.969  -5.842 -17.082  1.00  0.00    -0.203 F 
ATOM     72  C   UNL     1       0.185  -3.757 -17.803  1.00  0.00     0.198 A 
ATOM     73  C   UNL     1      -0.584  -2.134 -16.237  1.00  0.00     0.198 A 
ATOM     74  F   UNL     1      -0.416  -2.484 -13.966  1.00  0.00    -0.203 F 
ATOM     75  F   UNL     1       0.500  -4.093 -19.061  1.00  0.00    -0.200 F 
ATOM     76  C   UNL     1      -0.322  -2.498 -17.540  1.00  0.00     0.200 A 
ATOM     77  F   UNL     1      -1.046  -0.907 -15.958  1.00  0.00    -0.200 F 
ATOM     78  F   UNL     1      -0.510  -1.617 -18.531  1.00  0.00    -0.200 F 
ENDBRANCH  54  68
BRANCH  55  79
ATOM     79  C   UNL     1       6.156   0.415 -11.060  1.00  0.00     0.064 A 
ATOM     80  C   UNL     1       7.094   1.039 -11.901  1.00  0.00     0.173 A 
ATOM     81  C   UNL     1       5.398   1.263 -10.231  1.00  0.00     0.173 A 
ATOM     82  F   UNL     1       7.829   0.309 -12.753  1.00  0.00    -0.203 F 
ATOM     83  C   UNL     1       7.234   2.431 -11.942  1.00  0.00     0.198 A 
ATOM     84  C   UNL     1       5.540   2.652 -10.271  1.00  0.00     0.198 A 
ATOM     85  F   UNL     1       4.432   0.769  -9.445  1.00  0.00    -0.203 F 
ATOM     86  F   UNL     1       8.087   2.994 -12.811  1.00  0.00    -0.200 F 
ATOM     87  C   UNL     1       6.446   3.237 -11.138  1.00  0.00     0.200 A 
ATOM     88  F   UNL     1       4.743   3.423  -9.518  1.00  0.00    -0.200 F 
ATOM     89  F   UNL     1       6.525   4.572 -11.229  1.00  0.00    -0.200 F 
ENDBRANCH  55  79
BRANCH  67  90
ATOM     90  C   UNL     1       6.665  -5.450 -13.193  1.00  0.00     0.064 A 
ATOM     91  C   UNL     1       6.980  -5.414 -11.824  1.00  0.00     0.173 A 
ATOM     92  C   UNL     1       7.432  -6.289 -14.011  1.00  0.00     0.173 A 
ATOM     93  F   UNL     1       6.242  -4.701 -10.963  1.00  0.00    -0.203 F 
ATOM     94  C   UNL     1       8.047  -6.152 -11.312  1.00  0.00     0.198 A 
ATOM     95  C   UNL     1       8.470  -7.055 -13.492  1.00  0.00     0.198 A 
ATOM     96  F   UNL     1       7.147  -6.395 -15.319  1.00  0.00    -0.203 F 
ATOM     97  F   UNL     1       8.348  -6.084 -10.007  1.00  0.00    -0.200 F 
ATOM     98  C   UNL     1       8.786  -6.976 -12.146  1.00  0.00     0.200 A 
ATOM     99  F   UNL     1       9.151  -7.884 -14.295  1.00  0.00    -0.200 F 
ATOM    100  F   UNL     1       9.790  -7.712 -11.649  1.00  0.00    -0.200 F 
ENDBRANCH  67  90
ENDBRANCH  41  42
ENDBRANCH  34  36
ENDBRANCH  33  34
ENDBRANCH  32  33
ENDBRANCH  31  32
ENDBRANCH  30  31
ENDBRANCH   1  30
TORSDOF 19
