REMARK SMILES O=C(OCCOCCOC(=O)[C@H]1Cc2c([nH]c3ccccc23)[C@@H](c2ccc(OC(F)(F)F)cc2)[NH2+]1)c1ccc(-c2c3nc(c(-c4c(F)c(F)c(F)c(F)c4F)c4ccc([nH]4)c(-c4c(F)c(F)c(F)c(F)c4F)c4nc(c(-c5c(F)c(F)c(F)c(F)c5F)c5ccc2[nH]5)C=C4)C=C3)cc1
REMARK SMILES IDX 7 1 6 2 5 3 4 4 3 5 2 6 1 7 36 8 37 9 98 10 38 11 97 12
REMARK SMILES IDX 39 13 40 14 41 15 91 16 42 17 96 18 90 19 92 20 43 21 95 22
REMARK SMILES IDX 89 23 88 24 44 26 76 27 56 28 75 29 57 30 60 31 74 32 93 33
REMARK SMILES IDX 58 34 59 35 73 37 94 38 61 39 45 40 46 41 54 42 47 43 48 44
REMARK SMILES IDX 52 45 55 46 49 47 50 48 53 49 51 50 77 51 78 52 86 53 79 54
REMARK SMILES IDX 80 55 84 56 87 57 81 58 82 59 85 60 83 61 62 62 63 63 71 64
REMARK SMILES IDX 64 65 65 66 69 67 72 68 66 69 67 70 70 71 68 72 8 73 9 74
REMARK SMILES IDX 10 75 11 76 12 77 13 78 35 79 14 80 23 81 15 84 22 85 16 86
REMARK SMILES IDX 17 87 21 88 18 90 20 91 19 92 24 93 25 94 34 95 26 96 33 97
REMARK SMILES IDX 27 98 28 99 29 100 30 101 31 102 32 103
REMARK H PARENT 92 25 60 36 35 82 35 83 16 89
REMARK Flexibility Score: inf
ROOT
ATOM      1  C   UNL     1       2.522   1.647   1.373  1.00  0.00     0.202 C 
ENDROOT
BRANCH   1   2
ATOM      2  O   UNL     1       3.896   1.300   1.134  1.00  0.00    -0.374 OA
BRANCH   2   3
ATOM      3  C   UNL     1       4.310   1.380  -0.233  1.00  0.00     0.202 C 
BRANCH   3   4
ATOM      4  C   UNL     1       3.982   0.185  -1.140  1.00  0.00     0.261 C 
BRANCH   4   5
ATOM      5  O   UNL     1       2.591  -0.170  -1.045  1.00  0.00    -0.460 OA
BRANCH   5   6
ATOM      6  C   UNL     1       2.040  -1.196  -0.350  1.00  0.00     0.338 C 
ATOM      7  O   UNL     1       0.836  -1.410  -0.444  1.00  0.00    -0.246 OA
BRANCH   6   8
ATOM      8  C   UNL     1       2.853  -2.096   0.517  1.00  0.00     0.060 A 
ATOM      9  C   UNL     1       4.040  -1.707   1.128  1.00  0.00     0.016 A 
ATOM     10  C   UNL     1       2.372  -3.388   0.781  1.00  0.00     0.016 A 
ATOM     11  C   UNL     1       4.797  -2.579   1.872  1.00  0.00     0.010 A 
ATOM     12  C   UNL     1       3.089  -4.261   1.610  1.00  0.00     0.010 A 
ATOM     13  C   UNL     1       4.315  -3.853   2.142  1.00  0.00    -0.014 A 
BRANCH  13  14
ATOM     14  C   UNL     1       5.216  -4.706   2.931  1.00  0.00     0.031 A 
ATOM     15  C   UNL     1       6.018  -5.742   2.217  1.00  0.00     0.074 A 
ATOM     16  C   UNL     1       5.490  -4.333   4.196  1.00  0.00     0.049 A 
ATOM     17  N   UNL     1       6.940  -6.537   2.686  1.00  0.00    -0.248 NA
ATOM     18  C   UNL     1       5.778  -5.882   0.770  1.00  0.00     0.031 C 
ATOM     19  C   UNL     1       4.859  -3.205   4.894  1.00  0.00     0.029 A 
ATOM     20  N   UNL     1       6.422  -4.790   5.085  1.00  0.00    -0.354 N 
ATOM     21  C   UNL     1       7.370  -7.287   1.603  1.00  0.00     0.074 A 
ATOM     22  C   UNL     1       6.619  -6.852   0.447  1.00  0.00     0.031 C 
ATOM     23  C   UNL     1       5.466  -3.023   6.075  1.00  0.00     0.029 A 
ATOM     24  C   UNL     1       6.460  -4.072   6.256  1.00  0.00     0.049 A 
ATOM     25  H   UNL     1       7.009  -5.560   4.904  1.00  0.00     0.167 HD
ATOM     26  C   UNL     1       8.307  -8.261   1.593  1.00  0.00     0.037 A 
ATOM     27  C   UNL     1       7.199  -4.272   7.363  1.00  0.00     0.037 A 
ATOM     28  C   UNL     1       9.028  -8.668   2.767  1.00  0.00     0.049 A 
ATOM     29  C   UNL     1       8.156  -5.431   7.352  1.00  0.00     0.074 A 
ATOM     30  C   UNL     1       9.896  -9.729   2.933  1.00  0.00     0.029 A 
ATOM     31  N   UNL     1       8.960  -8.005   3.988  1.00  0.00    -0.354 N 
ATOM     32  N   UNL     1       8.464  -6.237   6.362  1.00  0.00    -0.248 NA
ATOM     33  C   UNL     1       8.847  -5.730   8.610  1.00  0.00     0.031 C 
ATOM     34  C   UNL     1      10.331  -9.726   4.264  1.00  0.00     0.029 A 
ATOM     35  C   UNL     1       9.767  -8.639   4.916  1.00  0.00     0.049 A 
ATOM     36  H   UNL     1       8.418  -7.203   4.165  1.00  0.00     0.167 HD
ATOM     37  C   UNL     1       9.375  -7.144   6.877  1.00  0.00     0.074 A 
ATOM     38  C   UNL     1       9.605  -6.759   8.257  1.00  0.00     0.031 C 
ATOM     39  C   UNL     1       9.957  -8.213   6.279  1.00  0.00     0.037 A 
BRANCH  26  40
ATOM     40  C   UNL     1       8.518  -8.987   0.300  1.00  0.00     0.064 A 
ATOM     41  C   UNL     1       9.206  -8.405  -0.774  1.00  0.00     0.173 A 
ATOM     42  C   UNL     1       7.982 -10.271   0.120  1.00  0.00     0.173 A 
ATOM     43  F   UNL     1       9.704  -7.164  -0.664  1.00  0.00    -0.203 F 
ATOM     44  C   UNL     1       9.332  -9.075  -1.989  1.00  0.00     0.198 A 
ATOM     45  C   UNL     1       8.128 -10.946  -1.088  1.00  0.00     0.198 A 
ATOM     46  F   UNL     1       7.300 -10.863   1.112  1.00  0.00    -0.203 F 
ATOM     47  F   UNL     1       9.948  -8.480  -3.021  1.00  0.00    -0.200 F 
ATOM     48  C   UNL     1       8.797 -10.345  -2.144  1.00  0.00     0.200 A 
ATOM     49  F   UNL     1       7.606 -12.171  -1.237  1.00  0.00    -0.200 F 
ATOM     50  F   UNL     1       8.910 -10.984  -3.317  1.00  0.00    -0.200 F 
ENDBRANCH  26  40
BRANCH  27  51
ATOM     51  C   UNL     1       6.996  -3.430   8.573  1.00  0.00     0.064 A 
ATOM     52  C   UNL     1       8.027  -2.647   9.108  1.00  0.00     0.173 A 
ATOM     53  C   UNL     1       5.760  -3.416   9.242  1.00  0.00     0.173 A 
ATOM     54  F   UNL     1       9.235  -2.639   8.525  1.00  0.00    -0.203 F 
ATOM     55  C   UNL     1       7.838  -1.902  10.273  1.00  0.00     0.198 A 
ATOM     56  C   UNL     1       5.561  -2.643  10.384  1.00  0.00     0.198 A 
ATOM     57  F   UNL     1       4.737  -4.151   8.782  1.00  0.00    -0.203 F 
ATOM     58  F   UNL     1       8.858  -1.207  10.795  1.00  0.00    -0.200 F 
ATOM     59  C   UNL     1       6.603  -1.895  10.906  1.00  0.00     0.200 A 
ATOM     60  F   UNL     1       4.361  -2.631  10.980  1.00  0.00    -0.200 F 
ATOM     61  F   UNL     1       6.422  -1.181  12.025  1.00  0.00    -0.200 F 
ENDBRANCH  27  51
BRANCH  39  62
ATOM     62  C   UNL     1      10.890  -9.020   7.126  1.00  0.00     0.064 A 
ATOM     63  C   UNL     1      10.408  -9.870   8.132  1.00  0.00     0.173 A 
ATOM     64  C   UNL     1      12.274  -8.960   6.912  1.00  0.00     0.173 A 
ATOM     65  F   UNL     1       9.092  -9.943   8.382  1.00  0.00    -0.203 F 
ATOM     66  C   UNL     1      11.285 -10.613   8.915  1.00  0.00     0.198 A 
ATOM     67  C   UNL     1      13.145  -9.726   7.678  1.00  0.00     0.198 A 
ATOM     68  F   UNL     1      12.777  -8.164   5.956  1.00  0.00    -0.203 F 
ATOM     69  F   UNL     1      10.809 -11.381   9.904  1.00  0.00    -0.200 F 
ATOM     70  C   UNL     1      12.651 -10.545   8.683  1.00  0.00     0.200 A 
ATOM     71  F   UNL     1      14.464  -9.668   7.448  1.00  0.00    -0.200 F 
ATOM     72  F   UNL     1      13.494 -11.263   9.437  1.00  0.00    -0.200 F 
ENDBRANCH  39  62
ENDBRANCH  13  14
ENDBRANCH   6   8
ENDBRANCH   5   6
ENDBRANCH   4   5
ENDBRANCH   3   4
ENDBRANCH   2   3
ENDBRANCH   1   2
BRANCH   1  73
ATOM     73  C   UNL     1       2.443   2.939   2.184  1.00  0.00     0.261 C 
BRANCH  73  74
ATOM     74  O   UNL     1       2.944   3.989   1.340  1.00  0.00    -0.459 OA
BRANCH  74  75
ATOM     75  C   UNL     1       4.186   4.449   1.625  1.00  0.00     0.365 C 
ATOM     76  O   UNL     1       4.713   4.396   2.732  1.00  0.00    -0.245 OA
BRANCH  75  77
ATOM     77  C   UNL     1       4.913   4.999   0.385  1.00  0.00     0.298 C 
ATOM     78  C   UNL     1       4.231   4.668  -0.972  1.00  0.00     0.115 C 
ATOM     79  N   UNL     1       5.388   6.387   0.631  1.00  0.00    -0.323 N 
ATOM     80  C   UNL     1       4.315   5.779  -1.933  1.00  0.00    -0.006 A 
ATOM     81  C   UNL     1       4.678   7.466  -0.064  1.00  0.00     0.262 C 
ATOM     82  H   UNL     1       6.367   6.431   0.349  1.00  0.00     0.347 HD
ATOM     83  H   UNL     1       5.218   6.553   1.623  1.00  0.00     0.347 HD
ATOM     84  C   UNL     1       4.547   7.059  -1.499  1.00  0.00     0.083 A 
ATOM     85  C   UNL     1       4.186   5.788  -3.340  1.00  0.00     0.003 A 
ATOM     86  N   UNL     1       4.635   7.859  -2.606  1.00  0.00    -0.353 N 
ATOM     87  C   UNL     1       4.390   7.109  -3.743  1.00  0.00     0.046 A 
ATOM     88  C   UNL     1       3.919   4.801  -4.308  1.00  0.00     0.010 A 
ATOM     89  H   UNL     1       4.842   8.822  -2.595  1.00  0.00     0.166 HD
ATOM     90  C   UNL     1       4.335   7.489  -5.089  1.00  0.00     0.026 A 
ATOM     91  C   UNL     1       3.862   5.167  -5.655  1.00  0.00     0.001 A 
ATOM     92  C   UNL     1       4.068   6.492  -6.036  1.00  0.00     0.002 A 
BRANCH  81  93
ATOM     93  C   UNL     1       3.361   7.891   0.596  1.00  0.00     0.016 A 
ATOM     94  C   UNL     1       2.214   8.187  -0.161  1.00  0.00     0.014 A 
ATOM     95  C   UNL     1       3.299   8.146   1.978  1.00  0.00     0.014 A 
ATOM     96  C   UNL     1       1.084   8.762   0.426  1.00  0.00     0.047 A 
ATOM     97  C   UNL     1       2.158   8.711   2.569  1.00  0.00     0.047 A 
ATOM     98  C   UNL     1       1.058   9.056   1.787  1.00  0.00     0.129 A 
BRANCH  98  99
ATOM     99  O   UNL     1      -0.079   9.683   2.205  1.00  0.00    -0.406 OA
BRANCH  99 100
ATOM    100  C   UNL     1      -0.102  10.195   3.526  1.00  0.00     0.573 C 
ATOM    101  F   UNL     1      -0.121   9.191   4.428  1.00  0.00    -0.132 F 
ATOM    102  F   UNL     1       0.956  10.999   3.768  1.00  0.00    -0.132 F 
ATOM    103  F   UNL     1      -1.226  10.928   3.686  1.00  0.00    -0.132 F 
ENDBRANCH  99 100
ENDBRANCH  98  99
ENDBRANCH  81  93
ENDBRANCH  75  77
ENDBRANCH  74  75
ENDBRANCH  73  74
ENDBRANCH   1  73
TORSDOF 17
