REMARK SMILES NC(=O)c1ccc(N[C@H]2C=C[C@@H](C(=O)OCCOCCOC(=O)c3ccc(-c4c5nc(c(-c6c(F)c(F)c(F)c(F)c6F)c6ccc([nH]6)c(-c6c(F)c(F)c(F)c(F)c6F)c6nc(c(-c7c(F)c(F)c(F)c(F)c7F)c7ccc4[nH]7)C=C6)C=C5)cc3)C2)cc1Cl
REMARK SMILES IDX 17 1 16 2 15 3 13 4 14 5 12 6 9 7 10 8 87 9 11 10 8 11 7 13
REMARK SMILES IDX 4 14 5 15 89 16 6 17 88 18 90 19 2 20 1 21 3 24 18 25 19 26
REMARK SMILES IDX 20 27 21 28 22 29 23 30 24 31 25 32 86 33 26 34 85 35 27 36
REMARK SMILES IDX 28 37 29 38 79 39 30 40 84 41 78 42 80 43 31 44 83 45 77 46
REMARK SMILES IDX 76 47 32 49 64 50 44 51 63 52 45 53 48 54 62 55 81 56 46 57
REMARK SMILES IDX 47 58 61 60 82 61 49 62 33 63 34 64 42 65 35 66 36 67 40 68
REMARK SMILES IDX 43 69 37 70 38 71 41 72 39 73 65 74 66 75 74 76 67 77 68 78
REMARK SMILES IDX 72 79 75 80 69 81 70 82 73 83 71 84 50 85 51 86 59 87 52 88
REMARK SMILES IDX 53 89 57 90 60 91 54 92 55 93 58 94 56 95
REMARK H PARENT 8 12 1 22 1 23 80 48 48 59
REMARK Flexibility Score: inf
ROOT
ATOM      1  C   UNL     1       0.324   5.163  -4.764  1.00  0.00     0.202 C 
ENDROOT
BRANCH   1   2
ATOM      2  C   UNL     1      -0.556   4.223  -5.591  1.00  0.00     0.261 C 
BRANCH   2   3
ATOM      3  O   UNL     1       0.263   3.206  -6.193  1.00  0.00    -0.463 OA
BRANCH   3   4
ATOM      4  C   UNL     1       0.004   2.914  -7.492  1.00  0.00     0.312 C 
ATOM      5  O   UNL     1      -0.983   3.304  -8.106  1.00  0.00    -0.252 OA
BRANCH   4   6
ATOM      6  C   UNL     1       1.090   2.055  -8.137  1.00  0.00     0.124 C 
ATOM      7  C   UNL     1       2.600   0.244  -7.458  1.00  0.00     0.103 C 
ATOM      8  C   UNL     1       1.346  -0.286  -8.059  1.00  0.00    -0.006 C 
ATOM      9  C   UNL     1       2.360   1.750  -7.315  1.00  0.00     0.048 C 
ATOM     10  C   UNL     1       0.531   0.699  -8.452  1.00  0.00    -0.014 C 
BRANCH   7  11
ATOM     11  N   UNL     1       2.949  -0.436  -6.225  1.00  0.00    -0.379 N 
ATOM     12  H   UNL     1       3.806  -0.920  -6.248  1.00  0.00     0.161 HD
BRANCH  11  13
ATOM     13  C   UNL     1       2.272  -0.515  -5.028  1.00  0.00     0.036 A 
ATOM     14  C   UNL     1       1.022  -0.702  -2.467  1.00  0.00     0.058 A 
ATOM     15  C   UNL     1       0.417  -0.014  -3.528  1.00  0.00     0.017 A 
ATOM     16  C   UNL     1       2.264  -1.299  -2.694  1.00  0.00     0.055 A 
ATOM     17  C   UNL     1       1.034   0.072  -4.781  1.00  0.00     0.026 A 
ATOM     18  C   UNL     1       2.873  -1.196  -3.959  1.00  0.00     0.047 A 
ATOM     19  Cl  UNL     1       3.133  -2.209  -1.507  1.00  0.00    -0.083 Cl
BRANCH  14  20
ATOM     20  C   UNL     1       0.249  -0.729  -1.196  1.00  0.00     0.250 C 
ATOM     21  N   UNL     1       0.908  -0.951  -0.025  1.00  0.00    -0.366 N 
ATOM     22  H   UNL     1       0.410  -0.971   0.824  1.00  0.00     0.159 HD
ATOM     23  H   UNL     1       1.883  -1.090  -0.027  1.00  0.00     0.159 HD
ATOM     24  O   UNL     1      -0.959  -0.507  -1.195  1.00  0.00    -0.269 OA
ENDBRANCH  14  20
ENDBRANCH  11  13
ENDBRANCH   7  11
ENDBRANCH   4   6
ENDBRANCH   3   4
ENDBRANCH   2   3
ENDBRANCH   1   2
BRANCH   1  25
ATOM     25  O   UNL     1       1.207   5.995  -5.521  1.00  0.00    -0.374 OA
BRANCH  25  26
ATOM     26  C   UNL     1       2.354   5.377  -6.102  1.00  0.00     0.202 C 
BRANCH  26  27
ATOM     27  C   UNL     1       3.546   5.145  -5.165  1.00  0.00     0.261 C 
BRANCH  27  28
ATOM     28  O   UNL     1       3.211   4.330  -4.028  1.00  0.00    -0.460 OA
BRANCH  28  29
ATOM     29  C   UNL     1       3.177   5.004  -2.855  1.00  0.00     0.338 C 
ATOM     30  O   UNL     1       3.486   6.173  -2.664  1.00  0.00    -0.246 OA
BRANCH  29  31
ATOM     31  C   UNL     1       2.577   4.184  -1.787  1.00  0.00     0.060 A 
ATOM     32  C   UNL     1       1.569   4.781  -1.019  1.00  0.00     0.016 A 
ATOM     33  C   UNL     1       3.067   2.920  -1.453  1.00  0.00     0.016 A 
ATOM     34  C   UNL     1       1.100   4.151   0.131  1.00  0.00     0.010 A 
ATOM     35  C   UNL     1       2.597   2.291  -0.292  1.00  0.00     0.010 A 
ATOM     36  C   UNL     1       1.646   2.925   0.530  1.00  0.00    -0.014 A 
BRANCH  36  37
ATOM     37  C   UNL     1       1.333   2.403   1.885  1.00  0.00     0.031 A 
ATOM     38  C   UNL     1       2.337   2.579   2.992  1.00  0.00     0.074 A 
ATOM     39  C   UNL     1       0.150   1.821   2.149  1.00  0.00     0.049 A 
ATOM     40  N   UNL     1       2.259   2.220   4.250  1.00  0.00    -0.248 NA
ATOM     41  C   UNL     1       3.595   3.252   2.637  1.00  0.00     0.031 C 
ATOM     42  C   UNL     1      -0.922   1.617   1.181  1.00  0.00     0.029 A 
ATOM     43  N   UNL     1      -0.334   1.269   3.309  1.00  0.00    -0.354 N 
ATOM     44  C   UNL     1       3.443   2.643   4.837  1.00  0.00     0.074 A 
ATOM     45  C   UNL     1       4.250   3.229   3.788  1.00  0.00     0.031 C 
ATOM     46  C   UNL     1      -1.919   0.935   1.770  1.00  0.00     0.029 A 
ATOM     47  C   UNL     1      -1.560   0.671   3.160  1.00  0.00     0.049 A 
ATOM     48  H   UNL     1       0.152   1.299   4.165  1.00  0.00     0.167 HD
ATOM     49  C   UNL     1       3.813   2.580   6.139  1.00  0.00     0.037 A 
ATOM     50  C   UNL     1      -2.304  -0.023   4.042  1.00  0.00     0.037 A 
ATOM     51  C   UNL     1       3.012   2.007   7.188  1.00  0.00     0.049 A 
ATOM     52  C   UNL     1      -1.841  -0.150   5.467  1.00  0.00     0.074 A 
ATOM     53  C   UNL     1       3.285   1.936   8.544  1.00  0.00     0.029 A 
ATOM     54  N   UNL     1       1.782   1.397   6.997  1.00  0.00    -0.354 N 
ATOM     55  N   UNL     1      -0.745   0.304   6.024  1.00  0.00    -0.248 NA
ATOM     56  C   UNL     1      -2.735  -0.861   6.393  1.00  0.00     0.031 C 
ATOM     57  C   UNL     1       2.239   1.245   9.166  1.00  0.00     0.029 A 
ATOM     58  C   UNL     1       1.294   0.925   8.205  1.00  0.00     0.049 A 
ATOM     59  H   UNL     1       1.322   1.311   6.130  1.00  0.00     0.167 HD
ATOM     60  C   UNL     1      -0.836  -0.026   7.370  1.00  0.00     0.074 A 
ATOM     61  C   UNL     1      -2.094  -0.723   7.545  1.00  0.00     0.031 C 
ATOM     62  C   UNL     1       0.038   0.238   8.371  1.00  0.00     0.037 A 
BRANCH  49  63
ATOM     63  C   UNL     1       5.150   3.155   6.502  1.00  0.00     0.064 A 
ATOM     64  C   UNL     1       5.373   4.540   6.514  1.00  0.00     0.173 A 
ATOM     65  C   UNL     1       6.211   2.315   6.871  1.00  0.00     0.173 A 
ATOM     66  F   UNL     1       4.393   5.385   6.157  1.00  0.00    -0.203 F 
ATOM     67  C   UNL     1       6.617   5.062   6.857  1.00  0.00     0.198 A 
ATOM     68  C   UNL     1       7.446   2.842   7.238  1.00  0.00     0.198 A 
ATOM     69  F   UNL     1       6.048   0.983   6.878  1.00  0.00    -0.203 F 
ATOM     70  F   UNL     1       6.820   6.387   6.819  1.00  0.00    -0.200 F 
ATOM     71  C   UNL     1       7.650   4.214   7.225  1.00  0.00     0.200 A 
ATOM     72  F   UNL     1       8.441   2.021   7.601  1.00  0.00    -0.200 F 
ATOM     73  F   UNL     1       8.847   4.718   7.558  1.00  0.00    -0.200 F 
ENDBRANCH  49  63
BRANCH  50  74
ATOM     74  C   UNL     1      -3.575  -0.646   3.599  1.00  0.00     0.064 A 
ATOM     75  C   UNL     1      -4.815  -0.126   3.991  1.00  0.00     0.173 A 
ATOM     76  C   UNL     1      -3.569  -1.787   2.783  1.00  0.00     0.173 A 
ATOM     77  F   UNL     1      -4.867   0.945   4.796  1.00  0.00    -0.203 F 
ATOM     78  C   UNL     1      -6.005  -0.734   3.596  1.00  0.00     0.198 A 
ATOM     79  C   UNL     1      -4.760  -2.381   2.371  1.00  0.00     0.198 A 
ATOM     80  F   UNL     1      -2.404  -2.328   2.396  1.00  0.00    -0.203 F 
ATOM     81  F   UNL     1      -7.177  -0.245   4.023  1.00  0.00    -0.200 F 
ATOM     82  C   UNL     1      -5.976  -1.858   2.783  1.00  0.00     0.200 A 
ATOM     83  F   UNL     1      -4.729  -3.469   1.589  1.00  0.00    -0.200 F 
ATOM     84  F   UNL     1      -7.122  -2.445   2.410  1.00  0.00    -0.200 F 
ENDBRANCH  50  74
BRANCH  62  85
ATOM     85  C   UNL     1      -0.355  -0.186   9.756  1.00  0.00     0.064 A 
ATOM     86  C   UNL     1      -0.352  -1.533  10.144  1.00  0.00     0.173 A 
ATOM     87  C   UNL     1      -0.718   0.774  10.714  1.00  0.00     0.173 A 
ATOM     88  F   UNL     1      -0.028  -2.489   9.261  1.00  0.00    -0.203 F 
ATOM     89  C   UNL     1      -0.727  -1.907  11.432  1.00  0.00     0.198 A 
ATOM     90  C   UNL     1      -1.065   0.399  12.009  1.00  0.00     0.198 A 
ATOM     91  F   UNL     1      -0.730   2.077  10.395  1.00  0.00    -0.203 F 
ATOM     92  F   UNL     1      -0.765  -3.204  11.767  1.00  0.00    -0.200 F 
ATOM     93  C   UNL     1      -1.077  -0.941  12.364  1.00  0.00     0.200 A 
ATOM     94  F   UNL     1      -1.392   1.334  12.911  1.00  0.00    -0.200 F 
ATOM     95  F   UNL     1      -1.436  -1.303  13.604  1.00  0.00    -0.200 F 
ENDBRANCH  62  85
ENDBRANCH  36  37
ENDBRANCH  29  31
ENDBRANCH  28  29
ENDBRANCH  27  28
ENDBRANCH  26  27
ENDBRANCH  25  26
ENDBRANCH   1  25
TORSDOF 17
