REMARK SMILES [NH3+]C1CC[NH+](CC(=O)Nc2cc(Cl)ccc2C(=O)OCCOCCOC(=O)c2ccc(-c3c4nc(c(-c5c(F)c(F)c(F)c(F)c5F)c5ccc([nH]5)c(-c5c(F)c(F)c(F)c(F)c5F)c5nc(c(-c6c(F)c(F)c(F)c(F)c6F)c6ccc3[nH]6)C=C5)C=C4)cc2)CC1
REMARK SMILES IDX 21 1 20 2 19 3 17 4 18 5 16 6 10 7 11 8 12 9 15 10 13 11
REMARK SMILES IDX 14 12 9 13 7 14 8 15 6 17 5 18 2 19 3 20 92 21 4 22 91 23
REMARK SMILES IDX 1 25 22 29 23 30 24 31 25 32 26 33 27 34 28 35 29 36 90 37
REMARK SMILES IDX 30 38 89 39 31 40 32 41 33 42 83 43 34 44 88 45 82 46 84 47
REMARK SMILES IDX 35 48 87 49 81 50 80 51 36 53 68 54 48 55 67 56 49 57 52 58
REMARK SMILES IDX 66 59 85 60 50 61 51 62 65 64 86 65 53 66 37 67 38 68 46 69
REMARK SMILES IDX 39 70 40 71 44 72 47 73 41 74 42 75 45 76 43 77 69 78 70 79
REMARK SMILES IDX 78 80 71 81 72 82 76 83 79 84 73 85 74 86 77 87 75 88 54 89
REMARK SMILES IDX 55 90 63 91 56 92 57 93 61 94 64 95 58 96 59 97 62 98 60 99
REMARK H PARENT 9 16 5 24 1 26 1 27 1 28 84 52 52 63
REMARK Flexibility Score: inf
ROOT
ATOM      1  C   UNL     1      -5.381  -4.710  -1.110  1.00  0.00     0.202 C 
ENDROOT
BRANCH   1   2
ATOM      2  C   UNL     1      -5.131  -3.205  -0.981  1.00  0.00     0.261 C 
BRANCH   2   3
ATOM      3  O   UNL     1      -3.872  -2.993  -0.318  1.00  0.00    -0.460 OA
BRANCH   3   4
ATOM      4  C   UNL     1      -3.949  -2.376   0.886  1.00  0.00     0.340 C 
ATOM      5  O   UNL     1      -4.894  -1.728   1.291  1.00  0.00    -0.246 OA
BRANCH   4   6
ATOM      6  C   UNL     1      -2.769  -2.725   1.743  1.00  0.00     0.083 A 
ATOM      7  C   UNL     1      -1.530  -3.267   1.294  1.00  0.00     0.057 A 
ATOM      8  C   UNL     1      -0.577  -3.573   2.271  1.00  0.00     0.047 A 
ATOM      9  C   UNL     1      -0.803  -3.307   3.628  1.00  0.00     0.043 A 
ATOM     10  C   UNL     1      -2.999  -2.519   3.120  1.00  0.00     0.019 A 
ATOM     11  Cl  UNL     1       0.446  -3.607   4.773  1.00  0.00    -0.084 Cl
ATOM     12  C   UNL     1      -2.014  -2.795   4.060  1.00  0.00     0.021 A 
BRANCH   7  13
ATOM     13  N   UNL     1      -1.315  -3.469  -0.092  1.00  0.00    -0.320 N 
ATOM     14  C   UNL     1      -0.292  -3.820  -0.927  1.00  0.00     0.279 C 
ATOM     15  O   UNL     1      -0.577  -3.836  -2.135  1.00  0.00    -0.268 OA
ATOM     16  H   UNL     1      -2.143  -3.310  -0.601  1.00  0.00     0.170 HD
BRANCH  14  17
ATOM     17  C   UNL     1       1.122  -4.192  -0.495  1.00  0.00     0.363 C 
BRANCH  17  18
ATOM     18  N   UNL     1       2.117  -3.107  -0.456  1.00  0.00    -0.327 N 
ATOM     19  C   UNL     1       1.504  -0.325  -1.331  1.00  0.00     0.192 C 
ATOM     20  C   UNL     1       1.867  -1.425  -2.339  1.00  0.00     0.126 C 
ATOM     21  C   UNL     1       0.995  -0.926  -0.021  1.00  0.00     0.126 C 
ATOM     22  C   UNL     1       2.617  -2.621  -1.744  1.00  0.00     0.268 C 
ATOM     23  C   UNL     1       1.918  -2.026   0.495  1.00  0.00     0.268 C 
ATOM     24  H   UNL     1       2.878  -3.653  -0.051  1.00  0.00     0.348 HD
BRANCH  19  25
ATOM     25  N   UNL     1       2.625   0.585  -1.076  1.00  0.00    -0.355 N 
ATOM     26  H   UNL     1       2.952   0.977  -1.959  1.00  0.00     0.344 HD
ATOM     27  H   UNL     1       3.385   0.072  -0.629  1.00  0.00     0.344 HD
ATOM     28  H   UNL     1       2.318   1.340  -0.463  1.00  0.00     0.344 HD
ENDBRANCH  19  25
ENDBRANCH  17  18
ENDBRANCH  14  17
ENDBRANCH   7  13
ENDBRANCH   4   6
ENDBRANCH   3   4
ENDBRANCH   2   3
ENDBRANCH   1   2
BRANCH   1  29
ATOM     29  O   UNL     1      -5.549  -5.401   0.131  1.00  0.00    -0.374 OA
BRANCH  29  30
ATOM     30  C   UNL     1      -4.356  -5.818   0.798  1.00  0.00     0.202 C 
BRANCH  30  31
ATOM     31  C   UNL     1      -3.759  -7.151   0.340  1.00  0.00     0.261 C 
BRANCH  31  32
ATOM     32  O   UNL     1      -3.251  -7.057  -1.002  1.00  0.00    -0.460 OA
BRANCH  32  33
ATOM     33  C   UNL     1      -4.039  -7.636  -1.938  1.00  0.00     0.338 C 
ATOM     34  O   UNL     1      -5.039  -8.308  -1.747  1.00  0.00    -0.246 OA
BRANCH  33  35
ATOM     35  C   UNL     1      -3.634  -7.193  -3.286  1.00  0.00     0.060 A 
ATOM     36  C   UNL     1      -4.655  -6.780  -4.152  1.00  0.00     0.016 A 
ATOM     37  C   UNL     1      -2.308  -7.234  -3.720  1.00  0.00     0.016 A 
ATOM     38  C   UNL     1      -4.364  -6.473  -5.478  1.00  0.00     0.010 A 
ATOM     39  C   UNL     1      -2.017  -6.933  -5.056  1.00  0.00     0.010 A 
ATOM     40  C   UNL     1      -3.050  -6.595  -5.947  1.00  0.00    -0.014 A 
BRANCH  40  41
ATOM     41  C   UNL     1      -2.797  -6.527  -7.405  1.00  0.00     0.031 A 
ATOM     42  C   UNL     1      -2.675  -7.809  -8.180  1.00  0.00     0.074 A 
ATOM     43  C   UNL     1      -2.730  -5.343  -8.038  1.00  0.00     0.049 A 
ATOM     44  N   UNL     1      -2.433  -7.993  -9.453  1.00  0.00    -0.248 NA
ATOM     45  C   UNL     1      -2.851  -9.055  -7.415  1.00  0.00     0.031 C 
ATOM     46  C   UNL     1      -2.878  -4.037  -7.400  1.00  0.00     0.029 A 
ATOM     47  N   UNL     1      -2.517  -5.052  -9.362  1.00  0.00    -0.354 N 
ATOM     48  C   UNL     1      -2.432  -9.369  -9.641  1.00  0.00     0.074 A 
ATOM     49  C   UNL     1      -2.660  -9.976  -8.347  1.00  0.00     0.031 C 
ATOM     50  C   UNL     1      -2.739  -3.080  -8.333  1.00  0.00     0.029 A 
ATOM     51  C   UNL     1      -2.462  -3.707  -9.625  1.00  0.00     0.049 A 
ATOM     52  H   UNL     1      -2.413  -5.742 -10.056  1.00  0.00     0.167 HD
ATOM     53  C   UNL     1      -2.268 -10.063 -10.792  1.00  0.00     0.037 A 
ATOM     54  C   UNL     1      -2.195  -3.058 -10.775  1.00  0.00     0.037 A 
ATOM     55  C   UNL     1      -2.032  -9.457 -12.075  1.00  0.00     0.049 A 
ATOM     56  C   UNL     1      -1.940  -3.854 -12.028  1.00  0.00     0.074 A 
ATOM     57  C   UNL     1      -1.839 -10.073 -13.299  1.00  0.00     0.029 A 
ATOM     58  N   UNL     1      -1.953  -8.090 -12.298  1.00  0.00    -0.354 N 
ATOM     59  N   UNL     1      -1.944  -5.154 -12.200  1.00  0.00    -0.248 NA
ATOM     60  C   UNL     1      -1.650  -3.091 -13.251  1.00  0.00     0.031 C 
ATOM     61  C   UNL     1      -1.602  -9.080 -14.256  1.00  0.00     0.029 A 
ATOM     62  C   UNL     1      -1.699  -7.843 -13.637  1.00  0.00     0.049 A 
ATOM     63  H   UNL     1      -2.062  -7.397 -11.606  1.00  0.00     0.167 HD
ATOM     64  C   UNL     1      -1.682  -5.364 -13.548  1.00  0.00     0.074 A 
ATOM     65  C   UNL     1      -1.540  -4.056 -14.153  1.00  0.00     0.031 C 
ATOM     66  C   UNL     1      -1.569  -6.534 -14.224  1.00  0.00     0.037 A 
BRANCH  53  67
ATOM     67  C   UNL     1      -2.322 -11.560 -10.711  1.00  0.00     0.064 A 
ATOM     68  C   UNL     1      -3.529 -12.239 -10.489  1.00  0.00     0.173 A 
ATOM     69  C   UNL     1      -1.162 -12.326 -10.897  1.00  0.00     0.173 A 
ATOM     70  F   UNL     1      -4.664 -11.552 -10.290  1.00  0.00    -0.203 F 
ATOM     71  C   UNL     1      -3.569 -13.630 -10.437  1.00  0.00     0.198 A 
ATOM     72  C   UNL     1      -1.210 -13.718 -10.871  1.00  0.00     0.198 A 
ATOM     73  F   UNL     1       0.018 -11.726 -11.115  1.00  0.00    -0.203 F 
ATOM     74  F   UNL     1      -4.727 -14.257 -10.183  1.00  0.00    -0.200 F 
ATOM     75  C   UNL     1      -2.412 -14.368 -10.635  1.00  0.00     0.200 A 
ATOM     76  F   UNL     1      -0.093 -14.429 -11.074  1.00  0.00    -0.200 F 
ATOM     77  F   UNL     1      -2.454 -15.707 -10.594  1.00  0.00    -0.200 F 
ENDBRANCH  53  67
BRANCH  54  78
ATOM     78  C   UNL     1      -2.139  -1.574 -10.791  1.00  0.00     0.064 A 
ATOM     79  C   UNL     1      -3.107  -0.818 -11.466  1.00  0.00     0.173 A 
ATOM     80  C   UNL     1      -1.107  -0.882 -10.140  1.00  0.00     0.173 A 
ATOM     81  F   UNL     1      -4.098  -1.435 -12.125  1.00  0.00    -0.203 F 
ATOM     82  C   UNL     1      -3.035   0.573 -11.503  1.00  0.00     0.198 A 
ATOM     83  C   UNL     1      -1.052   0.510 -10.154  1.00  0.00     0.198 A 
ATOM     84  F   UNL     1      -0.153  -1.559  -9.483  1.00  0.00    -0.203 F 
ATOM     85  F   UNL     1      -3.948   1.270 -12.193  1.00  0.00    -0.200 F 
ATOM     86  C   UNL     1      -2.012   1.236 -10.841  1.00  0.00     0.200 A 
ATOM     87  F   UNL     1      -0.068   1.147  -9.505  1.00  0.00    -0.200 F 
ATOM     88  F   UNL     1      -1.947   2.574 -10.875  1.00  0.00    -0.200 F 
ENDBRANCH  54  78
BRANCH  66  89
ATOM     89  C   UNL     1      -1.313  -6.456 -15.701  1.00  0.00     0.064 A 
ATOM     90  C   UNL     1      -0.068  -6.064 -16.214  1.00  0.00     0.173 A 
ATOM     91  C   UNL     1      -2.314  -6.823 -16.614  1.00  0.00     0.173 A 
ATOM     92  F   UNL     1       0.917  -5.691 -15.383  1.00  0.00    -0.203 F 
ATOM     93  C   UNL     1       0.158  -6.019 -17.587  1.00  0.00     0.198 A 
ATOM     94  C   UNL     1      -2.075  -6.806 -17.985  1.00  0.00     0.198 A 
ATOM     95  F   UNL     1      -3.520  -7.214 -16.175  1.00  0.00    -0.203 F 
ATOM     96  F   UNL     1       1.341  -5.598 -18.056  1.00  0.00    -0.200 F 
ATOM     97  C   UNL     1      -0.843  -6.397 -18.471  1.00  0.00     0.200 A 
ATOM     98  F   UNL     1      -3.038  -7.185 -18.837  1.00  0.00    -0.200 F 
ATOM     99  F   UNL     1      -0.621  -6.360 -19.792  1.00  0.00    -0.200 F 
ENDBRANCH  66  89
ENDBRANCH  40  41
ENDBRANCH  33  35
ENDBRANCH  32  33
ENDBRANCH  31  32
ENDBRANCH  30  31
ENDBRANCH  29  30
ENDBRANCH   1  29
TORSDOF 18
