REMARK SMILES CC(C)[C@@H](ON1C(=O)c2ccccc2C1=O)C(=O)OCCOCCOC(=O)c1ccc(-c2c3nc(c(-c4c(F)c(F)c(F)c(F)c4F)c4ccc([nH]4)c(-c4c(F)c(F)c(F)c(F)c4F)c4nc(c(-c5c(F)c(F)c(F)c(F)c5F)c5ccc2[nH]5)C=C4)C=C3)cc1
REMARK SMILES IDX 22 1 21 2 20 3 19 4 17 5 18 6 4 7 2 8 1 9 3 10 5 11 6 12
REMARK SMILES IDX 7 13 15 14 8 15 9 16 14 17 16 18 10 19 13 20 11 21 12 22
REMARK SMILES IDX 23 23 24 24 25 25 26 26 27 27 28 28 29 29 90 30 30 31 89 32
REMARK SMILES IDX 31 33 32 34 33 35 83 36 34 37 88 38 82 39 84 40 35 41 87 42
REMARK SMILES IDX 81 43 80 44 36 46 68 47 48 48 67 49 49 50 52 51 66 52 85 53
REMARK SMILES IDX 50 54 51 55 65 57 86 58 53 59 37 60 38 61 46 62 39 63 40 64
REMARK SMILES IDX 44 65 47 66 41 67 42 68 45 69 43 70 69 71 70 72 78 73 71 74
REMARK SMILES IDX 72 75 76 76 79 77 73 78 74 79 77 80 75 81 54 82 55 83 63 84
REMARK SMILES IDX 56 85 57 86 61 87 64 88 58 89 59 90 62 91 60 92
REMARK H PARENT 84 45 52 56
REMARK Flexibility Score: inf
ROOT
ATOM      1  O   UNL     1      -2.037  -0.665  -5.381  1.00  0.00    -0.374 OA
ENDROOT
BRANCH   1   2
ATOM      2  C   UNL     1      -1.931   0.746  -5.523  1.00  0.00     0.202 C 
BRANCH   2   3
ATOM      3  C   UNL     1      -2.169   1.620  -4.287  1.00  0.00     0.261 C 
BRANCH   3   4
ATOM      4  O   UNL     1      -1.284   1.339  -3.187  1.00  0.00    -0.461 OA
BRANCH   4   5
ATOM      5  C   UNL     1      -1.859   0.638  -2.170  1.00  0.00     0.338 C 
ATOM      6  O   UNL     1      -3.009   0.207  -2.201  1.00  0.00    -0.249 OA
BRANCH   5   7
ATOM      7  C   UNL     1      -0.964   0.464  -0.942  1.00  0.00     0.261 C 
BRANCH   7   8
ATOM      8  C   UNL     1       0.574   0.637  -1.129  1.00  0.00     0.026 C 
ATOM      9  C   UNL     1       1.385   0.529   0.169  1.00  0.00     0.011 C 
ATOM     10  C   UNL     1       1.148  -0.427  -2.070  1.00  0.00     0.011 C 
ENDBRANCH   7   8
BRANCH   7  11
ATOM     11  O   UNL     1      -1.582   1.430  -0.067  1.00  0.00    -0.247 OA
BRANCH  11  12
ATOM     12  N   UNL     1      -1.313   1.202   1.279  1.00  0.00    -0.144 N 
ATOM     13  C   UNL     1      -1.323   0.007   1.927  1.00  0.00     0.285 C 
ATOM     14  C   UNL     1      -0.861   2.241   2.038  1.00  0.00     0.285 C 
ATOM     15  O   UNL     1      -1.647  -1.105   1.565  1.00  0.00    -0.266 OA
ATOM     16  C   UNL     1      -0.697   0.275   3.220  1.00  0.00     0.055 A 
ATOM     17  C   UNL     1      -0.430   1.634   3.294  1.00  0.00     0.055 A 
ATOM     18  O   UNL     1      -0.709   3.418   1.766  1.00  0.00    -0.266 OA
ATOM     19  C   UNL     1      -0.244  -0.613   4.174  1.00  0.00     0.015 A 
ATOM     20  C   UNL     1       0.288   2.183   4.335  1.00  0.00     0.015 A 
ATOM     21  C   UNL     1       0.493  -0.081   5.234  1.00  0.00     0.001 A 
ATOM     22  C   UNL     1       0.752   1.304   5.317  1.00  0.00     0.001 A 
ENDBRANCH  11  12
ENDBRANCH   7  11
ENDBRANCH   5   7
ENDBRANCH   4   5
ENDBRANCH   3   4
ENDBRANCH   2   3
ENDBRANCH   1   2
BRANCH   1  23
ATOM     23  C   UNL     1      -0.975  -1.353  -4.723  1.00  0.00     0.202 C 
BRANCH  23  24
ATOM     24  C   UNL     1       0.383  -1.399  -5.442  1.00  0.00     0.261 C 
BRANCH  24  25
ATOM     25  O   UNL     1       1.011  -0.100  -5.507  1.00  0.00    -0.460 OA
BRANCH  25  26
ATOM     26  C   UNL     1       1.250   0.364  -6.755  1.00  0.00     0.338 C 
ATOM     27  O   UNL     1       1.085  -0.230  -7.807  1.00  0.00    -0.246 OA
BRANCH  26  28
ATOM     28  C   UNL     1       1.566   1.807  -6.715  1.00  0.00     0.060 A 
ATOM     29  C   UNL     1       0.764   2.658  -7.486  1.00  0.00     0.016 A 
ATOM     30  C   UNL     1       2.687   2.304  -6.049  1.00  0.00     0.016 A 
ATOM     31  C   UNL     1       1.124   3.992  -7.664  1.00  0.00     0.010 A 
ATOM     32  C   UNL     1       3.051   3.645  -6.233  1.00  0.00     0.010 A 
ATOM     33  C   UNL     1       2.301   4.481  -7.085  1.00  0.00    -0.014 A 
BRANCH  33  34
ATOM     34  C   UNL     1       2.847   5.790  -7.530  1.00  0.00     0.031 A 
ATOM     35  C   UNL     1       4.000   5.801  -8.502  1.00  0.00     0.074 A 
ATOM     36  C   UNL     1       2.300   6.953  -7.131  1.00  0.00     0.049 A 
ATOM     37  N   UNL     1       4.684   6.812  -8.976  1.00  0.00    -0.248 NA
ATOM     38  C   UNL     1       4.440   4.491  -9.008  1.00  0.00     0.031 C 
ATOM     39  C   UNL     1       1.138   7.084  -6.256  1.00  0.00     0.029 A 
ATOM     40  N   UNL     1       2.659   8.249  -7.412  1.00  0.00    -0.354 N 
ATOM     41  C   UNL     1       5.636   6.261  -9.825  1.00  0.00     0.074 A 
ATOM     42  C   UNL     1       5.467   4.825  -9.775  1.00  0.00     0.031 C 
ATOM     43  C   UNL     1       0.885   8.390  -6.061  1.00  0.00     0.029 A 
ATOM     44  C   UNL     1       1.893   9.185  -6.761  1.00  0.00     0.049 A 
ATOM     45  H   UNL     1       3.395   8.485  -8.022  1.00  0.00     0.167 HD
ATOM     46  C   UNL     1       6.560   6.893 -10.587  1.00  0.00     0.037 A 
ATOM     47  C   UNL     1       2.013  10.527  -6.713  1.00  0.00     0.037 A 
ATOM     48  C   UNL     1       6.725   8.322 -10.642  1.00  0.00     0.049 A 
ATOM     49  C   UNL     1       3.121  11.201  -7.486  1.00  0.00     0.074 A 
ATOM     50  C   UNL     1       7.639   9.058 -11.376  1.00  0.00     0.029 A 
ATOM     51  N   UNL     1       5.956   9.233  -9.932  1.00  0.00    -0.354 N 
ATOM     52  N   UNL     1       4.020  10.673  -8.281  1.00  0.00    -0.248 NA
ATOM     53  C   UNL     1       3.228  12.662  -7.355  1.00  0.00     0.031 C 
ATOM     54  C   UNL     1       7.462  10.409 -11.067  1.00  0.00     0.029 A 
ATOM     55  C   UNL     1       6.391  10.522 -10.197  1.00  0.00     0.049 A 
ATOM     56  H   UNL     1       5.213   8.999  -9.331  1.00  0.00     0.167 HD
ATOM     57  C   UNL     1       4.762  11.738  -8.780  1.00  0.00     0.074 A 
ATOM     58  C   UNL     1       4.208  12.942  -8.202  1.00  0.00     0.031 C 
ATOM     59  C   UNL     1       5.807  11.718  -9.644  1.00  0.00     0.037 A 
BRANCH  46  60
ATOM     60  C   UNL     1       7.486   6.045 -11.412  1.00  0.00     0.064 A 
ATOM     61  C   UNL     1       7.035   5.339 -12.537  1.00  0.00     0.173 A 
ATOM     62  C   UNL     1       8.854   5.982 -11.104  1.00  0.00     0.173 A 
ATOM     63  F   UNL     1       5.735   5.355 -12.868  1.00  0.00    -0.203 F 
ATOM     64  C   UNL     1       7.914   4.583 -13.308  1.00  0.00     0.198 A 
ATOM     65  C   UNL     1       9.735   5.253 -11.896  1.00  0.00     0.198 A 
ATOM     66  F   UNL     1       9.339   6.644 -10.043  1.00  0.00    -0.203 F 
ATOM     67  F   UNL     1       7.453   3.880 -14.352  1.00  0.00    -0.200 F 
ATOM     68  C   UNL     1       9.264   4.548 -12.993  1.00  0.00     0.200 A 
ATOM     69  F   UNL     1      11.042   5.236 -11.600  1.00  0.00    -0.200 F 
ATOM     70  F   UNL     1      10.112   3.832 -13.745  1.00  0.00    -0.200 F 
ENDBRANCH  46  60
BRANCH  47  71
ATOM     71  C   UNL     1       1.078  11.337  -5.884  1.00  0.00     0.064 A 
ATOM     72  C   UNL     1       0.205  12.263  -6.473  1.00  0.00     0.173 A 
ATOM     73  C   UNL     1       1.080  11.246  -4.484  1.00  0.00     0.173 A 
ATOM     74  F   UNL     1       0.184  12.409  -7.806  1.00  0.00    -0.203 F 
ATOM     75  C   UNL     1      -0.603  13.089  -5.694  1.00  0.00     0.198 A 
ATOM     76  C   UNL     1       0.245  12.047  -3.707  1.00  0.00     0.198 A 
ATOM     77  F   UNL     1       1.899  10.381  -3.868  1.00  0.00    -0.203 F 
ATOM     78  F   UNL     1      -1.375  14.014  -6.281  1.00  0.00    -0.200 F 
ATOM     79  C   UNL     1      -0.585  12.977  -4.312  1.00  0.00     0.200 A 
ATOM     80  F   UNL     1       0.258  11.927  -2.373  1.00  0.00    -0.200 F 
ATOM     81  F   UNL     1      -1.356  13.777  -3.563  1.00  0.00    -0.200 F 
ENDBRANCH  47  71
BRANCH  59  82
ATOM     82  C   UNL     1       6.376  13.037 -10.088  1.00  0.00     0.064 A 
ATOM     83  C   UNL     1       7.115  13.859  -9.226  1.00  0.00     0.173 A 
ATOM     84  C   UNL     1       6.224  13.454 -11.421  1.00  0.00     0.173 A 
ATOM     85  F   UNL     1       7.281  13.514  -7.940  1.00  0.00    -0.203 F 
ATOM     86  C   UNL     1       7.660  15.061  -9.674  1.00  0.00     0.198 A 
ATOM     87  C   UNL     1       6.799  14.638 -11.874  1.00  0.00     0.198 A 
ATOM     88  F   UNL     1       5.533  12.702 -12.290  1.00  0.00    -0.203 F 
ATOM     89  F   UNL     1       8.322  15.854  -8.820  1.00  0.00    -0.200 F 
ATOM     90  C   UNL     1       7.510  15.444 -10.999  1.00  0.00     0.200 A 
ATOM     91  F   UNL     1       6.668  14.996 -13.159  1.00  0.00    -0.200 F 
ATOM     92  F   UNL     1       8.047  16.593 -11.431  1.00  0.00    -0.200 F 
ENDBRANCH  59  82
ENDBRANCH  33  34
ENDBRANCH  26  28
ENDBRANCH  25  26
ENDBRANCH  24  25
ENDBRANCH  23  24
ENDBRANCH   1  23
TORSDOF 17
