REMARK SMILES C[C@@H](C(=O)OCCOCCOC(=O)c1ccc(-c2c3nc(c(-c4c(F)c(F)c(F)c(F)c4F)c4ccc([nH]4)c(-c4c(F)c(F)c(F)c(F)c4F)c4nc(c(-c5c(F)c(F)c(F)c(F)c5F)c5ccc2[nH]5)C=C4)C=C3)cc1)c1ccc2c3cc(Cl)ccc3n(C(=O)c3cocn3)c2c1
REMARK SMILES IDX 7 1 6 2 5 3 3 4 4 5 2 6 1 7 77 8 78 9 97 10 79 11 96 12
REMARK SMILES IDX 80 13 88 14 81 15 87 16 82 17 86 18 83 19 85 20 84 21 89 22
REMARK SMILES IDX 90 23 91 24 92 25 95 26 93 27 94 28 8 29 9 30 10 31 11 32
REMARK SMILES IDX 12 33 13 34 14 35 15 36 76 37 16 38 75 39 17 40 18 41 19 42
REMARK SMILES IDX 69 43 20 44 74 45 68 46 70 47 21 48 73 49 67 50 66 51 22 53
REMARK SMILES IDX 54 54 34 55 53 56 35 57 38 58 52 59 71 60 36 61 37 62 51 64
REMARK SMILES IDX 72 65 39 66 23 67 24 68 32 69 25 70 26 71 30 72 33 73 27 74
REMARK SMILES IDX 28 75 31 76 29 77 55 78 56 79 64 80 57 81 58 82 62 83 65 84
REMARK SMILES IDX 59 85 60 86 63 87 61 88 40 89 41 90 49 91 42 92 43 93 47 94
REMARK SMILES IDX 50 95 44 96 45 97 48 98 46 99
REMARK H PARENT 70 52 38 63
REMARK Flexibility Score: inf
ROOT
ATOM      1  C   UNL     1       2.107   4.638  -1.337  1.00  0.00     0.202 C 
ENDROOT
BRANCH   1   2
ATOM      2  C   UNL     1       2.366   4.276   0.130  1.00  0.00     0.261 C 
BRANCH   2   3
ATOM      3  O   UNL     1       2.096   2.889   0.368  1.00  0.00    -0.463 OA
BRANCH   3   4
ATOM      4  C   UNL     1       1.415   2.613   1.515  1.00  0.00     0.313 C 
ATOM      5  O   UNL     1       1.273   3.406   2.439  1.00  0.00    -0.252 OA
BRANCH   4   6
ATOM      6  C   UNL     1       0.737   1.246   1.468  1.00  0.00     0.126 C 
ATOM      7  C   UNL     1       1.429   0.258   0.515  1.00  0.00     0.025 C 
BRANCH   6   8
ATOM      8  C   UNL     1      -0.771   1.306   1.204  1.00  0.00    -0.032 A 
ATOM      9  C   UNL     1      -1.440   2.462   0.791  1.00  0.00     0.005 A 
ATOM     10  C   UNL     1      -1.522   0.134   1.397  1.00  0.00     0.032 A 
ATOM     11  C   UNL     1      -2.819   2.454   0.539  1.00  0.00     0.011 A 
ATOM     12  C   UNL     1      -2.920   0.136   1.201  1.00  0.00     0.058 A 
ATOM     13  C   UNL     1      -3.570   1.280   0.752  1.00  0.00     0.008 A 
ATOM     14  N   UNL     1      -3.876  -0.883   1.366  1.00  0.00    -0.274 N 
ATOM     15  C   UNL     1      -4.957   0.980   0.662  1.00  0.00     0.009 A 
ATOM     16  C   UNL     1      -5.146  -0.323   1.143  1.00  0.00     0.057 A 
ATOM     17  C   UNL     1      -6.074   1.760   0.286  1.00  0.00     0.031 A 
ATOM     18  C   UNL     1      -6.450  -0.804   1.381  1.00  0.00     0.029 A 
ATOM     19  C   UNL     1      -7.358   1.252   0.469  1.00  0.00     0.041 A 
ATOM     20  C   UNL     1      -7.545  -0.002   1.031  1.00  0.00     0.023 A 
ATOM     21  Cl  UNL     1      -8.720   2.215   0.044  1.00  0.00    -0.084 Cl
BRANCH  14  22
ATOM     22  C   UNL     1      -3.553  -2.218   1.754  1.00  0.00     0.284 C 
ATOM     23  O   UNL     1      -2.462  -2.369   2.303  1.00  0.00    -0.266 OA
BRANCH  22  24
ATOM     24  C   UNL     1      -4.372  -3.405   1.526  1.00  0.00     0.167 A 
ATOM     25  C   UNL     1      -5.290  -3.673   0.533  1.00  0.00     0.231 A 
ATOM     26  N   UNL     1      -4.195  -4.562   2.277  1.00  0.00    -0.211 NA
ATOM     27  O   UNL     1      -5.703  -4.968   0.663  1.00  0.00    -0.451 OA
ATOM     28  C   UNL     1      -4.990  -5.440   1.719  1.00  0.00     0.308 A 
ENDBRANCH  22  24
ENDBRANCH  14  22
ENDBRANCH   6   8
ENDBRANCH   4   6
ENDBRANCH   3   4
ENDBRANCH   2   3
ENDBRANCH   1   2
BRANCH   1  29
ATOM     29  O   UNL     1       0.799   4.372  -1.841  1.00  0.00    -0.374 OA
BRANCH  29  30
ATOM     30  C   UNL     1       0.438   3.010  -2.078  1.00  0.00     0.202 C 
BRANCH  30  31
ATOM     31  C   UNL     1       1.127   2.281  -3.236  1.00  0.00     0.261 C 
BRANCH  31  32
ATOM     32  O   UNL     1       2.533   2.081  -2.999  1.00  0.00    -0.460 OA
BRANCH  32  33
ATOM     33  C   UNL     1       3.348   2.667  -3.905  1.00  0.00     0.338 C 
ATOM     34  O   UNL     1       3.022   3.273  -4.918  1.00  0.00    -0.246 OA
BRANCH  33  35
ATOM     35  C   UNL     1       4.740   2.648  -3.429  1.00  0.00     0.060 A 
ATOM     36  C   UNL     1       5.380   3.881  -3.250  1.00  0.00     0.016 A 
ATOM     37  C   UNL     1       5.442   1.452  -3.273  1.00  0.00     0.016 A 
ATOM     38  C   UNL     1       6.741   3.925  -2.962  1.00  0.00     0.010 A 
ATOM     39  C   UNL     1       6.812   1.498  -2.993  1.00  0.00     0.010 A 
ATOM     40  C   UNL     1       7.474   2.734  -2.873  1.00  0.00    -0.014 A 
BRANCH  40  41
ATOM     41  C   UNL     1       8.954   2.797  -2.804  1.00  0.00     0.031 A 
ATOM     42  C   UNL     1       9.754   2.585  -4.060  1.00  0.00     0.074 A 
ATOM     43  C   UNL     1       9.575   3.081  -1.647  1.00  0.00     0.049 A 
ATOM     44  N   UNL     1      11.053   2.568  -4.226  1.00  0.00    -0.248 NA
ATOM     45  C   UNL     1       8.987   2.362  -5.295  1.00  0.00     0.031 C 
ATOM     46  C   UNL     1       8.906   3.350  -0.376  1.00  0.00     0.029 A 
ATOM     47  N   UNL     1      10.912   3.185  -1.355  1.00  0.00    -0.354 N 
ATOM     48  C   UNL     1      11.257   2.330  -5.579  1.00  0.00     0.074 A 
ATOM     49  C   UNL     1       9.951   2.178  -6.185  1.00  0.00     0.031 C 
ATOM     50  C   UNL     1       9.838   3.577   0.566  1.00  0.00     0.029 A 
ATOM     51  C   UNL     1      11.165   3.437  -0.029  1.00  0.00     0.049 A 
ATOM     52  H   UNL     1      11.621   3.089  -2.031  1.00  0.00     0.167 HD
ATOM     53  C   UNL     1      12.428   2.257  -6.256  1.00  0.00     0.037 A 
ATOM     54  C   UNL     1      12.337   3.521   0.630  1.00  0.00     0.037 A 
ATOM     55  C   UNL     1      13.725   2.410  -5.651  1.00  0.00     0.049 A 
ATOM     56  C   UNL     1      13.627   3.362  -0.134  1.00  0.00     0.074 A 
ATOM     57  C   UNL     1      14.970   2.364  -6.253  1.00  0.00     0.029 A 
ATOM     58  N   UNL     1      13.943   2.632  -4.299  1.00  0.00    -0.354 N 
ATOM     59  N   UNL     1      13.812   3.157  -1.415  1.00  0.00    -0.248 NA
ATOM     60  C   UNL     1      14.872   3.450   0.643  1.00  0.00     0.031 C 
ATOM     61  C   UNL     1      15.943   2.508  -5.259  1.00  0.00     0.029 A 
ATOM     62  C   UNL     1      15.304   2.700  -4.045  1.00  0.00     0.049 A 
ATOM     63  H   UNL     1      13.236   2.728  -3.621  1.00  0.00     0.167 HD
ATOM     64  C   UNL     1      15.188   3.121  -1.603  1.00  0.00     0.074 A 
ATOM     65  C   UNL     1      15.791   3.339  -0.305  1.00  0.00     0.031 C 
ATOM     66  C   UNL     1      15.889   2.926  -2.748  1.00  0.00     0.037 A 
BRANCH  53  67
ATOM     67  C   UNL     1      12.361   1.974  -7.729  1.00  0.00     0.064 A 
ATOM     68  C   UNL     1      11.902   2.933  -8.644  1.00  0.00     0.173 A 
ATOM     69  C   UNL     1      12.800   0.741  -8.235  1.00  0.00     0.173 A 
ATOM     70  F   UNL     1      11.459   4.123  -8.210  1.00  0.00    -0.203 F 
ATOM     71  C   UNL     1      11.862   2.660 -10.009  1.00  0.00     0.198 A 
ATOM     72  C   UNL     1      12.786   0.482  -9.603  1.00  0.00     0.198 A 
ATOM     73  F   UNL     1      13.252  -0.209  -7.404  1.00  0.00    -0.203 F 
ATOM     74  F   UNL     1      11.379   3.575 -10.861  1.00  0.00    -0.200 F 
ATOM     75  C   UNL     1      12.311   1.438 -10.488  1.00  0.00     0.200 A 
ATOM     76  F   UNL     1      13.231  -0.695 -10.065  1.00  0.00    -0.200 F 
ATOM     77  F   UNL     1      12.280   1.179 -11.803  1.00  0.00    -0.200 F 
ENDBRANCH  53  67
BRANCH  54  78
ATOM     78  C   UNL     1      12.348   3.749   2.098  1.00  0.00     0.064 A 
ATOM     79  C   UNL     1      12.833   4.945   2.644  1.00  0.00     0.173 A 
ATOM     80  C   UNL     1      11.890   2.765   2.988  1.00  0.00     0.173 A 
ATOM     81  F   UNL     1      13.306   5.906   1.836  1.00  0.00    -0.203 F 
ATOM     82  C   UNL     1      12.879   5.141   4.023  1.00  0.00     0.198 A 
ATOM     83  C   UNL     1      11.909   2.973   4.365  1.00  0.00     0.198 A 
ATOM     84  F   UNL     1      11.418   1.601   2.517  1.00  0.00    -0.203 F 
ATOM     85  F   UNL     1      13.395   6.273   4.519  1.00  0.00    -0.200 F 
ATOM     86  C   UNL     1      12.412   4.157   4.882  1.00  0.00     0.200 A 
ATOM     87  F   UNL     1      11.446   2.025   5.190  1.00  0.00    -0.200 F 
ATOM     88  F   UNL     1      12.455   4.347   6.207  1.00  0.00    -0.200 F 
ENDBRANCH  54  78
BRANCH  66  89
ATOM     89  C   UNL     1      17.387   2.977  -2.657  1.00  0.00     0.064 A 
ATOM     90  C   UNL     1      18.125   1.953  -2.045  1.00  0.00     0.173 A 
ATOM     91  C   UNL     1      18.096   4.045  -3.229  1.00  0.00     0.173 A 
ATOM     92  F   UNL     1      17.494   0.917  -1.472  1.00  0.00    -0.203 F 
ATOM     93  C   UNL     1      19.515   2.010  -1.986  1.00  0.00     0.198 A 
ATOM     94  C   UNL     1      19.487   4.083  -3.195  1.00  0.00     0.198 A 
ATOM     95  F   UNL     1      17.439   5.046  -3.834  1.00  0.00    -0.203 F 
ATOM     96  F   UNL     1      20.197   1.045  -1.354  1.00  0.00    -0.200 F 
ATOM     97  C   UNL     1      20.195   3.070  -2.567  1.00  0.00     0.200 A 
ATOM     98  F   UNL     1      20.142   5.101  -3.770  1.00  0.00    -0.200 F 
ATOM     99  F   UNL     1      21.533   3.119  -2.516  1.00  0.00    -0.200 F 
ENDBRANCH  66  89
ENDBRANCH  40  41
ENDBRANCH  33  35
ENDBRANCH  32  33
ENDBRANCH  31  32
ENDBRANCH  30  31
ENDBRANCH  29  30
ENDBRANCH   1  29
TORSDOF 17
