REMARK SMILES CC[C@H](C(=O)OCCOCCOC(=O)c1ccc(-c2c3nc(c(-c4c(F)c(F)c(F)c(F)c4F)c4ccc([nH]4)c(-c4c(F)c(F)c(F)c(F)c4F)c4nc(c(-c5c(F)c(F)c(F)c(F)c5F)c5ccc2[nH]5)C=C4)C=C3)cc1)N1C(=O)c2ccc([N+](=O)[O-])cc2C1=O
REMARK SMILES IDX 9 1 8 2 7 3 6 4 4 5 5 6 3 7 2 8 1 9 78 10 79 11 90 12 80 13
REMARK SMILES IDX 81 14 89 15 91 16 82 17 88 18 83 19 84 20 85 21 86 22 87 23
REMARK SMILES IDX 10 24 11 25 12 26 13 27 14 28 15 29 16 30 77 31 17 32 76 33
REMARK SMILES IDX 18 34 19 35 20 36 70 37 21 38 75 39 69 40 71 41 22 42 74 43
REMARK SMILES IDX 68 44 67 45 23 47 55 48 35 49 54 50 36 51 39 52 53 53 72 54
REMARK SMILES IDX 37 55 38 56 52 58 73 59 40 60 24 61 25 62 33 63 26 64 27 65
REMARK SMILES IDX 31 66 34 67 28 68 29 69 32 70 30 71 56 72 57 73 65 74 58 75
REMARK SMILES IDX 59 76 63 77 66 78 60 79 61 80 64 81 62 82 41 83 42 84 50 85
REMARK SMILES IDX 43 86 44 87 48 88 51 89 45 90 46 91 49 92 47 93
REMARK H PARENT 71 46 39 57
REMARK Flexibility Score: inf
ROOT
ATOM      1  O   UNL     1       1.022  -0.833   2.099  1.00  0.00    -0.374 OA
ENDROOT
BRANCH   1   2
ATOM      2  C   UNL     1      -0.360  -0.952   1.782  1.00  0.00     0.202 C 
BRANCH   2   3
ATOM      3  C   UNL     1      -1.116   0.326   1.433  1.00  0.00     0.261 C 
BRANCH   3   4
ATOM      4  O   UNL     1      -0.571   0.977   0.280  1.00  0.00    -0.462 OA
BRANCH   4   5
ATOM      5  C   UNL     1       0.153   2.098   0.541  1.00  0.00     0.329 C 
ATOM      6  O   UNL     1       0.459   2.486   1.665  1.00  0.00    -0.250 OA
BRANCH   5   7
ATOM      7  C   UNL     1       0.400   2.936  -0.716  1.00  0.00     0.203 C 
BRANCH   7   8
ATOM      8  C   UNL     1       0.104   2.340  -2.095  1.00  0.00     0.034 C 
ATOM      9  C   UNL     1       0.874   1.066  -2.416  1.00  0.00     0.007 C 
ENDBRANCH   7   8
BRANCH   7  10
ATOM     10  N   UNL     1      -0.417   4.114  -0.439  1.00  0.00    -0.260 N 
ATOM     11  C   UNL     1      -1.751   4.021  -0.146  1.00  0.00     0.262 C 
ATOM     12  C   UNL     1       0.050   5.389  -0.291  1.00  0.00     0.262 C 
ATOM     13  O   UNL     1      -2.502   3.067  -0.222  1.00  0.00    -0.269 OA
ATOM     14  C   UNL     1      -2.156   5.321   0.347  1.00  0.00     0.053 A 
ATOM     15  C   UNL     1      -1.087   6.186   0.187  1.00  0.00     0.060 A 
ATOM     16  O   UNL     1       1.164   5.827  -0.481  1.00  0.00    -0.269 OA
ATOM     17  C   UNL     1      -3.356   5.696   0.914  1.00  0.00     0.022 A 
ATOM     18  C   UNL     1      -1.200   7.528   0.484  1.00  0.00     0.100 A 
ATOM     19  C   UNL     1      -3.497   7.040   1.250  1.00  0.00     0.086 A 
ATOM     20  C   UNL     1      -2.441   7.952   0.995  1.00  0.00     0.270 A 
BRANCH  20  21
ATOM     21  N   UNL     1      -2.675   9.381   1.226  1.00  0.00     0.062 N 
ATOM     22  O   UNL     1      -3.673   9.698   1.887  1.00  0.00    -0.258 OA
ATOM     23  O   UNL     1      -1.876  10.179   0.718  1.00  0.00    -0.258 OA
ENDBRANCH  20  21
ENDBRANCH   7  10
ENDBRANCH   5   7
ENDBRANCH   4   5
ENDBRANCH   3   4
ENDBRANCH   2   3
ENDBRANCH   1   2
BRANCH   1  24
ATOM     24  C   UNL     1       1.946  -0.591   1.040  1.00  0.00     0.202 C 
BRANCH  24  25
ATOM     25  C   UNL     1       2.243  -1.743   0.071  1.00  0.00     0.261 C 
BRANCH  25  26
ATOM     26  O   UNL     1       1.096  -2.137  -0.705  1.00  0.00    -0.460 OA
BRANCH  26  27
ATOM     27  C   UNL     1       0.578  -3.347  -0.378  1.00  0.00     0.338 C 
ATOM     28  O   UNL     1       1.002  -4.132   0.453  1.00  0.00    -0.246 OA
BRANCH  27  29
ATOM     29  C   UNL     1      -0.728  -3.534  -1.039  1.00  0.00     0.060 A 
ATOM     30  C   UNL     1      -1.834  -3.811  -0.224  1.00  0.00     0.016 A 
ATOM     31  C   UNL     1      -0.857  -3.522  -2.428  1.00  0.00     0.016 A 
ATOM     32  C   UNL     1      -3.067  -4.115  -0.796  1.00  0.00     0.010 A 
ATOM     33  C   UNL     1      -2.095  -3.838  -3.001  1.00  0.00     0.010 A 
ATOM     34  C   UNL     1      -3.198  -4.163  -2.190  1.00  0.00    -0.014 A 
BRANCH  34  35
ATOM     35  C   UNL     1      -4.464  -4.650  -2.793  1.00  0.00     0.031 A 
ATOM     36  C   UNL     1      -4.533  -6.045  -3.350  1.00  0.00     0.074 A 
ATOM     37  C   UNL     1      -5.552  -3.860  -2.821  1.00  0.00     0.049 A 
ATOM     38  N   UNL     1      -5.521  -6.648  -3.961  1.00  0.00    -0.248 NA
ATOM     39  C   UNL     1      -3.325  -6.870  -3.199  1.00  0.00     0.031 C 
ATOM     40  C   UNL     1      -5.625  -2.507  -2.276  1.00  0.00     0.029 A 
ATOM     41  N   UNL     1      -6.804  -4.083  -3.340  1.00  0.00    -0.354 N 
ATOM     42  C   UNL     1      -5.053  -7.918  -4.274  1.00  0.00     0.074 A 
ATOM     43  C   UNL     1      -3.683  -7.988  -3.813  1.00  0.00     0.031 C 
ATOM     44  C   UNL     1      -6.855  -2.014  -2.497  1.00  0.00     0.029 A 
ATOM     45  C   UNL     1      -7.641  -3.000  -3.236  1.00  0.00     0.049 A 
ATOM     46  H   UNL     1      -7.075  -4.938  -3.746  1.00  0.00     0.167 HD
ATOM     47  C   UNL     1      -5.711  -8.935  -4.883  1.00  0.00     0.037 A 
ATOM     48  C   UNL     1      -8.888  -2.815  -3.711  1.00  0.00     0.037 A 
ATOM     49  C   UNL     1      -7.075  -8.860  -5.341  1.00  0.00     0.049 A 
ATOM     50  C   UNL     1      -9.566  -3.931  -4.463  1.00  0.00     0.074 A 
ATOM     51  C   UNL     1      -7.838  -9.845  -5.944  1.00  0.00     0.029 A 
ATOM     52  N   UNL     1      -7.877  -7.730  -5.259  1.00  0.00    -0.354 N 
ATOM     53  N   UNL     1      -9.130  -5.139  -4.727  1.00  0.00    -0.248 NA
ATOM     54  C   UNL     1     -10.913  -3.655  -4.984  1.00  0.00     0.031 C 
ATOM     55  C   UNL     1      -9.075  -9.292  -6.290  1.00  0.00     0.029 A 
ATOM     56  C   UNL     1      -9.112  -7.983  -5.838  1.00  0.00     0.049 A 
ATOM     57  H   UNL     1      -7.610  -6.876  -4.850  1.00  0.00     0.167 HD
ATOM     58  C   UNL     1     -10.154  -5.773  -5.420  1.00  0.00     0.074 A 
ATOM     59  C   UNL     1     -11.242  -4.824  -5.516  1.00  0.00     0.031 C 
ATOM     60  C   UNL     1     -10.189  -7.029  -5.932  1.00  0.00     0.037 A 
BRANCH  47  61
ATOM     61  C   UNL     1      -4.956 -10.211  -5.122  1.00  0.00     0.064 A 
ATOM     62  C   UNL     1      -4.584 -11.062  -4.070  1.00  0.00     0.173 A 
ATOM     63  C   UNL     1      -4.641 -10.612  -6.430  1.00  0.00     0.173 A 
ATOM     64  F   UNL     1      -4.852 -10.724  -2.800  1.00  0.00    -0.203 F 
ATOM     65  C   UNL     1      -3.902 -12.252  -4.317  1.00  0.00     0.198 A 
ATOM     66  C   UNL     1      -3.989 -11.818  -6.675  1.00  0.00     0.198 A 
ATOM     67  F   UNL     1      -4.978  -9.841  -7.474  1.00  0.00    -0.203 F 
ATOM     68  F   UNL     1      -3.515 -13.025  -3.293  1.00  0.00    -0.200 F 
ATOM     69  C   UNL     1      -3.613 -12.633  -5.619  1.00  0.00     0.200 A 
ATOM     70  F   UNL     1      -3.726 -12.191  -7.935  1.00  0.00    -0.200 F 
ATOM     71  F   UNL     1      -2.967 -13.783  -5.855  1.00  0.00    -0.200 F 
ENDBRANCH  47  61
BRANCH  48  72
ATOM     72  C   UNL     1      -9.572  -1.509  -3.512  1.00  0.00     0.064 A 
ATOM     73  C   UNL     1     -10.715  -1.404  -2.709  1.00  0.00     0.173 A 
ATOM     74  C   UNL     1      -9.107  -0.343  -4.140  1.00  0.00     0.173 A 
ATOM     75  F   UNL     1     -11.214  -2.494  -2.109  1.00  0.00    -0.203 F 
ATOM     76  C   UNL     1     -11.379  -0.188  -2.557  1.00  0.00     0.198 A 
ATOM     77  C   UNL     1      -9.752   0.879  -3.960  1.00  0.00     0.198 A 
ATOM     78  F   UNL     1      -8.019  -0.388  -4.923  1.00  0.00    -0.203 F 
ATOM     79  F   UNL     1     -12.501  -0.127  -1.827  1.00  0.00    -0.200 F 
ATOM     80  C   UNL     1     -10.893   0.953  -3.176  1.00  0.00     0.200 A 
ATOM     81  F   UNL     1      -9.269   1.982  -4.548  1.00  0.00    -0.200 F 
ATOM     82  F   UNL     1     -11.529   2.123  -3.026  1.00  0.00    -0.200 F 
ENDBRANCH  48  72
BRANCH  60  83
ATOM     83  C   UNL     1     -11.454  -7.461  -6.621  1.00  0.00     0.064 A 
ATOM     84  C   UNL     1     -11.845  -6.919  -7.855  1.00  0.00     0.173 A 
ATOM     85  C   UNL     1     -12.269  -8.455  -6.056  1.00  0.00     0.173 A 
ATOM     86  F   UNL     1     -11.111  -5.956  -8.432  1.00  0.00    -0.203 F 
ATOM     87  C   UNL     1     -13.019  -7.333  -8.480  1.00  0.00     0.198 A 
ATOM     88  C   UNL     1     -13.422  -8.893  -6.702  1.00  0.00     0.198 A 
ATOM     89  F   UNL     1     -11.939  -9.014  -4.882  1.00  0.00    -0.203 F 
ATOM     90  F   UNL     1     -13.401  -6.760  -9.630  1.00  0.00    -0.200 F 
ATOM     91  C   UNL     1     -13.801  -8.325  -7.908  1.00  0.00     0.200 A 
ATOM     92  F   UNL     1     -14.167  -9.864  -6.156  1.00  0.00    -0.200 F 
ATOM     93  F   UNL     1     -14.926  -8.728  -8.516  1.00  0.00    -0.200 F 
ENDBRANCH  60  83
ENDBRANCH  34  35
ENDBRANCH  27  29
ENDBRANCH  26  27
ENDBRANCH  25  26
ENDBRANCH  24  25
ENDBRANCH   1  24
TORSDOF 17
