REMARK SMILES O=C(OCCOCCOC(=O)[C@@H]1C=C[C@H](Nc2ncccn2)C1)c1ccc(-c2c3nc(c(-c4c(F)c(F)c(F)c(F)c4F)c4ccc([nH]4)c(-c4c(F)c(F)c(F)c(F)c4F)c4nc(c(-c5c(F)c(F)c(F)c(F)c5F)c5ccc2[nH]5)C=C4)C=C3)cc1
REMARK SMILES IDX 6 1 5 2 4 3 3 4 2 5 1 6 24 7 25 8 86 9 26 10 85 11 27 12
REMARK SMILES IDX 28 13 29 14 79 15 30 16 84 17 78 18 80 19 31 20 83 21 77 22
REMARK SMILES IDX 76 23 32 25 64 26 44 27 63 28 45 29 48 30 62 31 81 32 46 33
REMARK SMILES IDX 47 34 61 36 82 37 49 38 33 39 34 40 42 41 35 42 36 43 40 44
REMARK SMILES IDX 43 45 37 46 38 47 41 48 39 49 65 50 66 51 74 52 67 53 68 54
REMARK SMILES IDX 72 55 75 56 69 57 70 58 73 59 71 60 50 61 51 62 59 63 52 64
REMARK SMILES IDX 53 65 57 66 60 67 54 68 55 69 58 70 56 71 7 72 8 73 9 74
REMARK SMILES IDX 10 75 11 76 12 77 13 78 23 79 14 80 15 81 16 82 17 84 18 85
REMARK SMILES IDX 22 86 19 87 21 88 20 89
REMARK H PARENT 80 24 48 35 16 83
REMARK Flexibility Score: inf
ROOT
ATOM      1  O   UNL     1       6.619  -2.646   1.660  1.00  0.00    -0.374 OA
ENDROOT
BRANCH   1   2
ATOM      2  C   UNL     1       5.298  -3.094   1.965  1.00  0.00     0.202 C 
BRANCH   2   3
ATOM      3  C   UNL     1       4.870  -2.856   3.416  1.00  0.00     0.261 C 
BRANCH   3   4
ATOM      4  O   UNL     1       4.883  -1.450   3.712  1.00  0.00    -0.460 OA
BRANCH   4   5
ATOM      5  C   UNL     1       5.932  -0.711   4.138  1.00  0.00     0.338 C 
ATOM      6  O   UNL     1       5.846   0.516   4.115  1.00  0.00    -0.246 OA
BRANCH   5   7
ATOM      7  C   UNL     1       7.171  -1.310   4.712  1.00  0.00     0.060 A 
ATOM      8  C   UNL     1       7.751  -2.512   4.299  1.00  0.00     0.016 A 
ATOM      9  C   UNL     1       7.836  -0.557   5.693  1.00  0.00     0.016 A 
ATOM     10  C   UNL     1       8.928  -2.979   4.842  1.00  0.00     0.010 A 
ATOM     11  C   UNL     1       9.030  -1.013   6.248  1.00  0.00     0.010 A 
ATOM     12  C   UNL     1       9.563  -2.233   5.822  1.00  0.00    -0.014 A 
BRANCH  12  13
ATOM     13  C   UNL     1      10.697  -2.863   6.497  1.00  0.00     0.031 A 
ATOM     14  C   UNL     1      10.435  -3.508   7.814  1.00  0.00     0.074 A 
ATOM     15  C   UNL     1      11.872  -2.959   5.857  1.00  0.00     0.049 A 
ATOM     16  N   UNL     1      11.275  -4.016   8.669  1.00  0.00    -0.248 NA
ATOM     17  C   UNL     1       9.021  -3.599   8.220  1.00  0.00     0.031 C 
ATOM     18  C   UNL     1      12.125  -2.504   4.488  1.00  0.00     0.029 A 
ATOM     19  N   UNL     1      13.064  -3.482   6.266  1.00  0.00    -0.354 N 
ATOM     20  C   UNL     1      10.499  -4.441   9.736  1.00  0.00     0.074 A 
ATOM     21  C   UNL     1       9.121  -4.146   9.420  1.00  0.00     0.031 C 
ATOM     22  C   UNL     1      13.405  -2.756   4.176  1.00  0.00     0.029 A 
ATOM     23  C   UNL     1      14.069  -3.309   5.350  1.00  0.00     0.049 A 
ATOM     24  H   UNL     1      13.189  -3.938   7.130  1.00  0.00     0.167 HD
ATOM     25  C   UNL     1      10.929  -5.005  10.887  1.00  0.00     0.037 A 
ATOM     26  C   UNL     1      15.389  -3.519   5.492  1.00  0.00     0.037 A 
ATOM     27  C   UNL     1      12.320  -5.263  11.141  1.00  0.00     0.049 A 
ATOM     28  C   UNL     1      15.864  -4.047   6.819  1.00  0.00     0.074 A 
ATOM     29  C   UNL     1      12.919  -5.762  12.278  1.00  0.00     0.029 A 
ATOM     30  N   UNL     1      13.334  -5.025  10.216  1.00  0.00    -0.354 N 
ATOM     31  N   UNL     1      15.156  -4.362   7.880  1.00  0.00    -0.248 NA
ATOM     32  C   UNL     1      17.308  -4.233   6.981  1.00  0.00     0.031 C 
ATOM     33  C   UNL     1      14.302  -5.771  12.062  1.00  0.00     0.029 A 
ATOM     34  C   UNL     1      14.561  -5.348  10.764  1.00  0.00     0.049 A 
ATOM     35  H   UNL     1      13.197  -4.678   9.305  1.00  0.00     0.167 HD
ATOM     36  C   UNL     1      16.060  -4.812   8.828  1.00  0.00     0.074 A 
ATOM     37  C   UNL     1      17.372  -4.726   8.211  1.00  0.00     0.031 C 
ATOM     38  C   UNL     1      15.835  -5.259  10.089  1.00  0.00     0.037 A 
BRANCH  25  39
ATOM     39  C   UNL     1       9.899  -5.247  11.951  1.00  0.00     0.064 A 
ATOM     40  C   UNL     1       8.876  -6.198  11.807  1.00  0.00     0.173 A 
ATOM     41  C   UNL     1       9.885  -4.443  13.102  1.00  0.00     0.173 A 
ATOM     42  F   UNL     1       8.820  -6.970  10.711  1.00  0.00    -0.203 F 
ATOM     43  C   UNL     1       7.853  -6.299  12.748  1.00  0.00     0.198 A 
ATOM     44  C   UNL     1       8.881  -4.572  14.058  1.00  0.00     0.198 A 
ATOM     45  F   UNL     1      10.830  -3.510  13.287  1.00  0.00    -0.203 F 
ATOM     46  F   UNL     1       6.840  -7.153  12.545  1.00  0.00    -0.200 F 
ATOM     47  C   UNL     1       7.857  -5.488  13.873  1.00  0.00     0.200 A 
ATOM     48  F   UNL     1       8.889  -3.788  15.145  1.00  0.00    -0.200 F 
ATOM     49  F   UNL     1       6.862  -5.573  14.767  1.00  0.00    -0.200 F 
ENDBRANCH  25  39
BRANCH  26  50
ATOM     50  C   UNL     1      16.316  -3.170   4.385  1.00  0.00     0.064 A 
ATOM     51  C   UNL     1      17.027  -4.156   3.690  1.00  0.00     0.173 A 
ATOM     52  C   UNL     1      16.476  -1.838   3.966  1.00  0.00     0.173 A 
ATOM     53  F   UNL     1      16.922  -5.441   4.058  1.00  0.00    -0.203 F 
ATOM     54  C   UNL     1      17.863  -3.825   2.623  1.00  0.00     0.198 A 
ATOM     55  C   UNL     1      17.288  -1.512   2.882  1.00  0.00     0.198 A 
ATOM     56  F   UNL     1      15.817  -0.853   4.594  1.00  0.00    -0.203 F 
ATOM     57  F   UNL     1      18.553  -4.785   1.994  1.00  0.00    -0.200 F 
ATOM     58  C   UNL     1      17.985  -2.505   2.215  1.00  0.00     0.200 A 
ATOM     59  F   UNL     1      17.387  -0.237   2.481  1.00  0.00    -0.200 F 
ATOM     60  F   UNL     1      18.777  -2.191   1.180  1.00  0.00    -0.200 F 
ENDBRANCH  26  50
BRANCH  38  61
ATOM     61  C   UNL     1      17.024  -5.750  10.856  1.00  0.00     0.064 A 
ATOM     62  C   UNL     1      17.968  -4.869  11.400  1.00  0.00     0.173 A 
ATOM     63  C   UNL     1      17.159  -7.120  11.126  1.00  0.00     0.173 A 
ATOM     64  F   UNL     1      17.884  -3.552  11.155  1.00  0.00    -0.203 F 
ATOM     65  C   UNL     1      19.014  -5.346  12.183  1.00  0.00     0.198 A 
ATOM     66  C   UNL     1      18.186  -7.588  11.936  1.00  0.00     0.198 A 
ATOM     67  F   UNL     1      16.273  -7.997  10.632  1.00  0.00    -0.203 F 
ATOM     68  F   UNL     1      19.926  -4.493  12.670  1.00  0.00    -0.200 F 
ATOM     69  C   UNL     1      19.114  -6.702  12.461  1.00  0.00     0.200 A 
ATOM     70  F   UNL     1      18.270  -8.895  12.220  1.00  0.00    -0.200 F 
ATOM     71  F   UNL     1      20.108  -7.155  13.237  1.00  0.00    -0.200 F 
ENDBRANCH  38  61
ENDBRANCH  12  13
ENDBRANCH   5   7
ENDBRANCH   4   5
ENDBRANCH   3   4
ENDBRANCH   2   3
ENDBRANCH   1   2
BRANCH   1  72
ATOM     72  C   UNL     1       6.713  -1.360   1.048  1.00  0.00     0.202 C 
BRANCH  72  73
ATOM     73  C   UNL     1       6.981  -1.498  -0.448  1.00  0.00     0.261 C 
BRANCH  73  74
ATOM     74  O   UNL     1       5.894  -2.194  -1.082  1.00  0.00    -0.463 OA
BRANCH  74  75
ATOM     75  C   UNL     1       6.038  -3.554  -1.152  1.00  0.00     0.312 C 
ATOM     76  O   UNL     1       7.031  -4.177  -0.814  1.00  0.00    -0.252 OA
BRANCH  75  77
ATOM     77  C   UNL     1       4.750  -4.183  -1.676  1.00  0.00     0.124 C 
ATOM     78  C   UNL     1       3.707  -4.339  -0.608  1.00  0.00    -0.014 C 
ATOM     79  C   UNL     1       4.986  -5.636  -2.116  1.00  0.00     0.048 C 
ATOM     80  C   UNL     1       3.588  -5.611  -0.211  1.00  0.00    -0.006 C 
ATOM     81  C   UNL     1       4.499  -6.530  -0.965  1.00  0.00     0.106 C 
BRANCH  81  82
ATOM     82  N   UNL     1       5.566  -6.924  -0.087  1.00  0.00    -0.348 N 
ATOM     83  H   UNL     1       6.399  -6.401  -0.043  1.00  0.00     0.164 HD
BRANCH  82  84
ATOM     84  C   UNL     1       5.402  -8.046   0.688  1.00  0.00     0.223 A 
ATOM     85  N   UNL     1       6.002  -8.048   1.886  1.00  0.00    -0.222 NA
ATOM     86  N   UNL     1       4.635  -9.054   0.243  1.00  0.00    -0.222 NA
ATOM     87  C   UNL     1       5.791  -9.123   2.672  1.00  0.00     0.117 A 
ATOM     88  C   UNL     1       4.476 -10.117   1.050  1.00  0.00     0.117 A 
ATOM     89  C   UNL     1       5.028 -10.202   2.301  1.00  0.00     0.040 A 
ENDBRANCH  82  84
ENDBRANCH  81  82
ENDBRANCH  75  77
ENDBRANCH  74  75
ENDBRANCH  73  74
ENDBRANCH  72  73
ENDBRANCH   1  72
TORSDOF 16
