REMARK SMILES COc1cc2c(CC(=O)OCCOCCOC(=O)c3ccc(-c4c5nc(c(-c6c(F)c(F)c(F)c(F)c6F)c6ccc([nH]6)c(-c6c(F)c(F)c(F)c(F)c6F)c6nc(c(-c7c(F)c(F)c(F)c(F)c7F)c7ccc4[nH]7)C=C6)C=C5)cc3)c(C)n(C(=O)c3ccc(Cl)cc3)c2cc1Cl
REMARK SMILES IDX 12 1 11 2 10 3 8 4 9 5 7 6 6 7 3 8 4 9 96 10 5 11 95 12
REMARK SMILES IDX 97 13 94 14 82 15 84 16 83 17 2 18 1 19 85 20 86 21 87 22
REMARK SMILES IDX 88 23 93 24 89 25 92 26 90 27 91 28 13 29 14 30 15 31 16 32
REMARK SMILES IDX 17 33 18 34 19 35 20 36 81 37 21 38 80 39 22 40 23 41 24 42
REMARK SMILES IDX 74 43 25 44 79 45 73 46 75 47 26 48 78 49 72 50 71 51 27 53
REMARK SMILES IDX 59 54 39 55 58 56 40 57 43 58 57 59 76 60 41 61 42 62 56 64
REMARK SMILES IDX 77 65 44 66 28 67 29 68 37 69 30 70 31 71 35 72 38 73 32 74
REMARK SMILES IDX 33 75 36 76 34 77 60 78 61 79 69 80 62 81 63 82 67 83 70 84
REMARK SMILES IDX 64 85 65 86 68 87 66 88 45 89 46 90 54 91 47 92 48 93 52 94
REMARK SMILES IDX 55 95 49 96 50 97 53 98 51 99
REMARK H PARENT 75 52 43 63
REMARK Flexibility Score: inf
ROOT
ATOM      1  C   UNL     1      -2.646   5.553   3.319  1.00  0.00     0.202 C 
ENDROOT
BRANCH   1   2
ATOM      2  C   UNL     1      -2.692   5.259   4.829  1.00  0.00     0.261 C 
BRANCH   2   3
ATOM      3  O   UNL     1      -1.960   4.095   5.253  1.00  0.00    -0.463 OA
BRANCH   3   4
ATOM      4  C   UNL     1      -2.742   3.052   5.638  1.00  0.00     0.310 C 
ATOM      5  O   UNL     1      -3.970   3.103   5.692  1.00  0.00    -0.252 OA
BRANCH   4   6
ATOM      6  C   UNL     1      -2.024   1.772   5.999  1.00  0.00     0.160 C 
BRANCH   6   7
ATOM      7  C   UNL     1      -0.530   1.645   5.826  1.00  0.00    -0.008 A 
ATOM      8  C   UNL     1       0.634   0.512   2.337  1.00  0.00     0.138 A 
ATOM      9  C   UNL     1      -0.277   0.777   3.376  1.00  0.00     0.058 A 
ATOM     10  C   UNL     1       1.986   0.455   2.645  1.00  0.00     0.085 A 
ATOM     11  C   UNL     1       0.152   1.166   4.669  1.00  0.00     0.008 A 
ATOM     12  C   UNL     1       2.413   0.666   3.965  1.00  0.00     0.051 A 
ATOM     13  Cl  UNL     1       3.264   0.246   1.500  1.00  0.00    -0.080 Cl
ATOM     14  C   UNL     1       1.514   1.103   4.964  1.00  0.00     0.058 A 
ATOM     15  C   UNL     1       0.433   1.841   6.812  1.00  0.00     0.028 A 
ATOM     16  N   UNL     1       1.702   1.515   6.298  1.00  0.00    -0.280 N 
ATOM     17  C   UNL     1       0.155   2.304   8.211  1.00  0.00     0.065 C 
BRANCH   8  18
ATOM     18  O   UNL     1       0.030   0.505   1.109  1.00  0.00    -0.495 OA
ATOM     19  C   UNL     1       0.571  -0.308   0.080  1.00  0.00     0.278 C 
ENDBRANCH   8  18
BRANCH  16  20
ATOM     20  C   UNL     1       2.954   1.571   6.992  1.00  0.00     0.262 C 
ATOM     21  O   UNL     1       2.976   1.872   8.183  1.00  0.00    -0.268 OA
BRANCH  20  22
ATOM     22  C   UNL     1       4.266   1.254   6.403  1.00  0.00     0.040 A 
ATOM     23  C   UNL     1       4.870   2.138   5.500  1.00  0.00     0.015 A 
ATOM     24  C   UNL     1       4.864   0.027   6.716  1.00  0.00     0.015 A 
ATOM     25  C   UNL     1       6.032   1.742   4.832  1.00  0.00     0.021 A 
ATOM     26  C   UNL     1       6.033  -0.355   6.055  1.00  0.00     0.021 A 
ATOM     27  C   UNL     1       6.598   0.493   5.100  1.00  0.00     0.041 A 
ATOM     28  Cl  UNL     1       7.987  -0.019   4.224  1.00  0.00    -0.084 Cl
ENDBRANCH  20  22
ENDBRANCH  16  20
ENDBRANCH   6   7
ENDBRANCH   4   6
ENDBRANCH   3   4
ENDBRANCH   2   3
ENDBRANCH   1   2
BRANCH   1  29
ATOM     29  O   UNL     1      -2.712   4.497   2.372  1.00  0.00    -0.374 OA
BRANCH  29  30
ATOM     30  C   UNL     1      -1.651   3.544   2.371  1.00  0.00     0.202 C 
BRANCH  30  31
ATOM     31  C   UNL     1      -0.209   4.003   2.085  1.00  0.00     0.261 C 
BRANCH  31  32
ATOM     32  O   UNL     1       0.236   5.011   2.991  1.00  0.00    -0.460 OA
BRANCH  32  33
ATOM     33  C   UNL     1       0.993   5.982   2.410  1.00  0.00     0.338 C 
ATOM     34  O   UNL     1       1.656   5.919   1.401  1.00  0.00    -0.246 OA
BRANCH  33  35
ATOM     35  C   UNL     1       0.483   7.220   3.018  1.00  0.00     0.060 A 
ATOM     36  C   UNL     1       0.439   7.347   4.409  1.00  0.00     0.016 A 
ATOM     37  C   UNL     1      -0.281   8.040   2.172  1.00  0.00     0.016 A 
ATOM     38  C   UNL     1      -0.449   8.256   4.958  1.00  0.00     0.010 A 
ATOM     39  C   UNL     1      -1.194   8.922   2.729  1.00  0.00     0.010 A 
ATOM     40  C   UNL     1      -1.294   9.005   4.120  1.00  0.00    -0.014 A 
BRANCH  40  41
ATOM     41  C   UNL     1      -2.069  10.075   4.737  1.00  0.00     0.031 A 
ATOM     42  C   UNL     1      -1.187  11.164   5.247  1.00  0.00     0.074 A 
ATOM     43  C   UNL     1      -3.410  10.194   4.729  1.00  0.00     0.049 A 
ATOM     44  N   UNL     1      -1.076  11.602   6.457  1.00  0.00    -0.248 NA
ATOM     45  C   UNL     1      -0.194  11.720   4.310  1.00  0.00     0.031 C 
ATOM     46  C   UNL     1      -4.400   9.376   4.031  1.00  0.00     0.029 A 
ATOM     47  N   UNL     1      -4.173  11.173   5.297  1.00  0.00    -0.354 N 
ATOM     48  C   UNL     1      -0.101  12.595   6.408  1.00  0.00     0.074 A 
ATOM     49  C   UNL     1       0.513  12.513   5.111  1.00  0.00     0.031 C 
ATOM     50  C   UNL     1      -5.592  10.018   4.034  1.00  0.00     0.029 A 
ATOM     51  C   UNL     1      -5.476  11.234   4.823  1.00  0.00     0.049 A 
ATOM     52  H   UNL     1      -3.827  11.785   5.986  1.00  0.00     0.167 HD
ATOM     53  C   UNL     1      -0.009  13.556   7.364  1.00  0.00     0.037 A 
ATOM     54  C   UNL     1      -6.354  12.256   5.003  1.00  0.00     0.037 A 
ATOM     55  C   UNL     1      -0.648  13.147   8.584  1.00  0.00     0.049 A 
ATOM     56  C   UNL     1      -5.880  13.049   6.168  1.00  0.00     0.074 A 
ATOM     57  C   UNL     1      -0.446  12.107   9.471  1.00  0.00     0.029 A 
ATOM     58  N   UNL     1      -1.899  13.636   8.867  1.00  0.00    -0.354 N 
ATOM     59  N   UNL     1      -5.880  12.608   7.396  1.00  0.00    -0.248 NA
ATOM     60  C   UNL     1      -4.982  14.164   5.902  1.00  0.00     0.031 C 
ATOM     61  C   UNL     1      -1.752  11.712   9.879  1.00  0.00     0.029 A 
ATOM     62  C   UNL     1      -2.663  12.568   9.259  1.00  0.00     0.049 A 
ATOM     63  H   UNL     1      -2.191  14.574   8.800  1.00  0.00     0.167 HD
ATOM     64  C   UNL     1      -4.700  13.090   7.941  1.00  0.00     0.074 A 
ATOM     65  C   UNL     1      -4.225  14.101   7.000  1.00  0.00     0.031 C 
ATOM     66  C   UNL     1      -4.067  12.431   8.954  1.00  0.00     0.037 A 
BRANCH  53  67
ATOM     67  C   UNL     1       0.360  14.987   7.071  1.00  0.00     0.064 A 
ATOM     68  C   UNL     1       0.556  15.880   8.141  1.00  0.00     0.173 A 
ATOM     69  C   UNL     1       0.244  15.582   5.794  1.00  0.00     0.173 A 
ATOM     70  F   UNL     1       0.653  15.428   9.400  1.00  0.00    -0.203 F 
ATOM     71  C   UNL     1       0.560  17.264   7.953  1.00  0.00     0.198 A 
ATOM     72  C   UNL     1       0.308  16.959   5.604  1.00  0.00     0.198 A 
ATOM     73  F   UNL     1      -0.049  14.873   4.698  1.00  0.00    -0.203 F 
ATOM     74  F   UNL     1       0.620  18.078   9.016  1.00  0.00    -0.200 F 
ATOM     75  C   UNL     1       0.432  17.803   6.686  1.00  0.00     0.200 A 
ATOM     76  F   UNL     1       0.162  17.460   4.369  1.00  0.00    -0.200 F 
ATOM     77  F   UNL     1       0.376  19.129   6.511  1.00  0.00    -0.200 F 
ENDBRANCH  53  67
BRANCH  54  78
ATOM     78  C   UNL     1      -7.364  12.779   4.044  1.00  0.00     0.064 A 
ATOM     79  C   UNL     1      -8.367  13.677   4.450  1.00  0.00     0.173 A 
ATOM     80  C   UNL     1      -7.205  12.620   2.653  1.00  0.00     0.173 A 
ATOM     81  F   UNL     1      -8.553  13.937   5.753  1.00  0.00    -0.203 F 
ATOM     82  C   UNL     1      -9.150  14.378   3.523  1.00  0.00     0.198 A 
ATOM     83  C   UNL     1      -7.992  13.311   1.730  1.00  0.00     0.198 A 
ATOM     84  F   UNL     1      -6.217  11.864   2.154  1.00  0.00    -0.203 F 
ATOM     85  F   UNL     1     -10.056  15.269   3.949  1.00  0.00    -0.200 F 
ATOM     86  C   UNL     1      -8.957  14.199   2.164  1.00  0.00     0.200 A 
ATOM     87  F   UNL     1      -7.764  13.157   0.417  1.00  0.00    -0.200 F 
ATOM     88  F   UNL     1      -9.666  14.909   1.275  1.00  0.00    -0.200 F 
ENDBRANCH  54  78
BRANCH  66  89
ATOM     89  C   UNL     1      -4.779  11.289   9.623  1.00  0.00     0.064 A 
ATOM     90  C   UNL     1      -5.111  10.091   8.966  1.00  0.00     0.173 A 
ATOM     91  C   UNL     1      -4.922  11.323  11.016  1.00  0.00     0.173 A 
ATOM     92  F   UNL     1      -4.912   9.947   7.650  1.00  0.00    -0.203 F 
ATOM     93  C   UNL     1      -5.576   8.985   9.674  1.00  0.00     0.198 A 
ATOM     94  C   UNL     1      -5.353  10.204  11.724  1.00  0.00     0.198 A 
ATOM     95  F   UNL     1      -4.569  12.422  11.701  1.00  0.00    -0.203 F 
ATOM     96  F   UNL     1      -5.869   7.848   9.025  1.00  0.00    -0.200 F 
ATOM     97  C   UNL     1      -5.681   9.037  11.054  1.00  0.00     0.200 A 
ATOM     98  F   UNL     1      -5.402  10.243  13.063  1.00  0.00    -0.200 F 
ATOM     99  F   UNL     1      -6.063   7.951  11.741  1.00  0.00    -0.200 F 
ENDBRANCH  66  89
ENDBRANCH  40  41
ENDBRANCH  33  35
ENDBRANCH  32  33
ENDBRANCH  31  32
ENDBRANCH  30  31
ENDBRANCH  29  30
ENDBRANCH   1  29
TORSDOF 18
