REMARK SMILES CC#CC[C@H](C(=O)OCCOCCOC(=O)c1ccc(-c2c3nc(c(-c4c(F)c(F)c(F)c(F)c4F)c4ccc([nH]4)c(-c4c(F)c(F)c(F)c(F)c4F)c4nc(c(-c5c(F)c(F)c(F)c(F)c5F)c5ccc2[nH]5)C=C4)C=C3)cc1)c1cccc(Br)c1
REMARK SMILES IDX 11 1 10 2 9 3 8 4 6 5 7 6 5 7 4 8 3 9 1 10 2 11 80 12 81 13
REMARK SMILES IDX 86 14 82 15 84 16 83 17 85 18 12 19 13 20 14 21 15 22 16 23
REMARK SMILES IDX 17 24 18 25 79 26 19 27 78 28 20 29 21 30 22 31 72 32 23 33
REMARK SMILES IDX 77 34 71 35 73 36 24 37 76 38 70 39 69 40 25 42 57 43 37 44
REMARK SMILES IDX 56 45 38 46 41 47 55 48 74 49 39 50 40 51 54 53 75 54 42 55
REMARK SMILES IDX 26 56 27 57 35 58 28 59 29 60 33 61 36 62 30 63 31 64 34 65
REMARK SMILES IDX 32 66 58 67 59 68 67 69 60 70 61 71 65 72 68 73 62 74 63 75
REMARK SMILES IDX 66 76 64 77 43 78 44 79 52 80 45 81 46 82 50 83 53 84 47 85
REMARK SMILES IDX 48 86 51 87 49 88
REMARK H PARENT 73 41 41 52
REMARK Flexibility Score: inf
ROOT
ATOM      1  O   UNL     1       1.634   3.135   1.441  1.00  0.00    -0.374 OA
ENDROOT
BRANCH   1   2
ATOM      2  C   UNL     1       1.887   4.261   0.593  1.00  0.00     0.202 C 
BRANCH   2   3
ATOM      3  C   UNL     1       1.462   4.103  -0.869  1.00  0.00     0.261 C 
BRANCH   3   4
ATOM      4  O   UNL     1       0.035   4.297  -0.988  1.00  0.00    -0.463 OA
BRANCH   4   5
ATOM      5  C   UNL     1      -0.590   3.575  -1.958  1.00  0.00     0.314 C 
ATOM      6  O   UNL     1      -0.021   2.777  -2.695  1.00  0.00    -0.252 OA
BRANCH   5   7
ATOM      7  C   UNL     1      -2.090   3.829  -2.016  1.00  0.00     0.141 C 
BRANCH   7   8
ATOM      8  C   UNL     1      -2.814   3.247  -0.750  1.00  0.00     0.109 C 
BRANCH   8   9
ATOM      9  C   UNL     1      -3.724   4.302  -0.142  1.00  0.00    -0.102 C 
ATOM     10  C   UNL     1      -5.414   6.262   0.988  1.00  0.00     0.107 C 
ATOM     11  C   UNL     1      -4.504   5.207   0.380  1.00  0.00    -0.107 C 
ENDBRANCH   8   9
ENDBRANCH   7   8
BRANCH   7  12
ATOM     12  C   UNL     1      -2.508   5.246  -2.451  1.00  0.00    -0.032 A 
ATOM     13  C   UNL     1      -1.763   6.406  -2.180  1.00  0.00     0.005 A 
ATOM     14  C   UNL     1      -3.775   5.409  -3.050  1.00  0.00     0.020 A 
ATOM     15  C   UNL     1      -2.271   7.678  -2.475  1.00  0.00     0.001 A 
ATOM     16  C   UNL     1      -4.287   6.682  -3.317  1.00  0.00     0.018 A 
ATOM     17  C   UNL     1      -3.538   7.819  -3.033  1.00  0.00     0.016 A 
ATOM     18  Br  UNL     1      -6.035   6.862  -4.015  1.00  0.00    -0.051 Br
ENDBRANCH   7  12
ENDBRANCH   5   7
ENDBRANCH   4   5
ENDBRANCH   3   4
ENDBRANCH   2   3
ENDBRANCH   1   2
BRANCH   1  19
ATOM     19  C   UNL     1       0.280   2.716   1.573  1.00  0.00     0.202 C 
BRANCH  19  20
ATOM     20  C   UNL     1      -0.585   3.491   2.578  1.00  0.00     0.261 C 
BRANCH  20  21
ATOM     21  O   UNL     1      -0.441   4.916   2.484  1.00  0.00    -0.460 OA
BRANCH  21  22
ATOM     22  C   UNL     1       0.355   5.447   3.439  1.00  0.00     0.338 C 
ATOM     23  O   UNL     1       0.885   4.861   4.378  1.00  0.00    -0.246 OA
BRANCH  22  24
ATOM     24  C   UNL     1       0.645   6.861   3.155  1.00  0.00     0.060 A 
ATOM     25  C   UNL     1       1.992   7.239   3.119  1.00  0.00     0.016 A 
ATOM     26  C   UNL     1      -0.366   7.819   3.044  1.00  0.00     0.016 A 
ATOM     27  C   UNL     1       2.334   8.584   3.029  1.00  0.00     0.010 A 
ATOM     28  C   UNL     1      -0.020   9.173   2.958  1.00  0.00     0.010 A 
ATOM     29  C   UNL     1       1.331   9.563   2.990  1.00  0.00    -0.014 A 
BRANCH  29  30
ATOM     30  C   UNL     1       1.725  10.987   3.112  1.00  0.00     0.031 A 
ATOM     31  C   UNL     1       1.669  11.657   4.457  1.00  0.00     0.074 A 
ATOM     32  C   UNL     1       2.200  11.653   2.046  1.00  0.00     0.049 A 
ATOM     33  N   UNL     1       2.055  12.860   4.802  1.00  0.00    -0.248 NA
ATOM     34  C   UNL     1       1.106  10.865   5.561  1.00  0.00     0.031 C 
ATOM     35  C   UNL     1       2.320  11.105   0.697  1.00  0.00     0.029 A 
ATOM     36  N   UNL     1       2.682  12.933   1.937  1.00  0.00    -0.354 N 
ATOM     37  C   UNL     1       1.788  12.967   6.160  1.00  0.00     0.074 A 
ATOM     38  C   UNL     1       1.173  11.722   6.569  1.00  0.00     0.031 C 
ATOM     39  C   UNL     1       2.844  12.044  -0.108  1.00  0.00     0.029 A 
ATOM     40  C   UNL     1       3.084  13.261   0.667  1.00  0.00     0.049 A 
ATOM     41  H   UNL     1       2.733  13.557   2.697  1.00  0.00     0.167 HD
ATOM     42  C   UNL     1       2.045  14.004   6.993  1.00  0.00     0.037 A 
ATOM     43  C   UNL     1       3.587  14.413   0.185  1.00  0.00     0.037 A 
ATOM     44  C   UNL     1       2.656  15.242   6.586  1.00  0.00     0.049 A 
ATOM     45  C   UNL     1       3.827  15.566   1.122  1.00  0.00     0.074 A 
ATOM     46  C   UNL     1       2.989  16.339   7.362  1.00  0.00     0.029 A 
ATOM     47  N   UNL     1       3.015  15.552   5.282  1.00  0.00    -0.354 N 
ATOM     48  N   UNL     1       3.619  15.640   2.414  1.00  0.00    -0.248 NA
ATOM     49  C   UNL     1       4.384  16.792   0.533  1.00  0.00     0.031 C 
ATOM     50  C   UNL     1       3.505  17.331   6.520  1.00  0.00     0.029 A 
ATOM     51  C   UNL     1       3.538  16.835   5.226  1.00  0.00     0.049 A 
ATOM     52  H   UNL     1       2.913  14.950   4.510  1.00  0.00     0.167 HD
ATOM     53  C   UNL     1       4.033  16.909   2.797  1.00  0.00     0.074 A 
ATOM     54  C   UNL     1       4.523  17.565   1.602  1.00  0.00     0.031 C 
ATOM     55  C   UNL     1       4.010  17.479   4.027  1.00  0.00     0.037 A 
BRANCH  42  56
ATOM     56  C   UNL     1       1.642  13.848   8.431  1.00  0.00     0.064 A 
ATOM     57  C   UNL     1       2.332  12.991   9.301  1.00  0.00     0.173 A 
ATOM     58  C   UNL     1       0.562  14.579   8.948  1.00  0.00     0.173 A 
ATOM     59  F   UNL     1       3.364  12.260   8.852  1.00  0.00    -0.203 F 
ATOM     60  C   UNL     1       1.938  12.850  10.630  1.00  0.00     0.198 A 
ATOM     61  C   UNL     1       0.187  14.455  10.283  1.00  0.00     0.198 A 
ATOM     62  F   UNL     1      -0.129  15.415   8.159  1.00  0.00    -0.203 F 
ATOM     63  F   UNL     1       2.582  11.990  11.431  1.00  0.00    -0.200 F 
ATOM     64  C   UNL     1       0.870  13.586  11.121  1.00  0.00     0.200 A 
ATOM     65  F   UNL     1      -0.839  15.174  10.759  1.00  0.00    -0.200 F 
ATOM     66  F   UNL     1       0.492  13.450  12.399  1.00  0.00    -0.200 F 
ENDBRANCH  42  56
BRANCH  43  67
ATOM     67  C   UNL     1       3.906  14.523  -1.261  1.00  0.00     0.064 A 
ATOM     68  C   UNL     1       5.232  14.572  -1.710  1.00  0.00     0.173 A 
ATOM     69  C   UNL     1       2.887  14.566  -2.223  1.00  0.00     0.173 A 
ATOM     70  F   UNL     1       6.240  14.557  -0.825  1.00  0.00    -0.203 F 
ATOM     71  C   UNL     1       5.527  14.668  -3.068  1.00  0.00     0.198 A 
ATOM     72  C   UNL     1       3.183  14.637  -3.582  1.00  0.00     0.198 A 
ATOM     73  F   UNL     1       1.602  14.521  -1.842  1.00  0.00    -0.203 F 
ATOM     74  F   UNL     1       6.803  14.745  -3.470  1.00  0.00    -0.200 F 
ATOM     75  C   UNL     1       4.503  14.692  -4.003  1.00  0.00     0.200 A 
ATOM     76  F   UNL     1       2.191  14.648  -4.482  1.00  0.00    -0.200 F 
ATOM     77  F   UNL     1       4.788  14.773  -5.310  1.00  0.00    -0.200 F 
ENDBRANCH  43  67
BRANCH  55  78
ATOM     78  C   UNL     1       4.540  18.879   4.143  1.00  0.00     0.064 A 
ATOM     79  C   UNL     1       3.828  19.976   3.635  1.00  0.00     0.173 A 
ATOM     80  C   UNL     1       5.759  19.129   4.790  1.00  0.00     0.173 A 
ATOM     81  F   UNL     1       2.664  19.788   2.994  1.00  0.00    -0.203 F 
ATOM     82  C   UNL     1       4.332  21.270   3.747  1.00  0.00     0.198 A 
ATOM     83  C   UNL     1       6.246  20.427   4.924  1.00  0.00     0.198 A 
ATOM     84  F   UNL     1       6.476  18.116   5.299  1.00  0.00    -0.203 F 
ATOM     85  F   UNL     1       3.658  22.297   3.211  1.00  0.00    -0.200 F 
ATOM     86  C   UNL     1       5.537  21.494   4.396  1.00  0.00     0.200 A 
ATOM     87  F   UNL     1       7.405  20.644   5.561  1.00  0.00    -0.200 F 
ATOM     88  F   UNL     1       6.019  22.740   4.503  1.00  0.00    -0.200 F 
ENDBRANCH  55  78
ENDBRANCH  29  30
ENDBRANCH  22  24
ENDBRANCH  21  22
ENDBRANCH  20  21
ENDBRANCH  19  20
ENDBRANCH   1  19
TORSDOF 17
