REMARK SMILES CC(C)CC1(CNC(=O)N[C@H](C)CC(=O)OCCOCCOC(=O)c2ccc(-c3c4nc(c(-c5c(F)c(F)c(F)c(F)c5F)c5ccc([nH]5)c(-c5c(F)c(F)c(F)c(F)c5F)c5nc(c(-c6c(F)c(F)c(F)c(F)c6F)c6ccc3[nH]6)C=C5)C=C4)cc2)CCCC1
REMARK SMILES IDX 17 1 16 2 14 3 15 4 13 5 11 6 12 7 10 8 7 9 8 10 9 12 6 14
REMARK SMILES IDX 5 15 88 16 91 17 89 18 90 19 4 20 2 21 1 22 3 23 18 24 19 25
REMARK SMILES IDX 20 26 21 27 22 28 23 29 24 30 25 31 26 32 87 33 27 34 86 35
REMARK SMILES IDX 28 36 29 37 30 38 80 39 31 40 85 41 79 42 81 43 32 44 84 45
REMARK SMILES IDX 78 46 77 47 33 49 65 50 45 51 64 52 46 53 49 54 63 55 82 56
REMARK SMILES IDX 47 57 48 58 62 60 83 61 50 62 34 63 35 64 43 65 36 66 37 67
REMARK SMILES IDX 41 68 44 69 38 70 39 71 42 72 40 73 66 74 67 75 75 76 68 77
REMARK SMILES IDX 69 78 73 79 76 80 70 81 71 82 74 83 72 84 51 85 52 86 60 87
REMARK SMILES IDX 53 88 54 89 58 90 61 91 55 92 56 93 59 94 57 95
REMARK H PARENT 7 11 10 13 81 48 49 59
REMARK Flexibility Score: inf
ROOT
ATOM      1  C   UNL     1      -0.491   2.964   2.519  1.00  0.00     0.261 C 
ENDROOT
BRANCH   1   2
ATOM      2  O   UNL     1      -1.564   2.779   1.574  1.00  0.00    -0.463 OA
BRANCH   2   3
ATOM      3  C   UNL     1      -1.429   3.408   0.379  1.00  0.00     0.307 C 
ATOM      4  O   UNL     1      -0.497   4.147   0.084  1.00  0.00    -0.252 OA
BRANCH   3   5
ATOM      5  C   UNL     1      -2.580   3.162  -0.575  1.00  0.00     0.147 C 
BRANCH   5   6
ATOM      6  C   UNL     1      -3.499   1.968  -0.275  1.00  0.00     0.091 C 
ATOM      7  C   UNL     1      -4.390   2.245   0.938  1.00  0.00     0.031 C 
BRANCH   6   8
ATOM      8  N   UNL     1      -4.330   1.683  -1.454  1.00  0.00    -0.335 N 
ATOM      9  N   UNL     1      -5.128  -0.552  -1.371  1.00  0.00    -0.338 N 
ATOM     10  C   UNL     1      -5.038   0.655  -1.930  1.00  0.00     0.315 C 
ATOM     11  H   UNL     1      -5.739  -1.147  -1.862  1.00  0.00     0.165 HD
ATOM     12  O   UNL     1      -5.666   0.842  -2.976  1.00  0.00    -0.249 OA
ATOM     13  H   UNL     1      -4.377   2.460  -2.057  1.00  0.00     0.165 HD
BRANCH   9  14
ATOM     14  C   UNL     1      -4.544  -1.199  -0.215  1.00  0.00     0.124 C 
BRANCH  14  15
ATOM     15  C   UNL     1      -5.594  -1.754   0.799  1.00  0.00    -0.012 C 
ATOM     16  C   UNL     1      -4.838  -2.308   2.013  1.00  0.00     0.009 C 
ATOM     17  C   UNL     1      -6.251  -3.057   0.286  1.00  0.00     0.009 C 
ATOM     18  C   UNL     1      -4.248  -3.638   1.562  1.00  0.00     0.001 C 
ATOM     19  C   UNL     1      -5.257  -4.191   0.564  1.00  0.00     0.001 C 
BRANCH  15  20
ATOM     20  C   UNL     1      -6.674  -0.665   1.094  1.00  0.00     0.012 C 
BRANCH  20  21
ATOM     21  C   UNL     1      -7.230  -0.503   2.525  1.00  0.00    -0.017 C 
ATOM     22  C   UNL     1      -6.272   0.259   3.447  1.00  0.00     0.007 C 
ATOM     23  C   UNL     1      -8.543   0.291   2.481  1.00  0.00     0.007 C 
ENDBRANCH  20  21
ENDBRANCH  15  20
ENDBRANCH  14  15
ENDBRANCH   9  14
ENDBRANCH   6   8
ENDBRANCH   5   6
ENDBRANCH   3   5
ENDBRANCH   2   3
ENDBRANCH   1   2
BRANCH   1  24
ATOM     24  C   UNL     1       0.004   1.621   3.061  1.00  0.00     0.202 C 
BRANCH  24  25
ATOM     25  O   UNL     1       0.661   0.796   2.098  1.00  0.00    -0.374 OA
BRANCH  25  26
ATOM     26  C   UNL     1      -0.183   0.044   1.227  1.00  0.00     0.202 C 
BRANCH  26  27
ATOM     27  C   UNL     1      -0.737  -1.249   1.833  1.00  0.00     0.261 C 
BRANCH  27  28
ATOM     28  O   UNL     1      -1.643  -0.982   2.921  1.00  0.00    -0.460 OA
BRANCH  28  29
ATOM     29  C   UNL     1      -1.325  -1.554   4.105  1.00  0.00     0.338 C 
ATOM     30  O   UNL     1      -0.400  -2.318   4.344  1.00  0.00    -0.246 OA
BRANCH  29  31
ATOM     31  C   UNL     1      -2.239  -1.064   5.148  1.00  0.00     0.060 A 
ATOM     32  C   UNL     1      -1.758  -0.217   6.148  1.00  0.00     0.016 A 
ATOM     33  C   UNL     1      -3.554  -1.519   5.194  1.00  0.00     0.016 A 
ATOM     34  C   UNL     1      -2.595   0.153   7.207  1.00  0.00     0.010 A 
ATOM     35  C   UNL     1      -4.410  -1.089   6.210  1.00  0.00     0.010 A 
ATOM     36  C   UNL     1      -3.927  -0.291   7.258  1.00  0.00    -0.014 A 
BRANCH  36  37
ATOM     37  C   UNL     1      -4.779  -0.052   8.459  1.00  0.00     0.031 A 
ATOM     38  C   UNL     1      -5.266  -1.230   9.272  1.00  0.00     0.074 A 
ATOM     39  C   UNL     1      -5.136   1.193   8.826  1.00  0.00     0.049 A 
ATOM     40  N   UNL     1      -6.074  -1.256  10.304  1.00  0.00    -0.248 NA
ATOM     41  C   UNL     1      -4.813  -2.562   8.841  1.00  0.00     0.031 C 
ATOM     42  C   UNL     1      -4.776   2.422   8.121  1.00  0.00     0.029 A 
ATOM     43  N   UNL     1      -5.888   1.629   9.892  1.00  0.00    -0.354 N 
ATOM     44  C   UNL     1      -6.258  -2.600  10.609  1.00  0.00     0.074 A 
ATOM     45  C   UNL     1      -5.521  -3.360   9.625  1.00  0.00     0.031 C 
ATOM     46  C   UNL     1      -5.279   3.475   8.790  1.00  0.00     0.029 A 
ATOM     47  C   UNL     1      -6.023   2.994   9.952  1.00  0.00     0.049 A 
ATOM     48  H   UNL     1      -6.292   1.018  10.550  1.00  0.00     0.167 HD
ATOM     49  C   UNL     1      -6.950  -3.156  11.632  1.00  0.00     0.037 A 
ATOM     50  C   UNL     1      -6.670   3.769  10.845  1.00  0.00     0.037 A 
ATOM     51  C   UNL     1      -7.616  -2.408  12.664  1.00  0.00     0.049 A 
ATOM     52  C   UNL     1      -7.387   3.131  12.007  1.00  0.00     0.074 A 
ATOM     53  C   UNL     1      -8.274  -2.881  13.785  1.00  0.00     0.029 A 
ATOM     54  N   UNL     1      -7.690  -1.025  12.709  1.00  0.00    -0.354 N 
ATOM     55  N   UNL     1      -7.511   1.862  12.309  1.00  0.00    -0.248 NA
ATOM     56  C   UNL     1      -8.048   4.039  12.957  1.00  0.00     0.031 C 
ATOM     57  C   UNL     1      -8.770  -1.784  14.497  1.00  0.00     0.029 A 
ATOM     58  C   UNL     1      -8.388  -0.628  13.838  1.00  0.00     0.049 A 
ATOM     59  H   UNL     1      -7.305  -0.415  12.039  1.00  0.00     0.167 HD
ATOM     60  C   UNL     1      -8.236   1.820  13.492  1.00  0.00     0.074 A 
ATOM     61  C   UNL     1      -8.514   3.191  13.864  1.00  0.00     0.031 C 
ATOM     62  C   UNL     1      -8.639   0.741  14.206  1.00  0.00     0.037 A 
BRANCH  49  63
ATOM     63  C   UNL     1      -7.009  -4.656  11.696  1.00  0.00     0.064 A 
ATOM     64  C   UNL     1      -5.880  -5.426  12.015  1.00  0.00     0.173 A 
ATOM     65  C   UNL     1      -8.216  -5.330  11.458  1.00  0.00     0.173 A 
ATOM     66  F   UNL     1      -4.699  -4.830  12.240  1.00  0.00    -0.203 F 
ATOM     67  C   UNL     1      -5.949  -6.816  12.056  1.00  0.00     0.198 A 
ATOM     68  C   UNL     1      -8.289  -6.718  11.532  1.00  0.00     0.198 A 
ATOM     69  F   UNL     1      -9.328  -4.642  11.157  1.00  0.00    -0.203 F 
ATOM     70  F   UNL     1      -4.843  -7.532  12.305  1.00  0.00    -0.200 F 
ATOM     71  C   UNL     1      -7.153  -7.460  11.821  1.00  0.00     0.200 A 
ATOM     72  F   UNL     1      -9.457  -7.340  11.318  1.00  0.00    -0.200 F 
ATOM     73  F   UNL     1      -7.218  -8.798  11.864  1.00  0.00    -0.200 F 
ENDBRANCH  49  63
BRANCH  50  74
ATOM     74  C   UNL     1      -6.643   5.248  10.701  1.00  0.00     0.064 A 
ATOM     75  C   UNL     1      -5.910   6.042  11.595  1.00  0.00     0.173 A 
ATOM     76  C   UNL     1      -7.359   5.898   9.686  1.00  0.00     0.173 A 
ATOM     77  F   UNL     1      -5.230   5.467  12.597  1.00  0.00    -0.203 F 
ATOM     78  C   UNL     1      -5.912   7.432  11.492  1.00  0.00     0.198 A 
ATOM     79  C   UNL     1      -7.338   7.287   9.568  1.00  0.00     0.198 A 
ATOM     80  F   UNL     1      -8.073   5.183   8.805  1.00  0.00    -0.203 F 
ATOM     81  F   UNL     1      -5.240   8.168  12.388  1.00  0.00    -0.200 F 
ATOM     82  C   UNL     1      -6.622   8.052  10.476  1.00  0.00     0.200 A 
ATOM     83  F   UNL     1      -8.016   7.883   8.578  1.00  0.00    -0.200 F 
ATOM     84  F   UNL     1      -6.622   9.389  10.376  1.00  0.00    -0.200 F 
ENDBRANCH  50  74
BRANCH  62  85
ATOM     85  C   UNL     1      -9.386   0.992  15.483  1.00  0.00     0.064 A 
ATOM     86  C   UNL     1     -10.718   1.431  15.480  1.00  0.00     0.173 A 
ATOM     87  C   UNL     1      -8.778   0.741  16.722  1.00  0.00     0.173 A 
ATOM     88  F   UNL     1     -11.339   1.698  14.321  1.00  0.00    -0.203 F 
ATOM     89  C   UNL     1     -11.408   1.628  16.674  1.00  0.00     0.198 A 
ATOM     90  C   UNL     1      -9.479   0.915  17.912  1.00  0.00     0.198 A 
ATOM     91  F   UNL     1      -7.508   0.313  16.777  1.00  0.00    -0.203 F 
ATOM     92  F   UNL     1     -12.668   2.085  16.650  1.00  0.00    -0.200 F 
ATOM     93  C   UNL     1     -10.790   1.363  17.887  1.00  0.00     0.200 A 
ATOM     94  F   UNL     1      -8.884   0.646  19.083  1.00  0.00    -0.200 F 
ATOM     95  F   UNL     1     -11.459   1.546  19.035  1.00  0.00    -0.200 F 
ENDBRANCH  62  85
ENDBRANCH  36  37
ENDBRANCH  29  31
ENDBRANCH  28  29
ENDBRANCH  27  28
ENDBRANCH  26  27
ENDBRANCH  25  26
ENDBRANCH  24  25
ENDBRANCH   1  24
TORSDOF 20
