REMARK SMILES CC(=O)NCCNC(=O)C[N@H+]1CC[C@@H](C(=O)OCCOCCOC(=O)c2ccc(-c3c4nc(c(-c5c(F)c(F)c(F)c(F)c5F)c5ccc([nH]5)c(-c5c(F)c(F)c(F)c(F)c5F)c5nc(c(-c6c(F)c(F)c(F)c(F)c6F)c6ccc3[nH]6)C=C5)C=C4)cc2)[C@H]1C
REMARK SMILES IDX 18 1 17 2 15 3 16 4 14 5 11 6 12 7 89 8 13 10 90 11 10 12
REMARK SMILES IDX 8 13 7 14 9 16 6 17 5 18 4 19 1 20 2 21 3 22 19 24 20 25
REMARK SMILES IDX 21 26 22 27 23 28 24 29 25 30 26 31 27 32 88 33 28 34 87 35
REMARK SMILES IDX 29 36 30 37 31 38 81 39 32 40 86 41 80 42 82 43 33 44 85 45
REMARK SMILES IDX 79 46 78 47 34 49 66 50 46 51 65 52 47 53 50 54 64 55 83 56
REMARK SMILES IDX 48 57 49 58 63 60 84 61 51 62 35 63 36 64 44 65 37 66 38 67
REMARK SMILES IDX 42 68 45 69 39 70 40 71 43 72 41 73 67 74 68 75 76 76 69 77
REMARK SMILES IDX 70 78 74 79 77 80 71 81 72 82 75 83 73 84 52 85 53 86 61 87
REMARK SMILES IDX 54 88 55 89 59 90 62 91 56 92 57 93 60 94 58 95
REMARK H PARENT 11 9 7 15 4 23 82 48 50 59
REMARK Flexibility Score: inf
ROOT
ATOM      1  C   UNL     1       4.731  10.741  -1.233  1.00  0.00     0.261 C 
ENDROOT
BRANCH   1   2
ATOM      2  O   UNL     1       4.631   9.335  -1.526  1.00  0.00    -0.463 OA
BRANCH   2   3
ATOM      3  C   UNL     1       3.882   8.607  -0.668  1.00  0.00     0.315 C 
ATOM      4  O   UNL     1       3.469   9.015   0.411  1.00  0.00    -0.252 OA
BRANCH   3   5
ATOM      5  C   UNL     1       3.628   7.192  -1.135  1.00  0.00     0.162 C 
ATOM      6  N   UNL     1       3.633   5.323  -2.574  1.00  0.00    -0.324 N 
ATOM      7  C   UNL     1       4.390   4.984  -1.363  1.00  0.00     0.264 C 
ATOM      8  C   UNL     1       3.378   6.791  -2.604  1.00  0.00     0.195 C 
ATOM      9  H   UNL     1       2.700   4.913  -2.546  1.00  0.00     0.348 HD
ATOM     10  C   UNL     1       4.763   6.292  -0.709  1.00  0.00     0.083 C 
ATOM     11  C   UNL     1       4.151   7.566  -3.676  1.00  0.00     0.076 C 
BRANCH   6  12
ATOM     12  C   UNL     1       4.125   4.652  -3.785  1.00  0.00     0.363 C 
BRANCH  12  13
ATOM     13  C   UNL     1       2.994   3.931  -4.523  1.00  0.00     0.275 C 
ATOM     14  N   UNL     1       2.555   2.722  -4.050  1.00  0.00    -0.349 N 
ATOM     15  H   UNL     1       1.985   2.201  -4.660  1.00  0.00     0.163 HD
ATOM     16  O   UNL     1       2.506   4.377  -5.562  1.00  0.00    -0.269 OA
BRANCH  14  17
ATOM     17  C   UNL     1       2.829   2.114  -2.755  1.00  0.00     0.137 C 
BRANCH  17  18
ATOM     18  C   UNL     1       1.626   2.261  -1.815  1.00  0.00     0.137 C 
BRANCH  18  19
ATOM     19  N   UNL     1       0.603   1.276  -2.135  1.00  0.00    -0.355 N 
ATOM     20  C   UNL     1       0.895  -0.056  -0.084  1.00  0.00     0.114 C 
ATOM     21  C   UNL     1       0.275   0.149  -1.439  1.00  0.00     0.216 C 
ATOM     22  O   UNL     1      -0.517  -0.655  -1.922  1.00  0.00    -0.275 OA
ATOM     23  H   UNL     1       0.084   1.444  -2.954  1.00  0.00     0.163 HD
ENDBRANCH  18  19
ENDBRANCH  17  18
ENDBRANCH  14  17
ENDBRANCH  12  13
ENDBRANCH   6  12
ENDBRANCH   3   5
ENDBRANCH   2   3
ENDBRANCH   1   2
BRANCH   1  24
ATOM     24  C   UNL     1       3.789  11.537  -2.139  1.00  0.00     0.202 C 
BRANCH  24  25
ATOM     25  O   UNL     1       2.398  11.427  -1.843  1.00  0.00    -0.374 OA
BRANCH  25  26
ATOM     26  C   UNL     1       1.689  10.328  -2.416  1.00  0.00     0.202 C 
BRANCH  26  27
ATOM     27  C   UNL     1       1.260  10.482  -3.882  1.00  0.00     0.261 C 
BRANCH  27  28
ATOM     28  O   UNL     1       2.391  10.489  -4.774  1.00  0.00    -0.460 OA
BRANCH  28  29
ATOM     29  C   UNL     1       2.726  11.705  -5.262  1.00  0.00     0.338 C 
ATOM     30  O   UNL     1       2.122  12.757  -5.102  1.00  0.00    -0.246 OA
BRANCH  29  31
ATOM     31  C   UNL     1       4.071  11.655  -5.871  1.00  0.00     0.060 A 
ATOM     32  C   UNL     1       4.976  12.662  -5.509  1.00  0.00     0.016 A 
ATOM     33  C   UNL     1       4.433  10.686  -6.809  1.00  0.00     0.016 A 
ATOM     34  C   UNL     1       6.221  12.744  -6.128  1.00  0.00     0.010 A 
ATOM     35  C   UNL     1       5.684  10.773  -7.435  1.00  0.00     0.010 A 
ATOM     36  C   UNL     1       6.567  11.825  -7.128  1.00  0.00    -0.014 A 
BRANCH  36  37
ATOM     37  C   UNL     1       7.776  12.069  -7.955  1.00  0.00     0.031 A 
ATOM     38  C   UNL     1       7.609  12.650  -9.335  1.00  0.00     0.074 A 
ATOM     39  C   UNL     1       9.009  11.829  -7.474  1.00  0.00     0.049 A 
ATOM     40  N   UNL     1       8.515  12.920 -10.240  1.00  0.00    -0.248 NA
ATOM     41  C   UNL     1       6.233  12.972  -9.748  1.00  0.00     0.031 C 
ATOM     42  C   UNL     1       9.309  11.317  -6.139  1.00  0.00     0.029 A 
ATOM     43  N   UNL     1      10.241  11.983  -8.061  1.00  0.00    -0.354 N 
ATOM     44  C   UNL     1       7.821  13.437 -11.327  1.00  0.00     0.074 A 
ATOM     45  C   UNL     1       6.415  13.410 -10.984  1.00  0.00     0.031 C 
ATOM     46  C   UNL     1      10.642  11.192  -6.010  1.00  0.00     0.029 A 
ATOM     47  C   UNL     1      11.285  11.580  -7.265  1.00  0.00     0.049 A 
ATOM     48  H   UNL     1      10.364  12.348  -8.967  1.00  0.00     0.167 HD
ATOM     49  C   UNL     1       8.311  13.906 -12.499  1.00  0.00     0.037 A 
ATOM     50  C   UNL     1      12.605  11.510  -7.529  1.00  0.00     0.037 A 
ATOM     51  C   UNL     1       9.709  13.937 -12.841  1.00  0.00     0.049 A 
ATOM     52  C   UNL     1      13.115  11.953  -8.878  1.00  0.00     0.074 A 
ATOM     53  C   UNL     1      10.303  14.400 -14.002  1.00  0.00     0.029 A 
ATOM     54  N   UNL     1      10.732  13.480 -12.024  1.00  0.00    -0.354 N 
ATOM     55  N   UNL     1      12.454  12.460  -9.891  1.00  0.00    -0.248 NA
ATOM     56  C   UNL     1      14.560  11.818  -9.118  1.00  0.00     0.031 C 
ATOM     57  C   UNL     1      11.679  14.171 -13.911  1.00  0.00     0.029 A 
ATOM     58  C   UNL     1      11.951  13.626 -12.667  1.00  0.00     0.049 A 
ATOM     59  H   UNL     1      10.610  13.107 -11.120  1.00  0.00     0.167 HD
ATOM     60  C   UNL     1      13.403  12.736 -10.868  1.00  0.00     0.074 A 
ATOM     61  C   UNL     1      14.688  12.355 -10.323  1.00  0.00     0.031 C 
ATOM     62  C   UNL     1      13.226  13.260 -12.106  1.00  0.00     0.037 A 
BRANCH  49  63
ATOM     63  C   UNL     1       7.327  14.409 -13.516  1.00  0.00     0.064 A 
ATOM     64  C   UNL     1       6.625  15.610 -13.332  1.00  0.00     0.173 A 
ATOM     65  C   UNL     1       7.125  13.709 -14.715  1.00  0.00     0.173 A 
ATOM     66  F   UNL     1       6.772  16.311 -12.197  1.00  0.00    -0.203 F 
ATOM     67  C   UNL     1       5.742  16.079 -14.301  1.00  0.00     0.198 A 
ATOM     68  C   UNL     1       6.266  14.197 -15.695  1.00  0.00     0.198 A 
ATOM     69  F   UNL     1       7.775  12.558 -14.944  1.00  0.00    -0.203 F 
ATOM     70  F   UNL     1       5.051  17.207 -14.085  1.00  0.00    -0.200 F 
ATOM     71  C   UNL     1       5.571  15.379 -15.485  1.00  0.00     0.200 A 
ATOM     72  F   UNL     1       6.114  13.527 -16.846  1.00  0.00    -0.200 F 
ATOM     73  F   UNL     1       4.732  15.840 -16.424  1.00  0.00    -0.200 F 
ENDBRANCH  49  63
BRANCH  50  74
ATOM     74  C   UNL     1      13.548  10.981  -6.506  1.00  0.00     0.064 A 
ATOM     75  C   UNL     1      14.532  11.800  -5.934  1.00  0.00     0.173 A 
ATOM     76  C   UNL     1      13.517   9.633  -6.118  1.00  0.00     0.173 A 
ATOM     77  F   UNL     1      14.621  13.089  -6.292  1.00  0.00    -0.203 F 
ATOM     78  C   UNL     1      15.466  11.285  -5.037  1.00  0.00     0.198 A 
ATOM     79  C   UNL     1      14.430   9.128  -5.194  1.00  0.00     0.198 A 
ATOM     80  F   UNL     1      12.599   8.805  -6.636  1.00  0.00    -0.203 F 
ATOM     81  F   UNL     1      16.434  12.075  -4.554  1.00  0.00    -0.200 F 
ATOM     82  C   UNL     1      15.411   9.950  -4.664  1.00  0.00     0.200 A 
ATOM     83  F   UNL     1      14.364   7.840  -4.828  1.00  0.00    -0.200 F 
ATOM     84  F   UNL     1      16.312   9.455  -3.804  1.00  0.00    -0.200 F 
ENDBRANCH  50  74
BRANCH  62  85
ATOM     85  C   UNL     1      14.452  13.505 -12.941  1.00  0.00     0.064 A 
ATOM     86  C   UNL     1      15.199  12.451 -13.489  1.00  0.00     0.173 A 
ATOM     87  C   UNL     1      14.859  14.817 -13.233  1.00  0.00     0.173 A 
ATOM     88  F   UNL     1      14.861  11.179 -13.231  1.00  0.00    -0.203 F 
ATOM     89  C   UNL     1      16.322  12.701 -14.274  1.00  0.00     0.198 A 
ATOM     90  C   UNL     1      15.962  15.063 -14.046  1.00  0.00     0.198 A 
ATOM     91  F   UNL     1      14.177  15.862 -12.743  1.00  0.00    -0.203 F 
ATOM     92  F   UNL     1      17.050  11.678 -14.743  1.00  0.00    -0.200 F 
ATOM     93  C   UNL     1      16.698  14.006 -14.559  1.00  0.00     0.200 A 
ATOM     94  F   UNL     1      16.312  16.324 -14.334  1.00  0.00    -0.200 F 
ATOM     95  F   UNL     1      17.773  14.244 -15.322  1.00  0.00    -0.200 F 
ENDBRANCH  62  85
ENDBRANCH  36  37
ENDBRANCH  29  31
ENDBRANCH  28  29
ENDBRANCH  27  28
ENDBRANCH  26  27
ENDBRANCH  25  26
ENDBRANCH  24  25
ENDBRANCH   1  24
TORSDOF 19
