REMARK SMILES O=C(OCCOCCOC(=O)c1ccc(-c2c3nc(c(-c4c(F)c(F)c(F)c(F)c4F)c4ccc([nH]4)c(-c4c(F)c(F)c(F)c(F)c4F)c4nc(c(-c5c(F)c(F)c(F)c(F)c5F)c5ccc2[nH]5)C=C4)C=C3)cc1)C1=Cc2c(cc(Cl)c(Cl)c2Cl)O[C@H]1C(F)(F)F
REMARK SMILES IDX 7 1 6 2 5 3 4 4 3 5 2 6 1 7 75 8 76 9 87 10 77 11 86 12
REMARK SMILES IDX 78 13 84 14 79 15 82 16 85 17 80 18 83 19 81 20 88 21 89 22
REMARK SMILES IDX 90 23 91 24 8 25 9 26 10 27 11 28 12 29 13 30 74 31 14 32
REMARK SMILES IDX 73 33 15 34 16 35 17 36 67 37 18 38 72 39 66 40 68 41 19 42
REMARK SMILES IDX 71 43 65 44 64 45 20 47 52 48 32 49 51 50 33 51 36 52 50 53
REMARK SMILES IDX 69 54 34 55 35 56 49 58 70 59 37 60 21 61 22 62 30 63 23 64
REMARK SMILES IDX 24 65 28 66 31 67 25 68 26 69 29 70 27 71 53 72 54 73 62 74
REMARK SMILES IDX 55 75 56 76 60 77 63 78 57 79 58 80 61 81 59 82 38 83 39 84
REMARK SMILES IDX 47 85 40 86 41 87 45 88 48 89 42 90 43 91 46 92 44 93
REMARK H PARENT 68 46 36 57
REMARK Flexibility Score: inf
ROOT
ATOM      1  C   UNL     1       1.746   2.376  -2.665  1.00  0.00     0.202 C 
ENDROOT
BRANCH   1   2
ATOM      2  O   UNL     1       2.412   1.609  -1.663  1.00  0.00    -0.374 OA
BRANCH   2   3
ATOM      3  C   UNL     1       2.517   0.225  -1.987  1.00  0.00     0.202 C 
BRANCH   3   4
ATOM      4  C   UNL     1       2.033  -0.660  -0.840  1.00  0.00     0.261 C 
BRANCH   4   5
ATOM      5  O   UNL     1       1.639   0.082   0.330  1.00  0.00    -0.460 OA
BRANCH   5   6
ATOM      6  C   UNL     1       2.411   0.612   1.302  1.00  0.00     0.338 C 
ATOM      7  O   UNL     1       1.867   1.032   2.323  1.00  0.00    -0.246 OA
BRANCH   6   8
ATOM      8  C   UNL     1       3.893   0.518   1.298  1.00  0.00     0.087 C 
ATOM      9  C   UNL     1       4.650   0.080   0.290  1.00  0.00     0.029 C 
ATOM     10  C   UNL     1       4.520   0.727   2.663  1.00  0.00     0.316 C 
ATOM     11  C   UNL     1       5.702  -0.864   0.632  1.00  0.00     0.038 A 
ATOM     12  O   UNL     1       5.894   0.231   2.777  1.00  0.00    -0.475 OA
ATOM     13  C   UNL     1       6.267  -0.748   1.897  1.00  0.00     0.131 A 
ATOM     14  C   UNL     1       6.049  -1.954  -0.194  1.00  0.00     0.072 A 
ATOM     15  C   UNL     1       7.243  -1.646   2.310  1.00  0.00     0.069 A 
ATOM     16  C   UNL     1       6.985  -2.904   0.243  1.00  0.00     0.079 A 
ATOM     17  Cl  UNL     1       5.247  -2.171  -1.718  1.00  0.00    -0.082 Cl
ATOM     18  C   UNL     1       7.592  -2.728   1.494  1.00  0.00     0.064 A 
ATOM     19  Cl  UNL     1       7.353  -4.297  -0.731  1.00  0.00    -0.081 Cl
ATOM     20  Cl  UNL     1       8.764  -3.839   2.112  1.00  0.00    -0.083 Cl
BRANCH  10  21
ATOM     21  C   UNL     1       4.501   2.234   3.049  1.00  0.00     0.430 C 
ATOM     22  F   UNL     1       3.640   2.977   2.316  1.00  0.00    -0.167 F 
ATOM     23  F   UNL     1       4.169   2.397   4.352  1.00  0.00    -0.167 F 
ATOM     24  F   UNL     1       5.720   2.807   2.877  1.00  0.00    -0.167 F 
ENDBRANCH  10  21
ENDBRANCH   6   8
ENDBRANCH   5   6
ENDBRANCH   4   5
ENDBRANCH   3   4
ENDBRANCH   2   3
ENDBRANCH   1   2
BRANCH   1  25
ATOM     25  C   UNL     1       2.681   2.805  -3.801  1.00  0.00     0.261 C 
BRANCH  25  26
ATOM     26  O   UNL     1       3.258   1.661  -4.463  1.00  0.00    -0.460 OA
BRANCH  26  27
ATOM     27  C   UNL     1       4.600   1.484  -4.292  1.00  0.00     0.338 C 
ATOM     28  O   UNL     1       5.356   2.218  -3.706  1.00  0.00    -0.246 OA
BRANCH  27  29
ATOM     29  C   UNL     1       5.020   0.159  -4.848  1.00  0.00     0.060 A 
ATOM     30  C   UNL     1       6.286  -0.335  -4.496  1.00  0.00     0.016 A 
ATOM     31  C   UNL     1       4.191  -0.611  -5.670  1.00  0.00     0.016 A 
ATOM     32  C   UNL     1       6.713  -1.593  -4.944  1.00  0.00     0.010 A 
ATOM     33  C   UNL     1       4.621  -1.864  -6.124  1.00  0.00     0.010 A 
ATOM     34  C   UNL     1       5.884  -2.366  -5.766  1.00  0.00    -0.014 A 
BRANCH  34  35
ATOM     35  C   UNL     1       6.348  -3.646  -6.362  1.00  0.00     0.031 A 
ATOM     36  C   UNL     1       7.010  -3.621  -7.709  1.00  0.00     0.074 A 
ATOM     37  C   UNL     1       6.115  -4.827  -5.759  1.00  0.00     0.049 A 
ATOM     38  N   UNL     1       7.356  -4.619  -8.483  1.00  0.00    -0.248 NA
ATOM     39  C   UNL     1       7.314  -2.293  -8.263  1.00  0.00     0.031 C 
ATOM     40  C   UNL     1       5.512  -4.999  -4.442  1.00  0.00     0.029 A 
ATOM     41  N   UNL     1       6.332  -6.114  -6.197  1.00  0.00    -0.354 N 
ATOM     42  C   UNL     1       7.912  -4.041  -9.614  1.00  0.00     0.074 A 
ATOM     43  C   UNL     1       7.847  -2.606  -9.435  1.00  0.00     0.031 C 
ATOM     44  C   UNL     1       5.376  -6.313  -4.188  1.00  0.00     0.029 A 
ATOM     45  C   UNL     1       5.842  -7.076  -5.345  1.00  0.00     0.049 A 
ATOM     46  H   UNL     1       6.794  -6.325  -7.040  1.00  0.00     0.167 HD
ATOM     47  C   UNL     1       8.428  -4.652 -10.706  1.00  0.00     0.037 A 
ATOM     48  C   UNL     1       5.741  -8.412  -5.500  1.00  0.00     0.037 A 
ATOM     49  C   UNL     1       8.485  -6.076 -10.900  1.00  0.00     0.049 A 
ATOM     50  C   UNL     1       6.232  -9.057  -6.775  1.00  0.00     0.074 A 
ATOM     51  C   UNL     1       9.034  -6.778 -11.960  1.00  0.00     0.029 A 
ATOM     52  N   UNL     1       7.959  -7.015 -10.028  1.00  0.00    -0.354 N 
ATOM     53  N   UNL     1       6.818  -8.509  -7.811  1.00  0.00    -0.248 NA
ATOM     54  C   UNL     1       6.038 -10.511  -6.905  1.00  0.00     0.031 C 
ATOM     55  C   UNL     1       8.781  -8.138 -11.761  1.00  0.00     0.029 A 
ATOM     56  C   UNL     1       8.126  -8.287 -10.550  1.00  0.00     0.049 A 
ATOM     57  H   UNL     1       7.530  -6.809  -9.166  1.00  0.00     0.167 HD
ATOM     58  C   UNL     1       7.087  -9.548  -8.695  1.00  0.00     0.074 A 
ATOM     59  C   UNL     1       6.617 -10.764  -8.070  1.00  0.00     0.031 C 
ATOM     60  C   UNL     1       7.667  -9.497  -9.918  1.00  0.00     0.037 A 
BRANCH  47  61
ATOM     61  C   UNL     1       8.948  -3.780 -11.806  1.00  0.00     0.064 A 
ATOM     62  C   UNL     1      10.164  -3.093 -11.687  1.00  0.00     0.173 A 
ATOM     63  C   UNL     1       8.249  -3.682 -13.019  1.00  0.00     0.173 A 
ATOM     64  F   UNL     1      10.860  -3.147 -10.541  1.00  0.00    -0.203 F 
ATOM     65  C   UNL     1      10.657  -2.329 -12.740  1.00  0.00     0.198 A 
ATOM     66  C   UNL     1       8.757  -2.936 -14.078  1.00  0.00     0.198 A 
ATOM     67  F   UNL     1       7.081  -4.323 -13.180  1.00  0.00    -0.203 F 
ATOM     68  F   UNL     1      11.807  -1.655 -12.596  1.00  0.00    -0.200 F 
ATOM     69  C   UNL     1       9.958  -2.258 -13.937  1.00  0.00     0.200 A 
ATOM     70  F   UNL     1       8.086  -2.878 -15.236  1.00  0.00    -0.200 F 
ATOM     71  F   UNL     1      10.441  -1.532 -14.954  1.00  0.00    -0.200 F 
ENDBRANCH  47  61
BRANCH  48  72
ATOM     72  C   UNL     1       5.095  -9.251  -4.452  1.00  0.00     0.064 A 
ATOM     73  C   UNL     1       5.822 -10.229  -3.757  1.00  0.00     0.173 A 
ATOM     74  C   UNL     1       3.720  -9.155  -4.190  1.00  0.00     0.173 A 
ATOM     75  F   UNL     1       7.132 -10.386  -3.998  1.00  0.00    -0.203 F 
ATOM     76  C   UNL     1       5.192 -11.102  -2.872  1.00  0.00     0.198 A 
ATOM     77  C   UNL     1       3.098 -10.007  -3.278  1.00  0.00     0.198 A 
ATOM     78  F   UNL     1       2.973  -8.245  -4.832  1.00  0.00    -0.203 F 
ATOM     79  F   UNL     1       5.897 -12.078  -2.282  1.00  0.00    -0.200 F 
ATOM     80  C   UNL     1       3.832 -10.989  -2.631  1.00  0.00     0.200 A 
ATOM     81  F   UNL     1       1.784  -9.889  -3.045  1.00  0.00    -0.200 F 
ATOM     82  F   UNL     1       3.224 -11.839  -1.793  1.00  0.00    -0.200 F 
ENDBRANCH  48  72
BRANCH  60  83
ATOM     83  C   UNL     1       7.858 -10.790 -10.660  1.00  0.00     0.064 A 
ATOM     84  C   UNL     1       6.776 -11.479 -11.226  1.00  0.00     0.173 A 
ATOM     85  C   UNL     1       9.146 -11.311 -10.863  1.00  0.00     0.173 A 
ATOM     86  F   UNL     1       5.524 -11.032 -11.049  1.00  0.00    -0.203 F 
ATOM     87  C   UNL     1       6.974 -12.650 -11.954  1.00  0.00     0.198 A 
ATOM     88  C   UNL     1       9.343 -12.465 -11.617  1.00  0.00     0.198 A 
ATOM     89  F   UNL     1      10.216 -10.688 -10.349  1.00  0.00    -0.203 F 
ATOM     90  F   UNL     1       5.921 -13.312 -12.454  1.00  0.00    -0.200 F 
ATOM     91  C   UNL     1       8.257 -13.136 -12.158  1.00  0.00     0.200 A 
ATOM     92  F   UNL     1      10.584 -12.924 -11.826  1.00  0.00    -0.200 F 
ATOM     93  F   UNL     1       8.446 -14.254 -12.873  1.00  0.00    -0.200 F 
ENDBRANCH  60  83
ENDBRANCH  34  35
ENDBRANCH  27  29
ENDBRANCH  26  27
ENDBRANCH  25  26
ENDBRANCH   1  25
TORSDOF 15
