REMARK SMILES Cc1nc(C[N@H+](C)[C@H](C)c2ccc(C(=O)OCCOCCOC(=O)c3ccc(-c4c5nc(c(-c6c(F)c(F)c(F)c(F)c6F)c6ccc([nH]6)c(-c6c(F)c(F)c(F)c(F)c6F)c6nc(c(-c7c(F)c(F)c(F)c(F)c7F)c7ccc4[nH]7)C=C6)C=C5)cc3)o2)cs1
REMARK SMILES IDX 18 1 17 2 16 3 14 4 15 5 13 6 10 7 11 8 88 9 12 10 8 11 9 12
REMARK SMILES IDX 6 13 7 14 5 16 4 17 1 18 2 19 3 20 90 21 89 22 19 23 20 24
REMARK SMILES IDX 21 25 22 26 23 27 24 28 25 29 26 30 87 31 27 32 86 33 28 34
REMARK SMILES IDX 29 35 30 36 80 37 31 38 85 39 79 40 81 41 32 42 84 43 78 44
REMARK SMILES IDX 77 45 33 47 65 48 45 49 64 50 46 51 49 52 63 53 82 54 47 55
REMARK SMILES IDX 48 56 62 58 83 59 50 60 34 61 35 62 43 63 36 64 37 65 41 66
REMARK SMILES IDX 44 67 38 68 39 69 42 70 40 71 66 72 67 73 75 74 68 75 69 76
REMARK SMILES IDX 73 77 76 78 70 79 71 80 74 81 72 82 51 83 52 84 60 85 53 86
REMARK SMILES IDX 54 87 58 88 61 89 55 90 56 91 59 92 57 93
REMARK H PARENT 6 15 81 46 49 57
REMARK Flexibility Score: inf
ROOT
ATOM      1  C   UNL     1      -0.077   4.703  -1.962  1.00  0.00     0.202 C 
ENDROOT
BRANCH   1   2
ATOM      2  C   UNL     1      -0.040   4.349  -3.451  1.00  0.00     0.261 C 
BRANCH   2   3
ATOM      3  O   UNL     1      -0.246   2.939  -3.640  1.00  0.00    -0.457 OA
BRANCH   3   4
ATOM      4  C   UNL     1       0.888   2.187  -3.753  1.00  0.00     0.374 C 
ATOM      5  O   UNL     1       2.021   2.639  -3.856  1.00  0.00    -0.242 OA
BRANCH   4   6
ATOM      6  C   UNL     1       0.544   0.792  -3.631  1.00  0.00     0.212 A 
ATOM      7  C   UNL     1       0.947  -1.308  -3.076  1.00  0.00     0.162 A 
ATOM      8  C   UNL     1      -0.354  -1.259  -3.538  1.00  0.00     0.053 A 
ATOM      9  O   UNL     1       1.507  -0.067  -3.175  1.00  0.00    -0.448 OA
ATOM     10  C   UNL     1      -0.630   0.093  -3.842  1.00  0.00     0.059 A 
BRANCH   7  11
ATOM     11  C   UNL     1       1.840  -2.425  -2.595  1.00  0.00     0.248 C 
ATOM     12  C   UNL     1       2.859  -1.973  -1.537  1.00  0.00     0.084 C 
BRANCH  11  13
ATOM     13  N   UNL     1       1.068  -3.644  -2.247  1.00  0.00    -0.324 N 
ATOM     14  C   UNL     1       1.885  -4.842  -2.470  1.00  0.00     0.333 C 
ATOM     15  H   UNL     1       0.263  -3.595  -2.872  1.00  0.00     0.348 HD
BRANCH  13  16
ATOM     16  C   UNL     1       0.484  -3.712  -0.888  1.00  0.00     0.320 C 
BRANCH  16  17
ATOM     17  C   UNL     1      -0.526  -2.637  -0.581  1.00  0.00     0.106 A 
ATOM     18  C   UNL     1      -3.974  -1.504  -1.060  1.00  0.00     0.079 C 
ATOM     19  C   UNL     1      -2.551  -1.720  -0.683  1.00  0.00     0.090 A 
ATOM     20  N   UNL     1      -1.835  -2.765  -1.043  1.00  0.00    -0.241 NA
ATOM     21  S   UNL     1      -1.726  -0.547   0.260  1.00  0.00    -0.127 S 
ATOM     22  C   UNL     1      -0.313  -1.509   0.193  1.00  0.00     0.096 A 
ENDBRANCH  16  17
ENDBRANCH  13  16
ENDBRANCH  11  13
ENDBRANCH   7  11
ENDBRANCH   4   6
ENDBRANCH   3   4
ENDBRANCH   2   3
ENDBRANCH   1   2
BRANCH   1  23
ATOM     23  O   UNL     1       1.093   4.284  -1.258  1.00  0.00    -0.374 OA
BRANCH  23  24
ATOM     24  C   UNL     1       0.989   3.024  -0.588  1.00  0.00     0.202 C 
BRANCH  24  25
ATOM     25  C   UNL     1       0.517   3.157   0.862  1.00  0.00     0.261 C 
BRANCH  25  26
ATOM     26  O   UNL     1      -0.885   3.483   0.899  1.00  0.00    -0.460 OA
BRANCH  26  27
ATOM     27  C   UNL     1      -1.169   4.774   1.186  1.00  0.00     0.338 C 
ATOM     28  O   UNL     1      -0.392   5.646   1.535  1.00  0.00    -0.246 OA
BRANCH  27  29
ATOM     29  C   UNL     1      -2.583   5.051   0.860  1.00  0.00     0.060 A 
ATOM     30  C   UNL     1      -2.873   6.267   0.229  1.00  0.00     0.016 A 
ATOM     31  C   UNL     1      -3.613   4.166   1.193  1.00  0.00     0.016 A 
ATOM     32  C   UNL     1      -4.195   6.624  -0.029  1.00  0.00     0.010 A 
ATOM     33  C   UNL     1      -4.940   4.526   0.936  1.00  0.00     0.010 A 
ATOM     34  C   UNL     1      -5.238   5.771   0.354  1.00  0.00    -0.014 A 
BRANCH  34  35
ATOM     35  C   UNL     1      -6.640   6.246   0.269  1.00  0.00     0.031 A 
ATOM     36  C   UNL     1      -7.308   6.773   1.508  1.00  0.00     0.074 A 
ATOM     37  C   UNL     1      -7.300   6.237  -0.901  1.00  0.00     0.049 A 
ATOM     38  N   UNL     1      -8.527   7.224   1.668  1.00  0.00    -0.248 NA
ATOM     39  C   UNL     1      -6.493   6.793   2.732  1.00  0.00     0.031 C 
ATOM     40  C   UNL     1      -6.752   5.779  -2.176  1.00  0.00     0.029 A 
ATOM     41  N   UNL     1      -8.583   6.621  -1.203  1.00  0.00    -0.354 N 
ATOM     42  C   UNL     1      -8.624   7.580   3.006  1.00  0.00     0.074 A 
ATOM     43  C   UNL     1      -7.354   7.260   3.623  1.00  0.00     0.031 C 
ATOM     44  C   UNL     1      -7.697   5.899  -3.124  1.00  0.00     0.029 A 
ATOM     45  C   UNL     1      -8.922   6.417  -2.517  1.00  0.00     0.049 A 
ATOM     46  H   UNL     1      -9.201   7.006  -0.540  1.00  0.00     0.167 HD
ATOM     47  C   UNL     1      -9.672   8.134   3.660  1.00  0.00     0.037 A 
ATOM     48  C   UNL     1     -10.095   6.610  -3.151  1.00  0.00     0.037 A 
ATOM     49  C   UNL     1     -10.935   8.451   3.047  1.00  0.00     0.049 A 
ATOM     50  C   UNL     1     -11.268   7.168  -2.389  1.00  0.00     0.074 A 
ATOM     51  C   UNL     1     -12.052   9.033   3.622  1.00  0.00     0.029 A 
ATOM     52  N   UNL     1     -11.252   8.204   1.720  1.00  0.00    -0.354 N 
ATOM     53  N   UNL     1     -11.343   7.529  -1.131  1.00  0.00    -0.248 NA
ATOM     54  C   UNL     1     -12.520   7.350  -3.138  1.00  0.00     0.031 C 
ATOM     55  C   UNL     1     -13.060   9.095   2.653  1.00  0.00     0.029 A 
ATOM     56  C   UNL     1     -12.555   8.598   1.463  1.00  0.00     0.049 A 
ATOM     57  H   UNL     1     -10.640   7.807   1.058  1.00  0.00     0.167 HD
ATOM     58  C   UNL     1     -12.635   8.002  -0.944  1.00  0.00     0.074 A 
ATOM     59  C   UNL     1     -13.309   7.893  -2.221  1.00  0.00     0.031 C 
ATOM     60  C   UNL     1     -13.211   8.485   0.185  1.00  0.00     0.037 A 
BRANCH  47  61
ATOM     61  C   UNL     1      -9.501   8.413   5.124  1.00  0.00     0.064 A 
ATOM     62  C   UNL     1      -8.675   9.450   5.584  1.00  0.00     0.173 A 
ATOM     63  C   UNL     1     -10.187   7.647   6.078  1.00  0.00     0.173 A 
ATOM     64  F   UNL     1      -7.986  10.201   4.712  1.00  0.00    -0.203 F 
ATOM     65  C   UNL     1      -8.521   9.691   6.947  1.00  0.00     0.198 A 
ATOM     66  C   UNL     1     -10.052   7.909   7.438  1.00  0.00     0.198 A 
ATOM     67  F   UNL     1     -10.991   6.646   5.690  1.00  0.00    -0.203 F 
ATOM     68  F   UNL     1      -7.690  10.656   7.365  1.00  0.00    -0.200 F 
ATOM     69  C   UNL     1      -9.214   8.925   7.872  1.00  0.00     0.200 A 
ATOM     70  F   UNL     1     -10.729   7.174   8.331  1.00  0.00    -0.200 F 
ATOM     71  F   UNL     1      -9.067   9.160   9.183  1.00  0.00    -0.200 F 
ENDBRANCH  47  61
BRANCH  48  72
ATOM     72  C   UNL     1     -10.220   6.265  -4.590  1.00  0.00     0.064 A 
ATOM     73  C   UNL     1     -10.358   7.261  -5.565  1.00  0.00     0.173 A 
ATOM     74  C   UNL     1     -10.208   4.929  -5.017  1.00  0.00     0.173 A 
ATOM     75  F   UNL     1     -10.401   8.551  -5.202  1.00  0.00    -0.203 F 
ATOM     76  C   UNL     1     -10.492   6.934  -6.913  1.00  0.00     0.198 A 
ATOM     77  C   UNL     1     -10.316   4.604  -6.367  1.00  0.00     0.198 A 
ATOM     78  F   UNL     1     -10.080   3.938  -4.122  1.00  0.00    -0.203 F 
ATOM     79  F   UNL     1     -10.663   7.904  -7.822  1.00  0.00    -0.200 F 
ATOM     80  C   UNL     1     -10.465   5.606  -7.314  1.00  0.00     0.200 A 
ATOM     81  F   UNL     1     -10.278   3.320  -6.751  1.00  0.00    -0.200 F 
ATOM     82  F   UNL     1     -10.588   5.293  -8.611  1.00  0.00    -0.200 F 
ENDBRANCH  48  72
BRANCH  60  83
ATOM     83  C   UNL     1     -14.632   8.960   0.086  1.00  0.00     0.064 A 
ATOM     84  C   UNL     1     -15.701   8.061  -0.038  1.00  0.00     0.173 A 
ATOM     85  C   UNL     1     -14.930  10.330   0.161  1.00  0.00     0.173 A 
ATOM     86  F   UNL     1     -15.468   6.744  -0.129  1.00  0.00    -0.203 F 
ATOM     87  C   UNL     1     -17.015   8.518  -0.105  1.00  0.00     0.198 A 
ATOM     88  C   UNL     1     -16.246  10.780   0.122  1.00  0.00     0.198 A 
ATOM     89  F   UNL     1     -13.944  11.230   0.287  1.00  0.00    -0.203 F 
ATOM     90  F   UNL     1     -18.019   7.644  -0.266  1.00  0.00    -0.200 F 
ATOM     91  C   UNL     1     -17.287   9.875  -0.018  1.00  0.00     0.200 A 
ATOM     92  F   UNL     1     -16.508  12.091   0.219  1.00  0.00    -0.200 F 
ATOM     93  F   UNL     1     -18.553  10.311  -0.075  1.00  0.00    -0.200 F 
ENDBRANCH  60  83
ENDBRANCH  34  35
ENDBRANCH  27  29
ENDBRANCH  26  27
ENDBRANCH  25  26
ENDBRANCH  24  25
ENDBRANCH  23  24
ENDBRANCH   1  23
TORSDOF 18
