REMARK SMILES O=C(OCCOCCOC(=O)[C@@H]1CCCC[C@@H]1C(=O)Nc1nc(-c2ccc(Cl)c(Cl)c2)cs1)c1ccc(-c2c3nc(c(-c4c(F)c(F)c(F)c(F)c4F)c4ccc([nH]4)c(-c4c(F)c(F)c(F)c(F)c4F)c4nc(c(-c5c(F)c(F)c(F)c(F)c5F)c5ccc2[nH]5)C=C4)C=C3)cc1
REMARK SMILES IDX 7 1 6 2 5 3 4 4 3 5 2 6 1 7 34 8 35 9 96 10 36 11 95 12
REMARK SMILES IDX 37 13 38 14 39 15 89 16 40 17 94 18 88 19 90 20 41 21 93 22
REMARK SMILES IDX 87 23 86 24 42 26 74 27 54 28 73 29 55 30 58 31 72 32 91 33
REMARK SMILES IDX 56 34 57 35 71 37 92 38 59 39 43 40 44 41 52 42 45 43 46 44
REMARK SMILES IDX 50 45 53 46 47 47 48 48 51 49 49 50 75 51 76 52 84 53 77 54
REMARK SMILES IDX 78 55 82 56 85 57 79 58 80 59 83 60 81 61 60 62 61 63 69 64
REMARK SMILES IDX 62 65 63 66 67 67 70 68 64 69 65 70 68 71 66 72 8 73 9 74
REMARK SMILES IDX 10 75 11 76 12 77 13 78 17 79 14 80 16 81 15 82 18 83 19 84
REMARK SMILES IDX 20 85 21 87 22 88 33 89 23 90 32 91 24 92 25 93 31 94 26 95
REMARK SMILES IDX 29 96 27 97 30 98 28 99
REMARK H PARENT 90 25 58 36 20 86
REMARK Flexibility Score: inf
ROOT
ATOM      1  C   UNL     1       2.444  -1.001   1.591  1.00  0.00     0.202 C 
ENDROOT
BRANCH   1   2
ATOM      2  O   UNL     1       3.817  -0.939   1.190  1.00  0.00    -0.374 OA
BRANCH   2   3
ATOM      3  C   UNL     1       4.345   0.380   1.026  1.00  0.00     0.202 C 
BRANCH   3   4
ATOM      4  C   UNL     1       4.102   1.088  -0.314  1.00  0.00     0.261 C 
BRANCH   4   5
ATOM      5  O   UNL     1       2.712   1.035  -0.685  1.00  0.00    -0.460 OA
BRANCH   5   6
ATOM      6  C   UNL     1       2.130   0.175  -1.553  1.00  0.00     0.338 C 
ATOM      7  O   UNL     1       0.930   0.271  -1.796  1.00  0.00    -0.246 OA
BRANCH   6   8
ATOM      8  C   UNL     1       2.906  -0.890  -2.242  1.00  0.00     0.060 A 
ATOM      9  C   UNL     1       4.008  -1.521  -1.672  1.00  0.00     0.016 A 
ATOM     10  C   UNL     1       2.460  -1.346  -3.490  1.00  0.00     0.016 A 
ATOM     11  C   UNL     1       4.692  -2.525  -2.300  1.00  0.00     0.010 A 
ATOM     12  C   UNL     1       3.107  -2.413  -4.120  1.00  0.00     0.010 A 
ATOM     13  C   UNL     1       4.215  -3.005  -3.505  1.00  0.00    -0.014 A 
BRANCH  13  14
ATOM     14  C   UNL     1       4.971  -4.122  -4.064  1.00  0.00     0.031 A 
ATOM     15  C   UNL     1       5.943  -3.832  -5.149  1.00  0.00     0.074 A 
ATOM     16  C   UNL     1       4.915  -5.304  -3.423  1.00  0.00     0.049 A 
ATOM     17  N   UNL     1       6.653  -4.664  -5.853  1.00  0.00    -0.248 NA
ATOM     18  C   UNL     1       6.165  -2.411  -5.475  1.00  0.00     0.031 C 
ATOM     19  C   UNL     1       4.131  -5.569  -2.208  1.00  0.00     0.029 A 
ATOM     20  N   UNL     1       5.558  -6.483  -3.663  1.00  0.00    -0.354 N 
ATOM     21  C   UNL     1       7.353  -3.877  -6.752  1.00  0.00     0.074 A 
ATOM     22  C   UNL     1       7.029  -2.497  -6.476  1.00  0.00     0.031 C 
ATOM     23  C   UNL     1       4.356  -6.828  -1.805  1.00  0.00     0.029 A 
ATOM     24  C   UNL     1       5.202  -7.482  -2.791  1.00  0.00     0.049 A 
ATOM     25  H   UNL     1       6.212  -6.605  -4.389  1.00  0.00     0.167 HD
ATOM     26  C   UNL     1       8.158  -4.309  -7.745  1.00  0.00     0.037 A 
ATOM     27  C   UNL     1       5.473  -8.797  -2.851  1.00  0.00     0.037 A 
ATOM     28  C   UNL     1       8.449  -5.700  -7.950  1.00  0.00     0.049 A 
ATOM     29  C   UNL     1       6.286  -9.262  -4.028  1.00  0.00     0.074 A 
ATOM     30  C   UNL     1       9.191  -6.297  -8.948  1.00  0.00     0.029 A 
ATOM     31  N   UNL     1       7.996  -6.717  -7.114  1.00  0.00    -0.354 N 
ATOM     32  N   UNL     1       6.863  -8.544  -4.964  1.00  0.00    -0.248 NA
ATOM     33  C   UNL     1       6.449 -10.709  -4.190  1.00  0.00     0.031 C 
ATOM     34  C   UNL     1       9.148  -7.681  -8.741  1.00  0.00     0.029 A 
ATOM     35  C   UNL     1       8.415  -7.943  -7.591  1.00  0.00     0.049 A 
ATOM     36  H   UNL     1       7.456  -6.582  -6.302  1.00  0.00     0.167 HD
ATOM     37  C   UNL     1       7.447  -9.447  -5.835  1.00  0.00     0.074 A 
ATOM     38  C   UNL     1       7.187 -10.768  -5.290  1.00  0.00     0.031 C 
ATOM     39  C   UNL     1       8.118  -9.221  -6.992  1.00  0.00     0.037 A 
BRANCH  26  40
ATOM     40  C   UNL     1       8.652  -3.288  -8.720  1.00  0.00     0.064 A 
ATOM     41  C   UNL     1       9.672  -2.380  -8.408  1.00  0.00     0.173 A 
ATOM     42  C   UNL     1       8.057  -3.201  -9.988  1.00  0.00     0.173 A 
ATOM     43  F   UNL     1      10.243  -2.395  -7.195  1.00  0.00    -0.203 F 
ATOM     44  C   UNL     1      10.073  -1.414  -9.330  1.00  0.00     0.198 A 
ATOM     45  C   UNL     1       8.473  -2.248 -10.913  1.00  0.00     0.198 A 
ATOM     46  F   UNL     1       7.060  -4.033 -10.325  1.00  0.00    -0.203 F 
ATOM     47  F   UNL     1      11.020  -0.525  -8.998  1.00  0.00    -0.200 F 
ATOM     48  C   UNL     1       9.477  -1.353 -10.582  1.00  0.00     0.200 A 
ATOM     49  F   UNL     1       7.891  -2.188 -12.119  1.00  0.00    -0.200 F 
ATOM     50  F   UNL     1       9.862  -0.420 -11.465  1.00  0.00    -0.200 F 
ENDBRANCH  26  40
BRANCH  27  51
ATOM     51  C   UNL     1       4.867  -9.745  -1.877  1.00  0.00     0.064 A 
ATOM     52  C   UNL     1       5.659 -10.542  -1.040  1.00  0.00     0.173 A 
ATOM     53  C   UNL     1       3.472  -9.894  -1.779  1.00  0.00     0.173 A 
ATOM     54  F   UNL     1       6.996 -10.460  -1.106  1.00  0.00    -0.203 F 
ATOM     55  C   UNL     1       5.083 -11.460  -0.161  1.00  0.00     0.198 A 
ATOM     56  C   UNL     1       2.897 -10.784  -0.875  1.00  0.00     0.198 A 
ATOM     57  F   UNL     1       2.660  -9.166  -2.559  1.00  0.00    -0.203 F 
ATOM     58  F   UNL     1       5.866 -12.249   0.588  1.00  0.00    -0.200 F 
ATOM     59  C   UNL     1       3.703 -11.576  -0.074  1.00  0.00     0.200 A 
ATOM     60  F   UNL     1       1.563 -10.878  -0.787  1.00  0.00    -0.200 F 
ATOM     61  F   UNL     1       3.152 -12.459   0.769  1.00  0.00    -0.200 F 
ENDBRANCH  27  51
BRANCH  39  62
ATOM     62  C   UNL     1       8.602 -10.432  -7.721  1.00  0.00     0.064 A 
ATOM     63  C   UNL     1       7.719 -11.235  -8.455  1.00  0.00     0.173 A 
ATOM     64  C   UNL     1       9.966 -10.752  -7.732  1.00  0.00     0.173 A 
ATOM     65  F   UNL     1       6.404 -10.971  -8.452  1.00  0.00    -0.203 F 
ATOM     66  C   UNL     1       8.188 -12.330  -9.171  1.00  0.00     0.198 A 
ATOM     67  C   UNL     1      10.434 -11.831  -8.471  1.00  0.00     0.198 A 
ATOM     68  F   UNL     1      10.842 -10.004  -7.045  1.00  0.00    -0.203 F 
ATOM     69  F   UNL     1       7.326 -13.109  -9.839  1.00  0.00    -0.200 F 
ATOM     70  C   UNL     1       9.545 -12.621  -9.186  1.00  0.00     0.200 A 
ATOM     71  F   UNL     1      11.745 -12.104  -8.497  1.00  0.00    -0.200 F 
ATOM     72  F   UNL     1       9.996 -13.668  -9.889  1.00  0.00    -0.200 F 
ENDBRANCH  39  62
ENDBRANCH  13  14
ENDBRANCH   6   8
ENDBRANCH   5   6
ENDBRANCH   4   5
ENDBRANCH   3   4
ENDBRANCH   2   3
ENDBRANCH   1   2
BRANCH   1  73
ATOM     73  C   UNL     1       2.336  -1.490   3.034  1.00  0.00     0.261 C 
BRANCH  73  74
ATOM     74  O   UNL     1       2.944  -0.511   3.898  1.00  0.00    -0.463 OA
BRANCH  74  75
ATOM     75  C   UNL     1       4.257  -0.722   4.146  1.00  0.00     0.309 C 
ATOM     76  O   UNL     1       4.855  -1.772   3.927  1.00  0.00    -0.252 OA
BRANCH  75  77
ATOM     77  C   UNL     1       4.949   0.473   4.759  1.00  0.00     0.111 C 
ATOM     78  C   UNL     1       4.821   0.475   6.270  1.00  0.00     0.016 C 
ATOM     79  C   UNL     1       4.747   1.866   4.138  1.00  0.00     0.093 C 
ATOM     80  C   UNL     1       5.934   1.332   6.852  1.00  0.00     0.001 C 
ATOM     81  C   UNL     1       5.688   2.902   4.761  1.00  0.00     0.014 C 
ATOM     82  C   UNL     1       6.050   2.724   6.236  1.00  0.00     0.001 C 
BRANCH  79  83
ATOM     83  C   UNL     1       3.317   2.363   3.772  1.00  0.00     0.230 C 
ATOM     84  O   UNL     1       3.092   2.828   2.648  1.00  0.00    -0.274 OA
ATOM     85  N   UNL     1       2.262   2.192   4.611  1.00  0.00    -0.302 N 
ATOM     86  H   UNL     1       1.506   1.624   4.338  1.00  0.00     0.172 HD
BRANCH  85  87
ATOM     87  C   UNL     1       2.247   2.801   5.824  1.00  0.00     0.189 A 
ATOM     88  N   UNL     1       3.139   3.631   6.271  1.00  0.00    -0.220 NA
ATOM     89  S   UNL     1       0.922   2.480   6.840  1.00  0.00    -0.105 S 
ATOM     90  C   UNL     1       2.840   3.974   7.569  1.00  0.00     0.084 A 
ATOM     91  C   UNL     1       1.691   3.408   8.080  1.00  0.00     0.097 A 
BRANCH  90  92
ATOM     92  C   UNL     1       3.814   4.764   8.291  1.00  0.00     0.003 A 
ATOM     93  C   UNL     1       4.191   6.013   7.778  1.00  0.00     0.012 A 
ATOM     94  C   UNL     1       4.591   4.157   9.284  1.00  0.00     0.032 A 
ATOM     95  C   UNL     1       5.347   6.643   8.243  1.00  0.00     0.023 A 
ATOM     96  C   UNL     1       5.766   4.774   9.726  1.00  0.00     0.060 A 
ATOM     97  C   UNL     1       6.146   6.017   9.205  1.00  0.00     0.059 A 
ATOM     98  Cl  UNL     1       6.748   3.900  10.848  1.00  0.00    -0.083 Cl
ATOM     99  Cl  UNL     1       7.612   6.804   9.666  1.00  0.00    -0.083 Cl
ENDBRANCH  90  92
ENDBRANCH  85  87
ENDBRANCH  79  83
ENDBRANCH  75  77
ENDBRANCH  74  75
ENDBRANCH  73  74
ENDBRANCH   1  73
TORSDOF 17
