REMARK SMILES COc1cccc(C[N@@H+]2C[C@H](C(=O)OCCOCCOC(=O)c3ccc(-c4c5nc(c(-c6c(F)c(F)c(F)c(F)c6F)c6ccc([nH]6)c(-c6c(F)c(F)c(F)c(F)c6F)c6nc(c(-c7c(F)c(F)c(F)c(F)c7F)c7ccc4[nH]7)C=C6)C=C5)cc3)C3(CC[NH+](C)CC3)C2)c1
REMARK SMILES IDX 16 1 15 2 14 3 12 4 13 5 11 6 9 7 10 8 93 9 86 11 87 12
REMARK SMILES IDX 92 13 88 14 91 15 89 16 90 17 8 19 7 20 3 21 4 22 94 23 5 24
REMARK SMILES IDX 6 25 2 26 1 27 17 28 18 29 19 30 20 31 21 32 22 33 23 34
REMARK SMILES IDX 24 35 85 36 25 37 84 38 26 39 27 40 28 41 78 42 29 43 83 44
REMARK SMILES IDX 77 45 79 46 30 47 82 48 76 49 75 50 31 52 63 53 43 54 62 55
REMARK SMILES IDX 44 56 47 57 61 58 80 59 45 60 46 61 60 63 81 64 48 65 32 66
REMARK SMILES IDX 33 67 41 68 34 69 35 70 39 71 42 72 36 73 37 74 40 75 38 76
REMARK SMILES IDX 64 77 65 78 73 79 66 80 67 81 71 82 74 83 68 84 69 85 72 86
REMARK SMILES IDX 70 87 49 88 50 89 58 90 51 91 52 92 56 93 59 94 53 95 54 96
REMARK SMILES IDX 57 97 55 98
REMARK H PARENT 9 10 89 18 79 51 47 62
REMARK Flexibility Score: inf
ROOT
ATOM      1  C   UNL     1       0.442   4.060   9.156  1.00  0.00     0.202 C 
ENDROOT
BRANCH   1   2
ATOM      2  C   UNL     1       1.958   4.243   9.084  1.00  0.00     0.261 C 
BRANCH   2   3
ATOM      3  O   UNL     1       2.476   3.651   7.876  1.00  0.00    -0.463 OA
BRANCH   3   4
ATOM      4  C   UNL     1       3.826   3.548   7.841  1.00  0.00     0.315 C 
ATOM      5  O   UNL     1       4.569   3.956   8.727  1.00  0.00    -0.252 OA
BRANCH   4   6
ATOM      6  C   UNL     1       4.344   2.862   6.600  1.00  0.00     0.166 C 
ATOM      7  N   UNL     1       4.354   1.154   5.071  1.00  0.00    -0.330 N 
ATOM      8  C   UNL     1       3.711   1.503   6.329  1.00  0.00     0.278 C 
ATOM      9  C   UNL     1       4.517   2.364   4.267  1.00  0.00     0.271 C 
ATOM     10  H   UNL     1       5.285   0.804   5.302  1.00  0.00     0.348 HD
ATOM     11  C   UNL     1       4.276   3.573   5.226  1.00  0.00     0.049 C 
ATOM     12  C   UNL     1       5.395   4.618   5.062  1.00  0.00     0.075 C 
ATOM     13  C   UNL     1       2.909   4.219   4.866  1.00  0.00     0.075 C 
ATOM     14  C   UNL     1       5.063   5.953   5.731  1.00  0.00     0.262 C 
ATOM     15  C   UNL     1       2.681   5.630   5.423  1.00  0.00     0.262 C 
ATOM     16  N   UNL     1       3.809   6.548   5.261  1.00  0.00    -0.337 N 
ATOM     17  C   UNL     1       3.913   7.071   3.902  1.00  0.00     0.332 C 
ATOM     18  H   UNL     1       3.623   7.354   5.858  1.00  0.00     0.347 HD
BRANCH   7  19
ATOM     19  C   UNL     1       3.918  -0.057   4.386  1.00  0.00     0.299 C 
BRANCH  19  20
ATOM     20  C   UNL     1       2.508  -0.051   3.837  1.00  0.00     0.010 A 
ATOM     21  C   UNL     1       0.932   0.451   2.060  1.00  0.00     0.119 A 
ATOM     22  C   UNL     1      -0.132   0.067   2.869  1.00  0.00     0.046 A 
ATOM     23  C   UNL     1       2.243   0.407   2.538  1.00  0.00     0.056 A 
ATOM     24  C   UNL     1       0.122  -0.432   4.143  1.00  0.00     0.004 A 
ATOM     25  C   UNL     1       1.435  -0.500   4.620  1.00  0.00     0.010 A 
BRANCH  21  26
ATOM     26  O   UNL     1       0.652   0.933   0.811  1.00  0.00    -0.497 OA
ATOM     27  C   UNL     1       1.045  -0.012  -0.185  1.00  0.00     0.278 C 
ENDBRANCH  21  26
ENDBRANCH  19  20
ENDBRANCH   7  19
ENDBRANCH   4   6
ENDBRANCH   3   4
ENDBRANCH   2   3
ENDBRANCH   1   2
BRANCH   1  28
ATOM     28  O   UNL     1       0.005   2.736   9.480  1.00  0.00    -0.374 OA
BRANCH  28  29
ATOM     29  C   UNL     1       0.428   1.690   8.612  1.00  0.00     0.202 C 
BRANCH  29  30
ATOM     30  C   UNL     1      -0.327   1.582   7.285  1.00  0.00     0.261 C 
BRANCH  30  31
ATOM     31  O   UNL     1      -0.426   2.818   6.562  1.00  0.00    -0.460 OA
BRANCH  31  32
ATOM     32  C   UNL     1      -1.696   3.184   6.262  1.00  0.00     0.338 C 
ATOM     33  O   UNL     1      -2.725   2.571   6.492  1.00  0.00    -0.246 OA
BRANCH  32  34
ATOM     34  C   UNL     1      -1.725   4.516   5.640  1.00  0.00     0.060 A 
ATOM     35  C   UNL     1      -2.212   5.589   6.394  1.00  0.00     0.016 A 
ATOM     36  C   UNL     1      -1.469   4.663   4.275  1.00  0.00     0.016 A 
ATOM     37  C   UNL     1      -2.487   6.807   5.771  1.00  0.00     0.010 A 
ATOM     38  C   UNL     1      -1.744   5.887   3.653  1.00  0.00     0.010 A 
ATOM     39  C   UNL     1      -2.288   6.955   4.389  1.00  0.00    -0.014 A 
BRANCH  39  40
ATOM     40  C   UNL     1      -2.742   8.193   3.705  1.00  0.00     0.031 A 
ATOM     41  C   UNL     1      -4.048   8.202   2.956  1.00  0.00     0.074 A 
ATOM     42  C   UNL     1      -1.997   9.312   3.763  1.00  0.00     0.049 A 
ATOM     43  N   UNL     1      -4.617   9.177   2.290  1.00  0.00    -0.248 NA
ATOM     44  C   UNL     1      -4.815   6.947   2.954  1.00  0.00     0.031 C 
ATOM     45  C   UNL     1      -0.720   9.438   4.461  1.00  0.00     0.029 A 
ATOM     46  N   UNL     1      -2.207  10.553   3.214  1.00  0.00    -0.354 N 
ATOM     47  C   UNL     1      -5.800   8.653   1.786  1.00  0.00     0.074 A 
ATOM     48  C   UNL     1      -5.859   7.268   2.202  1.00  0.00     0.031 C 
ATOM     49  C   UNL     1      -0.251  10.685   4.289  1.00  0.00     0.029 A 
ATOM     50  C   UNL     1      -1.183  11.437   3.450  1.00  0.00     0.049 A 
ATOM     51  H   UNL     1      -3.014  10.787   2.700  1.00  0.00     0.167 HD
ATOM     52  C   UNL     1      -6.754   9.273   1.050  1.00  0.00     0.037 A 
ATOM     53  C   UNL     1      -1.009  12.702   3.022  1.00  0.00     0.037 A 
ATOM     54  C   UNL     1      -6.708  10.655   0.648  1.00  0.00     0.049 A 
ATOM     55  C   UNL     1      -2.066  13.355   2.171  1.00  0.00     0.074 A 
ATOM     56  C   UNL     1      -7.661  11.386  -0.041  1.00  0.00     0.029 A 
ATOM     57  N   UNL     1      -5.646  11.512   0.889  1.00  0.00    -0.354 N 
ATOM     58  N   UNL     1      -3.210  12.870   1.754  1.00  0.00    -0.248 NA
ATOM     59  C   UNL     1      -1.808  14.735   1.732  1.00  0.00     0.031 C 
ATOM     60  C   UNL     1      -7.155  12.671  -0.260  1.00  0.00     0.029 A 
ATOM     61  C   UNL     1      -5.905  12.754   0.331  1.00  0.00     0.049 A 
ATOM     62  H   UNL     1      -4.828  11.274   1.383  1.00  0.00     0.167 HD
ATOM     63  C   UNL     1      -3.814  13.886   1.025  1.00  0.00     0.074 A 
ATOM     64  C   UNL     1      -2.918  15.022   1.067  1.00  0.00     0.031 C 
ATOM     65  C   UNL     1      -5.005  13.877   0.377  1.00  0.00     0.037 A 
BRANCH  52  66
ATOM     66  C   UNL     1      -7.937   8.461   0.613  1.00  0.00     0.064 A 
ATOM     67  C   UNL     1      -8.953   8.099   1.509  1.00  0.00     0.173 A 
ATOM     68  C   UNL     1      -8.087   8.098  -0.734  1.00  0.00     0.173 A 
ATOM     69  F   UNL     1      -8.852   8.418   2.808  1.00  0.00    -0.203 F 
ATOM     70  C   UNL     1     -10.069   7.388   1.075  1.00  0.00     0.198 A 
ATOM     71  C   UNL     1      -9.214   7.407  -1.169  1.00  0.00     0.198 A 
ATOM     72  F   UNL     1      -7.146   8.428  -1.632  1.00  0.00    -0.203 F 
ATOM     73  F   UNL     1     -11.015   7.027   1.953  1.00  0.00    -0.200 F 
ATOM     74  C   UNL     1     -10.202   7.049  -0.264  1.00  0.00     0.200 A 
ATOM     75  F   UNL     1      -9.348   7.090  -2.464  1.00  0.00    -0.200 F 
ATOM     76  F   UNL     1     -11.283   6.375  -0.681  1.00  0.00    -0.200 F 
ENDBRANCH  52  66
BRANCH  53  77
ATOM     77  C   UNL     1       0.232  13.436   3.377  1.00  0.00     0.064 A 
ATOM     78  C   UNL     1       0.205  14.518   4.268  1.00  0.00     0.173 A 
ATOM     79  C   UNL     1       1.468  13.080   2.817  1.00  0.00     0.173 A 
ATOM     80  F   UNL     1      -0.958  14.913   4.806  1.00  0.00    -0.203 F 
ATOM     81  C   UNL     1       1.366  15.227   4.571  1.00  0.00     0.198 A 
ATOM     82  C   UNL     1       2.631  13.773   3.141  1.00  0.00     0.198 A 
ATOM     83  F   UNL     1       1.544  12.055   1.955  1.00  0.00    -0.203 F 
ATOM     84  F   UNL     1       1.306  16.287   5.389  1.00  0.00    -0.200 F 
ATOM     85  C   UNL     1       2.578  14.851   4.012  1.00  0.00     0.200 A 
ATOM     86  F   UNL     1       3.801  13.402   2.604  1.00  0.00    -0.200 F 
ATOM     87  F   UNL     1       3.693  15.534   4.304  1.00  0.00    -0.200 F 
ENDBRANCH  53  77
BRANCH  65  88
ATOM     88  C   UNL     1      -5.417  15.136  -0.327  1.00  0.00     0.064 A 
ATOM     89  C   UNL     1      -4.815  15.531  -1.530  1.00  0.00     0.173 A 
ATOM     90  C   UNL     1      -6.455  15.931   0.182  1.00  0.00     0.173 A 
ATOM     91  F   UNL     1      -3.809  14.812  -2.050  1.00  0.00    -0.203 F 
ATOM     92  C   UNL     1      -5.224  16.688  -2.188  1.00  0.00     0.198 A 
ATOM     93  C   UNL     1      -6.878  17.074  -0.491  1.00  0.00     0.198 A 
ATOM     94  F   UNL     1      -7.066  15.593   1.327  1.00  0.00    -0.203 F 
ATOM     95  F   UNL     1      -4.609  17.068  -3.317  1.00  0.00    -0.200 F 
ATOM     96  C   UNL     1      -6.259  17.455  -1.672  1.00  0.00     0.200 A 
ATOM     97  F   UNL     1      -7.885  17.808   0.003  1.00  0.00    -0.200 F 
ATOM     98  F   UNL     1      -6.655  18.564  -2.311  1.00  0.00    -0.200 F 
ENDBRANCH  65  88
ENDBRANCH  39  40
ENDBRANCH  32  34
ENDBRANCH  31  32
ENDBRANCH  30  31
ENDBRANCH  29  30
ENDBRANCH  28  29
ENDBRANCH   1  28
TORSDOF 17
