REMARK SMILES O=C(CCc1nc(-c2ccccc2)c(-c2ccccc2)o1)OCCOCCOC(=O)c1ccc(-c2c3nc(c(-c4c(F)c(F)c(F)c(F)c4F)c4ccc([nH]4)c(-c4c(F)c(F)c(F)c(F)c4F)c4nc(c(-c5c(F)c(F)c(F)c(F)c5F)c5ccc2[nH]5)C=C4)C=C3)cc1
REMARK SMILES IDX 24 1 23 2 22 3 2 4 1 5 3 6 4 7 5 8 6 9 21 10 7 11 14 12 8 13
REMARK SMILES IDX 9 14 13 15 10 16 12 17 11 18 15 19 16 20 20 21 17 22 19 23
REMARK SMILES IDX 18 24 25 25 26 26 27 27 28 28 29 29 30 30 31 31 32 32 93 33
REMARK SMILES IDX 33 34 92 35 34 36 35 37 36 38 86 39 37 40 91 41 85 42 87 43
REMARK SMILES IDX 38 44 90 45 84 46 83 47 39 49 71 50 51 51 70 52 52 53 55 54
REMARK SMILES IDX 69 55 88 56 53 57 54 58 68 60 89 61 56 62 40 63 41 64 49 65
REMARK SMILES IDX 42 66 43 67 47 68 50 69 44 70 45 71 48 72 46 73 72 74 73 75
REMARK SMILES IDX 81 76 74 77 75 78 79 79 82 80 76 81 77 82 80 83 78 84 57 85
REMARK SMILES IDX 58 86 66 87 59 88 60 89 64 90 67 91 61 92 62 93 65 94 63 95
REMARK H PARENT 87 48 55 59
REMARK Flexibility Score: inf
ROOT
ATOM      1  C   UNL     1       4.087  -1.052   0.979  1.00  0.00     0.202 C 
ENDROOT
BRANCH   1   2
ATOM      2  C   UNL     1       3.436   0.316   1.166  1.00  0.00     0.261 C 
BRANCH   2   3
ATOM      3  O   UNL     1       2.204   0.510   0.476  1.00  0.00    -0.463 OA
BRANCH   3   4
ATOM      4  C   UNL     1       2.171   1.182  -0.696  1.00  0.00     0.306 C 
ATOM      5  O   UNL     1       1.219   1.916  -0.954  1.00  0.00    -0.252 OA
BRANCH   4   6
ATOM      6  C   UNL     1       3.239   0.906  -1.729  1.00  0.00     0.132 C 
BRANCH   6   7
ATOM      7  C   UNL     1       4.271   2.011  -1.901  1.00  0.00     0.109 C 
BRANCH   7   8
ATOM      8  C   UNL     1       5.392   1.955  -0.918  1.00  0.00     0.196 A 
ATOM      9  N   UNL     1       6.097   0.920  -0.489  1.00  0.00    -0.213 NA
ATOM     10  O   UNL     1       5.671   3.130  -0.274  1.00  0.00    -0.440 OA
ATOM     11  C   UNL     1       6.836   1.430   0.562  1.00  0.00     0.117 A 
ATOM     12  C   UNL     1       6.621   2.793   0.647  1.00  0.00     0.162 A 
BRANCH  11  13
ATOM     13  C   UNL     1       7.633   0.647   1.502  1.00  0.00     0.004 A 
ATOM     14  C   UNL     1       7.657   0.985   2.869  1.00  0.00     0.010 A 
ATOM     15  C   UNL     1       8.410  -0.431   1.073  1.00  0.00     0.010 A 
ATOM     16  C   UNL     1       8.521   0.347   3.759  1.00  0.00     0.001 A 
ATOM     17  C   UNL     1       9.252  -1.098   1.975  1.00  0.00     0.001 A 
ATOM     18  C   UNL     1       9.326  -0.693   3.308  1.00  0.00     0.000 A 
ENDBRANCH  11  13
BRANCH  12  19
ATOM     19  C   UNL     1       7.126   3.852   1.497  1.00  0.00     0.020 A 
ATOM     20  C   UNL     1       6.250   4.666   2.224  1.00  0.00     0.012 A 
ATOM     21  C   UNL     1       8.508   3.976   1.700  1.00  0.00     0.012 A 
ATOM     22  C   UNL     1       6.753   5.572   3.159  1.00  0.00     0.001 A 
ATOM     23  C   UNL     1       9.008   4.879   2.634  1.00  0.00     0.001 A 
ATOM     24  C   UNL     1       8.130   5.673   3.368  1.00  0.00     0.000 A 
ENDBRANCH  12  19
ENDBRANCH   7   8
ENDBRANCH   6   7
ENDBRANCH   4   6
ENDBRANCH   3   4
ENDBRANCH   2   3
ENDBRANCH   1   2
BRANCH   1  25
ATOM     25  O   UNL     1       3.744  -1.814  -0.170  1.00  0.00    -0.374 OA
BRANCH  25  26
ATOM     26  C   UNL     1       2.479  -2.475  -0.120  1.00  0.00     0.202 C 
BRANCH  26  27
ATOM     27  C   UNL     1       2.485  -3.813   0.633  1.00  0.00     0.261 C 
BRANCH  27  28
ATOM     28  O   UNL     1       2.836  -3.650   2.021  1.00  0.00    -0.460 OA
BRANCH  28  29
ATOM     29  C   UNL     1       4.107  -4.006   2.338  1.00  0.00     0.338 C 
ATOM     30  O   UNL     1       4.904  -4.605   1.633  1.00  0.00    -0.246 OA
BRANCH  29  31
ATOM     31  C   UNL     1       4.501  -3.360   3.613  1.00  0.00     0.060 A 
ATOM     32  C   UNL     1       5.739  -2.708   3.645  1.00  0.00     0.016 A 
ATOM     33  C   UNL     1       3.688  -3.376   4.750  1.00  0.00     0.016 A 
ATOM     34  C   UNL     1       6.190  -2.124   4.826  1.00  0.00     0.010 A 
ATOM     35  C   UNL     1       4.151  -2.794   5.940  1.00  0.00     0.010 A 
ATOM     36  C   UNL     1       5.420  -2.191   5.990  1.00  0.00    -0.014 A 
BRANCH  36  37
ATOM     37  C   UNL     1       6.065  -1.852   7.284  1.00  0.00     0.031 A 
ATOM     38  C   UNL     1       6.676  -2.974   8.078  1.00  0.00     0.074 A 
ATOM     39  C   UNL     1       6.200  -0.583   7.710  1.00  0.00     0.049 A 
ATOM     40  N   UNL     1       7.235  -2.955   9.260  1.00  0.00    -0.248 NA
ATOM     41  C   UNL     1       6.665  -4.299   7.437  1.00  0.00     0.031 C 
ATOM     42  C   UNL     1       5.766   0.607   6.982  1.00  0.00     0.029 A 
ATOM     43  N   UNL     1       6.749  -0.087   8.869  1.00  0.00    -0.354 N 
ATOM     44  C   UNL     1       7.624  -4.264   9.510  1.00  0.00     0.074 A 
ATOM     45  C   UNL     1       7.230  -5.054   8.365  1.00  0.00     0.031 C 
ATOM     46  C   UNL     1       6.049   1.696   7.721  1.00  0.00     0.029 A 
ATOM     47  C   UNL     1       6.638   1.276   8.993  1.00  0.00     0.049 A 
ATOM     48  H   UNL     1       7.182  -0.656   9.546  1.00  0.00     0.167 HD
ATOM     49  C   UNL     1       8.252  -4.765  10.600  1.00  0.00     0.037 A 
ATOM     50  C   UNL     1       6.940   2.082  10.032  1.00  0.00     0.037 A 
ATOM     51  C   UNL     1       8.642  -3.980  11.741  1.00  0.00     0.049 A 
ATOM     52  C   UNL     1       7.526   1.482  11.289  1.00  0.00     0.074 A 
ATOM     53  C   UNL     1       9.260  -4.400  12.905  1.00  0.00     0.029 A 
ATOM     54  N   UNL     1       8.443  -2.613  11.862  1.00  0.00    -0.354 N 
ATOM     55  N   UNL     1       7.861   0.239  11.539  1.00  0.00    -0.248 NA
ATOM     56  C   UNL     1       7.772   2.400  12.412  1.00  0.00     0.031 C 
ATOM     57  C   UNL     1       9.379  -3.297  13.757  1.00  0.00     0.029 A 
ATOM     58  C   UNL     1       8.901  -2.178  13.095  1.00  0.00     0.049 A 
ATOM     59  H   UNL     1       8.038  -2.037  11.174  1.00  0.00     0.167 HD
ATOM     60  C   UNL     1       8.384   0.232  12.828  1.00  0.00     0.074 A 
ATOM     61  C   UNL     1       8.335   1.597  13.304  1.00  0.00     0.031 C 
ATOM     62  C   UNL     1       8.861  -0.811  13.552  1.00  0.00     0.037 A 
BRANCH  49  63
ATOM     63  C   UNL     1       8.495  -6.245  10.634  1.00  0.00     0.064 A 
ATOM     64  C   UNL     1       9.445  -6.864   9.809  1.00  0.00     0.173 A 
ATOM     65  C   UNL     1       7.766  -7.055  11.519  1.00  0.00     0.173 A 
ATOM     66  F   UNL     1      10.152  -6.137   8.930  1.00  0.00    -0.203 F 
ATOM     67  C   UNL     1       9.638  -8.242   9.850  1.00  0.00     0.198 A 
ATOM     68  C   UNL     1       7.985  -8.427  11.581  1.00  0.00     0.198 A 
ATOM     69  F   UNL     1       6.844  -6.512  12.328  1.00  0.00    -0.203 F 
ATOM     70  F   UNL     1      10.512  -8.820   9.014  1.00  0.00    -0.200 F 
ATOM     71  C   UNL     1       8.914  -9.021  10.740  1.00  0.00     0.200 A 
ATOM     72  F   UNL     1       7.292  -9.175  12.450  1.00  0.00    -0.200 F 
ATOM     73  F   UNL     1       9.104 -10.347  10.782  1.00  0.00    -0.200 F 
ENDBRANCH  49  63
BRANCH  50  74
ATOM     74  C   UNL     1       6.648   3.541   9.963  1.00  0.00     0.064 A 
ATOM     75  C   UNL     1       7.676   4.495  10.008  1.00  0.00     0.173 A 
ATOM     76  C   UNL     1       5.328   4.014   9.907  1.00  0.00     0.173 A 
ATOM     77  F   UNL     1       8.954   4.098  10.095  1.00  0.00    -0.203 F 
ATOM     78  C   UNL     1       7.393   5.860  10.023  1.00  0.00     0.198 A 
ATOM     79  C   UNL     1       5.048   5.379   9.888  1.00  0.00     0.198 A 
ATOM     80  F   UNL     1       4.305   3.147   9.874  1.00  0.00    -0.203 F 
ATOM     81  F   UNL     1       8.392   6.748  10.127  1.00  0.00    -0.200 F 
ATOM     82  C   UNL     1       6.080   6.301   9.957  1.00  0.00     0.200 A 
ATOM     83  F   UNL     1       3.778   5.799   9.813  1.00  0.00    -0.200 F 
ATOM     84  F   UNL     1       5.809   7.613   9.971  1.00  0.00    -0.200 F 
ENDBRANCH  50  74
BRANCH  62  85
ATOM     85  C   UNL     1       9.421  -0.518  14.917  1.00  0.00     0.064 A 
ATOM     86  C   UNL     1       8.601  -0.140  15.991  1.00  0.00     0.173 A 
ATOM     87  C   UNL     1      10.795  -0.668  15.164  1.00  0.00     0.173 A 
ATOM     88  F   UNL     1       7.283   0.029  15.808  1.00  0.00    -0.203 F 
ATOM     89  C   UNL     1       9.140   0.105  17.252  1.00  0.00     0.198 A 
ATOM     90  C   UNL     1      11.325  -0.458  16.434  1.00  0.00     0.198 A 
ATOM     91  F   UNL     1      11.624  -1.037  14.176  1.00  0.00    -0.203 F 
ATOM     92  F   UNL     1       8.345   0.516  18.250  1.00  0.00    -0.200 F 
ATOM     93  C   UNL     1      10.499  -0.062  17.475  1.00  0.00     0.200 A 
ATOM     94  F   UNL     1      12.635  -0.639  16.651  1.00  0.00    -0.200 F 
ATOM     95  F   UNL     1      11.014   0.163  18.692  1.00  0.00    -0.200 F 
ENDBRANCH  62  85
ENDBRANCH  36  37
ENDBRANCH  29  31
ENDBRANCH  28  29
ENDBRANCH  27  28
ENDBRANCH  26  27
ENDBRANCH  25  26
ENDBRANCH   1  25
TORSDOF 18
