REMARK SMILES CC(C)c1ccc2c(c1)c(SC(C)(C)C)c(CC(C)(C)C(=O)OCCOCCOC(=O)c1ccc(-c3c4nc(c(-c5c(F)c(F)c(F)c(F)c5F)c5ccc([nH]5)c(-c5c(F)c(F)c(F)c(F)c5F)c5nc(c(-c6c(F)c(F)c(F)c(F)c6F)c6ccc3[nH]6)C=C5)C=C4)cc1)n2Cc1ccc(Cl)cc1
REMARK SMILES IDX 25 1 24 2 23 3 21 4 22 5 18 6 19 7 20 8 17 9 16 10 4 11 5 12
REMARK SMILES IDX 9 13 6 14 8 15 7 16 10 17 95 18 2 19 1 20 3 21 11 22 12 23
REMARK SMILES IDX 13 24 14 25 15 26 96 27 97 28 98 29 103 30 99 31 102 32
REMARK SMILES IDX 100 33 101 34 26 35 27 36 28 37 29 38 30 39 31 40 32 41
REMARK SMILES IDX 33 42 94 43 34 44 93 45 35 46 36 47 37 48 87 49 38 50 92 51
REMARK SMILES IDX 86 52 88 53 39 54 91 55 85 56 84 57 40 59 72 60 52 61 71 62
REMARK SMILES IDX 53 63 56 64 70 65 89 66 54 67 55 68 69 70 90 71 57 72 41 73
REMARK SMILES IDX 42 74 50 75 43 76 44 77 48 78 51 79 45 80 46 81 49 82 47 83
REMARK SMILES IDX 73 84 74 85 82 86 75 87 76 88 80 89 83 90 77 91 78 92 81 93
REMARK SMILES IDX 79 94 58 95 59 96 67 97 60 98 61 99 65 100 68 101 62 102
REMARK SMILES IDX 63 103 66 104 64 105
REMARK H PARENT 88 58 56 69
REMARK Flexibility Score: inf
ROOT
ATOM      1  C   UNL     1      -6.880  -0.846   5.523  1.00  0.00     0.202 C 
ENDROOT
BRANCH   1   2
ATOM      2  C   UNL     1      -5.510  -0.254   5.173  1.00  0.00     0.261 C 
BRANCH   2   3
ATOM      3  O   UNL     1      -5.647   0.899   4.352  1.00  0.00    -0.463 OA
BRANCH   3   4
ATOM      4  C   UNL     1      -5.728   0.540   3.046  1.00  0.00     0.311 C 
ATOM      5  O   UNL     1      -5.569  -0.611   2.675  1.00  0.00    -0.252 OA
BRANCH   4   6
ATOM      6  C   UNL     1      -5.986   1.728   2.135  1.00  0.00     0.068 C 
ATOM      7  C   UNL     1      -4.704   2.555   2.350  1.00  0.00     0.024 C 
ATOM      8  C   UNL     1      -7.180   2.605   2.565  1.00  0.00     0.024 C 
BRANCH   6   9
ATOM      9  C   UNL     1      -6.348   1.126   0.728  1.00  0.00     0.073 C 
BRANCH   9  10
ATOM     10  C   UNL     1      -5.210   0.468   0.041  1.00  0.00     0.034 A 
ATOM     11  C   UNL     1      -0.918  -1.236   0.069  1.00  0.00    -0.045 A 
ATOM     12  C   UNL     1      -1.651  -2.418   0.230  1.00  0.00     0.006 A 
ATOM     13  C   UNL     1      -1.625  -0.048  -0.215  1.00  0.00     0.015 A 
ATOM     14  C   UNL     1      -3.048  -2.434   0.186  1.00  0.00     0.027 A 
ATOM     15  C   UNL     1      -3.047  -0.019  -0.254  1.00  0.00     0.014 A 
ATOM     16  C   UNL     1      -3.723  -1.220  -0.014  1.00  0.00     0.050 A 
ATOM     17  C   UNL     1      -4.033   1.030  -0.419  1.00  0.00     0.037 A 
ATOM     18  N   UNL     1      -5.076  -0.922  -0.015  1.00  0.00    -0.339 N 
BRANCH  11  19
ATOM     19  C   UNL     1       0.601  -1.293   0.213  1.00  0.00     0.013 C 
ATOM     20  C   UNL     1       1.337   0.016  -0.093  1.00  0.00     0.012 C 
ATOM     21  C   UNL     1       1.020  -1.771   1.615  1.00  0.00     0.012 C 
ENDBRANCH  11  19
BRANCH  17  22
ATOM     22  S   UNL     1      -3.559   2.710  -0.684  1.00  0.00    -0.118 SA
BRANCH  22  23
ATOM     23  C   UNL     1      -4.865   3.935  -1.172  1.00  0.00     0.012 C 
ATOM     24  C   UNL     1      -5.462   3.570  -2.532  1.00  0.00     0.023 C 
ATOM     25  C   UNL     1      -6.021   4.361  -0.244  1.00  0.00     0.023 C 
ATOM     26  C   UNL     1      -4.034   5.241  -1.289  1.00  0.00     0.023 C 
ENDBRANCH  22  23
ENDBRANCH  17  22
BRANCH  18  27
ATOM     27  C   UNL     1      -6.133  -1.935  -0.234  1.00  0.00     0.158 C 
BRANCH  27  28
ATOM     28  C   UNL     1      -6.994  -2.424   0.921  1.00  0.00    -0.028 A 
ATOM     29  C   UNL     1      -8.370  -2.122   0.941  1.00  0.00     0.007 A 
ATOM     30  C   UNL     1      -6.500  -3.271   1.931  1.00  0.00     0.007 A 
ATOM     31  C   UNL     1      -9.214  -2.623   1.941  1.00  0.00     0.021 A 
ATOM     32  C   UNL     1      -7.344  -3.773   2.936  1.00  0.00     0.021 A 
ATOM     33  C   UNL     1      -8.697  -3.444   2.938  1.00  0.00     0.041 A 
ATOM     34  Cl  UNL     1      -9.726  -4.011   4.199  1.00  0.00    -0.084 Cl
ENDBRANCH  27  28
ENDBRANCH  18  27
ENDBRANCH   9  10
ENDBRANCH   6   9
ENDBRANCH   4   6
ENDBRANCH   3   4
ENDBRANCH   2   3
ENDBRANCH   1   2
BRANCH   1  35
ATOM     35  O   UNL     1      -7.868  -1.071   4.523  1.00  0.00    -0.374 OA
BRANCH  35  36
ATOM     36  C   UNL     1      -8.514   0.096   4.016  1.00  0.00     0.202 C 
BRANCH  36  37
ATOM     37  C   UNL     1      -9.960   0.326   4.457  1.00  0.00     0.261 C 
BRANCH  37  38
ATOM     38  O   UNL     1      -9.938   1.320   5.503  1.00  0.00    -0.460 OA
BRANCH  38  39
ATOM     39  C   UNL     1     -10.302   0.848   6.716  1.00  0.00     0.338 C 
ATOM     40  O   UNL     1     -11.333   0.253   6.977  1.00  0.00    -0.246 OA
BRANCH  39  41
ATOM     41  C   UNL     1      -9.093   0.865   7.567  1.00  0.00     0.060 A 
ATOM     42  C   UNL     1      -8.143   1.890   7.461  1.00  0.00     0.016 A 
ATOM     43  C   UNL     1      -8.794  -0.330   8.245  1.00  0.00     0.016 A 
ATOM     44  C   UNL     1      -6.864   1.672   7.966  1.00  0.00     0.010 A 
ATOM     45  C   UNL     1      -7.508  -0.551   8.737  1.00  0.00     0.010 A 
ATOM     46  C   UNL     1      -6.533   0.436   8.569  1.00  0.00    -0.014 A 
BRANCH  46  47
ATOM     47  C   UNL     1      -5.243   0.362   9.259  1.00  0.00     0.031 A 
ATOM     48  C   UNL     1      -5.253   1.279  10.424  1.00  0.00     0.074 A 
ATOM     49  C   UNL     1      -4.196  -0.469   9.072  1.00  0.00     0.049 A 
ATOM     50  N   UNL     1      -4.516   2.319  10.627  1.00  0.00    -0.248 NA
ATOM     51  C   UNL     1      -6.343   1.096  11.399  1.00  0.00     0.031 C 
ATOM     52  C   UNL     1      -4.128  -1.662   8.229  1.00  0.00     0.029 A 
ATOM     53  N   UNL     1      -2.969  -0.461   9.694  1.00  0.00    -0.354 N 
ATOM     54  C   UNL     1      -4.947   2.829  11.845  1.00  0.00     0.074 A 
ATOM     55  C   UNL     1      -6.171   2.155  12.185  1.00  0.00     0.031 C 
ATOM     56  C   UNL     1      -3.011  -2.363   8.534  1.00  0.00     0.029 A 
ATOM     57  C   UNL     1      -2.234  -1.626   9.518  1.00  0.00     0.049 A 
ATOM     58  H   UNL     1      -2.640   0.305  10.218  1.00  0.00     0.167 HD
ATOM     59  C   UNL     1      -4.121   3.562  12.630  1.00  0.00     0.037 A 
ATOM     60  C   UNL     1      -1.110  -1.994  10.184  1.00  0.00     0.037 A 
ATOM     61  C   UNL     1      -2.976   4.050  11.917  1.00  0.00     0.049 A 
ATOM     62  C   UNL     1      -0.467  -0.786  10.749  1.00  0.00     0.074 A 
ATOM     63  C   UNL     1      -2.675   5.117  11.104  1.00  0.00     0.029 A 
ATOM     64  N   UNL     1      -1.981   3.128  11.765  1.00  0.00    -0.354 N 
ATOM     65  N   UNL     1       0.119   0.134  10.037  1.00  0.00    -0.248 NA
ATOM     66  C   UNL     1      -0.661  -0.458  12.160  1.00  0.00     0.031 C 
ATOM     67  C   UNL     1      -1.498   4.758  10.377  1.00  0.00     0.029 A 
ATOM     68  C   UNL     1      -1.113   3.480  10.766  1.00  0.00     0.049 A 
ATOM     69  H   UNL     1      -1.897   2.311  12.306  1.00  0.00     0.167 HD
ATOM     70  C   UNL     1      -0.018   1.278  10.791  1.00  0.00     0.074 A 
ATOM     71  C   UNL     1      -0.316   0.831  12.141  1.00  0.00     0.031 C 
ATOM     72  C   UNL     1      -0.245   2.480  10.192  1.00  0.00     0.037 A 
BRANCH  59  73
ATOM     73  C   UNL     1      -4.117   3.431  14.128  1.00  0.00     0.064 A 
ATOM     74  C   UNL     1      -3.475   4.402  14.911  1.00  0.00     0.173 A 
ATOM     75  C   UNL     1      -4.475   2.237  14.796  1.00  0.00     0.173 A 
ATOM     76  F   UNL     1      -3.040   5.543  14.357  1.00  0.00    -0.203 F 
ATOM     77  C   UNL     1      -3.202   4.187  16.265  1.00  0.00     0.198 A 
ATOM     78  C   UNL     1      -4.260   2.051  16.158  1.00  0.00     0.198 A 
ATOM     79  F   UNL     1      -4.939   1.167  14.135  1.00  0.00    -0.203 F 
ATOM     80  F   UNL     1      -2.501   5.096  16.955  1.00  0.00    -0.200 F 
ATOM     81  C   UNL     1      -3.604   3.017  16.889  1.00  0.00     0.200 A 
ATOM     82  F   UNL     1      -4.627   0.897  16.733  1.00  0.00    -0.200 F 
ATOM     83  F   UNL     1      -3.313   2.797  18.177  1.00  0.00    -0.200 F 
ENDBRANCH  59  73
BRANCH  60  84
ATOM     84  C   UNL     1      -0.639  -3.349  10.576  1.00  0.00     0.064 A 
ATOM     85  C   UNL     1       0.673  -3.542  11.051  1.00  0.00     0.173 A 
ATOM     86  C   UNL     1      -1.541  -4.406  10.796  1.00  0.00     0.173 A 
ATOM     87  F   UNL     1       1.595  -2.578  10.906  1.00  0.00    -0.203 F 
ATOM     88  C   UNL     1       1.038  -4.688  11.762  1.00  0.00     0.198 A 
ATOM     89  C   UNL     1      -1.170  -5.558  11.492  1.00  0.00     0.198 A 
ATOM     90  F   UNL     1      -2.826  -4.302  10.433  1.00  0.00    -0.203 F 
ATOM     91  F   UNL     1       2.271  -4.789  12.279  1.00  0.00    -0.200 F 
ATOM     92  C   UNL     1       0.111  -5.688  11.996  1.00  0.00     0.200 A 
ATOM     93  F   UNL     1      -2.084  -6.507  11.736  1.00  0.00    -0.200 F 
ATOM     94  F   UNL     1       0.435  -6.751  12.745  1.00  0.00    -0.200 F 
ENDBRANCH  60  84
BRANCH  72  95
ATOM     95  C   UNL     1       0.279   2.664   8.807  1.00  0.00     0.064 A 
ATOM     96  C   UNL     1      -0.171   1.948   7.686  1.00  0.00     0.173 A 
ATOM     97  C   UNL     1       1.270   3.634   8.605  1.00  0.00     0.173 A 
ATOM     98  F   UNL     1      -1.168   1.058   7.792  1.00  0.00    -0.203 F 
ATOM     99  C   UNL     1       0.390   2.163   6.428  1.00  0.00     0.198 A 
ATOM    100  C   UNL     1       1.800   3.874   7.343  1.00  0.00     0.198 A 
ATOM    101  F   UNL     1       1.712   4.369   9.639  1.00  0.00    -0.203 F 
ATOM    102  F   UNL     1      -0.028   1.445   5.375  1.00  0.00    -0.200 F 
ATOM    103  C   UNL     1       1.370   3.129   6.257  1.00  0.00     0.200 A 
ATOM    104  F   UNL     1       2.720   4.834   7.178  1.00  0.00    -0.200 F 
ATOM    105  F   UNL     1       1.890   3.354   5.042  1.00  0.00    -0.200 F 
ENDBRANCH  72  95
ENDBRANCH  46  47
ENDBRANCH  39  41
ENDBRANCH  38  39
ENDBRANCH  37  38
ENDBRANCH  36  37
ENDBRANCH  35  36
ENDBRANCH   1  35
TORSDOF 21
