REMARK SMILES CC(C)C[N@@H+](Cc1ccc(C(=O)OCCOCCOC(=O)c2ccc(-c3c4nc(c(-c5c(F)c(F)c(F)c(F)c5F)c5ccc([nH]5)c(-c5c(F)c(F)c(F)c(F)c5F)c5nc(c(-c6c(F)c(F)c(F)c(F)c6F)c6ccc3[nH]6)C=C5)C=C4)cc2)cn1)C1CC1
REMARK SMILES IDX 15 1 14 2 13 3 11 4 12 5 10 6 7 7 8 8 86 9 9 10 85 11 6 12
REMARK SMILES IDX 5 13 4 15 2 16 1 17 3 18 87 19 88 20 89 21 16 22 17 23 18 24
REMARK SMILES IDX 19 25 20 26 21 27 22 28 23 29 84 30 24 31 83 32 25 33 26 34
REMARK SMILES IDX 27 35 77 36 28 37 82 38 76 39 78 40 29 41 81 42 75 43 74 44
REMARK SMILES IDX 30 46 62 47 42 48 61 49 43 50 46 51 60 52 79 53 44 54 45 55
REMARK SMILES IDX 59 57 80 58 47 59 31 60 32 61 40 62 33 63 34 64 38 65 41 66
REMARK SMILES IDX 35 67 36 68 39 69 37 70 63 71 64 72 72 73 65 74 66 75 70 76
REMARK SMILES IDX 73 77 67 78 68 79 71 80 69 81 48 82 49 83 57 84 50 85 51 86
REMARK SMILES IDX 55 87 58 88 52 89 53 90 56 91 54 92
REMARK H PARENT 5 14 78 45 46 56
REMARK Flexibility Score: inf
ROOT
ATOM      1  C   UNL     1      -5.068   1.159   6.613  1.00  0.00     0.202 C 
ENDROOT
BRANCH   1   2
ATOM      2  C   UNL     1      -6.256   0.904   5.680  1.00  0.00     0.261 C 
BRANCH   2   3
ATOM      3  O   UNL     1      -5.820   0.349   4.426  1.00  0.00    -0.460 OA
BRANCH   3   4
ATOM      4  C   UNL     1      -5.977   1.163   3.355  1.00  0.00     0.339 C 
ATOM      5  O   UNL     1      -6.578   2.228   3.327  1.00  0.00    -0.246 OA
BRANCH   4   6
ATOM      6  C   UNL     1      -5.184   0.671   2.215  1.00  0.00     0.078 A 
ATOM      7  C   UNL     1      -3.663   0.002   0.013  1.00  0.00     0.095 A 
ATOM      8  C   UNL     1      -4.124  -1.010   0.861  1.00  0.00     0.031 A 
ATOM      9  N   UNL     1      -3.927   1.312   0.253  1.00  0.00    -0.254 NA
ATOM     10  C   UNL     1      -4.890  -0.671   1.980  1.00  0.00     0.019 A 
ATOM     11  C   UNL     1      -4.678   1.616   1.336  1.00  0.00     0.127 A 
BRANCH   7  12
ATOM     12  C   UNL     1      -2.872  -0.335  -1.244  1.00  0.00     0.319 C 
BRANCH  12  13
ATOM     13  N   UNL     1      -1.397  -0.174  -1.177  1.00  0.00    -0.327 N 
ATOM     14  H   UNL     1      -1.012  -0.404  -2.093  1.00  0.00     0.348 HD
BRANCH  13  15
ATOM     15  C   UNL     1      -0.811  -1.137  -0.226  1.00  0.00     0.265 C 
BRANCH  15  16
ATOM     16  C   UNL     1       0.721  -1.356  -0.296  1.00  0.00     0.038 C 
ATOM     17  C   UNL     1       1.538  -0.210   0.306  1.00  0.00     0.013 C 
ATOM     18  C   UNL     1       1.071  -2.645   0.463  1.00  0.00     0.013 C 
ENDBRANCH  15  16
ENDBRANCH  13  15
BRANCH  13  19
ATOM     19  C   UNL     1      -0.978   1.228  -0.968  1.00  0.00     0.184 C 
ATOM     20  C   UNL     1      -0.109   1.858  -2.033  1.00  0.00     0.071 C 
ATOM     21  C   UNL     1      -1.495   2.366  -1.814  1.00  0.00     0.071 C 
ENDBRANCH  13  19
ENDBRANCH  12  13
ENDBRANCH   7  12
ENDBRANCH   4   6
ENDBRANCH   3   4
ENDBRANCH   2   3
ENDBRANCH   1   2
BRANCH   1  22
ATOM     22  O   UNL     1      -4.122   2.129   6.165  1.00  0.00    -0.374 OA
BRANCH  22  23
ATOM     23  C   UNL     1      -3.131   1.689   5.233  1.00  0.00     0.202 C 
BRANCH  23  24
ATOM     24  C   UNL     1      -1.936   0.938   5.830  1.00  0.00     0.261 C 
BRANCH  24  25
ATOM     25  O   UNL     1      -2.327  -0.339   6.369  1.00  0.00    -0.460 OA
BRANCH  25  26
ATOM     26  C   UNL     1      -2.274  -0.419   7.718  1.00  0.00     0.338 C 
ATOM     27  O   UNL     1      -1.839   0.420   8.494  1.00  0.00    -0.246 OA
BRANCH  26  28
ATOM     28  C   UNL     1      -2.981  -1.624   8.191  1.00  0.00     0.060 A 
ATOM     29  C   UNL     1      -3.900  -1.453   9.234  1.00  0.00     0.016 A 
ATOM     30  C   UNL     1      -2.689  -2.901   7.704  1.00  0.00     0.016 A 
ATOM     31  C   UNL     1      -4.468  -2.563   9.851  1.00  0.00     0.010 A 
ATOM     32  C   UNL     1      -3.260  -4.018   8.328  1.00  0.00     0.010 A 
ATOM     33  C   UNL     1      -4.109  -3.853   9.438  1.00  0.00    -0.014 A 
BRANCH  33  34
ATOM     34  C   UNL     1      -4.476  -5.003  10.302  1.00  0.00     0.031 A 
ATOM     35  C   UNL     1      -3.449  -5.548  11.259  1.00  0.00     0.074 A 
ATOM     36  C   UNL     1      -5.723  -5.503  10.295  1.00  0.00     0.049 A 
ATOM     37  N   UNL     1      -3.562  -6.503  12.148  1.00  0.00    -0.248 NA
ATOM     38  C   UNL     1      -2.114  -4.930  11.209  1.00  0.00     0.031 C 
ATOM     39  C   UNL     1      -6.813  -5.040   9.439  1.00  0.00     0.029 A 
ATOM     40  N   UNL     1      -6.284  -6.506  11.045  1.00  0.00    -0.354 N 
ATOM     41  C   UNL     1      -2.318  -6.599  12.759  1.00  0.00     0.074 A 
ATOM     42  C   UNL     1      -1.453  -5.635  12.114  1.00  0.00     0.031 C 
ATOM     43  C   UNL     1      -7.916  -5.758   9.713  1.00  0.00     0.029 A 
ATOM     44  C   UNL     1      -7.604  -6.740  10.751  1.00  0.00     0.049 A 
ATOM     45  H   UNL     1      -5.787  -7.010  11.729  1.00  0.00     0.167 HD
ATOM     46  C   UNL     1      -1.934  -7.405  13.778  1.00  0.00     0.037 A 
ATOM     47  C   UNL     1      -8.459  -7.647  11.261  1.00  0.00     0.037 A 
ATOM     48  C   UNL     1      -2.795  -8.361  14.424  1.00  0.00     0.049 A 
ATOM     49  C   UNL     1      -7.995  -8.564  12.363  1.00  0.00     0.074 A 
ATOM     50  C   UNL     1      -2.504  -9.216  15.473  1.00  0.00     0.029 A 
ATOM     51  N   UNL     1      -4.118  -8.589  14.078  1.00  0.00    -0.354 N 
ATOM     52  N   UNL     1      -6.826  -8.626  12.955  1.00  0.00    -0.248 NA
ATOM     53  C   UNL     1      -8.978  -9.527  12.879  1.00  0.00     0.031 C 
ATOM     54  C   UNL     1      -3.638  -9.993  15.731  1.00  0.00     0.029 A 
ATOM     55  C   UNL     1      -4.652  -9.585  14.880  1.00  0.00     0.049 A 
ATOM     56  H   UNL     1      -4.607  -8.113  13.368  1.00  0.00     0.167 HD
ATOM     57  C   UNL     1      -6.942  -9.610  13.929  1.00  0.00     0.074 A 
ATOM     58  C   UNL     1      -8.301 -10.106  13.860  1.00  0.00     0.031 C 
ATOM     59  C   UNL     1      -6.009 -10.064  14.802  1.00  0.00     0.037 A 
BRANCH  46  60
ATOM     60  C   UNL     1      -0.511  -7.299  14.243  1.00  0.00     0.064 A 
ATOM     61  C   UNL     1      -0.049  -6.181  14.954  1.00  0.00     0.173 A 
ATOM     62  C   UNL     1       0.397  -8.339  13.993  1.00  0.00     0.173 A 
ATOM     63  F   UNL     1      -0.873  -5.152  15.205  1.00  0.00    -0.203 F 
ATOM     64  C   UNL     1       1.277  -6.097  15.375  1.00  0.00     0.198 A 
ATOM     65  C   UNL     1       1.714  -8.264  14.440  1.00  0.00     0.198 A 
ATOM     66  F   UNL     1       0.006  -9.430  13.319  1.00  0.00    -0.203 F 
ATOM     67  F   UNL     1       1.708  -4.998  16.009  1.00  0.00    -0.200 F 
ATOM     68  C   UNL     1       2.154  -7.141  15.123  1.00  0.00     0.200 A 
ATOM     69  F   UNL     1       2.558  -9.278  14.205  1.00  0.00    -0.200 F 
ATOM     70  F   UNL     1       3.428  -7.061  15.532  1.00  0.00    -0.200 F 
ENDBRANCH  46  60
BRANCH  47  71
ATOM     71  C   UNL     1      -9.849  -7.732  10.742  1.00  0.00     0.064 A 
ATOM     72  C   UNL     1     -10.944  -7.364  11.537  1.00  0.00     0.173 A 
ATOM     73  C   UNL     1     -10.112  -8.207   9.449  1.00  0.00     0.173 A 
ATOM     74  F   UNL     1     -10.745  -6.928  12.790  1.00  0.00    -0.203 F 
ATOM     75  C   UNL     1     -12.249  -7.489  11.066  1.00  0.00     0.198 A 
ATOM     76  C   UNL     1     -11.416  -8.305   8.969  1.00  0.00     0.198 A 
ATOM     77  F   UNL     1      -9.100  -8.572   8.649  1.00  0.00    -0.203 F 
ATOM     78  F   UNL     1     -13.279  -7.179  11.865  1.00  0.00    -0.200 F 
ATOM     79  C   UNL     1     -12.484  -7.955   9.781  1.00  0.00     0.200 A 
ATOM     80  F   UNL     1     -11.638  -8.744   7.723  1.00  0.00    -0.200 F 
ATOM     81  F   UNL     1     -13.739  -8.075   9.329  1.00  0.00    -0.200 F 
ENDBRANCH  47  71
BRANCH  59  82
ATOM     82  C   UNL     1      -6.439 -11.122  15.778  1.00  0.00     0.064 A 
ATOM     83  C   UNL     1      -6.713 -12.436  15.369  1.00  0.00     0.173 A 
ATOM     84  C   UNL     1      -6.564 -10.820  17.143  1.00  0.00     0.173 A 
ATOM     85  F   UNL     1      -6.621 -12.773  14.074  1.00  0.00    -0.203 F 
ATOM     86  C   UNL     1      -7.135 -13.397  16.285  1.00  0.00     0.198 A 
ATOM     87  C   UNL     1      -6.955 -11.792  18.060  1.00  0.00     0.198 A 
ATOM     88  F   UNL     1      -6.305  -9.582  17.588  1.00  0.00    -0.203 F 
ATOM     89  F   UNL     1      -7.450 -14.629  15.862  1.00  0.00    -0.200 F 
ATOM     90  C   UNL     1      -7.251 -13.076  17.629  1.00  0.00     0.200 A 
ATOM     91  F   UNL     1      -7.053 -11.483  19.360  1.00  0.00    -0.200 F 
ATOM     92  F   UNL     1      -7.658 -14.002  18.508  1.00  0.00    -0.200 F 
ENDBRANCH  59  82
ENDBRANCH  33  34
ENDBRANCH  26  28
ENDBRANCH  25  26
ENDBRANCH  24  25
ENDBRANCH  23  24
ENDBRANCH  22  23
ENDBRANCH   1  22
TORSDOF 19
