REMARK SMILES C[N@@H+](CCCCC(=O)OCCOCCOC(=O)c1ccc(-c2c3nc(c(-c4c(F)c(F)c(F)c(F)c4F)c4ccc([nH]4)c(-c4c(F)c(F)c(F)c(F)c4F)c4nc(c(-c5c(F)c(F)c(F)c(F)c5F)c5ccc2[nH]5)C=C4)C=C3)cc1)CC(C)(C)O
REMARK SMILES IDX 10 1 9 2 7 3 8 4 6 5 5 6 4 7 3 8 2 9 1 10 81 12 82 13 83 14
REMARK SMILES IDX 84 15 85 16 11 18 12 19 13 20 14 21 15 22 16 23 17 24 18 25
REMARK SMILES IDX 19 26 80 27 20 28 79 29 21 30 22 31 23 32 73 33 24 34 78 35
REMARK SMILES IDX 72 36 74 37 25 38 77 39 71 40 70 41 26 43 58 44 38 45 57 46
REMARK SMILES IDX 39 47 42 48 56 49 75 50 40 51 41 52 55 54 76 55 43 56 27 57
REMARK SMILES IDX 28 58 36 59 29 60 30 61 34 62 37 63 31 64 32 65 35 66 33 67
REMARK SMILES IDX 59 68 60 69 68 70 61 71 62 72 66 73 69 74 63 75 64 76 67 77
REMARK SMILES IDX 65 78 44 79 45 80 53 81 46 82 47 83 51 84 54 85 48 86 49 87
REMARK SMILES IDX 52 88 50 89
REMARK H PARENT 2 11 85 17 74 42 42 53
REMARK Flexibility Score: inf
ROOT
ATOM      1  C   UNL     1      -5.669  -3.343  -1.987  1.00  0.00     0.261 C 
ENDROOT
BRANCH   1   2
ATOM      2  O   UNL     1      -4.262  -3.202  -1.716  1.00  0.00    -0.463 OA
BRANCH   2   3
ATOM      3  C   UNL     1      -3.444  -4.153  -2.230  1.00  0.00     0.305 C 
ATOM      4  O   UNL     1      -3.814  -5.172  -2.799  1.00  0.00    -0.252 OA
BRANCH   3   5
ATOM      5  C   UNL     1      -1.990  -3.825  -1.993  1.00  0.00     0.123 C 
BRANCH   5   6
ATOM      6  C   UNL     1      -1.617  -2.359  -2.213  1.00  0.00     0.017 C 
BRANCH   6   7
ATOM      7  C   UNL     1      -1.675  -1.462  -0.972  1.00  0.00     0.062 C 
BRANCH   7   8
ATOM      8  C   UNL     1      -0.564  -1.702   0.060  1.00  0.00     0.262 C 
BRANCH   8   9
ATOM      9  N   UNL     1       0.766  -1.120  -0.150  1.00  0.00    -0.335 N 
ATOM     10  C   UNL     1       0.863   0.276   0.227  1.00  0.00     0.332 C 
ATOM     11  H   UNL     1       1.331  -1.609   0.544  1.00  0.00     0.347 HD
BRANCH   9  12
ATOM     12  C   UNL     1       1.491  -1.510  -1.366  1.00  0.00     0.296 C 
BRANCH  12  13
ATOM     13  C   UNL     1       1.484  -0.636  -2.677  1.00  0.00     0.108 C 
ATOM     14  C   UNL     1       2.497   0.513  -2.623  1.00  0.00     0.048 C 
ATOM     15  C   UNL     1       1.825  -1.529  -3.884  1.00  0.00     0.048 C 
BRANCH  13  16
ATOM     16  O   UNL     1       0.197  -0.061  -2.928  1.00  0.00    -0.385 OA
ATOM     17  H   UNL     1      -0.051   0.511  -2.184  1.00  0.00     0.211 HD
ENDBRANCH  13  16
ENDBRANCH  12  13
ENDBRANCH   9  12
ENDBRANCH   8   9
ENDBRANCH   7   8
ENDBRANCH   6   7
ENDBRANCH   5   6
ENDBRANCH   3   5
ENDBRANCH   2   3
ENDBRANCH   1   2
BRANCH   1  18
ATOM     18  C   UNL     1      -6.188  -2.070  -2.658  1.00  0.00     0.202 C 
BRANCH  18  19
ATOM     19  O   UNL     1      -5.973  -1.978  -4.069  1.00  0.00    -0.374 OA
BRANCH  19  20
ATOM     20  C   UNL     1      -4.648  -1.667  -4.493  1.00  0.00     0.202 C 
BRANCH  20  21
ATOM     21  C   UNL     1      -4.277  -0.176  -4.494  1.00  0.00     0.261 C 
BRANCH  21  22
ATOM     22  O   UNL     1      -4.489   0.455  -3.219  1.00  0.00    -0.460 OA
BRANCH  22  23
ATOM     23  C   UNL     1      -5.601   1.229  -3.163  1.00  0.00     0.338 C 
ATOM     24  O   UNL     1      -6.342   1.530  -4.083  1.00  0.00    -0.246 OA
BRANCH  23  25
ATOM     25  C   UNL     1      -5.934   1.550  -1.763  1.00  0.00     0.060 A 
ATOM     26  C   UNL     1      -7.207   1.179  -1.318  1.00  0.00     0.016 A 
ATOM     27  C   UNL     1      -5.077   2.282  -0.937  1.00  0.00     0.016 A 
ATOM     28  C   UNL     1      -7.653   1.587  -0.066  1.00  0.00     0.010 A 
ATOM     29  C   UNL     1      -5.532   2.698   0.323  1.00  0.00     0.010 A 
ATOM     30  C   UNL     1      -6.837   2.387   0.747  1.00  0.00    -0.014 A 
BRANCH  30  31
ATOM     31  C   UNL     1      -7.439   2.996   1.960  1.00  0.00     0.031 A 
ATOM     32  C   UNL     1      -7.925   4.419   1.908  1.00  0.00     0.074 A 
ATOM     33  C   UNL     1      -7.657   2.252   3.059  1.00  0.00     0.049 A 
ATOM     34  N   UNL     1      -8.584   5.107   2.808  1.00  0.00    -0.248 NA
ATOM     35  C   UNL     1      -7.636   5.167   0.675  1.00  0.00     0.031 C 
ATOM     36  C   UNL     1      -7.256   0.856   3.224  1.00  0.00     0.029 A 
ATOM     37  N   UNL     1      -8.286   2.564   4.239  1.00  0.00    -0.354 N 
ATOM     38  C   UNL     1      -8.803   6.357   2.243  1.00  0.00     0.074 A 
ATOM     39  C   UNL     1      -8.165   6.352   0.945  1.00  0.00     0.031 C 
ATOM     40  C   UNL     1      -7.654   0.428   4.434  1.00  0.00     0.029 A 
ATOM     41  C   UNL     1      -8.323   1.524   5.134  1.00  0.00     0.049 A 
ATOM     42  H   UNL     1      -8.673   3.450   4.426  1.00  0.00     0.167 HD
ATOM     43  C   UNL     1      -9.494   7.406   2.751  1.00  0.00     0.037 A 
ATOM     44  C   UNL     1      -8.836   1.464   6.379  1.00  0.00     0.037 A 
ATOM     45  C   UNL     1     -10.121   7.418   4.047  1.00  0.00     0.049 A 
ATOM     46  C   UNL     1      -9.554   2.664   6.941  1.00  0.00     0.074 A 
ATOM     47  C   UNL     1     -10.836   8.437   4.653  1.00  0.00     0.029 A 
ATOM     48  N   UNL     1     -10.105   6.357   4.941  1.00  0.00    -0.354 N 
ATOM     49  N   UNL     1      -9.781   3.830   6.386  1.00  0.00    -0.248 NA
ATOM     50  C   UNL     1     -10.101   2.531   8.299  1.00  0.00     0.031 C 
ATOM     51  C   UNL     1     -11.214   8.009   5.931  1.00  0.00     0.029 A 
ATOM     52  C   UNL     1     -10.782   6.704   6.100  1.00  0.00     0.049 A 
ATOM     53  H   UNL     1      -9.677   5.486   4.776  1.00  0.00     0.167 HD
ATOM     54  C   UNL     1     -10.513   4.560   7.315  1.00  0.00     0.074 A 
ATOM     55  C   UNL     1     -10.716   3.695   8.458  1.00  0.00     0.031 C 
ATOM     56  C   UNL     1     -10.973   5.833   7.232  1.00  0.00     0.037 A 
BRANCH  43  57
ATOM     57  C   UNL     1      -9.601   8.639   1.901  1.00  0.00     0.064 A 
ATOM     58  C   UNL     1     -10.405   8.670   0.751  1.00  0.00     0.173 A 
ATOM     59  C   UNL     1      -8.928   9.816   2.261  1.00  0.00     0.173 A 
ATOM     60  F   UNL     1     -11.059   7.567   0.356  1.00  0.00    -0.203 F 
ATOM     61  C   UNL     1     -10.513   9.826  -0.018  1.00  0.00     0.198 A 
ATOM     62  C   UNL     1      -9.060  10.978   1.505  1.00  0.00     0.198 A 
ATOM     63  F   UNL     1      -8.150   9.843   3.354  1.00  0.00    -0.203 F 
ATOM     64  F   UNL     1     -11.253   9.819  -1.136  1.00  0.00    -0.200 F 
ATOM     65  C   UNL     1      -9.847  10.980   0.363  1.00  0.00     0.200 A 
ATOM     66  F   UNL     1      -8.426  12.097   1.883  1.00  0.00    -0.200 F 
ATOM     67  F   UNL     1      -9.959  12.095  -0.373  1.00  0.00    -0.200 F 
ENDBRANCH  43  57
BRANCH  44  68
ATOM     68  C   UNL     1      -8.686   0.224   7.184  1.00  0.00     0.064 A 
ATOM     69  C   UNL     1      -9.793  -0.565   7.527  1.00  0.00     0.173 A 
ATOM     70  C   UNL     1      -7.427  -0.181   7.653  1.00  0.00     0.173 A 
ATOM     71  F   UNL     1     -11.021  -0.207   7.126  1.00  0.00    -0.203 F 
ATOM     72  C   UNL     1      -9.649  -1.697   8.328  1.00  0.00     0.198 A 
ATOM     73  C   UNL     1      -7.281  -1.330   8.426  1.00  0.00     0.198 A 
ATOM     74  F   UNL     1      -6.336   0.539   7.354  1.00  0.00    -0.203 F 
ATOM     75  F   UNL     1     -10.731  -2.402   8.687  1.00  0.00    -0.200 F 
ATOM     76  C   UNL     1      -8.393  -2.082   8.772  1.00  0.00     0.200 A 
ATOM     77  F   UNL     1      -6.063  -1.704   8.842  1.00  0.00    -0.200 F 
ATOM     78  F   UNL     1      -8.256  -3.170   9.541  1.00  0.00    -0.200 F 
ENDBRANCH  44  68
BRANCH  56  79
ATOM     79  C   UNL     1     -11.759   6.356   8.401  1.00  0.00     0.064 A 
ATOM     80  C   UNL     1     -11.149   6.633   9.634  1.00  0.00     0.173 A 
ATOM     81  C   UNL     1     -13.137   6.595   8.283  1.00  0.00     0.173 A 
ATOM     82  F   UNL     1      -9.836   6.410   9.803  1.00  0.00    -0.203 F 
ATOM     83  C   UNL     1     -11.895   7.092  10.716  1.00  0.00     0.198 A 
ATOM     84  C   UNL     1     -13.874   7.085   9.358  1.00  0.00     0.198 A 
ATOM     85  F   UNL     1     -13.769   6.357   7.125  1.00  0.00    -0.203 F 
ATOM     86  F   UNL     1     -11.301   7.291  11.901  1.00  0.00    -0.200 F 
ATOM     87  C   UNL     1     -13.255   7.322  10.576  1.00  0.00     0.200 A 
ATOM     88  F   UNL     1     -15.186   7.321   9.217  1.00  0.00    -0.200 F 
ATOM     89  F   UNL     1     -13.973   7.763  11.619  1.00  0.00    -0.200 F 
ENDBRANCH  56  79
ENDBRANCH  30  31
ENDBRANCH  23  25
ENDBRANCH  22  23
ENDBRANCH  21  22
ENDBRANCH  20  21
ENDBRANCH  19  20
ENDBRANCH  18  19
ENDBRANCH   1  18
TORSDOF 21
