REMARK SMILES CCc1ccnc(C(=O)c2[nH]c3ccc(OC(F)(F)F)cc3c2CC(=O)OCCOCCOC(=O)c2ccc(-c3c4nc(c(-c5c(F)c(F)c(F)c(F)c5F)c5ccc([nH]5)c(-c5c(F)c(F)c(F)c(F)c5F)c5nc(c(-c6c(F)c(F)c(F)c(F)c6F)c6ccc3[nH]6)C=C5)C=C4)cc2)c1
REMARK SMILES IDX 29 1 28 2 27 3 25 4 26 5 24 6 23 7 10 8 11 9 12 10 22 12
REMARK SMILES IDX 13 13 21 14 14 15 15 16 8 17 9 18 7 19 3 20 4 21 99 22 5 23
REMARK SMILES IDX 6 24 2 25 1 26 16 27 17 28 18 29 19 30 20 31 30 32 31 33
REMARK SMILES IDX 32 34 33 35 34 36 35 37 36 38 37 39 98 40 38 41 97 42 39 43
REMARK SMILES IDX 40 44 41 45 91 46 42 47 96 48 90 49 92 50 43 51 95 52 89 53
REMARK SMILES IDX 88 54 44 56 76 57 56 58 75 59 57 60 60 61 74 62 93 63 58 64
REMARK SMILES IDX 59 65 73 67 94 68 61 69 45 70 46 71 54 72 47 73 48 74 52 75
REMARK SMILES IDX 55 76 49 77 50 78 53 79 51 80 77 81 78 82 86 83 79 84 80 85
REMARK SMILES IDX 84 86 87 87 81 88 82 89 85 90 83 91 62 92 63 93 71 94 64 95
REMARK SMILES IDX 65 96 69 97 72 98 66 99 67 100 70 101 68 102
REMARK H PARENT 11 11 92 55 60 66
REMARK Flexibility Score: inf
ROOT
ATOM      1  C   UNL     1       0.985   9.869  -4.548  1.00  0.00     0.202 C 
ENDROOT
BRANCH   1   2
ATOM      2  C   UNL     1      -0.466  10.106  -4.116  1.00  0.00     0.261 C 
BRANCH   2   3
ATOM      3  O   UNL     1      -0.850   9.290  -2.986  1.00  0.00    -0.463 OA
BRANCH   3   4
ATOM      4  C   UNL     1      -2.055   8.668  -3.110  1.00  0.00     0.310 C 
ATOM      5  O   UNL     1      -2.818   8.843  -4.058  1.00  0.00    -0.252 OA
BRANCH   4   6
ATOM      6  C   UNL     1      -2.466   7.800  -1.941  1.00  0.00     0.161 C 
BRANCH   6   7
ATOM      7  C   UNL     1      -1.437   7.420  -0.906  1.00  0.00     0.000 A 
ATOM      8  C   UNL     1      -0.536   6.350  -0.949  1.00  0.00     0.093 A 
ATOM      9  N   UNL     1       0.198   6.407   0.219  1.00  0.00    -0.352 N 
ATOM     10  C   UNL     1      -0.370   7.294   1.106  1.00  0.00     0.046 A 
ATOM     11  H   UNL     1       1.015   5.886   0.393  1.00  0.00     0.167 HD
ATOM     12  C   UNL     1      -1.379   7.960   0.420  1.00  0.00     0.008 A 
ATOM     13  C   UNL     1      -0.087   7.546   2.455  1.00  0.00     0.030 A 
ATOM     14  C   UNL     1      -2.150   8.912   1.119  1.00  0.00     0.057 A 
ATOM     15  C   UNL     1      -0.903   8.464   3.138  1.00  0.00     0.049 A 
ATOM     16  C   UNL     1      -1.939   9.129   2.486  1.00  0.00     0.130 A 
BRANCH   8  17
ATOM     17  C   UNL     1      -0.393   5.367  -2.020  1.00  0.00     0.227 C 
ATOM     18  O   UNL     1      -0.963   5.502  -3.102  1.00  0.00    -0.285 OA
BRANCH  17  19
ATOM     19  C   UNL     1       0.427   4.131  -1.847  1.00  0.00     0.113 A 
ATOM     20  C   UNL     1       0.858   2.020  -0.776  1.00  0.00    -0.044 A 
ATOM     21  C   UNL     1       1.708   1.718  -1.845  1.00  0.00     0.024 A 
ATOM     22  C   UNL     1       0.212   3.267  -0.778  1.00  0.00     0.036 A 
ATOM     23  C   UNL     1       1.879   2.651  -2.856  1.00  0.00     0.112 A 
ATOM     24  N   UNL     1       1.267   3.850  -2.876  1.00  0.00    -0.253 NA
BRANCH  20  25
ATOM     25  C   UNL     1       0.581   1.060   0.359  1.00  0.00     0.032 C 
ATOM     26  C   UNL     1       1.083  -0.368   0.186  1.00  0.00     0.009 C 
ENDBRANCH  20  25
ENDBRANCH  17  19
ENDBRANCH   8  17
BRANCH  16  27
ATOM     27  O   UNL     1      -2.823  10.007   3.048  1.00  0.00    -0.406 OA
BRANCH  27  28
ATOM     28  C   UNL     1      -2.917  10.038   4.461  1.00  0.00     0.573 C 
ATOM     29  F   UNL     1      -3.106   8.803   4.974  1.00  0.00    -0.132 F 
ATOM     30  F   UNL     1      -1.808  10.586   5.003  1.00  0.00    -0.132 F 
ATOM     31  F   UNL     1      -3.977  10.801   4.808  1.00  0.00    -0.132 F 
ENDBRANCH  27  28
ENDBRANCH  16  27
ENDBRANCH   6   7
ENDBRANCH   4   6
ENDBRANCH   3   4
ENDBRANCH   2   3
ENDBRANCH   1   2
BRANCH   1  32
ATOM     32  O   UNL     1       1.280   8.613  -5.161  1.00  0.00    -0.374 OA
BRANCH  32  33
ATOM     33  C   UNL     1       1.187   7.458  -4.327  1.00  0.00     0.202 C 
BRANCH  33  34
ATOM     34  C   UNL     1       2.399   7.182  -3.432  1.00  0.00     0.261 C 
BRANCH  34  35
ATOM     35  O   UNL     1       2.745   8.307  -2.610  1.00  0.00    -0.460 OA
BRANCH  35  36
ATOM     36  C   UNL     1       3.898   8.911  -2.969  1.00  0.00     0.338 C 
ATOM     37  O   UNL     1       4.728   8.521  -3.781  1.00  0.00    -0.246 OA
BRANCH  36  38
ATOM     38  C   UNL     1       3.998  10.237  -2.341  1.00  0.00     0.060 A 
ATOM     39  C   UNL     1       4.295  11.313  -3.185  1.00  0.00     0.016 A 
ATOM     40  C   UNL     1       3.912  10.412  -0.958  1.00  0.00     0.016 A 
ATOM     41  C   UNL     1       4.603  12.553  -2.642  1.00  0.00     0.010 A 
ATOM     42  C   UNL     1       4.224  11.661  -0.411  1.00  0.00     0.010 A 
ATOM     43  C   UNL     1       4.629  12.714  -1.250  1.00  0.00    -0.014 A 
BRANCH  43  44
ATOM     44  C   UNL     1       5.291  13.918  -0.697  1.00  0.00     0.031 A 
ATOM     45  C   UNL     1       6.727  13.808  -0.263  1.00  0.00     0.074 A 
ATOM     46  C   UNL     1       4.653  15.099  -0.671  1.00  0.00     0.049 A 
ATOM     47  N   UNL     1       7.534  14.733   0.192  1.00  0.00    -0.248 NA
ATOM     48  C   UNL     1       7.340  12.472  -0.355  1.00  0.00     0.031 C 
ATOM     49  C   UNL     1       3.276  15.321  -1.106  1.00  0.00     0.029 A 
ATOM     50  N   UNL     1       5.087  16.337  -0.273  1.00  0.00    -0.354 N 
ATOM     51  C   UNL     1       8.742  14.092   0.437  1.00  0.00     0.074 A 
ATOM     52  C   UNL     1       8.555  12.694   0.122  1.00  0.00     0.031 C 
ATOM     53  C   UNL     1       2.977  16.623  -0.956  1.00  0.00     0.029 A 
ATOM     54  C   UNL     1       4.135  17.317  -0.396  1.00  0.00     0.049 A 
ATOM     55  H   UNL     1       5.995  16.506   0.068  1.00  0.00     0.167 HD
ATOM     56  C   UNL     1       9.907  14.627   0.872  1.00  0.00     0.037 A 
ATOM     57  C   UNL     1       4.197  18.626  -0.084  1.00  0.00     0.037 A 
ATOM     58  C   UNL     1      10.083  16.021   1.177  1.00  0.00     0.049 A 
ATOM     59  C   UNL     1       5.492  19.189   0.442  1.00  0.00     0.074 A 
ATOM     60  C   UNL     1      11.219  16.673   1.623  1.00  0.00     0.029 A 
ATOM     61  N   UNL     1       9.086  16.981   1.068  1.00  0.00    -0.354 N 
ATOM     62  N   UNL     1       6.636  18.581   0.651  1.00  0.00    -0.248 NA
ATOM     63  C   UNL     1       5.509  20.622   0.763  1.00  0.00     0.031 C 
ATOM     64  C   UNL     1      10.896  18.019   1.827  1.00  0.00     0.029 A 
ATOM     65  C   UNL     1       9.575  18.217   1.456  1.00  0.00     0.049 A 
ATOM     66  H   UNL     1       8.167  16.808   0.761  1.00  0.00     0.167 HD
ATOM     67  C   UNL     1       7.515  19.560   1.095  1.00  0.00     0.074 A 
ATOM     68  C   UNL     1       6.774  20.805   1.114  1.00  0.00     0.031 C 
ATOM     69  C   UNL     1       8.819  19.443   1.452  1.00  0.00     0.037 A 
BRANCH  56  70
ATOM     70  C   UNL     1      11.068  13.695   1.065  1.00  0.00     0.064 A 
ATOM     71  C   UNL     1      11.734  13.107  -0.022  1.00  0.00     0.173 A 
ATOM     72  C   UNL     1      11.532  13.397   2.355  1.00  0.00     0.173 A 
ATOM     73  F   UNL     1      11.320  13.345  -1.276  1.00  0.00    -0.203 F 
ATOM     74  C   UNL     1      12.801  12.234   0.177  1.00  0.00     0.198 A 
ATOM     75  C   UNL     1      12.618  12.547   2.549  1.00  0.00     0.198 A 
ATOM     76  F   UNL     1      10.934  13.932   3.430  1.00  0.00    -0.203 F 
ATOM     77  F   UNL     1      13.387  11.644  -0.873  1.00  0.00    -0.200 F 
ATOM     78  C   UNL     1      13.246  11.960   1.462  1.00  0.00     0.200 A 
ATOM     79  F   UNL     1      13.053  12.292   3.791  1.00  0.00    -0.200 F 
ATOM     80  F   UNL     1      14.275  11.122   1.652  1.00  0.00    -0.200 F 
ENDBRANCH  56  70
BRANCH  57  81
ATOM     81  C   UNL     1       3.004  19.492  -0.273  1.00  0.00     0.064 A 
ATOM     82  C   UNL     1       2.983  20.499  -1.247  1.00  0.00     0.173 A 
ATOM     83  C   UNL     1       1.860  19.332   0.524  1.00  0.00     0.173 A 
ATOM     84  F   UNL     1       4.060  20.706  -2.020  1.00  0.00    -0.203 F 
ATOM     85  C   UNL     1       1.872  21.325  -1.405  1.00  0.00     0.198 A 
ATOM     86  C   UNL     1       0.739  20.140   0.346  1.00  0.00     0.198 A 
ATOM     87  F   UNL     1       1.828  18.383   1.471  1.00  0.00    -0.203 F 
ATOM     88  F   UNL     1       1.896  22.310  -2.314  1.00  0.00    -0.200 F 
ATOM     89  C   UNL     1       0.749  21.141  -0.613  1.00  0.00     0.200 A 
ATOM     90  F   UNL     1      -0.348  19.950   1.106  1.00  0.00    -0.200 F 
ATOM     91  F   UNL     1      -0.321  21.933  -0.768  1.00  0.00    -0.200 F 
ENDBRANCH  57  81
BRANCH  69  92
ATOM     92  C   UNL     1       9.538  20.700   1.848  1.00  0.00     0.064 A 
ATOM     93  C   UNL     1       9.277  21.348   3.064  1.00  0.00     0.173 A 
ATOM     94  C   UNL     1      10.532  21.237   1.015  1.00  0.00     0.173 A 
ATOM     95  F   UNL     1       8.328  20.881   3.888  1.00  0.00    -0.203 F 
ATOM     96  C   UNL     1       9.966  22.505   3.418  1.00  0.00     0.198 A 
ATOM     97  C   UNL     1      11.240  22.375   1.387  1.00  0.00     0.198 A 
ATOM     98  F   UNL     1      10.825  20.648  -0.154  1.00  0.00    -0.203 F 
ATOM     99  F   UNL     1       9.666  23.136   4.562  1.00  0.00    -0.200 F 
ATOM    100  C   UNL     1      10.951  23.013   2.584  1.00  0.00     0.200 A 
ATOM    101  F   UNL     1      12.202  22.856   0.587  1.00  0.00    -0.200 F 
ATOM    102  F   UNL     1      11.617  24.123   2.930  1.00  0.00    -0.200 F 
ENDBRANCH  69  92
ENDBRANCH  43  44
ENDBRANCH  36  38
ENDBRANCH  35  36
ENDBRANCH  34  35
ENDBRANCH  33  34
ENDBRANCH  32  33
ENDBRANCH   1  32
TORSDOF 20
