REMARK SMILES O=Cc1c(OCc2ccc(C(=O)OCCOCCOC(=O)c3ccc(-c4c5nc(c(-c6c(F)c(F)c(F)c(F)c6F)c6ccc([nH]6)c(-c6c(F)c(F)c(F)c(F)c6F)c6nc(c(-c7c(F)c(F)c(F)c(F)c7F)c7ccc4[nH]7)C=C6)C=C5)cc3)cc2)ccc2ccccc12
REMARK SMILES IDX 15 1 14 2 13 3 11 4 12 5 10 6 7 7 8 8 86 9 9 10 85 11 6 12
REMARK SMILES IDX 5 13 4 14 3 15 94 16 87 17 89 18 93 19 88 20 90 21 92 22
REMARK SMILES IDX 91 23 2 24 1 25 16 26 17 27 18 28 19 29 20 30 21 31 22 32
REMARK SMILES IDX 23 33 84 34 24 35 83 36 25 37 26 38 27 39 77 40 28 41 82 42
REMARK SMILES IDX 76 43 78 44 29 45 81 46 75 47 74 48 30 50 62 51 42 52 61 53
REMARK SMILES IDX 43 54 46 55 60 56 79 57 44 58 45 59 59 61 80 62 47 63 31 64
REMARK SMILES IDX 32 65 40 66 33 67 34 68 38 69 41 70 35 71 36 72 39 73 37 74
REMARK SMILES IDX 63 75 64 76 72 77 65 78 66 79 70 80 73 81 67 82 68 83 71 84
REMARK SMILES IDX 69 85 48 86 49 87 57 88 50 89 51 90 55 91 58 92 52 93 53 94
REMARK SMILES IDX 56 95 54 96
REMARK H PARENT 78 49 46 60
REMARK Flexibility Score: inf
ROOT
ATOM      1  C   UNL     1       6.939   4.165  -8.214  1.00  0.00     0.202 C 
ENDROOT
BRANCH   1   2
ATOM      2  C   UNL     1       5.540   4.108  -8.832  1.00  0.00     0.261 C 
BRANCH   2   3
ATOM      3  O   UNL     1       4.553   3.677  -7.881  1.00  0.00    -0.460 OA
BRANCH   3   4
ATOM      4  C   UNL     1       3.996   2.474  -8.168  1.00  0.00     0.338 C 
ATOM      5  O   UNL     1       4.144   1.837  -9.200  1.00  0.00    -0.246 OA
BRANCH   4   6
ATOM      6  C   UNL     1       3.259   1.922  -7.005  1.00  0.00     0.060 A 
ATOM      7  C   UNL     1       1.821   0.677  -4.923  1.00  0.00    -0.011 A 
ATOM      8  C   UNL     1       2.438  -0.083  -5.925  1.00  0.00     0.008 A 
ATOM      9  C   UNL     1       1.948   2.076  -4.969  1.00  0.00     0.008 A 
ATOM     10  C   UNL     1       3.164   0.529  -6.942  1.00  0.00     0.016 A 
ATOM     11  C   UNL     1       2.659   2.700  -6.010  1.00  0.00     0.016 A 
BRANCH   7  12
ATOM     12  C   UNL     1       1.002  -0.011  -3.845  1.00  0.00     0.265 C 
BRANCH  12  13
ATOM     13  O   UNL     1       1.598   0.030  -2.548  1.00  0.00    -0.488 OA
BRANCH  13  14
ATOM     14  C   UNL     1       2.566  -0.870  -2.190  1.00  0.00     0.130 A 
ATOM     15  C   UNL     1       3.088  -0.777  -0.885  1.00  0.00     0.064 A 
ATOM     16  C   UNL     1       4.245  -1.513  -0.483  1.00  0.00    -0.004 A 
ATOM     17  C   UNL     1       3.121  -1.809  -3.053  1.00  0.00     0.048 A 
ATOM     18  C   UNL     1       4.853  -2.361  -1.439  1.00  0.00    -0.017 A 
ATOM     19  C   UNL     1       4.839  -1.469   0.805  1.00  0.00     0.009 A 
ATOM     20  C   UNL     1       4.264  -2.524  -2.695  1.00  0.00     0.012 A 
ATOM     21  C   UNL     1       6.035  -3.053  -1.134  1.00  0.00     0.009 A 
ATOM     22  C   UNL     1       6.010  -2.173   1.101  1.00  0.00     0.001 A 
ATOM     23  C   UNL     1       6.619  -2.950   0.125  1.00  0.00     0.001 A 
BRANCH  15  24
ATOM     24  C   UNL     1       2.425   0.118   0.093  1.00  0.00     0.264 C 
ATOM     25  O   UNL     1       1.208   0.209   0.202  1.00  0.00    -0.298 OA
ENDBRANCH  15  24
ENDBRANCH  13  14
ENDBRANCH  12  13
ENDBRANCH   7  12
ENDBRANCH   4   6
ENDBRANCH   3   4
ENDBRANCH   2   3
ENDBRANCH   1   2
BRANCH   1  26
ATOM     26  O   UNL     1       7.428   2.962  -7.627  1.00  0.00    -0.374 OA
BRANCH  26  27
ATOM     27  C   UNL     1       6.969   2.639  -6.312  1.00  0.00     0.202 C 
BRANCH  27  28
ATOM     28  C   UNL     1       7.561   3.461  -5.160  1.00  0.00     0.261 C 
BRANCH  28  29
ATOM     29  O   UNL     1       7.075   4.818  -5.165  1.00  0.00    -0.460 OA
BRANCH  29  30
ATOM     30  C   UNL     1       8.014   5.765  -5.394  1.00  0.00     0.338 C 
ATOM     31  O   UNL     1       9.222   5.604  -5.507  1.00  0.00    -0.246 OA
BRANCH  30  32
ATOM     32  C   UNL     1       7.362   7.053  -5.689  1.00  0.00     0.060 A 
ATOM     33  C   UNL     1       7.704   7.696  -6.887  1.00  0.00     0.016 A 
ATOM     34  C   UNL     1       6.486   7.656  -4.786  1.00  0.00     0.016 A 
ATOM     35  C   UNL     1       7.205   8.967  -7.165  1.00  0.00     0.010 A 
ATOM     36  C   UNL     1       5.994   8.936  -5.061  1.00  0.00     0.010 A 
ATOM     37  C   UNL     1       6.378   9.610  -6.235  1.00  0.00    -0.014 A 
BRANCH  37  38
ATOM     38  C   UNL     1       6.035  11.040  -6.425  1.00  0.00     0.031 A 
ATOM     39  C   UNL     1       6.822  12.082  -5.682  1.00  0.00     0.074 A 
ATOM     40  C   UNL     1       5.050  11.406  -7.263  1.00  0.00     0.049 A 
ATOM     41  N   UNL     1       6.673  13.383  -5.665  1.00  0.00    -0.248 NA
ATOM     42  C   UNL     1       7.926  11.591  -4.841  1.00  0.00     0.031 C 
ATOM     43  C   UNL     1       4.243  10.491  -8.066  1.00  0.00     0.029 A 
ATOM     44  N   UNL     1       4.559  12.650  -7.570  1.00  0.00    -0.354 N 
ATOM     45  C   UNL     1       7.657  13.863  -4.810  1.00  0.00     0.074 A 
ATOM     46  C   UNL     1       8.379  12.715  -4.305  1.00  0.00     0.031 C 
ATOM     47  C   UNL     1       3.344  11.204  -8.766  1.00  0.00     0.029 A 
ATOM     48  C   UNL     1       3.495  12.621  -8.437  1.00  0.00     0.049 A 
ATOM     49  H   UNL     1       4.933  13.484  -7.203  1.00  0.00     0.167 HD
ATOM     50  C   UNL     1       7.937  15.147  -4.483  1.00  0.00     0.037 A 
ATOM     51  C   UNL     1       2.720  13.624  -8.894  1.00  0.00     0.037 A 
ATOM     52  C   UNL     1       7.219  16.288  -4.988  1.00  0.00     0.049 A 
ATOM     53  C   UNL     1       3.011  15.039  -8.466  1.00  0.00     0.074 A 
ATOM     54  C   UNL     1       7.441  17.630  -4.735  1.00  0.00     0.029 A 
ATOM     55  N   UNL     1       6.131  16.217  -5.846  1.00  0.00    -0.354 N 
ATOM     56  N   UNL     1       3.960  15.488  -7.680  1.00  0.00    -0.248 NA
ATOM     57  C   UNL     1       2.125  16.087  -8.992  1.00  0.00     0.031 C 
ATOM     58  C   UNL     1       6.456  18.369  -5.399  1.00  0.00     0.029 A 
ATOM     59  C   UNL     1       5.654  17.491  -6.111  1.00  0.00     0.049 A 
ATOM     60  H   UNL     1       5.753  15.385  -6.212  1.00  0.00     0.167 HD
ATOM     61  C   UNL     1       3.804  16.867  -7.641  1.00  0.00     0.074 A 
ATOM     62  C   UNL     1       2.675  17.184  -8.490  1.00  0.00     0.031 C 
ATOM     63  C   UNL     1       4.534  17.790  -6.966  1.00  0.00     0.037 A 
BRANCH  50  64
ATOM     64  C   UNL     1       9.055  15.385  -3.510  1.00  0.00     0.064 A 
ATOM     65  C   UNL     1      10.397  15.192  -3.867  1.00  0.00     0.173 A 
ATOM     66  C   UNL     1       8.779  15.841  -2.212  1.00  0.00     0.173 A 
ATOM     67  F   UNL     1      10.713  14.743  -5.092  1.00  0.00    -0.203 F 
ATOM     68  C   UNL     1      11.422  15.421  -2.952  1.00  0.00     0.198 A 
ATOM     69  C   UNL     1       9.807  16.096  -1.309  1.00  0.00     0.198 A 
ATOM     70  F   UNL     1       7.512  16.045  -1.821  1.00  0.00    -0.203 F 
ATOM     71  F   UNL     1      12.694  15.186  -3.300  1.00  0.00    -0.200 F 
ATOM     72  C   UNL     1      11.127  15.880  -1.677  1.00  0.00     0.200 A 
ATOM     73  F   UNL     1       9.521  16.550  -0.081  1.00  0.00    -0.200 F 
ATOM     74  F   UNL     1      12.114  16.105  -0.799  1.00  0.00    -0.200 F 
ENDBRANCH  50  64
BRANCH  51  75
ATOM     75  C   UNL     1       1.586  13.324  -9.806  1.00  0.00     0.064 A 
ATOM     76  C   UNL     1       1.613  13.723 -11.149  1.00  0.00     0.173 A 
ATOM     77  C   UNL     1       0.448  12.642  -9.350  1.00  0.00     0.173 A 
ATOM     78  F   UNL     1       2.668  14.400 -11.626  1.00  0.00    -0.203 F 
ATOM     79  C   UNL     1       0.539  13.463 -11.998  1.00  0.00     0.198 A 
ATOM     80  C   UNL     1      -0.613  12.359 -10.206  1.00  0.00     0.198 A 
ATOM     81  F   UNL     1       0.372  12.242  -8.072  1.00  0.00    -0.203 F 
ATOM     82  F   UNL     1       0.572  13.892 -13.267  1.00  0.00    -0.200 F 
ATOM     83  C   UNL     1      -0.570  12.776 -11.528  1.00  0.00     0.200 A 
ATOM     84  F   UNL     1      -1.678  11.686  -9.750  1.00  0.00    -0.200 F 
ATOM     85  F   UNL     1      -1.601  12.523 -12.346  1.00  0.00    -0.200 F 
ENDBRANCH  51  75
BRANCH  63  86
ATOM     86  C   UNL     1       4.161  19.233  -7.146  1.00  0.00     0.064 A 
ATOM     87  C   UNL     1       3.000  19.772  -6.573  1.00  0.00     0.173 A 
ATOM     88  C   UNL     1       5.004  20.098  -7.862  1.00  0.00     0.173 A 
ATOM     89  F   UNL     1       2.155  18.984  -5.892  1.00  0.00    -0.203 F 
ATOM     90  C   UNL     1       2.684  21.120  -6.730  1.00  0.00     0.198 A 
ATOM     91  C   UNL     1       4.700  21.450  -7.992  1.00  0.00     0.198 A 
ATOM     92  F   UNL     1       6.130  19.634  -8.422  1.00  0.00    -0.203 F 
ATOM     93  F   UNL     1       1.548  21.604  -6.212  1.00  0.00    -0.200 F 
ATOM     94  C   UNL     1       3.538  21.958  -7.432  1.00  0.00     0.200 A 
ATOM     95  F   UNL     1       5.533  22.262  -8.658  1.00  0.00    -0.200 F 
ATOM     96  F   UNL     1       3.236  23.256  -7.574  1.00  0.00    -0.200 F 
ENDBRANCH  63  86
ENDBRANCH  37  38
ENDBRANCH  30  32
ENDBRANCH  29  30
ENDBRANCH  28  29
ENDBRANCH  27  28
ENDBRANCH  26  27
ENDBRANCH   1  26
TORSDOF 18
