REMARK SMILES CC(C)C[C@H](NC(=O)[C@H](Cc1ccccc1)NC(=O)CNC(=O)C[NH3+])C(=O)OCCOCCOC(=O)c1ccc(-c2c3nc(c(-c4c(F)c(F)c(F)c(F)c4F)c4ccc([nH]4)c(-c4c(F)c(F)c(F)c(F)c4F)c4nc(c(-c5c(F)c(F)c(F)c(F)c5F)c5ccc2[nH]5)C=C4)C=C3)cc1
REMARK SMILES IDX 29 1 28 2 26 3 27 4 5 5 4 6 2 7 1 8 3 9 6 10 7 11 8 13 9 14
REMARK SMILES IDX 17 15 18 16 19 18 20 19 21 20 22 21 23 23 24 24 25 25 10 29
REMARK SMILES IDX 11 30 12 31 16 32 13 33 15 34 14 35 30 36 31 37 32 38 33 39
REMARK SMILES IDX 34 40 35 41 36 42 37 43 38 44 99 45 39 46 98 47 40 48 41 49
REMARK SMILES IDX 42 50 92 51 43 52 97 53 91 54 93 55 44 56 96 57 90 58 89 59
REMARK SMILES IDX 45 61 77 62 57 63 76 64 58 65 61 66 75 67 94 68 59 69 60 70
REMARK SMILES IDX 74 72 95 73 62 74 46 75 47 76 55 77 48 78 49 79 53 80 56 81
REMARK SMILES IDX 50 82 51 83 54 84 52 85 78 86 79 87 87 88 80 89 81 90 85 91
REMARK SMILES IDX 88 92 82 93 83 94 86 95 84 96 63 97 64 98 72 99 65 100
REMARK SMILES IDX 66 101 70 102 73 103 67 104 68 105 71 106 69 107
REMARK H PARENT 6 12 17 17 21 22 25 26 25 27 25 28 93 60 61 71
REMARK Flexibility Score: inf
ROOT
ATOM      1  C   UNL     1       2.252  -7.684   0.082  1.00  0.00     0.261 C 
ENDROOT
BRANCH   1   2
ATOM      2  O   UNL     1       1.835  -6.379   0.511  1.00  0.00    -0.462 OA
BRANCH   2   3
ATOM      3  C   UNL     1       1.481  -5.534  -0.506  1.00  0.00     0.328 C 
ATOM      4  O   UNL     1       1.274  -5.877  -1.663  1.00  0.00    -0.250 OA
BRANCH   3   5
ATOM      5  C   UNL     1       1.556  -4.072  -0.060  1.00  0.00     0.192 C 
BRANCH   5   6
ATOM      6  C   UNL     1       3.019  -3.618  -0.016  1.00  0.00     0.040 C 
BRANCH   6   7
ATOM      7  C   UNL     1       4.193  -4.440  -0.578  1.00  0.00    -0.015 C 
ATOM      8  C   UNL     1       4.167  -4.580  -2.099  1.00  0.00     0.007 C 
ATOM      9  C   UNL     1       5.492  -3.723  -0.172  1.00  0.00     0.007 C 
ENDBRANCH   6   7
ENDBRANCH   5   6
BRANCH   5  10
ATOM     10  N   UNL     1       0.860  -3.898   1.241  1.00  0.00    -0.341 N 
ATOM     11  C   UNL     1       0.366  -2.820   1.912  1.00  0.00     0.243 C 
ATOM     12  H   UNL     1       0.727  -4.747   1.722  1.00  0.00     0.164 HD
ATOM     13  O   UNL     1      -0.548  -3.076   2.711  1.00  0.00    -0.273 OA
BRANCH  11  14
ATOM     14  C   UNL     1       0.950  -1.377   1.869  1.00  0.00     0.175 C 
BRANCH  14  15
ATOM     15  N   UNL     1       1.934  -1.031   0.849  1.00  0.00    -0.342 N 
ATOM     16  C   UNL     1       3.264  -0.746   1.043  1.00  0.00     0.240 C 
ATOM     17  H   UNL     1       1.610  -0.999  -0.080  1.00  0.00     0.164 HD
ATOM     18  O   UNL     1       3.881  -0.159   0.152  1.00  0.00    -0.273 OA
BRANCH  16  19
ATOM     19  C   UNL     1       3.965  -1.173   2.342  1.00  0.00     0.216 C 
BRANCH  19  20
ATOM     20  N   UNL     1       3.782  -0.209   3.406  1.00  0.00    -0.342 N 
ATOM     21  C   UNL     1       3.456  -0.461   4.708  1.00  0.00     0.275 C 
ATOM     22  H   UNL     1       3.907   0.737   3.163  1.00  0.00     0.164 HD
ATOM     23  O   UNL     1       3.159   0.484   5.439  1.00  0.00    -0.268 OA
BRANCH  21  24
ATOM     24  C   UNL     1       3.467  -1.905   5.227  1.00  0.00     0.360 C 
BRANCH  24  25
ATOM     25  N   UNL     1       2.268  -2.636   4.794  1.00  0.00    -0.350 N 
ATOM     26  H   UNL     1       1.437  -2.177   5.166  1.00  0.00     0.344 HD
ATOM     27  H   UNL     1       2.311  -3.594   5.142  1.00  0.00     0.344 HD
ATOM     28  H   UNL     1       2.225  -2.646   3.775  1.00  0.00     0.344 HD
ENDBRANCH  24  25
ENDBRANCH  21  24
ENDBRANCH  19  20
ENDBRANCH  16  19
ENDBRANCH  14  15
BRANCH  14  29
ATOM     29  C   UNL     1      -0.199  -0.318   1.964  1.00  0.00     0.070 C 
BRANCH  29  30
ATOM     30  C   UNL     1       0.145   1.038   1.375  1.00  0.00    -0.045 A 
ATOM     31  C   UNL     1       1.234   1.777   1.860  1.00  0.00     0.004 A 
ATOM     32  C   UNL     1      -0.544   1.515   0.253  1.00  0.00     0.004 A 
ATOM     33  C   UNL     1       1.717   2.878   1.153  1.00  0.00     0.000 A 
ATOM     34  C   UNL     1      -0.088   2.644  -0.428  1.00  0.00     0.000 A 
ATOM     35  C   UNL     1       1.064   3.303  -0.001  1.00  0.00     0.000 A 
ENDBRANCH  29  30
ENDBRANCH  14  29
ENDBRANCH  11  14
ENDBRANCH   5  10
ENDBRANCH   3   5
ENDBRANCH   2   3
ENDBRANCH   1   2
BRANCH   1  36
ATOM     36  C   UNL     1       1.225  -8.784   0.336  1.00  0.00     0.202 C 
BRANCH  36  37
ATOM     37  O   UNL     1      -0.054  -8.620  -0.260  1.00  0.00    -0.374 OA
BRANCH  37  38
ATOM     38  C   UNL     1      -0.955  -7.685   0.333  1.00  0.00     0.202 C 
BRANCH  38  39
ATOM     39  C   UNL     1      -1.559  -8.079   1.685  1.00  0.00     0.261 C 
BRANCH  39  40
ATOM     40  O   UNL     1      -0.578  -8.063   2.742  1.00  0.00    -0.460 OA
BRANCH  40  41
ATOM     41  C   UNL     1      -0.364  -9.262   3.329  1.00  0.00     0.338 C 
ATOM     42  O   UNL     1      -0.936 -10.319   3.091  1.00  0.00    -0.246 OA
BRANCH  41  43
ATOM     43  C   UNL     1       0.803  -9.207   4.224  1.00  0.00     0.060 A 
ATOM     44  C   UNL     1       1.823 -10.144   4.011  1.00  0.00     0.016 A 
ATOM     45  C   UNL     1       0.830  -8.366   5.338  1.00  0.00     0.016 A 
ATOM     46  C   UNL     1       2.835 -10.299   4.954  1.00  0.00     0.010 A 
ATOM     47  C   UNL     1       1.843  -8.530   6.290  1.00  0.00     0.010 A 
ATOM     48  C   UNL     1       2.817  -9.532   6.126  1.00  0.00    -0.014 A 
BRANCH  48  49
ATOM     49  C   UNL     1       3.698  -9.925   7.253  1.00  0.00     0.031 A 
ATOM     50  C   UNL     1       3.131 -10.790   8.347  1.00  0.00     0.074 A 
ATOM     51  C   UNL     1       4.994  -9.570   7.273  1.00  0.00     0.049 A 
ATOM     52  N   UNL     1       3.712 -11.259   9.422  1.00  0.00    -0.248 NA
ATOM     53  C   UNL     1       1.719 -11.181   8.207  1.00  0.00     0.031 C 
ATOM     54  C   UNL     1       5.667  -8.778   6.248  1.00  0.00     0.029 A 
ATOM     55  N   UNL     1       5.975  -9.838   8.194  1.00  0.00    -0.354 N 
ATOM     56  C   UNL     1       2.738 -11.996  10.085  1.00  0.00     0.074 A 
ATOM     57  C   UNL     1       1.522 -11.888   9.309  1.00  0.00     0.031 C 
ATOM     58  C   UNL     1       6.955  -8.616   6.600  1.00  0.00     0.029 A 
ATOM     59  C   UNL     1       7.186  -9.272   7.886  1.00  0.00     0.049 A 
ATOM     60  H   UNL     1       5.824 -10.384   9.000  1.00  0.00     0.167 HD
ATOM     61  C   UNL     1       2.852 -12.707  11.232  1.00  0.00     0.037 A 
ATOM     62  C   UNL     1       8.344  -9.273   8.574  1.00  0.00     0.037 A 
ATOM     63  C   UNL     1       4.062 -12.818  12.000  1.00  0.00     0.049 A 
ATOM     64  C   UNL     1       8.427 -10.018   9.882  1.00  0.00     0.074 A 
ATOM     65  C   UNL     1       4.283 -13.525  13.169  1.00  0.00     0.029 A 
ATOM     66  N   UNL     1       5.260 -12.199  11.675  1.00  0.00    -0.354 N 
ATOM     67  N   UNL     1       7.507 -10.726  10.491  1.00  0.00    -0.248 NA
ATOM     68  C   UNL     1       9.711  -9.965  10.594  1.00  0.00     0.031 C 
ATOM     69  C   UNL     1       5.602 -13.297  13.576  1.00  0.00     0.029 A 
ATOM     70  C   UNL     1       6.217 -12.487  12.634  1.00  0.00     0.049 A 
ATOM     71  H   UNL     1       5.408 -11.636  10.881  1.00  0.00     0.167 HD
ATOM     72  C   UNL     1       8.107 -11.225  11.640  1.00  0.00     0.074 A 
ATOM     73  C   UNL     1       9.475 -10.748  11.637  1.00  0.00     0.031 C 
ATOM     74  C   UNL     1       7.575 -12.009  12.610  1.00  0.00     0.037 A 
BRANCH  61  75
ATOM     75  C   UNL     1       1.623 -13.403  11.738  1.00  0.00     0.064 A 
ATOM     76  C   UNL     1       1.112 -14.549  11.109  1.00  0.00     0.173 A 
ATOM     77  C   UNL     1       0.965 -12.936  12.885  1.00  0.00     0.173 A 
ATOM     78  F   UNL     1       1.696 -15.026   9.999  1.00  0.00    -0.203 F 
ATOM     79  C   UNL     1      -0.026 -15.187  11.597  1.00  0.00     0.198 A 
ATOM     80  C   UNL     1      -0.157 -13.591  13.386  1.00  0.00     0.198 A 
ATOM     81  F   UNL     1       1.414 -11.846  13.525  1.00  0.00    -0.203 F 
ATOM     82  F   UNL     1      -0.521 -16.254  10.956  1.00  0.00    -0.200 F 
ATOM     83  C   UNL     1      -0.655 -14.711  12.738  1.00  0.00     0.200 A 
ATOM     84  F   UNL     1      -0.758 -13.136  14.494  1.00  0.00    -0.200 F 
ATOM     85  F   UNL     1      -1.746 -15.329  13.210  1.00  0.00    -0.200 F 
ENDBRANCH  61  75
BRANCH  62  86
ATOM     86  C   UNL     1       9.521  -8.537   8.044  1.00  0.00     0.064 A 
ATOM     87  C   UNL     1      10.656  -9.219   7.587  1.00  0.00     0.173 A 
ATOM     88  C   UNL     1       9.538  -7.136   7.999  1.00  0.00     0.173 A 
ATOM     89  F   UNL     1      10.697 -10.559   7.633  1.00  0.00    -0.203 F 
ATOM     90  C   UNL     1      11.771  -8.526   7.118  1.00  0.00     0.198 A 
ATOM     91  C   UNL     1      10.642  -6.445   7.505  1.00  0.00     0.198 A 
ATOM     92  F   UNL     1       8.476  -6.436   8.426  1.00  0.00    -0.203 F 
ATOM     93  F   UNL     1      12.860  -9.201   6.725  1.00  0.00    -0.200 F 
ATOM     94  C   UNL     1      11.761  -7.140   7.072  1.00  0.00     0.200 A 
ATOM     95  F   UNL     1      10.622  -5.106   7.451  1.00  0.00    -0.200 F 
ATOM     96  F   UNL     1      12.831  -6.474   6.617  1.00  0.00    -0.200 F 
ENDBRANCH  62  86
BRANCH  74  97
ATOM     97  C   UNL     1       8.481 -12.428  13.731  1.00  0.00     0.064 A 
ATOM     98  C   UNL     1       8.889 -11.524  14.724  1.00  0.00     0.173 A 
ATOM     99  C   UNL     1       8.914 -13.758  13.835  1.00  0.00     0.173 A 
ATOM    100  F   UNL     1       8.514 -10.238  14.661  1.00  0.00    -0.203 F 
ATOM    101  C   UNL     1       9.718 -11.933  15.765  1.00  0.00     0.198 A 
ATOM    102  C   UNL     1       9.720 -14.170  14.892  1.00  0.00     0.198 A 
ATOM    103  F   UNL     1       8.545 -14.663  12.915  1.00  0.00    -0.203 F 
ATOM    104  F   UNL     1      10.133 -11.043  16.677  1.00  0.00    -0.200 F 
ATOM    105  C   UNL     1      10.127 -13.256  15.852  1.00  0.00     0.200 A 
ATOM    106  F   UNL     1      10.104 -15.451  14.982  1.00  0.00    -0.200 F 
ATOM    107  F   UNL     1      10.921 -13.648  16.858  1.00  0.00    -0.200 F 
ENDBRANCH  74  97
ENDBRANCH  48  49
ENDBRANCH  41  43
ENDBRANCH  40  41
ENDBRANCH  39  40
ENDBRANCH  38  39
ENDBRANCH  37  38
ENDBRANCH  36  37
ENDBRANCH   1  36
TORSDOF 25
