REMARK SMILES CCCc1cc(OC(F)(F)F)cc2c1O[C@@H](C(F)(F)F)C(C(=O)OCCOCCOC(=O)c1ccc(-c3c4nc(c(-c5c(F)c(F)c(F)c(F)c5F)c5ccc([nH]5)c(-c5c(F)c(F)c(F)c(F)c5F)c5nc(c(-c6c(F)c(F)c(F)c(F)c6F)c6ccc3[nH]6)C=C5)C=C4)cc1)=C2
REMARK SMILES IDX 27 1 26 2 25 3 24 4 22 5 23 6 21 7 4 8 5 9 14 10 6 11 13 12
REMARK SMILES IDX 15 13 12 14 96 15 16 16 3 17 2 18 1 19 7 20 8 21 9 22 10 23
REMARK SMILES IDX 11 24 17 25 18 26 19 27 20 28 28 29 29 30 30 31 31 32 32 33
REMARK SMILES IDX 33 34 34 35 95 36 35 37 94 38 36 39 37 40 38 41 88 42 39 43
REMARK SMILES IDX 93 44 87 45 89 46 40 47 92 48 86 49 85 50 41 52 73 53 53 54
REMARK SMILES IDX 72 55 54 56 57 57 71 58 90 59 55 60 56 61 70 63 91 64 58 65
REMARK SMILES IDX 42 66 43 67 51 68 44 69 45 70 49 71 52 72 46 73 47 74 50 75
REMARK SMILES IDX 48 76 74 77 75 78 83 79 76 80 77 81 81 82 84 83 78 84 79 85
REMARK SMILES IDX 82 86 80 87 59 88 60 89 68 90 61 91 62 92 66 93 69 94 63 95
REMARK SMILES IDX 64 96 67 97 65 98
REMARK H PARENT 89 51 57 62
REMARK Flexibility Score: inf
ROOT
ATOM      1  O   UNL     1      -7.304   1.661   4.451  1.00  0.00    -0.374 OA
ENDROOT
BRANCH   1   2
ATOM      2  C   UNL     1      -7.233   2.767   5.347  1.00  0.00     0.202 C 
BRANCH   2   3
ATOM      3  C   UNL     1      -6.015   2.837   6.272  1.00  0.00     0.261 C 
BRANCH   3   4
ATOM      4  O   UNL     1      -4.787   2.877   5.527  1.00  0.00    -0.460 OA
BRANCH   4   5
ATOM      5  C   UNL     1      -3.954   1.835   5.754  1.00  0.00     0.338 C 
ATOM      6  O   UNL     1      -4.079   0.979   6.619  1.00  0.00    -0.246 OA
BRANCH   5   7
ATOM      7  C   UNL     1      -2.892   1.781   4.740  1.00  0.00     0.087 C 
ATOM      8  C   UNL     1       0.692   1.144   2.708  1.00  0.00    -0.002 A 
ATOM      9  C   UNL     1       1.453   2.249   2.294  1.00  0.00     0.054 A 
ATOM     10  C   UNL     1      -0.522   1.371   3.366  1.00  0.00     0.131 A 
ATOM     11  C   UNL     1       1.013   3.554   2.530  1.00  0.00     0.130 A 
ATOM     12  C   UNL     1      -0.963   2.675   3.640  1.00  0.00     0.021 A 
ATOM     13  O   UNL     1      -1.217   0.269   3.799  1.00  0.00    -0.475 OA
ATOM     14  C   UNL     1      -0.200   3.760   3.200  1.00  0.00     0.058 A 
ATOM     15  C   UNL     1      -2.133   2.863   4.500  1.00  0.00     0.027 C 
ATOM     16  C   UNL     1      -2.635   0.488   4.001  1.00  0.00     0.316 C 
BRANCH   8  17
ATOM     17  C   UNL     1       1.188  -0.256   2.425  1.00  0.00     0.039 C 
BRANCH  17  18
ATOM     18  C   UNL     1       0.604  -0.862   1.146  1.00  0.00     0.001 C 
ATOM     19  C   UNL     1       1.070  -0.157  -0.121  1.00  0.00     0.004 C 
ENDBRANCH  17  18
ENDBRANCH   8  17
BRANCH  11  20
ATOM     20  O   UNL     1       1.669   4.699   2.175  1.00  0.00    -0.406 OA
BRANCH  20  21
ATOM     21  C   UNL     1       2.991   4.570   1.674  1.00  0.00     0.573 C 
ATOM     22  F   UNL     1       3.789   3.935   2.558  1.00  0.00    -0.132 F 
ATOM     23  F   UNL     1       3.002   3.906   0.498  1.00  0.00    -0.132 F 
ATOM     24  F   UNL     1       3.497   5.805   1.462  1.00  0.00    -0.132 F 
ENDBRANCH  20  21
ENDBRANCH  11  20
BRANCH  16  25
ATOM     25  C   UNL     1      -3.255  -0.810   4.546  1.00  0.00     0.430 C 
ATOM     26  F   UNL     1      -4.605  -0.724   4.594  1.00  0.00    -0.167 F 
ATOM     27  F   UNL     1      -2.980  -1.843   3.704  1.00  0.00    -0.167 F 
ATOM     28  F   UNL     1      -2.790  -1.158   5.761  1.00  0.00    -0.167 F 
ENDBRANCH  16  25
ENDBRANCH   5   7
ENDBRANCH   4   5
ENDBRANCH   3   4
ENDBRANCH   2   3
ENDBRANCH   1   2
BRANCH   1  29
ATOM     29  C   UNL     1      -6.455   1.668   3.305  1.00  0.00     0.202 C 
BRANCH  29  30
ATOM     30  C   UNL     1      -6.818   2.620   2.159  1.00  0.00     0.261 C 
BRANCH  30  31
ATOM     31  O   UNL     1      -6.766   4.004   2.548  1.00  0.00    -0.460 OA
BRANCH  31  32
ATOM     32  C   UNL     1      -7.969   4.623   2.582  1.00  0.00     0.338 C 
ATOM     33  O   UNL     1      -9.054   4.158   2.259  1.00  0.00    -0.246 OA
BRANCH  32  34
ATOM     34  C   UNL     1      -7.851   5.933   3.245  1.00  0.00     0.060 A 
ATOM     35  C   UNL     1      -8.694   6.183   4.335  1.00  0.00     0.016 A 
ATOM     36  C   UNL     1      -7.001   6.929   2.760  1.00  0.00     0.016 A 
ATOM     37  C   UNL     1      -8.727   7.448   4.915  1.00  0.00     0.010 A 
ATOM     38  C   UNL     1      -7.041   8.203   3.340  1.00  0.00     0.010 A 
ATOM     39  C   UNL     1      -7.930   8.477   4.395  1.00  0.00    -0.014 A 
BRANCH  39  40
ATOM     40  C   UNL     1      -8.135   9.864   4.877  1.00  0.00     0.031 A 
ATOM     41  C   UNL     1      -8.966  10.811   4.056  1.00  0.00     0.074 A 
ATOM     42  C   UNL     1      -7.625  10.259   6.056  1.00  0.00     0.049 A 
ATOM     43  N   UNL     1      -9.282  12.060   4.292  1.00  0.00    -0.248 NA
ATOM     44  C   UNL     1      -9.515  10.280   2.799  1.00  0.00     0.031 C 
ATOM     45  C   UNL     1      -6.831   9.423   6.954  1.00  0.00     0.029 A 
ATOM     46  N   UNL     1      -7.703  11.468   6.701  1.00  0.00    -0.354 N 
ATOM     47  C   UNL     1     -10.064  12.462   3.217  1.00  0.00     0.074 A 
ATOM     48  C   UNL     1     -10.146  11.338   2.309  1.00  0.00     0.031 C 
ATOM     49  C   UNL     1      -6.490  10.146   8.034  1.00  0.00     0.029 A 
ATOM     50  C   UNL     1      -7.020  11.500   7.891  1.00  0.00     0.049 A 
ATOM     51  H   UNL     1      -8.201  12.239   6.344  1.00  0.00     0.167 HD
ATOM     52  C   UNL     1     -10.669  13.656   3.012  1.00  0.00     0.037 A 
ATOM     53  C   UNL     1      -6.835  12.514   8.759  1.00  0.00     0.037 A 
ATOM     54  C   UNL     1     -10.587  14.773   3.918  1.00  0.00     0.049 A 
ATOM     55  C   UNL     1      -7.473  13.850   8.479  1.00  0.00     0.074 A 
ATOM     56  C   UNL     1     -11.176  16.020   3.807  1.00  0.00     0.029 A 
ATOM     57  N   UNL     1      -9.863  14.777   5.101  1.00  0.00    -0.354 N 
ATOM     58  N   UNL     1      -8.235  14.212   7.475  1.00  0.00    -0.248 NA
ATOM     59  C   UNL     1      -7.231  14.916   9.461  1.00  0.00     0.031 C 
ATOM     60  C   UNL     1     -10.769  16.795   4.899  1.00  0.00     0.029 A 
ATOM     61  C   UNL     1      -9.973  16.013   5.719  1.00  0.00     0.049 A 
ATOM     62  H   UNL     1      -9.348  14.015   5.451  1.00  0.00     0.167 HD
ATOM     63  C   UNL     1      -8.588  15.533   7.720  1.00  0.00     0.074 A 
ATOM     64  C   UNL     1      -7.970  15.903   8.975  1.00  0.00     0.031 C 
ATOM     65  C   UNL     1      -9.357  16.364   6.973  1.00  0.00     0.037 A 
BRANCH  52  66
ATOM     66  C   UNL     1     -11.460  13.826   1.748  1.00  0.00     0.064 A 
ATOM     67  C   UNL     1     -12.688  13.177   1.554  1.00  0.00     0.173 A 
ATOM     68  C   UNL     1     -11.002  14.681   0.733  1.00  0.00     0.173 A 
ATOM     69  F   UNL     1     -13.164  12.338   2.487  1.00  0.00    -0.203 F 
ATOM     70  C   UNL     1     -13.418  13.360   0.381  1.00  0.00     0.198 A 
ATOM     71  C   UNL     1     -11.748  14.883  -0.425  1.00  0.00     0.198 A 
ATOM     72  F   UNL     1      -9.835  15.328   0.870  1.00  0.00    -0.203 F 
ATOM     73  F   UNL     1     -14.568  12.695   0.199  1.00  0.00    -0.200 F 
ATOM     74  C   UNL     1     -12.952  14.218  -0.603  1.00  0.00     0.200 A 
ATOM     75  F   UNL     1     -11.302  15.722  -1.370  1.00  0.00    -0.200 F 
ATOM     76  F   UNL     1     -13.659  14.400  -1.726  1.00  0.00    -0.200 F 
ENDBRANCH  52  66
BRANCH  53  77
ATOM     77  C   UNL     1      -6.008  12.309   9.977  1.00  0.00     0.064 A 
ATOM     78  C   UNL     1      -6.582  12.329  11.255  1.00  0.00     0.173 A 
ATOM     79  C   UNL     1      -4.622  12.112   9.888  1.00  0.00     0.173 A 
ATOM     80  F   UNL     1      -7.900  12.539  11.393  1.00  0.00    -0.203 F 
ATOM     81  C   UNL     1      -5.800  12.184  12.399  1.00  0.00     0.198 A 
ATOM     82  C   UNL     1      -3.844  11.937  11.030  1.00  0.00     0.198 A 
ATOM     83  F   UNL     1      -4.023  12.085   8.688  1.00  0.00    -0.203 F 
ATOM     84  F   UNL     1      -6.367  12.259  13.610  1.00  0.00    -0.200 F 
ATOM     85  C   UNL     1      -4.432  11.982  12.285  1.00  0.00     0.200 A 
ATOM     86  F   UNL     1      -2.526  11.730  10.915  1.00  0.00    -0.200 F 
ATOM     87  F   UNL     1      -3.680  11.841  13.385  1.00  0.00    -0.200 F 
ENDBRANCH  53  77
BRANCH  65  88
ATOM     88  C   UNL     1      -9.605  17.743   7.516  1.00  0.00     0.064 A 
ATOM     89  C   UNL     1      -8.591  18.712   7.566  1.00  0.00     0.173 A 
ATOM     90  C   UNL     1     -10.882  18.106   7.972  1.00  0.00     0.173 A 
ATOM     91  F   UNL     1      -7.350  18.411   7.154  1.00  0.00    -0.203 F 
ATOM     92  C   UNL     1      -8.838  19.980   8.085  1.00  0.00     0.198 A 
ATOM     93  C   UNL     1     -11.133  19.385   8.460  1.00  0.00     0.198 A 
ATOM     94  F   UNL     1     -11.889  17.221   7.939  1.00  0.00    -0.203 F 
ATOM     95  F   UNL     1      -7.840  20.870   8.176  1.00  0.00    -0.200 F 
ATOM     96  C   UNL     1     -10.109  20.318   8.526  1.00  0.00     0.200 A 
ATOM     97  F   UNL     1     -12.365  19.714   8.872  1.00  0.00    -0.200 F 
ATOM     98  F   UNL     1     -10.344  21.539   9.024  1.00  0.00    -0.200 F 
ENDBRANCH  65  88
ENDBRANCH  39  40
ENDBRANCH  32  34
ENDBRANCH  31  32
ENDBRANCH  30  31
ENDBRANCH  29  30
ENDBRANCH   1  29
TORSDOF 19
