REMARK SMILES O=C(OCCOCCOC(=O)[C@]1([NH2+]C2CC2)CCC[C@H](SC2CCCCC2)C1)c1ccc(-c2c3nc(c(-c4c(F)c(F)c(F)c(F)c4F)c4ccc([nH]4)c(-c4c(F)c(F)c(F)c(F)c4F)c4nc(c(-c5c(F)c(F)c(F)c(F)c5F)c5ccc2[nH]5)C=C4)C=C3)cc1
REMARK SMILES IDX 6 1 5 2 4 3 3 4 2 5 1 6 29 7 30 8 91 9 31 10 90 11 32 12
REMARK SMILES IDX 33 13 34 14 84 15 35 16 89 17 83 18 85 19 36 20 88 21 82 22
REMARK SMILES IDX 81 23 37 25 69 26 49 27 68 28 50 29 53 30 67 31 86 32 51 33
REMARK SMILES IDX 52 34 66 36 87 37 54 38 38 39 39 40 47 41 40 42 41 43 45 44
REMARK SMILES IDX 48 45 42 46 43 47 46 48 44 49 70 50 71 51 79 52 72 53 73 54
REMARK SMILES IDX 77 55 80 56 74 57 75 58 78 59 76 60 55 61 56 62 64 63 57 64
REMARK SMILES IDX 58 65 62 66 65 67 59 68 60 69 63 70 61 71 7 72 8 73 9 74
REMARK SMILES IDX 10 75 11 76 12 77 17 78 28 79 18 80 20 81 19 82 13 83 14 86
REMARK SMILES IDX 15 87 16 88 21 89 22 90 23 91 27 92 24 93 26 94 25 95
REMARK H PARENT 85 24 53 35 13 84 13 85
REMARK Flexibility Score: inf
ROOT
ATOM      1  O   UNL     1       6.169  -1.440  -6.742  1.00  0.00    -0.374 OA
ENDROOT
BRANCH   1   2
ATOM      2  C   UNL     1       6.812  -1.415  -5.466  1.00  0.00     0.202 C 
BRANCH   2   3
ATOM      3  C   UNL     1       8.335  -1.309  -5.489  1.00  0.00     0.261 C 
BRANCH   3   4
ATOM      4  O   UNL     1       8.749  -0.175  -6.256  1.00  0.00    -0.460 OA
BRANCH   4   5
ATOM      5  C   UNL     1       8.600  -0.056  -7.596  1.00  0.00     0.338 C 
ATOM      6  O   UNL     1       8.573   1.070  -8.095  1.00  0.00    -0.246 OA
BRANCH   5   7
ATOM      7  C   UNL     1       8.587  -1.241  -8.512  1.00  0.00     0.060 A 
ATOM      8  C   UNL     1       8.128  -2.523  -8.188  1.00  0.00     0.016 A 
ATOM      9  C   UNL     1       9.027  -1.016  -9.826  1.00  0.00     0.016 A 
ATOM     10  C   UNL     1       8.075  -3.537  -9.110  1.00  0.00     0.010 A 
ATOM     11  C   UNL     1       9.012  -2.045 -10.767  1.00  0.00     0.010 A 
ATOM     12  C   UNL     1       8.538  -3.304 -10.392  1.00  0.00    -0.014 A 
BRANCH  12  13
ATOM     13  C   UNL     1       8.700  -4.504 -11.206  1.00  0.00     0.031 A 
ATOM     14  C   UNL     1      10.043  -5.154 -11.181  1.00  0.00     0.074 A 
ATOM     15  C   UNL     1       7.604  -5.101 -11.698  1.00  0.00     0.049 A 
ATOM     16  N   UNL     1      10.456  -6.224 -11.796  1.00  0.00    -0.248 NA
ATOM     17  C   UNL     1      11.057  -4.524 -10.313  1.00  0.00     0.031 C 
ATOM     18  C   UNL     1       6.231  -4.613 -11.530  1.00  0.00     0.029 A 
ATOM     19  N   UNL     1       7.464  -6.274 -12.378  1.00  0.00    -0.354 N 
ATOM     20  C   UNL     1      11.788  -6.364 -11.434  1.00  0.00     0.074 A 
ATOM     21  C   UNL     1      12.111  -5.293 -10.523  1.00  0.00     0.031 C 
ATOM     22  C   UNL     1       5.385  -5.496 -12.081  1.00  0.00     0.029 A 
ATOM     23  C   UNL     1       6.163  -6.558 -12.705  1.00  0.00     0.049 A 
ATOM     24  H   UNL     1       8.221  -6.858 -12.612  1.00  0.00     0.167 HD
ATOM     25  C   UNL     1      12.658  -7.301 -11.868  1.00  0.00     0.037 A 
ATOM     26  C   UNL     1       5.686  -7.555 -13.470  1.00  0.00     0.037 A 
ATOM     27  C   UNL     1      12.269  -8.343 -12.777  1.00  0.00     0.049 A 
ATOM     28  C   UNL     1       6.693  -8.515 -14.041  1.00  0.00     0.074 A 
ATOM     29  C   UNL     1      13.048  -9.305 -13.386  1.00  0.00     0.029 A 
ATOM     30  N   UNL     1      10.960  -8.548 -13.205  1.00  0.00    -0.354 N 
ATOM     31  N   UNL     1       7.987  -8.583 -13.822  1.00  0.00    -0.248 NA
ATOM     32  C   UNL     1       6.187  -9.517 -14.982  1.00  0.00     0.031 C 
ATOM     33  C   UNL     1      12.216 -10.059 -14.223  1.00  0.00     0.029 A 
ATOM     34  C   UNL     1      10.909  -9.610 -14.086  1.00  0.00     0.049 A 
ATOM     35  H   UNL     1      10.183  -8.013 -12.921  1.00  0.00     0.167 HD
ATOM     36  C   UNL     1       8.451  -9.647 -14.578  1.00  0.00     0.074 A 
ATOM     37  C   UNL     1       7.290 -10.203 -15.252  1.00  0.00     0.031 C 
ATOM     38  C   UNL     1       9.714 -10.126 -14.712  1.00  0.00     0.037 A 
BRANCH  25  39
ATOM     39  C   UNL     1      14.091  -7.129 -11.464  1.00  0.00     0.064 A 
ATOM     40  C   UNL     1      14.532  -7.315 -10.144  1.00  0.00     0.173 A 
ATOM     41  C   UNL     1      15.025  -6.671 -12.406  1.00  0.00     0.173 A 
ATOM     42  F   UNL     1      13.671  -7.709  -9.194  1.00  0.00    -0.203 F 
ATOM     43  C   UNL     1      15.841  -7.009  -9.776  1.00  0.00     0.198 A 
ATOM     44  C   UNL     1      16.340  -6.396 -12.042  1.00  0.00     0.198 A 
ATOM     45  F   UNL     1      14.654  -6.459 -13.677  1.00  0.00    -0.203 F 
ATOM     46  F   UNL     1      16.218  -7.115  -8.494  1.00  0.00    -0.200 F 
ATOM     47  C   UNL     1      16.744  -6.552 -10.725  1.00  0.00     0.200 A 
ATOM     48  F   UNL     1      17.209  -5.952 -12.960  1.00  0.00    -0.200 F 
ATOM     49  F   UNL     1      17.997  -6.239 -10.366  1.00  0.00    -0.200 F 
ENDBRANCH  25  39
BRANCH  26  50
ATOM     50  C   UNL     1       4.234  -7.641 -13.775  1.00  0.00     0.064 A 
ATOM     51  C   UNL     1       3.464  -8.731 -13.351  1.00  0.00     0.173 A 
ATOM     52  C   UNL     1       3.580  -6.628 -14.496  1.00  0.00     0.173 A 
ATOM     53  F   UNL     1       4.040  -9.736 -12.675  1.00  0.00    -0.203 F 
ATOM     54  C   UNL     1       2.103  -8.811 -13.645  1.00  0.00     0.198 A 
ATOM     55  C   UNL     1       2.215  -6.692 -14.762  1.00  0.00     0.198 A 
ATOM     56  F   UNL     1       4.268  -5.561 -14.931  1.00  0.00    -0.203 F 
ATOM     57  F   UNL     1       1.399  -9.885 -13.263  1.00  0.00    -0.200 F 
ATOM     58  C   UNL     1       1.478  -7.788 -14.344  1.00  0.00     0.200 A 
ATOM     59  F   UNL     1       1.615  -5.694 -15.426  1.00  0.00    -0.200 F 
ATOM     60  F   UNL     1       0.169  -7.864 -14.622  1.00  0.00    -0.200 F 
ENDBRANCH  26  50
BRANCH  38  61
ATOM     61  C   UNL     1       9.878 -11.340 -15.572  1.00  0.00     0.064 A 
ATOM     62  C   UNL     1       9.776 -11.275 -16.968  1.00  0.00     0.173 A 
ATOM     63  C   UNL     1      10.187 -12.575 -14.984  1.00  0.00     0.173 A 
ATOM     64  F   UNL     1       9.466 -10.117 -17.571  1.00  0.00    -0.203 F 
ATOM     65  C   UNL     1       9.952 -12.414 -17.746  1.00  0.00     0.198 A 
ATOM     66  C   UNL     1      10.397 -13.703 -15.766  1.00  0.00     0.198 A 
ATOM     67  F   UNL     1      10.302 -12.679 -13.651  1.00  0.00    -0.203 F 
ATOM     68  F   UNL     1       9.800 -12.345 -19.075  1.00  0.00    -0.200 F 
ATOM     69  C   UNL     1      10.271 -13.624 -17.145  1.00  0.00     0.200 A 
ATOM     70  F   UNL     1      10.722 -14.867 -15.187  1.00  0.00    -0.200 F 
ATOM     71  F   UNL     1      10.450 -14.718 -17.897  1.00  0.00    -0.200 F 
ENDBRANCH  38  61
ENDBRANCH  12  13
ENDBRANCH   5   7
ENDBRANCH   4   5
ENDBRANCH   3   4
ENDBRANCH   2   3
ENDBRANCH   1   2
BRANCH   1  72
ATOM     72  C   UNL     1       5.336  -0.316  -7.030  1.00  0.00     0.202 C 
BRANCH  72  73
ATOM     73  C   UNL     1       3.990  -0.464  -6.340  1.00  0.00     0.261 C 
BRANCH  73  74
ATOM     74  O   UNL     1       4.298  -0.655  -4.953  1.00  0.00    -0.459 OA
BRANCH  74  75
ATOM     75  C   UNL     1       3.690  -1.665  -4.304  1.00  0.00     0.368 C 
ATOM     76  O   UNL     1       2.686  -2.207  -4.760  1.00  0.00    -0.245 OA
BRANCH  75  77
ATOM     77  C   UNL     1       4.290  -1.914  -2.845  1.00  0.00     0.195 C 
ATOM     78  C   UNL     1       5.788  -2.235  -2.465  1.00  0.00     0.081 C 
ATOM     79  C   UNL     1       3.471  -3.160  -2.353  1.00  0.00     0.095 C 
ATOM     80  C   UNL     1       6.364  -3.659  -2.480  1.00  0.00     0.008 C 
ATOM     81  C   UNL     1       4.068  -4.556  -2.830  1.00  0.00     0.053 C 
ATOM     82  C   UNL     1       5.365  -4.717  -2.054  1.00  0.00     0.015 C 
BRANCH  77  83
ATOM     83  N   UNL     1       4.001  -0.586  -2.128  1.00  0.00    -0.330 N 
ATOM     84  H   UNL     1       3.981  -0.762  -1.123  1.00  0.00     0.347 HD
ATOM     85  H   UNL     1       3.108  -0.247  -2.487  1.00  0.00     0.347 HD
BRANCH  83  86
ATOM     86  C   UNL     1       5.020   0.500  -2.399  1.00  0.00     0.183 C 
ATOM     87  C   UNL     1       4.813   1.546  -3.468  1.00  0.00     0.071 C 
ATOM     88  C   UNL     1       4.756   1.933  -2.028  1.00  0.00     0.071 C 
ENDBRANCH  83  86
ENDBRANCH  77  83
BRANCH  81  89
ATOM     89  S   UNL     1       4.356  -4.692  -4.680  1.00  0.00    -0.155 SA
BRANCH  89  90
ATOM     90  C   UNL     1       5.083  -6.343  -5.069  1.00  0.00     0.047 C 
ATOM     91  C   UNL     1       6.582  -6.506  -4.771  1.00  0.00     0.014 C 
ATOM     92  C   UNL     1       4.237  -7.516  -4.580  1.00  0.00     0.014 C 
ATOM     93  C   UNL     1       7.117  -7.867  -5.232  1.00  0.00     0.001 C 
ATOM     94  C   UNL     1       4.801  -8.844  -5.094  1.00  0.00     0.001 C 
ATOM     95  C   UNL     1       6.266  -9.018  -4.704  1.00  0.00     0.000 C 
ENDBRANCH  89  90
ENDBRANCH  81  89
ENDBRANCH  75  77
ENDBRANCH  74  75
ENDBRANCH  73  74
ENDBRANCH  72  73
ENDBRANCH   1  72
TORSDOF 18
