REMARK SMILES Cc1nc(Nc2ccc(F)cc2)nc(OCC(=O)OCCOCCOC(=O)c2ccc(-c3c4nc(c(-c5c(F)c(F)c(F)c(F)c5F)c5ccc([nH]5)c(-c5c(F)c(F)c(F)c(F)c5F)c5nc(c(-c6c(F)c(F)c(F)c(F)c6F)c6ccc3[nH]6)C=C5)C=C4)cc2)c1CCO
REMARK SMILES IDX 20 1 19 2 17 3 18 4 16 5 15 6 14 7 1 8 2 9 3 10 91 11 4 12
REMARK SMILES IDX 13 13 92 14 93 15 94 16 5 18 6 20 7 21 12 22 8 23 11 24 9 25
REMARK SMILES IDX 10 26 21 27 22 28 23 29 24 30 25 31 26 32 27 33 28 34 29 35
REMARK SMILES IDX 90 36 30 37 89 38 31 39 32 40 33 41 83 42 34 43 88 44 82 45
REMARK SMILES IDX 84 46 35 47 87 48 81 49 80 50 36 52 68 53 48 54 67 55 49 56
REMARK SMILES IDX 52 57 66 58 85 59 50 60 51 61 65 63 86 64 53 65 37 66 38 67
REMARK SMILES IDX 46 68 39 69 40 70 44 71 47 72 41 73 42 74 45 75 43 76 69 77
REMARK SMILES IDX 70 78 78 79 71 80 72 81 76 82 79 83 73 84 74 85 77 86 75 87
REMARK SMILES IDX 54 88 55 89 63 90 56 91 57 92 61 93 64 94 58 95 59 96 62 97
REMARK SMILES IDX 60 98
REMARK H PARENT 94 17 5 19 84 51 52 62
REMARK Flexibility Score: inf
ROOT
ATOM      1  C   UNL     1       0.192  -4.483   3.390  1.00  0.00     0.261 C 
ENDROOT
BRANCH   1   2
ATOM      2  O   UNL     1       0.946  -3.766   2.386  1.00  0.00    -0.461 OA
BRANCH   2   3
ATOM      3  C   UNL     1       1.022  -4.380   1.173  1.00  0.00     0.344 C 
ATOM      4  O   UNL     1       0.496  -5.457   0.906  1.00  0.00    -0.248 OA
BRANCH   3   5
ATOM      5  C   UNL     1       1.877  -3.622   0.154  1.00  0.00     0.353 C 
BRANCH   5   6
ATOM      6  O   UNL     1       1.987  -2.224   0.116  1.00  0.00    -0.465 OA
BRANCH   6   7
ATOM      7  C   UNL     1       1.072  -1.325  -0.309  1.00  0.00     0.222 A 
ATOM      8  C   UNL     1      -2.457  -0.248  -1.097  1.00  0.00     0.067 C 
ATOM      9  C   UNL     1      -0.975  -0.324  -0.857  1.00  0.00     0.050 A 
ATOM     10  N   UNL     1      -0.441   0.891  -0.637  1.00  0.00    -0.218 NA
ATOM     11  C   UNL     1      -0.226  -1.505  -0.782  1.00  0.00     0.038 A 
ATOM     12  C   UNL     1       0.851   0.982  -0.339  1.00  0.00     0.230 A 
ATOM     13  N   UNL     1       1.613  -0.093  -0.157  1.00  0.00    -0.177 NA
BRANCH  11  14
ATOM     14  C   UNL     1      -0.828  -2.809  -1.235  1.00  0.00     0.071 C 
BRANCH  14  15
ATOM     15  C   UNL     1      -0.565  -3.114  -2.710  1.00  0.00     0.161 C 
BRANCH  15  16
ATOM     16  O   UNL     1       0.820  -3.297  -2.971  1.00  0.00    -0.396 OA
ATOM     17  H   UNL     1       1.300  -2.483  -2.752  1.00  0.00     0.210 HD
ENDBRANCH  15  16
ENDBRANCH  14  15
ENDBRANCH  11  14
BRANCH  12  18
ATOM     18  N   UNL     1       1.448   2.235  -0.248  1.00  0.00    -0.324 N 
ATOM     19  H   UNL     1       2.432   2.248  -0.233  1.00  0.00     0.170 HD
BRANCH  18  20
ATOM     20  C   UNL     1       0.812   3.478  -0.176  1.00  0.00     0.041 A 
ATOM     21  C   UNL     1      -0.157   3.732   0.808  1.00  0.00     0.029 A 
ATOM     22  C   UNL     1       1.077   4.466  -1.132  1.00  0.00     0.029 A 
ATOM     23  C   UNL     1      -0.841   4.948   0.843  1.00  0.00     0.041 A 
ATOM     24  C   UNL     1       0.371   5.673  -1.118  1.00  0.00     0.041 A 
ATOM     25  C   UNL     1      -0.579   5.903  -0.130  1.00  0.00     0.123 A 
ATOM     26  F   UNL     1      -1.258   7.058  -0.121  1.00  0.00    -0.207 F 
ENDBRANCH  18  20
ENDBRANCH  12  18
ENDBRANCH   6   7
ENDBRANCH   5   6
ENDBRANCH   3   5
ENDBRANCH   2   3
ENDBRANCH   1   2
BRANCH   1  27
ATOM     27  C   UNL     1      -0.803  -3.587   4.134  1.00  0.00     0.202 C 
BRANCH  27  28
ATOM     28  O   UNL     1      -1.949  -3.157   3.395  1.00  0.00    -0.374 OA
BRANCH  28  29
ATOM     29  C   UNL     1      -1.720  -2.293   2.286  1.00  0.00     0.202 C 
BRANCH  29  30
ATOM     30  C   UNL     1      -1.418  -0.831   2.620  1.00  0.00     0.261 C 
BRANCH  30  31
ATOM     31  O   UNL     1      -0.293  -0.696   3.489  1.00  0.00    -0.460 OA
BRANCH  31  32
ATOM     32  C   UNL     1      -0.566  -0.051   4.638  1.00  0.00     0.338 C 
ATOM     33  O   UNL     1      -1.601   0.525   4.960  1.00  0.00    -0.246 OA
BRANCH  32  34
ATOM     34  C   UNL     1       0.525  -0.291   5.579  1.00  0.00     0.060 A 
ATOM     35  C   UNL     1       0.207  -0.967   6.761  1.00  0.00     0.016 A 
ATOM     36  C   UNL     1       1.813   0.188   5.332  1.00  0.00     0.016 A 
ATOM     37  C   UNL     1       1.174  -1.112   7.743  1.00  0.00     0.010 A 
ATOM     38  C   UNL     1       2.782   0.050   6.323  1.00  0.00     0.010 A 
ATOM     39  C   UNL     1       2.447  -0.560   7.544  1.00  0.00    -0.014 A 
BRANCH  39  40
ATOM     40  C   UNL     1       3.353  -0.466   8.704  1.00  0.00     0.031 A 
ATOM     41  C   UNL     1       3.359   0.806   9.499  1.00  0.00     0.074 A 
ATOM     42  C   UNL     1       4.073  -1.534   9.081  1.00  0.00     0.049 A 
ATOM     43  N   UNL     1       4.013   1.098  10.591  1.00  0.00    -0.248 NA
ATOM     44  C   UNL     1       2.503   1.897   9.001  1.00  0.00     0.031 C 
ATOM     45  C   UNL     1       4.084  -2.823   8.392  1.00  0.00     0.029 A 
ATOM     46  N   UNL     1       4.918  -1.709  10.143  1.00  0.00    -0.354 N 
ATOM     47  C   UNL     1       3.640   2.395  10.915  1.00  0.00     0.074 A 
ATOM     48  C   UNL     1       2.735   2.854   9.887  1.00  0.00     0.031 C 
ATOM     49  C   UNL     1       4.888  -3.666   9.060  1.00  0.00     0.029 A 
ATOM     50  C   UNL     1       5.466  -2.965  10.205  1.00  0.00     0.049 A 
ATOM     51  H   UNL     1       5.114  -1.002  10.800  1.00  0.00     0.167 HD
ATOM     52  C   UNL     1       4.013   3.127  11.989  1.00  0.00     0.037 A 
ATOM     53  C   UNL     1       6.338  -3.481  11.091  1.00  0.00     0.037 A 
ATOM     54  C   UNL     1       4.922   2.653  12.997  1.00  0.00     0.049 A 
ATOM     55  C   UNL     1       6.797  -2.618  12.236  1.00  0.00     0.074 A 
ATOM     56  C   UNL     1       5.384   3.311  14.121  1.00  0.00     0.029 A 
ATOM     57  N   UNL     1       5.510   1.395  12.994  1.00  0.00    -0.354 N 
ATOM     58  N   UNL     1       6.440  -1.393  12.541  1.00  0.00    -0.248 NA
ATOM     59  C   UNL     1       7.775  -3.206  13.161  1.00  0.00     0.031 C 
ATOM     60  C   UNL     1       6.288   2.467  14.774  1.00  0.00     0.029 A 
ATOM     61  C   UNL     1       6.348   1.264  14.087  1.00  0.00     0.049 A 
ATOM     62  H   UNL     1       5.353   0.699  12.315  1.00  0.00     0.167 HD
ATOM     63  C   UNL     1       7.132  -1.068  13.699  1.00  0.00     0.074 A 
ATOM     64  C   UNL     1       7.920  -2.232  14.051  1.00  0.00     0.031 C 
ATOM     65  C   UNL     1       7.118   0.088  14.408  1.00  0.00     0.037 A 
BRANCH  52  66
ATOM     66  C   UNL     1       3.454   4.513  12.118  1.00  0.00     0.064 A 
ATOM     67  C   UNL     1       4.281   5.633  11.942  1.00  0.00     0.173 A 
ATOM     68  C   UNL     1       2.111   4.735  12.454  1.00  0.00     0.173 A 
ATOM     69  F   UNL     1       5.573   5.476  11.618  1.00  0.00    -0.203 F 
ATOM     70  C   UNL     1       3.785   6.923  12.111  1.00  0.00     0.198 A 
ATOM     71  C   UNL     1       1.612   6.027  12.597  1.00  0.00     0.198 A 
ATOM     72  F   UNL     1       1.274   3.698  12.614  1.00  0.00    -0.203 F 
ATOM     73  F   UNL     1       4.600   7.977  11.964  1.00  0.00    -0.200 F 
ATOM     74  C   UNL     1       2.451   7.120  12.435  1.00  0.00     0.200 A 
ATOM     75  F   UNL     1       0.316   6.216  12.884  1.00  0.00    -0.200 F 
ATOM     76  F   UNL     1       1.973   8.362  12.585  1.00  0.00    -0.200 F 
ENDBRANCH  52  66
BRANCH  53  77
ATOM     77  C   UNL     1       6.806  -4.881  10.930  1.00  0.00     0.064 A 
ATOM     78  C   UNL     1       7.625  -5.253   9.852  1.00  0.00     0.173 A 
ATOM     79  C   UNL     1       6.409  -5.885  11.823  1.00  0.00     0.173 A 
ATOM     80  F   UNL     1       8.031  -4.331   8.967  1.00  0.00    -0.203 F 
ATOM     81  C   UNL     1       8.008  -6.579   9.662  1.00  0.00     0.198 A 
ATOM     82  C   UNL     1       6.814  -7.207  11.645  1.00  0.00     0.198 A 
ATOM     83  F   UNL     1       5.642  -5.576  12.878  1.00  0.00    -0.203 F 
ATOM     84  F   UNL     1       8.758  -6.912   8.602  1.00  0.00    -0.200 F 
ATOM     85  C   UNL     1       7.604  -7.555  10.560  1.00  0.00     0.200 A 
ATOM     86  F   UNL     1       6.438  -8.144  12.526  1.00  0.00    -0.200 F 
ATOM     87  F   UNL     1       7.976  -8.829  10.379  1.00  0.00    -0.200 F 
ENDBRANCH  53  77
BRANCH  65  88
ATOM     88  C   UNL     1       7.967   0.151  15.642  1.00  0.00     0.064 A 
ATOM     89  C   UNL     1       7.371   0.181  16.912  1.00  0.00     0.173 A 
ATOM     90  C   UNL     1       9.361   0.277  15.562  1.00  0.00     0.173 A 
ATOM     91  F   UNL     1       6.040   0.075  17.037  1.00  0.00    -0.203 F 
ATOM     92  C   UNL     1       8.141   0.352  18.058  1.00  0.00     0.198 A 
ATOM     93  C   UNL     1      10.130   0.420  16.713  1.00  0.00     0.198 A 
ATOM     94  F   UNL     1       9.975   0.244  14.370  1.00  0.00    -0.203 F 
ATOM     95  F   UNL     1       7.548   0.417  19.258  1.00  0.00    -0.200 F 
ATOM     96  C   UNL     1       9.519   0.469  17.958  1.00  0.00     0.200 A 
ATOM     97  F   UNL     1      11.464   0.510  16.618  1.00  0.00    -0.200 F 
ATOM     98  F   UNL     1      10.260   0.627  19.063  1.00  0.00    -0.200 F 
ENDBRANCH  65  88
ENDBRANCH  39  40
ENDBRANCH  32  34
ENDBRANCH  31  32
ENDBRANCH  30  31
ENDBRANCH  29  30
ENDBRANCH  28  29
ENDBRANCH  27  28
ENDBRANCH   1  27
TORSDOF 21
