REMARK SMILES CN(c1ccccc1)c1nc(OCC(=O)OCCOCCOC(=O)c2ccc(-c3c4nc(c(-c5c(F)c(F)c(F)c(F)c5F)c5ccc([nH]5)c(-c5c(F)c(F)c(F)c(F)c5F)c5nc(c(-c6c(F)c(F)c(F)c(F)c6F)c6ccc3[nH]6)C=C5)C=C4)cc2)cc(-c2ccncc2)n1
REMARK SMILES IDX 18 1 17 2 16 3 14 4 15 5 13 6 12 7 11 8 9 9 10 10 96 11
REMARK SMILES IDX 89 12 88 13 2 14 1 15 3 16 4 17 8 18 5 19 7 20 6 21 90 22
REMARK SMILES IDX 91 23 95 24 92 25 94 26 93 27 19 28 20 29 21 30 22 31 23 32
REMARK SMILES IDX 24 33 25 34 26 35 87 36 27 37 86 38 28 39 29 40 30 41 80 42
REMARK SMILES IDX 31 43 85 44 79 45 81 46 32 47 84 48 78 49 77 50 33 52 65 53
REMARK SMILES IDX 45 54 64 55 46 56 49 57 63 58 82 59 47 60 48 61 62 63 83 64
REMARK SMILES IDX 50 65 34 66 35 67 43 68 36 69 37 70 41 71 44 72 38 73 39 74
REMARK SMILES IDX 42 75 40 76 66 77 67 78 75 79 68 80 69 81 73 82 76 83 70 84
REMARK SMILES IDX 71 85 74 86 72 87 51 88 52 89 60 90 53 91 54 92 58 93 61 94
REMARK SMILES IDX 55 95 56 96 59 97 57 98
REMARK H PARENT 81 51 49 62
REMARK Flexibility Score: inf
ROOT
ATOM      1  C   UNL     1       0.266   6.488  -5.000  1.00  0.00     0.202 C 
ENDROOT
BRANCH   1   2
ATOM      2  C   UNL     1      -0.586   5.905  -6.140  1.00  0.00     0.261 C 
BRANCH   2   3
ATOM      3  O   UNL     1      -0.750   4.469  -6.050  1.00  0.00    -0.461 OA
BRANCH   3   4
ATOM      4  C   UNL     1      -0.325   3.751  -7.132  1.00  0.00     0.344 C 
ATOM      5  O   UNL     1       0.044   4.247  -8.192  1.00  0.00    -0.248 OA
BRANCH   4   6
ATOM      6  C   UNL     1      -0.318   2.232  -6.907  1.00  0.00     0.353 C 
BRANCH   6   7
ATOM      7  O   UNL     1      -0.398   1.723  -5.595  1.00  0.00    -0.466 OA
BRANCH   7   8
ATOM      8  C   UNL     1       0.675   1.191  -4.945  1.00  0.00     0.219 A 
ATOM      9  C   UNL     1       1.191   0.166  -2.929  1.00  0.00     0.233 A 
ATOM     10  N   UNL     1       0.283   0.526  -3.851  1.00  0.00    -0.177 NA
ATOM     11  N   UNL     1       2.488   0.491  -3.041  1.00  0.00    -0.212 NA
ATOM     12  C   UNL     1       2.893   1.093  -4.181  1.00  0.00     0.080 A 
ATOM     13  C   UNL     1       2.007   1.430  -5.201  1.00  0.00     0.097 A 
BRANCH   9  14
ATOM     14  N   UNL     1       0.743  -0.572  -1.821  1.00  0.00    -0.314 N 
ATOM     15  C   UNL     1       1.209  -0.072  -0.537  1.00  0.00     0.153 C 
BRANCH  14  16
ATOM     16  C   UNL     1      -0.250  -1.564  -1.879  1.00  0.00     0.043 A 
ATOM     17  C   UNL     1      -0.274  -2.447  -2.976  1.00  0.00     0.026 A 
ATOM     18  C   UNL     1      -1.229  -1.743  -0.891  1.00  0.00     0.026 A 
ATOM     19  C   UNL     1      -1.219  -3.468  -3.083  1.00  0.00     0.002 A 
ATOM     20  C   UNL     1      -2.188  -2.761  -1.000  1.00  0.00     0.002 A 
ATOM     21  C   UNL     1      -2.179  -3.624  -2.093  1.00  0.00     0.000 A 
ENDBRANCH  14  16
ENDBRANCH   9  14
BRANCH  12  22
ATOM     22  C   UNL     1       4.323   1.459  -4.204  1.00  0.00     0.004 A 
ATOM     23  C   UNL     1       4.771   2.754  -3.910  1.00  0.00     0.030 A 
ATOM     24  C   UNL     1       5.309   0.508  -4.466  1.00  0.00     0.030 A 
ATOM     25  C   UNL     1       6.119   3.068  -3.972  1.00  0.00     0.111 A 
ATOM     26  C   UNL     1       6.642   0.904  -4.486  1.00  0.00     0.111 A 
ATOM     27  N   UNL     1       7.066   2.168  -4.269  1.00  0.00    -0.265 NA
ENDBRANCH  12  22
ENDBRANCH   7   8
ENDBRANCH   6   7
ENDBRANCH   4   6
ENDBRANCH   3   4
ENDBRANCH   2   3
ENDBRANCH   1   2
BRANCH   1  28
ATOM     28  O   UNL     1       1.621   6.052  -4.906  1.00  0.00    -0.374 OA
BRANCH  28  29
ATOM     29  C   UNL     1       1.834   4.673  -4.665  1.00  0.00     0.202 C 
BRANCH  29  30
ATOM     30  C   UNL     1       1.573   4.126  -3.260  1.00  0.00     0.261 C 
BRANCH  30  31
ATOM     31  O   UNL     1       0.499   4.734  -2.588  1.00  0.00    -0.460 OA
BRANCH  31  32
ATOM     32  C   UNL     1       0.903   5.540  -1.591  1.00  0.00     0.338 C 
ATOM     33  O   UNL     1       2.032   5.807  -1.212  1.00  0.00    -0.246 OA
BRANCH  32  34
ATOM     34  C   UNL     1      -0.306   6.168  -1.105  1.00  0.00     0.060 A 
ATOM     35  C   UNL     1      -0.363   7.557  -1.174  1.00  0.00     0.016 A 
ATOM     36  C   UNL     1      -1.366   5.383  -0.637  1.00  0.00     0.016 A 
ATOM     37  C   UNL     1      -1.493   8.188  -0.704  1.00  0.00     0.010 A 
ATOM     38  C   UNL     1      -2.505   6.017  -0.181  1.00  0.00     0.010 A 
ATOM     39  C   UNL     1      -2.542   7.418  -0.178  1.00  0.00    -0.014 A 
BRANCH  39  40
ATOM     40  C   UNL     1      -3.626   8.122   0.510  1.00  0.00     0.031 A 
ATOM     41  C   UNL     1      -3.579   8.206   2.001  1.00  0.00     0.074 A 
ATOM     42  C   UNL     1      -4.560   8.738  -0.227  1.00  0.00     0.049 A 
ATOM     43  N   UNL     1      -4.354   8.870   2.813  1.00  0.00    -0.248 NA
ATOM     44  C   UNL     1      -2.515   7.438   2.671  1.00  0.00     0.031 C 
ATOM     45  C   UNL     1      -4.639   8.699  -1.688  1.00  0.00     0.029 A 
ATOM     46  N   UNL     1      -5.601   9.535   0.151  1.00  0.00    -0.354 N 
ATOM     47  C   UNL     1      -3.867   8.609   4.085  1.00  0.00     0.074 A 
ATOM     48  C   UNL     1      -2.764   7.686   3.947  1.00  0.00     0.031 C 
ATOM     49  C   UNL     1      -5.665   9.466  -2.087  1.00  0.00     0.029 A 
ATOM     50  C   UNL     1      -6.321  10.022  -0.908  1.00  0.00     0.049 A 
ATOM     51  H   UNL     1      -5.812   9.740   1.090  1.00  0.00     0.167 HD
ATOM     52  C   UNL     1      -4.302   9.118   5.260  1.00  0.00     0.037 A 
ATOM     53  C   UNL     1      -7.393  10.833  -0.905  1.00  0.00     0.037 A 
ATOM     54  C   UNL     1      -5.412  10.028   5.356  1.00  0.00     0.049 A 
ATOM     55  C   UNL     1      -7.885  11.345   0.421  1.00  0.00     0.074 A 
ATOM     56  C   UNL     1      -5.950  10.623   6.480  1.00  0.00     0.029 A 
ATOM     57  N   UNL     1      -6.162  10.465   4.270  1.00  0.00    -0.354 N 
ATOM     58  N   UNL     1      -7.403  11.129   1.623  1.00  0.00    -0.248 NA
ATOM     59  C   UNL     1      -9.061  12.219   0.390  1.00  0.00     0.031 C 
ATOM     60  C   UNL     1      -7.060  11.375   6.081  1.00  0.00     0.029 A 
ATOM     61  C   UNL     1      -7.179  11.299   4.700  1.00  0.00     0.049 A 
ATOM     62  H   UNL     1      -5.995  10.217   3.332  1.00  0.00     0.167 HD
ATOM     63  C   UNL     1      -8.205  11.852   2.493  1.00  0.00     0.074 A 
ATOM     64  C   UNL     1      -9.188  12.534   1.671  1.00  0.00     0.031 C 
ATOM     65  C   UNL     1      -8.146  11.945   3.846  1.00  0.00     0.037 A 
BRANCH  52  66
ATOM     66  C   UNL     1      -3.601   8.669   6.508  1.00  0.00     0.064 A 
ATOM     67  C   UNL     1      -2.275   9.039   6.788  1.00  0.00     0.173 A 
ATOM     68  C   UNL     1      -4.259   7.845   7.432  1.00  0.00     0.173 A 
ATOM     69  F   UNL     1      -1.590   9.805   5.926  1.00  0.00    -0.203 F 
ATOM     70  C   UNL     1      -1.627   8.575   7.931  1.00  0.00     0.198 A 
ATOM     71  C   UNL     1      -3.618   7.409   8.589  1.00  0.00     0.198 A 
ATOM     72  F   UNL     1      -5.523   7.455   7.211  1.00  0.00    -0.203 F 
ATOM     73  F   UNL     1      -0.342   8.892   8.146  1.00  0.00    -0.200 F 
ATOM     74  C   UNL     1      -2.300   7.766   8.833  1.00  0.00     0.200 A 
ATOM     75  F   UNL     1      -4.273   6.633   9.463  1.00  0.00    -0.200 F 
ATOM     76  F   UNL     1      -1.676   7.320   9.932  1.00  0.00    -0.200 F 
ENDBRANCH  52  66
BRANCH  53  77
ATOM     77  C   UNL     1      -8.036  11.209  -2.187  1.00  0.00     0.064 A 
ATOM     78  C   UNL     1      -7.979  12.522  -2.671  1.00  0.00     0.173 A 
ATOM     79  C   UNL     1      -8.698  10.252  -2.973  1.00  0.00     0.173 A 
ATOM     80  F   UNL     1      -7.366  13.474  -1.952  1.00  0.00    -0.203 F 
ATOM     81  C   UNL     1      -8.573  12.868  -3.883  1.00  0.00     0.198 A 
ATOM     82  C   UNL     1      -9.265  10.593  -4.198  1.00  0.00     0.198 A 
ATOM     83  F   UNL     1      -8.771   8.978  -2.561  1.00  0.00    -0.203 F 
ATOM     84  F   UNL     1      -8.534  14.139  -4.305  1.00  0.00    -0.200 F 
ATOM     85  C   UNL     1      -9.209  11.903  -4.649  1.00  0.00     0.200 A 
ATOM     86  F   UNL     1      -9.861   9.652  -4.943  1.00  0.00    -0.200 F 
ATOM     87  F   UNL     1      -9.769  12.235  -5.819  1.00  0.00    -0.200 F 
ENDBRANCH  53  77
BRANCH  65  88
ATOM     88  C   UNL     1      -9.170  12.824   4.502  1.00  0.00     0.064 A 
ATOM     89  C   UNL     1     -10.524  12.460   4.553  1.00  0.00     0.173 A 
ATOM     90  C   UNL     1      -8.788  14.034   5.099  1.00  0.00     0.173 A 
ATOM     91  F   UNL     1     -10.939  11.318   3.983  1.00  0.00    -0.203 F 
ATOM     92  C   UNL     1     -11.465  13.297   5.143  1.00  0.00     0.198 A 
ATOM     93  C   UNL     1      -9.727  14.850   5.721  1.00  0.00     0.198 A 
ATOM     94  F   UNL     1      -7.504  14.421   5.085  1.00  0.00    -0.203 F 
ATOM     95  F   UNL     1     -12.762  12.961   5.123  1.00  0.00    -0.200 F 
ATOM     96  C   UNL     1     -11.065  14.488   5.732  1.00  0.00     0.200 A 
ATOM     97  F   UNL     1      -9.337  15.992   6.304  1.00  0.00    -0.200 F 
ATOM     98  F   UNL     1     -11.973  15.292   6.301  1.00  0.00    -0.200 F 
ENDBRANCH  65  88
ENDBRANCH  39  40
ENDBRANCH  32  34
ENDBRANCH  31  32
ENDBRANCH  30  31
ENDBRANCH  29  30
ENDBRANCH  28  29
ENDBRANCH   1  28
TORSDOF 19
