REMARK SMILES COc1cc(C[N@@H+]2CCC[C@@](O)(CO)C2)cc(Cl)c1OCC(=O)OCCOCCOC(=O)c1ccc(-c2c3nc(c(-c4c(F)c(F)c(F)c(F)c4F)c4ccc([nH]4)c(-c4c(F)c(F)c(F)c(F)c4F)c4nc(c(-c5c(F)c(F)c(F)c(F)c5F)c5ccc2[nH]5)C=C4)C=C3)cc1
REMARK SMILES IDX 25 1 24 2 22 3 23 4 21 5 20 6 19 7 3 8 4 9 5 10 17 11 16 12
REMARK SMILES IDX 18 13 2 14 1 15 6 16 7 17 8 18 15 19 9 21 11 22 10 23 13 24
REMARK SMILES IDX 14 25 12 27 26 29 27 30 28 31 29 32 30 33 31 34 32 35 33 36
REMARK SMILES IDX 34 37 95 38 35 39 94 40 36 41 37 42 38 43 88 44 39 45 93 46
REMARK SMILES IDX 87 47 89 48 40 49 92 50 86 51 85 52 41 54 73 55 53 56 72 57
REMARK SMILES IDX 54 58 57 59 71 60 90 61 55 62 56 63 70 65 91 66 58 67 42 68
REMARK SMILES IDX 43 69 51 70 44 71 45 72 49 73 52 74 46 75 47 76 50 77 48 78
REMARK SMILES IDX 74 79 75 80 83 81 76 82 77 83 81 84 84 85 78 86 79 87 82 88
REMARK SMILES IDX 80 89 59 90 60 91 68 92 61 93 62 94 66 95 69 96 63 97 64 98
REMARK SMILES IDX 67 99 65 100
REMARK H PARENT 7 20 14 26 12 28 89 53 57 64
REMARK Flexibility Score: inf
ROOT
ATOM      1  C   UNL     1      -3.776  -5.332   0.007  1.00  0.00     0.261 C 
ENDROOT
BRANCH   1   2
ATOM      2  O   UNL     1      -3.017  -4.372   0.787  1.00  0.00    -0.461 OA
BRANCH   2   3
ATOM      3  C   UNL     1      -3.244  -4.420   2.136  1.00  0.00     0.344 C 
ATOM      4  O   UNL     1      -3.994  -5.229   2.677  1.00  0.00    -0.248 OA
BRANCH   3   5
ATOM      5  C   UNL     1      -2.564  -3.300   2.947  1.00  0.00     0.352 C 
BRANCH   5   6
ATOM      6  O   UNL     1      -1.422  -2.578   2.559  1.00  0.00    -0.476 OA
BRANCH   6   7
ATOM      7  C   UNL     1      -0.134  -2.954   2.823  1.00  0.00     0.180 A 
ATOM      8  C   UNL     1       0.796  -1.906   2.692  1.00  0.00     0.162 A 
ATOM      9  C   UNL     1       2.166  -2.149   2.534  1.00  0.00     0.060 A 
ATOM     10  C   UNL     1       2.638  -3.462   2.442  1.00  0.00     0.012 A 
ATOM     11  C   UNL     1       0.390  -4.226   3.056  1.00  0.00     0.087 A 
ATOM     12  C   UNL     1       1.756  -4.486   2.807  1.00  0.00     0.034 A 
ATOM     13  Cl  UNL     1      -0.515  -5.543   3.708  1.00  0.00    -0.080 Cl
BRANCH   8  14
ATOM     14  O   UNL     1       0.383  -0.610   2.898  1.00  0.00    -0.493 OA
ATOM     15  C   UNL     1       0.094   0.087   1.694  1.00  0.00     0.278 C 
ENDBRANCH   8  14
BRANCH  10  16
ATOM     16  C   UNL     1       4.018  -3.763   1.872  1.00  0.00     0.299 C 
BRANCH  16  17
ATOM     17  N   UNL     1       3.995  -3.558   0.436  1.00  0.00    -0.329 N 
ATOM     18  C   UNL     1       3.977  -4.677  -0.484  1.00  0.00     0.262 C 
ATOM     19  C   UNL     1       4.500  -2.319  -0.132  1.00  0.00     0.300 C 
ATOM     20  H   UNL     1       2.995  -3.383   0.538  1.00  0.00     0.348 HD
ATOM     21  C   UNL     1       3.086  -4.317  -1.681  1.00  0.00     0.065 C 
ATOM     22  C   UNL     1       3.546  -1.854  -1.258  1.00  0.00     0.136 C 
ATOM     23  C   UNL     1       3.420  -2.965  -2.316  1.00  0.00     0.049 C 
BRANCH  22  24
ATOM     24  C   UNL     1       2.180  -1.479  -0.649  1.00  0.00     0.197 C 
BRANCH  24  25
ATOM     25  O   UNL     1       1.293  -0.952  -1.636  1.00  0.00    -0.393 OA
ATOM     26  H   UNL     1       1.677  -0.147  -2.019  1.00  0.00     0.210 HD
ENDBRANCH  24  25
ENDBRANCH  22  24
BRANCH  22  27
ATOM     27  O   UNL     1       4.075  -0.680  -1.888  1.00  0.00    -0.382 OA
ATOM     28  H   UNL     1       4.938  -0.886  -2.282  1.00  0.00     0.211 HD
ENDBRANCH  22  27
ENDBRANCH  16  17
ENDBRANCH  10  16
ENDBRANCH   6   7
ENDBRANCH   5   6
ENDBRANCH   3   5
ENDBRANCH   2   3
ENDBRANCH   1   2
BRANCH   1  29
ATOM     29  C   UNL     1      -2.953  -6.294  -0.870  1.00  0.00     0.202 C 
BRANCH  29  30
ATOM     30  O   UNL     1      -1.980  -7.130  -0.253  1.00  0.00    -0.374 OA
BRANCH  30  31
ATOM     31  C   UNL     1      -0.942  -6.487   0.467  1.00  0.00     0.202 C 
BRANCH  31  32
ATOM     32  C   UNL     1       0.115  -5.718  -0.325  1.00  0.00     0.261 C 
BRANCH  32  33
ATOM     33  O   UNL     1      -0.410  -4.872  -1.355  1.00  0.00    -0.460 OA
BRANCH  33  34
ATOM     34  C   UNL     1      -0.147  -5.314  -2.611  1.00  0.00     0.338 C 
ATOM     35  O   UNL     1       0.491  -6.297  -2.937  1.00  0.00    -0.246 OA
BRANCH  34  36
ATOM     36  C   UNL     1      -0.864  -4.483  -3.587  1.00  0.00     0.060 A 
ATOM     37  C   UNL     1      -1.706  -5.139  -4.490  1.00  0.00     0.016 A 
ATOM     38  C   UNL     1      -0.661  -3.104  -3.664  1.00  0.00     0.016 A 
ATOM     39  C   UNL     1      -2.335  -4.413  -5.495  1.00  0.00     0.010 A 
ATOM     40  C   UNL     1      -1.291  -2.377  -4.673  1.00  0.00     0.010 A 
ATOM     41  C   UNL     1      -2.113  -3.034  -5.602  1.00  0.00    -0.014 A 
BRANCH  41  42
ATOM     42  C   UNL     1      -2.709  -2.289  -6.729  1.00  0.00     0.031 A 
ATOM     43  C   UNL     1      -1.881  -1.994  -7.942  1.00  0.00     0.074 A 
ATOM     44  C   UNL     1      -3.992  -1.899  -6.647  1.00  0.00     0.049 A 
ATOM     45  N   UNL     1      -2.213  -1.357  -9.035  1.00  0.00    -0.248 NA
ATOM     46  C   UNL     1      -0.491  -2.478  -7.923  1.00  0.00     0.031 C 
ATOM     47  C   UNL     1      -4.875  -2.156  -5.510  1.00  0.00     0.029 A 
ATOM     48  N   UNL     1      -4.772  -1.199  -7.529  1.00  0.00    -0.354 N 
ATOM     49  C   UNL     1      -1.080  -1.371  -9.836  1.00  0.00     0.074 A 
ATOM     50  C   UNL     1      -0.039  -2.047  -9.093  1.00  0.00     0.031 C 
ATOM     51  C   UNL     1      -6.076  -1.609  -5.758  1.00  0.00     0.029 A 
ATOM     52  C   UNL     1      -6.034  -0.942  -7.056  1.00  0.00     0.049 A 
ATOM     53  H   UNL     1      -4.458  -0.910  -8.416  1.00  0.00     0.167 HD
ATOM     54  C   UNL     1      -0.933  -0.868 -11.085  1.00  0.00     0.037 A 
ATOM     55  C   UNL     1      -7.032  -0.226  -7.606  1.00  0.00     0.037 A 
ATOM     56  C   UNL     1      -1.981  -0.185 -11.800  1.00  0.00     0.049 A 
ATOM     57  C   UNL     1      -6.818   0.385  -8.964  1.00  0.00     0.074 A 
ATOM     58  C   UNL     1      -1.959   0.330 -13.083  1.00  0.00     0.029 A 
ATOM     59  N   UNL     1      -3.237   0.091 -11.277  1.00  0.00    -0.354 N 
ATOM     60  N   UNL     1      -5.766   0.316  -9.743  1.00  0.00    -0.248 NA
ATOM     61  C   UNL     1      -7.926   1.173  -9.519  1.00  0.00     0.031 C 
ATOM     62  C   UNL     1      -3.182   0.968 -13.316  1.00  0.00     0.029 A 
ATOM     63  C   UNL     1      -3.986   0.807 -12.197  1.00  0.00     0.049 A 
ATOM     64  H   UNL     1      -3.550  -0.181 -10.385  1.00  0.00     0.167 HD
ATOM     65  C   UNL     1      -6.087   1.036 -10.885  1.00  0.00     0.074 A 
ATOM     66  C   UNL     1      -7.442   1.518 -10.704  1.00  0.00     0.031 C 
ATOM     67  C   UNL     1      -5.330   1.280 -11.983  1.00  0.00     0.037 A 
BRANCH  54  68
ATOM     68  C   UNL     1       0.406  -1.016 -11.745  1.00  0.00     0.064 A 
ATOM     69  C   UNL     1       0.875  -2.260 -12.193  1.00  0.00     0.173 A 
ATOM     70  C   UNL     1       1.218   0.107 -11.969  1.00  0.00     0.173 A 
ATOM     71  F   UNL     1       0.143  -3.368 -11.995  1.00  0.00    -0.203 F 
ATOM     72  C   UNL     1       2.114  -2.379 -12.818  1.00  0.00     0.198 A 
ATOM     73  C   UNL     1       2.445  -0.011 -12.617  1.00  0.00     0.198 A 
ATOM     74  F   UNL     1       0.817   1.322 -11.565  1.00  0.00    -0.203 F 
ATOM     75  F   UNL     1       2.558  -3.584 -13.200  1.00  0.00    -0.200 F 
ATOM     76  C   UNL     1       2.895  -1.254 -13.035  1.00  0.00     0.200 A 
ATOM     77  F   UNL     1       3.192   1.080 -12.837  1.00  0.00    -0.200 F 
ATOM     78  F   UNL     1       4.084  -1.368 -13.643  1.00  0.00    -0.200 F 
ENDBRANCH  54  68
BRANCH  55  79
ATOM     79  C   UNL     1      -8.306  -0.044  -6.864  1.00  0.00     0.064 A 
ATOM     80  C   UNL     1      -9.493  -0.645  -7.304  1.00  0.00     0.173 A 
ATOM     81  C   UNL     1      -8.358   0.721  -5.688  1.00  0.00     0.173 A 
ATOM     82  F   UNL     1      -9.498  -1.370  -8.432  1.00  0.00    -0.203 F 
ATOM     83  C   UNL     1     -10.686  -0.478  -6.603  1.00  0.00     0.198 A 
ATOM     84  C   UNL     1      -9.546   0.864  -4.974  1.00  0.00     0.198 A 
ATOM     85  F   UNL     1      -7.249   1.313  -5.222  1.00  0.00    -0.203 F 
ATOM     86  F   UNL     1     -11.814  -1.035  -7.064  1.00  0.00    -0.200 F 
ATOM     87  C   UNL     1     -10.710   0.269  -5.435  1.00  0.00     0.200 A 
ATOM     88  F   UNL     1      -9.559   1.573  -3.837  1.00  0.00    -0.200 F 
ATOM     89  F   UNL     1     -11.855   0.420  -4.756  1.00  0.00    -0.200 F 
ENDBRANCH  55  79
BRANCH  67  90
ATOM     90  C   UNL     1      -5.954   2.103 -13.072  1.00  0.00     0.064 A 
ATOM     91  C   UNL     1      -6.135   3.485 -12.928  1.00  0.00     0.173 A 
ATOM     92  C   UNL     1      -6.320   1.512 -14.290  1.00  0.00     0.173 A 
ATOM     93  F   UNL     1      -5.815   4.091 -11.774  1.00  0.00    -0.203 F 
ATOM     94  C   UNL     1      -6.676   4.245 -13.960  1.00  0.00     0.198 A 
ATOM     95  C   UNL     1      -6.834   2.280 -15.330  1.00  0.00     0.198 A 
ATOM     96  F   UNL     1      -6.161   0.193 -14.477  1.00  0.00    -0.203 F 
ATOM     97  F   UNL     1      -6.877   5.559 -13.788  1.00  0.00    -0.200 F 
ATOM     98  C   UNL     1      -7.016   3.644 -15.163  1.00  0.00     0.200 A 
ATOM     99  F   UNL     1      -7.150   1.700 -16.497  1.00  0.00    -0.200 F 
ATOM    100  F   UNL     1      -7.525   4.380 -16.160  1.00  0.00    -0.200 F 
ENDBRANCH  67  90
ENDBRANCH  41  42
ENDBRANCH  34  36
ENDBRANCH  33  34
ENDBRANCH  32  33
ENDBRANCH  31  32
ENDBRANCH  30  31
ENDBRANCH  29  30
ENDBRANCH   1  29
TORSDOF 22
