REMARK SMILES CC[C@@H](Oc1ccc(/C=C2/SC(=S)N(N3CCOCC3)C2=O)cc1OC)C(=O)OCCOCCOC(=O)c1ccc(-c2c3nc(c(-c4c(F)c(F)c(F)c(F)c4F)c4ccc([nH]4)c(-c4c(F)c(F)c(F)c(F)c4F)c4nc(c(-c5c(F)c(F)c(F)c(F)c5F)c5ccc2[nH]5)C=C4)C=C3)cc1
REMARK SMILES IDX 31 1 30 2 29 3 27 4 28 5 3 6 2 7 1 8 4 9 5 10 6 11 24 12
REMARK SMILES IDX 7 13 23 14 8 15 25 16 26 17 9 18 10 19 11 20 21 21 12 22
REMARK SMILES IDX 14 23 22 24 13 25 15 26 16 27 20 28 17 29 19 30 18 31 32 32
REMARK SMILES IDX 33 33 34 34 35 35 36 36 37 37 38 38 39 39 100 40 40 41 99 42
REMARK SMILES IDX 41 43 42 44 43 45 93 46 44 47 98 48 92 49 94 50 45 51 97 52
REMARK SMILES IDX 91 53 90 54 46 56 78 57 58 58 77 59 59 60 62 61 76 62 95 63
REMARK SMILES IDX 60 64 61 65 75 67 96 68 63 69 47 70 48 71 56 72 49 73 50 74
REMARK SMILES IDX 54 75 57 76 51 77 52 78 55 79 53 80 79 81 80 82 88 83 81 84
REMARK SMILES IDX 82 85 86 86 89 87 83 88 84 89 87 90 85 91 64 92 65 93 73 94
REMARK SMILES IDX 66 95 67 96 71 97 74 98 68 99 69 100 72 101 70 102
REMARK H PARENT 94 55 62 66
REMARK Flexibility Score: inf
ROOT
ATOM      1  C   UNL     1      -0.669   1.180  -5.973  1.00  0.00     0.202 C 
ENDROOT
BRANCH   1   2
ATOM      2  C   UNL     1      -0.331  -0.298  -5.740  1.00  0.00     0.261 C 
BRANCH   2   3
ATOM      3  O   UNL     1       0.005  -0.529  -4.359  1.00  0.00    -0.461 OA
BRANCH   3   4
ATOM      4  C   UNL     1       1.246  -1.030  -4.088  1.00  0.00     0.347 C 
ATOM      5  O   UNL     1       2.087  -1.320  -4.930  1.00  0.00    -0.248 OA
BRANCH   4   6
ATOM      6  C   UNL     1       1.498  -1.119  -2.579  1.00  0.00     0.282 C 
BRANCH   6   7
ATOM      7  C   UNL     1       1.843   0.285  -2.050  1.00  0.00     0.054 C 
ATOM      8  C   UNL     1       2.511   0.336  -0.682  1.00  0.00     0.008 C 
ENDBRANCH   6   7
BRANCH   6   9
ATOM      9  O   UNL     1       0.287  -1.629  -2.003  1.00  0.00    -0.475 OA
BRANCH   9  10
ATOM     10  C   UNL     1       0.510  -2.352  -0.868  1.00  0.00     0.162 A 
ATOM     11  C   UNL     1       1.020  -3.650  -0.961  1.00  0.00     0.051 A 
ATOM     12  C   UNL     1       0.192  -1.801   0.373  1.00  0.00     0.161 A 
ATOM     13  C   UNL     1       1.244  -4.393   0.200  1.00  0.00     0.012 A 
ATOM     14  C   UNL     1       0.494  -2.513   1.526  1.00  0.00     0.058 A 
ATOM     15  C   UNL     1       0.962  -3.833   1.448  1.00  0.00    -0.020 A 
BRANCH  12  16
ATOM     16  O   UNL     1      -0.338  -0.554   0.568  1.00  0.00    -0.493 OA
ATOM     17  C   UNL     1      -1.502  -0.306  -0.219  1.00  0.00     0.278 C 
ENDBRANCH  12  16
BRANCH  15  18
ATOM     18  C   UNL     1       1.138  -4.613   2.674  1.00  0.00     0.029 C 
ATOM     19  C   UNL     1       0.181  -4.769   3.601  1.00  0.00     0.082 C 
ATOM     20  S   UNL     1       0.487  -5.487   5.140  1.00  0.00    -0.053 SA
ATOM     21  C   UNL     1      -1.236  -4.289   3.536  1.00  0.00     0.280 C 
ATOM     22  C   UNL     1      -1.029  -4.898   5.819  1.00  0.00     0.163 C 
ATOM     23  N   UNL     1      -1.767  -4.283   4.820  1.00  0.00    -0.220 N 
ATOM     24  O   UNL     1      -1.832  -4.015   2.502  1.00  0.00    -0.267 OA
ATOM     25  S   UNL     1      -1.409  -5.108   7.432  1.00  0.00    -0.050 S 
BRANCH  23  26
ATOM     26  N   UNL     1      -3.045  -3.780   5.029  1.00  0.00    -0.208 NA
ATOM     27  C   UNL     1      -3.276  -2.484   5.638  1.00  0.00     0.137 C 
ATOM     28  C   UNL     1      -4.214  -4.528   4.617  1.00  0.00     0.137 C 
ATOM     29  C   UNL     1      -4.317  -2.627   6.761  1.00  0.00     0.177 C 
ATOM     30  C   UNL     1      -5.167  -4.627   5.813  1.00  0.00     0.177 C 
ATOM     31  O   UNL     1      -5.496  -3.321   6.318  1.00  0.00    -0.379 OA
ENDBRANCH  23  26
ENDBRANCH  15  18
ENDBRANCH   9  10
ENDBRANCH   6   9
ENDBRANCH   4   6
ENDBRANCH   3   4
ENDBRANCH   2   3
ENDBRANCH   1   2
BRANCH   1  32
ATOM     32  O   UNL     1       0.463   2.056  -6.010  1.00  0.00    -0.374 OA
BRANCH  32  33
ATOM     33  C   UNL     1       0.994   2.424  -4.739  1.00  0.00     0.202 C 
BRANCH  33  34
ATOM     34  C   UNL     1       0.400   3.695  -4.129  1.00  0.00     0.261 C 
BRANCH  34  35
ATOM     35  O   UNL     1      -1.000   3.522  -3.847  1.00  0.00    -0.460 OA
BRANCH  35  36
ATOM     36  C   UNL     1      -1.822   4.154  -4.717  1.00  0.00     0.338 C 
ATOM     37  O   UNL     1      -1.509   4.934  -5.598  1.00  0.00    -0.246 OA
BRANCH  36  38
ATOM     38  C   UNL     1      -3.203   3.658  -4.565  1.00  0.00     0.060 A 
ATOM     39  C   UNL     1      -3.890   3.334  -5.741  1.00  0.00     0.016 A 
ATOM     40  C   UNL     1      -3.846   3.590  -3.326  1.00  0.00     0.016 A 
ATOM     41  C   UNL     1      -5.243   3.012  -5.692  1.00  0.00     0.010 A 
ATOM     42  C   UNL     1      -5.207   3.268  -3.278  1.00  0.00     0.010 A 
ATOM     43  C   UNL     1      -5.920   3.022  -4.465  1.00  0.00    -0.014 A 
BRANCH  43  44
ATOM     44  C   UNL     1      -7.401   2.937  -4.464  1.00  0.00     0.031 A 
ATOM     45  C   UNL     1      -8.204   4.204  -4.349  1.00  0.00     0.074 A 
ATOM     46  C   UNL     1      -8.023   1.757  -4.630  1.00  0.00     0.049 A 
ATOM     47  N   UNL     1      -9.502   4.369  -4.345  1.00  0.00    -0.248 NA
ATOM     48  C   UNL     1      -7.439   5.455  -4.225  1.00  0.00     0.031 C 
ATOM     49  C   UNL     1      -7.354   0.468  -4.795  1.00  0.00     0.029 A 
ATOM     50  N   UNL     1      -9.360   1.455  -4.690  1.00  0.00    -0.354 N 
ATOM     51  C   UNL     1      -9.709   5.737  -4.217  1.00  0.00     0.074 A 
ATOM     52  C   UNL     1      -8.405   6.355  -4.113  1.00  0.00     0.031 C 
ATOM     53  C   UNL     1      -8.287  -0.490  -4.934  1.00  0.00     0.029 A 
ATOM     54  C   UNL     1      -9.614   0.115  -4.841  1.00  0.00     0.049 A 
ATOM     55  H   UNL     1     -10.069   2.135  -4.631  1.00  0.00     0.167 HD
ATOM     56  C   UNL     1     -10.880   6.417  -4.200  1.00  0.00     0.037 A 
ATOM     57  C   UNL     1     -10.787  -0.547  -4.883  1.00  0.00     0.037 A 
ATOM     58  C   UNL     1     -12.176   5.802  -4.309  1.00  0.00     0.049 A 
ATOM     59  C   UNL     1     -12.077   0.227  -4.794  1.00  0.00     0.074 A 
ATOM     60  C   UNL     1     -13.421   6.408  -4.319  1.00  0.00     0.029 A 
ATOM     61  N   UNL     1     -12.394   4.437  -4.419  1.00  0.00    -0.354 N 
ATOM     62  N   UNL     1     -12.262   1.521  -4.699  1.00  0.00    -0.248 NA
ATOM     63  C   UNL     1     -13.322  -0.555  -4.824  1.00  0.00     0.031 C 
ATOM     64  C   UNL     1     -14.394   5.405  -4.388  1.00  0.00     0.029 A 
ATOM     65  C   UNL     1     -13.755   4.179  -4.472  1.00  0.00     0.049 A 
ATOM     66  H   UNL     1     -11.687   3.753  -4.455  1.00  0.00     0.167 HD
ATOM     67  C   UNL     1     -13.638   1.711  -4.683  1.00  0.00     0.074 A 
ATOM     68  C   UNL     1     -14.241   0.399  -4.793  1.00  0.00     0.031 C 
ATOM     69  C   UNL     1     -14.339   2.867  -4.588  1.00  0.00     0.037 A 
BRANCH  56  70
ATOM     70  C   UNL     1     -10.812   7.907  -4.037  1.00  0.00     0.064 A 
ATOM     71  C   UNL     1     -10.363   8.742  -5.070  1.00  0.00     0.173 A 
ATOM     72  C   UNL     1     -11.236   8.509  -2.842  1.00  0.00     0.173 A 
ATOM     73  F   UNL     1      -9.934   8.215  -6.227  1.00  0.00    -0.203 F 
ATOM     74  C   UNL     1     -10.319  10.124  -4.905  1.00  0.00     0.198 A 
ATOM     75  C   UNL     1     -11.215   9.892  -2.690  1.00  0.00     0.198 A 
ATOM     76  F   UNL     1     -11.677   7.754  -1.824  1.00  0.00    -0.203 F 
ATOM     77  F   UNL     1      -9.845  10.901  -5.890  1.00  0.00    -0.200 F 
ATOM     78  C   UNL     1     -10.751  10.698  -3.718  1.00  0.00     0.200 A 
ATOM     79  F   UNL     1     -11.643  10.446  -1.547  1.00  0.00    -0.200 F 
ATOM     80  F   UNL     1     -10.713  12.029  -3.563  1.00  0.00    -0.200 F 
ENDBRANCH  56  70
BRANCH  57  81
ATOM     81  C   UNL     1     -10.797  -2.028  -5.006  1.00  0.00     0.064 A 
ATOM     82  C   UNL     1     -11.260  -2.656  -6.170  1.00  0.00     0.173 A 
ATOM     83  C   UNL     1     -10.359  -2.844  -3.953  1.00  0.00     0.173 A 
ATOM     84  F   UNL     1     -11.714  -1.918  -7.194  1.00  0.00    -0.203 F 
ATOM     85  C   UNL     1     -11.299  -4.045  -6.270  1.00  0.00     0.198 A 
ATOM     86  C   UNL     1     -10.372  -4.233  -4.065  1.00  0.00     0.198 A 
ATOM     87  F   UNL     1      -9.910  -2.292  -2.817  1.00  0.00    -0.203 F 
ATOM     88  F   UNL     1     -11.787  -4.622  -7.377  1.00  0.00    -0.200 F 
ATOM     89  C   UNL     1     -10.849  -4.832  -5.220  1.00  0.00     0.200 A 
ATOM     90  F   UNL     1      -9.928  -4.989  -3.052  1.00  0.00    -0.200 F 
ATOM     91  F   UNL     1     -10.884  -6.168  -5.318  1.00  0.00    -0.200 F 
ENDBRANCH  57  81
BRANCH  69  92
ATOM     92  C   UNL     1     -15.837   2.772  -4.630  1.00  0.00     0.064 A 
ATOM     93  C   UNL     1     -16.573   2.266  -3.550  1.00  0.00     0.173 A 
ATOM     94  C   UNL     1     -16.546   3.236  -5.750  1.00  0.00     0.173 A 
ATOM     95  F   UNL     1     -15.941   1.798  -2.463  1.00  0.00    -0.203 F 
ATOM     96  C   UNL     1     -17.963   2.204  -3.598  1.00  0.00     0.198 A 
ATOM     97  C   UNL     1     -17.937   3.199  -5.783  1.00  0.00     0.198 A 
ATOM     98  F   UNL     1     -15.889   3.737  -6.806  1.00  0.00    -0.203 F 
ATOM     99  F   UNL     1     -18.645   1.675  -2.572  1.00  0.00    -0.200 F 
ATOM    100  C   UNL     1     -18.644   2.677  -4.710  1.00  0.00     0.200 A 
ATOM    101  F   UNL     1     -18.593   3.668  -6.853  1.00  0.00    -0.200 F 
ATOM    102  F   UNL     1     -19.983   2.623  -4.751  1.00  0.00    -0.200 F 
ENDBRANCH  69  92
ENDBRANCH  43  44
ENDBRANCH  36  38
ENDBRANCH  35  36
ENDBRANCH  34  35
ENDBRANCH  33  34
ENDBRANCH  32  33
ENDBRANCH   1  32
TORSDOF 20
