REMARK SMILES COc1ccc([C@@H]2[C@H](C(=O)OCCOCCOC(=O)c3ccc(-c4c5nc(c(-c6c(F)c(F)c(F)c(F)c6F)c6ccc([nH]6)c(-c6c(F)c(F)c(F)c(F)c6F)c6nc(c(-c7c(F)c(F)c(F)c(F)c7F)c7ccc4[nH]7)C=C6)C=C5)cc3)c3ccccc3C(=O)N2C2CC2)cc1
REMARK SMILES IDX 14 1 13 2 12 3 11 4 9 5 10 6 8 7 7 8 91 9 83 10 89 11 84 12
REMARK SMILES IDX 88 13 90 14 85 15 87 16 86 17 6 18 3 19 4 20 96 21 5 22
REMARK SMILES IDX 95 23 2 24 1 25 92 26 93 27 94 28 15 29 16 30 17 31 18 32
REMARK SMILES IDX 19 33 20 34 21 35 82 36 22 37 81 38 23 39 24 40 25 41 75 42
REMARK SMILES IDX 26 43 80 44 74 45 76 46 27 47 79 48 73 49 72 50 28 52 60 53
REMARK SMILES IDX 40 54 59 55 41 56 44 57 58 58 77 59 42 60 43 61 57 63 78 64
REMARK SMILES IDX 45 65 29 66 30 67 38 68 31 69 32 70 36 71 39 72 33 73 34 74
REMARK SMILES IDX 37 75 35 76 61 77 62 78 70 79 63 80 64 81 68 82 71 83 65 84
REMARK SMILES IDX 66 85 69 86 67 87 46 88 47 89 55 90 48 91 49 92 53 93 56 94
REMARK SMILES IDX 50 95 51 96 54 97 52 98
REMARK H PARENT 76 51 44 62
REMARK Flexibility Score: inf
ROOT
ATOM      1  O   UNL     1      -5.304  -6.264  -4.310  1.00  0.00    -0.374 OA
ENDROOT
BRANCH   1   2
ATOM      2  C   UNL     1      -4.967  -5.059  -4.991  1.00  0.00     0.202 C 
BRANCH   2   3
ATOM      3  C   UNL     1      -3.928  -4.186  -4.296  1.00  0.00     0.261 C 
BRANCH   3   4
ATOM      4  O   UNL     1      -2.595  -4.630  -4.630  1.00  0.00    -0.463 OA
BRANCH   4   5
ATOM      5  C   UNL     1      -1.646  -3.672  -4.451  1.00  0.00     0.316 C 
ATOM      6  O   UNL     1      -1.885  -2.576  -3.950  1.00  0.00    -0.251 OA
BRANCH   5   7
ATOM      7  C   UNL     1      -0.271  -4.038  -4.974  1.00  0.00     0.157 C 
ATOM      8  C   UNL     1       0.743  -4.533  -3.909  1.00  0.00     0.135 C 
ATOM      9  N   UNL     1       0.913  -5.985  -3.926  1.00  0.00    -0.327 N 
ATOM     10  C   UNL     1      -0.246  -4.910  -6.230  1.00  0.00    -0.019 A 
ATOM     11  C   UNL     1       1.309  -6.569  -5.123  1.00  0.00     0.254 C 
ATOM     12  C   UNL     1      -1.032  -4.580  -7.347  1.00  0.00     0.005 A 
ATOM     13  C   UNL     1       0.612  -6.025  -6.323  1.00  0.00     0.044 A 
ATOM     14  O   UNL     1       2.028  -7.558  -5.209  1.00  0.00    -0.269 OA
ATOM     15  C   UNL     1      -0.968  -5.346  -8.515  1.00  0.00     0.000 A 
ATOM     16  C   UNL     1       0.701  -6.763  -7.511  1.00  0.00     0.014 A 
ATOM     17  C   UNL     1      -0.092  -6.425  -8.603  1.00  0.00     0.001 A 
BRANCH   8  18
ATOM     18  C   UNL     1       0.778  -3.857  -2.542  1.00  0.00    -0.024 A 
ATOM     19  C   UNL     1       0.855  -2.312  -0.195  1.00  0.00     0.118 A 
ATOM     20  C   UNL     1      -0.284  -3.046  -0.504  1.00  0.00     0.047 A 
ATOM     21  C   UNL     1       2.001  -2.439  -0.971  1.00  0.00     0.047 A 
ATOM     22  C   UNL     1      -0.320  -3.819  -1.668  1.00  0.00     0.010 A 
ATOM     23  C   UNL     1       1.960  -3.205  -2.138  1.00  0.00     0.010 A 
BRANCH  19  24
ATOM     24  O   UNL     1       0.805  -1.476   0.886  1.00  0.00    -0.497 OA
ATOM     25  C   UNL     1       0.996  -0.118   0.474  1.00  0.00     0.278 C 
ENDBRANCH  19  24
ENDBRANCH   8  18
BRANCH   9  26
ATOM     26  C   UNL     1       0.634  -6.817  -2.789  1.00  0.00     0.086 C 
ATOM     27  C   UNL     1      -0.800  -7.088  -2.419  1.00  0.00     0.027 C 
ATOM     28  C   UNL     1       0.029  -8.196  -2.975  1.00  0.00     0.027 C 
ENDBRANCH   9  26
ENDBRANCH   5   7
ENDBRANCH   4   5
ENDBRANCH   3   4
ENDBRANCH   2   3
ENDBRANCH   1   2
BRANCH   1  29
ATOM     29  C   UNL     1      -4.257  -7.186  -4.017  1.00  0.00     0.202 C 
BRANCH  29  30
ATOM     30  C   UNL     1      -3.450  -7.743  -5.205  1.00  0.00     0.261 C 
BRANCH  30  31
ATOM     31  O   UNL     1      -4.089  -7.564  -6.471  1.00  0.00    -0.460 OA
BRANCH  31  32
ATOM     32  C   UNL     1      -5.284  -8.189  -6.594  1.00  0.00     0.338 C 
ATOM     33  O   UNL     1      -5.741  -9.060  -5.889  1.00  0.00    -0.246 OA
BRANCH  32  34
ATOM     34  C   UNL     1      -6.035  -7.462  -7.637  1.00  0.00     0.060 A 
ATOM     35  C   UNL     1      -7.330  -7.035  -7.330  1.00  0.00     0.016 A 
ATOM     36  C   UNL     1      -5.464  -7.180  -8.882  1.00  0.00     0.016 A 
ATOM     37  C   UNL     1      -8.081  -6.361  -8.290  1.00  0.00     0.010 A 
ATOM     38  C   UNL     1      -6.217  -6.507  -9.844  1.00  0.00     0.010 A 
ATOM     39  C   UNL     1      -7.539  -6.124  -9.561  1.00  0.00    -0.014 A 
BRANCH  39  40
ATOM     40  C   UNL     1      -8.409  -5.617 -10.645  1.00  0.00     0.031 A 
ATOM     41  C   UNL     1      -9.032  -6.608 -11.585  1.00  0.00     0.074 A 
ATOM     42  C   UNL     1      -8.644  -4.300 -10.777  1.00  0.00     0.049 A 
ATOM     43  N   UNL     1      -9.825  -6.402 -12.604  1.00  0.00    -0.248 NA
ATOM     44  C   UNL     1      -8.713  -8.026 -11.346  1.00  0.00     0.031 C 
ATOM     45  C   UNL     1      -8.101  -3.254  -9.913  1.00  0.00     0.029 A 
ATOM     46  N   UNL     1      -9.399  -3.619 -11.698  1.00  0.00    -0.354 N 
ATOM     47  C   UNL     1     -10.098  -7.659 -13.126  1.00  0.00     0.074 A 
ATOM     48  C   UNL     1      -9.364  -8.621 -12.334  1.00  0.00     0.031 C 
ATOM     49  C   UNL     1      -8.535  -2.059 -10.350  1.00  0.00     0.029 A 
ATOM     50  C   UNL     1      -9.369  -2.257 -11.534  1.00  0.00     0.049 A 
ATOM     51  H   UNL     1      -9.914  -4.065 -12.409  1.00  0.00     0.167 HD
ATOM     52  C   UNL     1     -10.899  -7.980 -14.168  1.00  0.00     0.037 A 
ATOM     53  C   UNL     1      -9.944  -1.285 -12.269  1.00  0.00     0.037 A 
ATOM     54  C   UNL     1     -11.632  -7.019 -14.946  1.00  0.00     0.049 A 
ATOM     55  C   UNL     1     -10.793  -1.668 -13.453  1.00  0.00     0.074 A 
ATOM     56  C   UNL     1     -12.509  -7.241 -15.992  1.00  0.00     0.029 A 
ATOM     57  N   UNL     1     -11.561  -5.645 -14.763  1.00  0.00    -0.354 N 
ATOM     58  N   UNL     1     -11.096  -2.862 -13.903  1.00  0.00    -0.248 NA
ATOM     59  C   UNL     1     -11.384  -0.569 -14.231  1.00  0.00     0.031 C 
ATOM     60  C   UNL     1     -12.935  -5.998 -16.473  1.00  0.00     0.029 A 
ATOM     61  C   UNL     1     -12.355  -5.005 -15.699  1.00  0.00     0.049 A 
ATOM     62  H   UNL     1     -11.026  -5.194 -14.071  1.00  0.00     0.167 HD
ATOM     63  C   UNL     1     -11.929  -2.661 -14.995  1.00  0.00     0.074 A 
ATOM     64  C   UNL     1     -12.094  -1.229 -15.135  1.00  0.00     0.031 C 
ATOM     65  C   UNL     1     -12.507  -3.577 -15.811  1.00  0.00     0.037 A 
BRANCH  52  66
ATOM     66  C   UNL     1     -11.009  -9.429 -14.537  1.00  0.00     0.064 A 
ATOM     67  C   UNL     1     -11.733 -10.336 -13.749  1.00  0.00     0.173 A 
ATOM     68  C   UNL     1     -10.407  -9.908 -15.710  1.00  0.00     0.173 A 
ATOM     69  F   UNL     1     -12.312  -9.928 -12.611  1.00  0.00    -0.203 F 
ATOM     70  C   UNL     1     -11.833 -11.677 -14.113  1.00  0.00     0.198 A 
ATOM     71  C   UNL     1     -10.529 -11.244 -16.082  1.00  0.00     0.198 A 
ATOM     72  F   UNL     1      -9.703  -9.080 -16.496  1.00  0.00    -0.203 F 
ATOM     73  F   UNL     1     -12.497 -12.535 -13.326  1.00  0.00    -0.200 F 
ATOM     74  C   UNL     1     -11.237 -12.128 -15.281  1.00  0.00     0.200 A 
ATOM     75  F   UNL     1      -9.958 -11.677 -17.215  1.00  0.00    -0.200 F 
ATOM     76  F   UNL     1     -11.339 -13.417 -15.633  1.00  0.00    -0.200 F 
ENDBRANCH  52  66
BRANCH  53  77
ATOM     77  C   UNL     1      -9.736   0.142 -11.912  1.00  0.00     0.064 A 
ATOM     78  C   UNL     1     -10.788   0.926 -11.417  1.00  0.00     0.173 A 
ATOM     79  C   UNL     1      -8.487   0.758 -12.078  1.00  0.00     0.173 A 
ATOM     80  F   UNL     1     -12.007   0.389 -11.264  1.00  0.00    -0.203 F 
ATOM     81  C   UNL     1     -10.602   2.275 -11.118  1.00  0.00     0.198 A 
ATOM     82  C   UNL     1      -8.296   2.100 -11.755  1.00  0.00     0.198 A 
ATOM     83  F   UNL     1      -7.448   0.054 -12.551  1.00  0.00    -0.203 F 
ATOM     84  F   UNL     1     -11.636   3.011 -10.688  1.00  0.00    -0.200 F 
ATOM     85  C   UNL     1      -9.356   2.859 -11.283  1.00  0.00     0.200 A 
ATOM     86  F   UNL     1      -7.087   2.659 -11.907  1.00  0.00    -0.200 F 
ATOM     87  F   UNL     1      -9.178   4.156 -10.995  1.00  0.00    -0.200 F 
ENDBRANCH  53  77
BRANCH  65  88
ATOM     88  C   UNL     1     -13.386  -3.060 -16.909  1.00  0.00     0.064 A 
ATOM     89  C   UNL     1     -12.847  -2.461 -18.056  1.00  0.00     0.173 A 
ATOM     90  C   UNL     1     -14.778  -3.217 -16.837  1.00  0.00     0.173 A 
ATOM     91  F   UNL     1     -11.523  -2.277 -18.163  1.00  0.00    -0.203 F 
ATOM     92  C   UNL     1     -13.674  -2.021 -19.086  1.00  0.00     0.198 A 
ATOM     93  C   UNL     1     -15.599  -2.799 -17.880  1.00  0.00     0.198 A 
ATOM     94  F   UNL     1     -15.339  -3.792 -15.763  1.00  0.00    -0.203 F 
ATOM     95  F   UNL     1     -13.142  -1.417 -20.158  1.00  0.00    -0.200 F 
ATOM     96  C   UNL     1     -15.047  -2.197 -19.001  1.00  0.00     0.200 A 
ATOM     97  F   UNL     1     -16.925  -2.981 -17.802  1.00  0.00    -0.200 F 
ATOM     98  F   UNL     1     -15.840  -1.781 -19.998  1.00  0.00    -0.200 F 
ENDBRANCH  65  88
ENDBRANCH  39  40
ENDBRANCH  32  34
ENDBRANCH  31  32
ENDBRANCH  30  31
ENDBRANCH  29  30
ENDBRANCH   1  29
TORSDOF 17
