REMARK SMILES O=C(OCCOCCOC(=O)[C@@]1([NH2+]C2CC2)CCC[C@H]1CCn1ccnc1)c1ccc(-c2c3nc(c(-c4c(F)c(F)c(F)c(F)c4F)c4ccc([nH]4)c(-c4c(F)c(F)c(F)c(F)c4F)c4nc(c(-c5c(F)c(F)c(F)c(F)c5F)c5ccc2[nH]5)C=C4)C=C3)cc1
REMARK SMILES IDX 7 1 6 2 5 3 4 4 3 5 2 6 1 7 28 8 29 9 90 10 30 11 89 12
REMARK SMILES IDX 31 13 32 14 33 15 83 16 34 17 88 18 82 19 84 20 35 21 87 22
REMARK SMILES IDX 81 23 80 24 36 26 68 27 48 28 67 29 49 30 52 31 66 32 85 33
REMARK SMILES IDX 50 34 51 35 65 37 86 38 53 39 37 40 38 41 46 42 39 43 40 44
REMARK SMILES IDX 44 45 47 46 41 47 42 48 45 49 43 50 69 51 70 52 78 53 71 54
REMARK SMILES IDX 72 55 76 56 79 57 73 58 74 59 77 60 75 61 54 62 55 63 63 64
REMARK SMILES IDX 56 65 57 66 61 67 64 68 58 69 59 70 62 71 60 72 8 73 9 74
REMARK SMILES IDX 10 75 11 76 12 77 17 78 20 79 18 80 19 81 13 82 14 85 15 86
REMARK SMILES IDX 16 87 21 88 22 89 23 90 24 91 27 92 25 93 26 94
REMARK H PARENT 84 25 52 36 13 83 13 84
REMARK Flexibility Score: inf
ROOT
ATOM      1  C   UNL     1       3.277   2.175   0.405  1.00  0.00     0.202 C 
ENDROOT
BRANCH   1   2
ATOM      2  O   UNL     1       4.380   1.417   0.888  1.00  0.00    -0.374 OA
BRANCH   2   3
ATOM      3  C   UNL     1       5.057   0.496   0.039  1.00  0.00     0.202 C 
BRANCH   3   4
ATOM      4  C   UNL     1       4.344  -0.805  -0.399  1.00  0.00     0.261 C 
BRANCH   4   5
ATOM      5  O   UNL     1       3.024  -0.605  -0.904  1.00  0.00    -0.460 OA
BRANCH   5   6
ATOM      6  C   UNL     1       1.877  -0.560  -0.199  1.00  0.00     0.338 C 
ATOM      7  O   UNL     1       0.824  -0.343  -0.794  1.00  0.00    -0.246 OA
BRANCH   6   8
ATOM      8  C   UNL     1       1.836  -0.756   1.279  1.00  0.00     0.060 A 
ATOM      9  C   UNL     1       2.943  -0.938   2.111  1.00  0.00     0.016 A 
ATOM     10  C   UNL     1       0.559  -0.776   1.856  1.00  0.00     0.016 A 
ATOM     11  C   UNL     1       2.803  -1.469   3.359  1.00  0.00     0.010 A 
ATOM     12  C   UNL     1       0.402  -1.191   3.161  1.00  0.00     0.010 A 
ATOM     13  C   UNL     1       1.523  -1.664   3.834  1.00  0.00    -0.014 A 
BRANCH  13  14
ATOM     14  C   UNL     1       1.441  -2.421   5.056  1.00  0.00     0.031 A 
ATOM     15  C   UNL     1       2.164  -1.809   6.202  1.00  0.00     0.074 A 
ATOM     16  C   UNL     1       0.770  -3.583   5.025  1.00  0.00     0.049 A 
ATOM     17  N   UNL     1       3.079  -2.334   6.953  1.00  0.00    -0.248 NA
ATOM     18  C   UNL     1       1.969  -0.362   6.416  1.00  0.00     0.031 C 
ATOM     19  C   UNL     1      -0.050  -4.132   3.936  1.00  0.00     0.029 A 
ATOM     20  N   UNL     1       0.569  -4.463   6.033  1.00  0.00    -0.354 N 
ATOM     21  C   UNL     1       3.428  -1.338   7.862  1.00  0.00     0.074 A 
ATOM     22  C   UNL     1       2.849  -0.112   7.383  1.00  0.00     0.031 C 
ATOM     23  C   UNL     1      -0.870  -5.078   4.435  1.00  0.00     0.029 A 
ATOM     24  C   UNL     1      -0.530  -5.283   5.827  1.00  0.00     0.049 A 
ATOM     25  H   UNL     1       1.144  -4.515   6.831  1.00  0.00     0.167 HD
ATOM     26  C   UNL     1       3.933  -1.643   9.086  1.00  0.00     0.037 A 
ATOM     27  C   UNL     1      -1.196  -5.907   6.825  1.00  0.00     0.037 A 
ATOM     28  C   UNL     1       4.598  -2.917   9.083  1.00  0.00     0.049 A 
ATOM     29  C   UNL     1      -0.257  -5.984   7.982  1.00  0.00     0.074 A 
ATOM     30  C   UNL     1       5.710  -3.418   8.435  1.00  0.00     0.029 A 
ATOM     31  N   UNL     1       3.921  -4.013   9.557  1.00  0.00    -0.354 N 
ATOM     32  N   UNL     1       0.844  -6.691   7.963  1.00  0.00    -0.248 NA
ATOM     33  C   UNL     1      -0.277  -4.892   8.948  1.00  0.00     0.031 C 
ATOM     34  C   UNL     1       5.385  -4.773   8.133  1.00  0.00     0.029 A 
ATOM     35  C   UNL     1       4.118  -5.030   8.657  1.00  0.00     0.049 A 
ATOM     36  H   UNL     1       3.393  -4.061  10.387  1.00  0.00     0.167 HD
ATOM     37  C   UNL     1       1.787  -5.909   8.620  1.00  0.00     0.074 A 
ATOM     38  C   UNL     1       1.023  -4.840   9.256  1.00  0.00     0.031 C 
ATOM     39  C   UNL     1       3.122  -6.029   8.351  1.00  0.00     0.037 A 
BRANCH  26  40
ATOM     40  C   UNL     1       3.454  -0.960  10.342  1.00  0.00     0.064 A 
ATOM     41  C   UNL     1       4.098  -1.230  11.563  1.00  0.00     0.173 A 
ATOM     42  C   UNL     1       2.208  -0.297  10.443  1.00  0.00     0.173 A 
ATOM     43  F   UNL     1       5.276  -1.872  11.586  1.00  0.00    -0.203 F 
ATOM     44  C   UNL     1       3.501  -0.928  12.790  1.00  0.00     0.198 A 
ATOM     45  C   UNL     1       1.642   0.049  11.665  1.00  0.00     0.198 A 
ATOM     46  F   UNL     1       1.433  -0.059   9.379  1.00  0.00    -0.203 F 
ATOM     47  F   UNL     1       4.090  -1.316  13.929  1.00  0.00    -0.200 F 
ATOM     48  C   UNL     1       2.270  -0.297  12.840  1.00  0.00     0.200 A 
ATOM     49  F   UNL     1       0.440   0.643  11.688  1.00  0.00    -0.200 F 
ATOM     50  F   UNL     1       1.666  -0.070  14.013  1.00  0.00    -0.200 F 
ENDBRANCH  26  40
BRANCH  27  51
ATOM     51  C   UNL     1      -2.670  -5.981   6.935  1.00  0.00     0.064 A 
ATOM     52  C   UNL     1      -3.282  -6.915   7.778  1.00  0.00     0.173 A 
ATOM     53  C   UNL     1      -3.512  -4.995   6.373  1.00  0.00     0.173 A 
ATOM     54  F   UNL     1      -2.542  -7.848   8.393  1.00  0.00    -0.203 F 
ATOM     55  C   UNL     1      -4.656  -6.870   8.041  1.00  0.00     0.198 A 
ATOM     56  C   UNL     1      -4.882  -4.960   6.623  1.00  0.00     0.198 A 
ATOM     57  F   UNL     1      -3.012  -3.992   5.636  1.00  0.00    -0.203 F 
ATOM     58  F   UNL     1      -5.201  -7.753   8.889  1.00  0.00    -0.200 F 
ATOM     59  C   UNL     1      -5.453  -5.894   7.465  1.00  0.00     0.200 A 
ATOM     60  F   UNL     1      -5.632  -3.988   6.084  1.00  0.00    -0.200 F 
ATOM     61  F   UNL     1      -6.761  -5.828   7.749  1.00  0.00    -0.200 F 
ENDBRANCH  27  51
BRANCH  39  62
ATOM     62  C   UNL     1       3.549  -7.151   7.447  1.00  0.00     0.064 A 
ATOM     63  C   UNL     1       3.204  -7.214   6.085  1.00  0.00     0.173 A 
ATOM     64  C   UNL     1       4.462  -8.099   7.922  1.00  0.00     0.173 A 
ATOM     65  F   UNL     1       2.433  -6.271   5.531  1.00  0.00    -0.203 F 
ATOM     66  C   UNL     1       3.708  -8.211   5.252  1.00  0.00     0.198 A 
ATOM     67  C   UNL     1       4.993  -9.073   7.080  1.00  0.00     0.198 A 
ATOM     68  F   UNL     1       4.886  -8.043   9.194  1.00  0.00    -0.203 F 
ATOM     69  F   UNL     1       3.355  -8.249   3.958  1.00  0.00    -0.200 F 
ATOM     70  C   UNL     1       4.607  -9.138   5.750  1.00  0.00     0.200 A 
ATOM     71  F   UNL     1       5.908  -9.932   7.551  1.00  0.00    -0.200 F 
ATOM     72  F   UNL     1       5.129 -10.071   4.941  1.00  0.00    -0.200 F 
ENDBRANCH  39  62
ENDBRANCH  13  14
ENDBRANCH   6   8
ENDBRANCH   5   6
ENDBRANCH   4   5
ENDBRANCH   3   4
ENDBRANCH   2   3
ENDBRANCH   1   2
BRANCH   1  73
ATOM     73  C   UNL     1       3.296   2.789  -0.991  1.00  0.00     0.261 C 
BRANCH  73  74
ATOM     74  O   UNL     1       3.625   1.876  -2.056  1.00  0.00    -0.459 OA
BRANCH  74  75
ATOM     75  C   UNL     1       4.742   2.185  -2.781  1.00  0.00     0.368 C 
ATOM     76  O   UNL     1       5.476   3.133  -2.509  1.00  0.00    -0.245 OA
BRANCH  75  77
ATOM     77  C   UNL     1       4.932   1.274  -4.010  1.00  0.00     0.197 C 
ATOM     78  C   UNL     1       4.271  -0.113  -3.969  1.00  0.00     0.081 C 
ATOM     79  C   UNL     1       4.241   1.888  -5.279  1.00  0.00     0.064 C 
ATOM     80  C   UNL     1       4.273  -0.589  -5.416  1.00  0.00     0.008 C 
ATOM     81  C   UNL     1       4.149   0.679  -6.258  1.00  0.00     0.011 C 
BRANCH  77  82
ATOM     82  N   UNL     1       6.380   1.144  -4.348  1.00  0.00    -0.329 N 
ATOM     83  H   UNL     1       6.649   2.033  -4.769  1.00  0.00     0.347 HD
ATOM     84  H   UNL     1       6.380   0.290  -4.905  1.00  0.00     0.347 HD
BRANCH  82  85
ATOM     85  C   UNL     1       7.412   0.842  -3.360  1.00  0.00     0.183 C 
ATOM     86  C   UNL     1       7.340  -0.158  -2.253  1.00  0.00     0.071 C 
ATOM     87  C   UNL     1       8.093  -0.509  -3.483  1.00  0.00     0.071 C 
ENDBRANCH  82  85
ENDBRANCH  77  82
BRANCH  79  88
ATOM     88  C   UNL     1       2.821   2.503  -5.175  1.00  0.00     0.032 C 
BRANCH  88  89
ATOM     89  C   UNL     1       2.490   3.746  -4.335  1.00  0.00     0.123 C 
BRANCH  89  90
ATOM     90  N   UNL     1       3.213   4.991  -4.430  1.00  0.00    -0.337 N 
ATOM     91  C   UNL     1       2.664   6.196  -4.053  1.00  0.00     0.107 A 
ATOM     92  C   UNL     1       4.527   5.228  -4.696  1.00  0.00     0.199 A 
ATOM     93  C   UNL     1       3.678   7.114  -4.172  1.00  0.00     0.130 A 
ATOM     94  N   UNL     1       4.825   6.506  -4.595  1.00  0.00    -0.245 NA
ENDBRANCH  89  90
ENDBRANCH  88  89
ENDBRANCH  79  88
ENDBRANCH  75  77
ENDBRANCH  74  75
ENDBRANCH  73  74
ENDBRANCH   1  73
TORSDOF 19
