REMARK SMILES O=C(OCCOCCOC(=O)[C@@H](Cc1ccccc1)N1C(=O)/C(=C/c2ccncc2)SC1=S)c1ccc(-c2c3nc(c(-c4c(F)c(F)c(F)c(F)c4F)c4ccc([nH]4)c(-c4c(F)c(F)c(F)c(F)c4F)c4nc(c(-c5c(F)c(F)c(F)c(F)c5F)c5ccc2[nH]5)C=C4)C=C3)cc1
REMARK SMILES IDX 6 1 5 2 4 3 3 4 2 5 1 6 34 7 35 8 96 9 36 10 95 11 37 12
REMARK SMILES IDX 38 13 39 14 89 15 40 16 94 17 88 18 90 19 41 20 93 21 87 22
REMARK SMILES IDX 86 23 42 25 74 26 54 27 73 28 55 29 58 30 72 31 91 32 56 33
REMARK SMILES IDX 57 34 71 36 92 37 59 38 43 39 44 40 52 41 45 42 46 43 50 44
REMARK SMILES IDX 53 45 47 46 48 47 51 48 49 49 75 50 76 51 84 52 77 53 78 54
REMARK SMILES IDX 82 55 85 56 79 57 80 58 83 59 81 60 60 61 61 62 69 63 62 64
REMARK SMILES IDX 63 65 67 66 70 67 64 68 65 69 68 70 66 71 7 72 8 73 9 74
REMARK SMILES IDX 10 75 11 76 12 77 13 78 14 79 15 80 19 81 16 82 18 83 17 84
REMARK SMILES IDX 20 85 21 86 32 87 22 88 23 89 31 90 33 91 24 92 25 93 26 94
REMARK SMILES IDX 30 95 27 96 29 97 28 98
REMARK H PARENT 90 24 58 35
REMARK Flexibility Score: inf
ROOT
ATOM      1  O   UNL     1       4.259   0.740  -1.094  1.00  0.00    -0.374 OA
ENDROOT
BRANCH   1   2
ATOM      2  C   UNL     1       4.331  -0.656  -0.813  1.00  0.00     0.202 C 
BRANCH   2   3
ATOM      3  C   UNL     1       4.012  -1.073   0.622  1.00  0.00     0.261 C 
BRANCH   3   4
ATOM      4  O   UNL     1       2.638  -0.799   0.934  1.00  0.00    -0.460 OA
BRANCH   4   5
ATOM      5  C   UNL     1       2.075   0.342   1.388  1.00  0.00     0.338 C 
ATOM      6  O   UNL     1       0.852   0.375   1.511  1.00  0.00    -0.246 OA
BRANCH   5   7
ATOM      7  C   UNL     1       2.842   1.573   1.756  1.00  0.00     0.060 A 
ATOM      8  C   UNL     1       4.168   1.834   1.419  1.00  0.00     0.016 A 
ATOM      9  C   UNL     1       2.140   2.578   2.449  1.00  0.00     0.016 A 
ATOM     10  C   UNL     1       4.767   3.046   1.680  1.00  0.00     0.010 A 
ATOM     11  C   UNL     1       2.751   3.792   2.779  1.00  0.00     0.010 A 
ATOM     12  C   UNL     1       4.070   4.014   2.386  1.00  0.00    -0.014 A 
BRANCH  12  13
ATOM     13  C   UNL     1       4.893   5.127   2.861  1.00  0.00     0.031 A 
ATOM     14  C   UNL     1       5.606   4.927   4.160  1.00  0.00     0.074 A 
ATOM     15  C   UNL     1       5.210   6.108   2.003  1.00  0.00     0.049 A 
ATOM     16  N   UNL     1       6.482   5.689   4.752  1.00  0.00    -0.248 NA
ATOM     17  C   UNL     1       5.332   3.660   4.866  1.00  0.00     0.031 C 
ATOM     18  C   UNL     1       4.716   6.211   0.627  1.00  0.00     0.029 A 
ATOM     19  N   UNL     1       6.077   7.155   2.130  1.00  0.00    -0.354 N 
ATOM     20  C   UNL     1       6.842   5.010   5.906  1.00  0.00     0.074 A 
ATOM     21  C   UNL     1       6.121   3.760   5.922  1.00  0.00     0.031 C 
ATOM     22  C   UNL     1       5.313   7.253   0.027  1.00  0.00     0.029 A 
ATOM     23  C   UNL     1       6.176   7.920   0.995  1.00  0.00     0.049 A 
ATOM     24  H   UNL     1       6.582   7.342   2.954  1.00  0.00     0.167 HD
ATOM     25  C   UNL     1       7.683   5.425   6.878  1.00  0.00     0.037 A 
ATOM     26  C   UNL     1       6.876   9.052   0.795  1.00  0.00     0.037 A 
ATOM     27  C   UNL     1       8.358   6.690   6.826  1.00  0.00     0.049 A 
ATOM     28  C   UNL     1       7.698   9.564   1.947  1.00  0.00     0.074 A 
ATOM     29  C   UNL     1       9.124   7.311   7.791  1.00  0.00     0.029 A 
ATOM     30  N   UNL     1       8.332   7.534   5.721  1.00  0.00    -0.354 N 
ATOM     31  N   UNL     1       7.935   8.998   3.108  1.00  0.00    -0.248 NA
ATOM     32  C   UNL     1       8.326  10.878   1.778  1.00  0.00     0.031 C 
ATOM     33  C   UNL     1       9.526   8.553   7.284  1.00  0.00     0.029 A 
ATOM     34  C   UNL     1       9.054   8.682   5.984  1.00  0.00     0.049 A 
ATOM     35  H   UNL     1       7.867   7.342   4.875  1.00  0.00     0.167 HD
ATOM     36  C   UNL     1       8.750   9.876   3.806  1.00  0.00     0.074 A 
ATOM     37  C   UNL     1       8.980  11.007   2.924  1.00  0.00     0.031 C 
ATOM     38  C   UNL     1       9.258   9.771   5.059  1.00  0.00     0.037 A 
BRANCH  25  39
ATOM     39  C   UNL     1       7.777   4.558   8.097  1.00  0.00     0.064 A 
ATOM     40  C   UNL     1       8.449   3.326   8.092  1.00  0.00     0.173 A 
ATOM     41  C   UNL     1       7.088   4.925   9.262  1.00  0.00     0.173 A 
ATOM     42  F   UNL     1       9.084   2.907   6.987  1.00  0.00    -0.203 F 
ATOM     43  C   UNL     1       8.399   2.480   9.199  1.00  0.00     0.198 A 
ATOM     44  C   UNL     1       7.060   4.088  10.374  1.00  0.00     0.198 A 
ATOM     45  F   UNL     1       6.411   6.082   9.311  1.00  0.00    -0.203 F 
ATOM     46  F   UNL     1       8.986   1.276   9.148  1.00  0.00    -0.200 F 
ATOM     47  C   UNL     1       7.705   2.862  10.338  1.00  0.00     0.200 A 
ATOM     48  F   UNL     1       6.382   4.456  11.470  1.00  0.00    -0.200 F 
ATOM     49  F   UNL     1       7.638   2.037  11.392  1.00  0.00    -0.200 F 
ENDBRANCH  25  39
BRANCH  26  50
ATOM     50  C   UNL     1       6.776   9.782  -0.496  1.00  0.00     0.064 A 
ATOM     51  C   UNL     1       7.890   9.959  -1.327  1.00  0.00     0.173 A 
ATOM     52  C   UNL     1       5.554  10.325  -0.928  1.00  0.00     0.173 A 
ATOM     53  F   UNL     1       9.086   9.482  -0.955  1.00  0.00    -0.203 F 
ATOM     54  C   UNL     1       7.789  10.656  -2.532  1.00  0.00     0.198 A 
ATOM     55  C   UNL     1       5.447  10.994  -2.145  1.00  0.00     0.198 A 
ATOM     56  F   UNL     1       4.455  10.194  -0.171  1.00  0.00    -0.203 F 
ATOM     57  F   UNL     1       8.879  10.846  -3.288  1.00  0.00    -0.200 F 
ATOM     58  C   UNL     1       6.566  11.166  -2.943  1.00  0.00     0.200 A 
ATOM     59  F   UNL     1       4.260  11.473  -2.542  1.00  0.00    -0.200 F 
ATOM     60  F   UNL     1       6.468  11.831  -4.103  1.00  0.00    -0.200 F 
ENDBRANCH  26  50
BRANCH  38  61
ATOM     61  C   UNL     1      10.137  10.890   5.521  1.00  0.00     0.064 A 
ATOM     62  C   UNL     1       9.607  12.133   5.892  1.00  0.00     0.173 A 
ATOM     63  C   UNL     1      11.520  10.692   5.640  1.00  0.00     0.173 A 
ATOM     64  F   UNL     1       8.290  12.367   5.780  1.00  0.00    -0.203 F 
ATOM     65  C   UNL     1      10.438  13.150   6.347  1.00  0.00     0.198 A 
ATOM     66  C   UNL     1      12.343  11.703   6.122  1.00  0.00     0.198 A 
ATOM     67  F   UNL     1      12.067   9.515   5.303  1.00  0.00    -0.203 F 
ATOM     68  F   UNL     1       9.919  14.347   6.658  1.00  0.00    -0.200 F 
ATOM     69  C   UNL     1      11.803  12.932   6.469  1.00  0.00     0.200 A 
ATOM     70  F   UNL     1      13.659  11.487   6.252  1.00  0.00    -0.200 F 
ATOM     71  F   UNL     1      12.600  13.912   6.916  1.00  0.00    -0.200 F 
ENDBRANCH  38  61
ENDBRANCH  12  13
ENDBRANCH   5   7
ENDBRANCH   4   5
ENDBRANCH   3   4
ENDBRANCH   2   3
ENDBRANCH   1   2
BRANCH   1  72
ATOM     72  C   UNL     1       3.132   1.174  -1.854  1.00  0.00     0.202 C 
BRANCH  72  73
ATOM     73  C   UNL     1       3.476   1.341  -3.338  1.00  0.00     0.261 C 
BRANCH  73  74
ATOM     74  O   UNL     1       3.641   0.072  -3.998  1.00  0.00    -0.462 OA
BRANCH  74  75
ATOM     75  C   UNL     1       4.850  -0.536  -3.895  1.00  0.00     0.329 C 
ATOM     76  O   UNL     1       5.826  -0.069  -3.317  1.00  0.00    -0.250 OA
BRANCH  75  77
ATOM     77  C   UNL     1       4.846  -1.951  -4.484  1.00  0.00     0.206 C 
BRANCH  77  78
ATOM     78  C   UNL     1       4.338  -2.944  -3.379  1.00  0.00     0.073 C 
BRANCH  78  79
ATOM     79  C   UNL     1       2.848  -3.214  -3.144  1.00  0.00    -0.045 A 
ATOM     80  C   UNL     1       1.856  -2.227  -3.083  1.00  0.00     0.004 A 
ATOM     81  C   UNL     1       2.446  -4.525  -2.835  1.00  0.00     0.004 A 
ATOM     82  C   UNL     1       0.541  -2.512  -2.695  1.00  0.00     0.000 A 
ATOM     83  C   UNL     1       1.125  -4.822  -2.472  1.00  0.00     0.000 A 
ATOM     84  C   UNL     1       0.173  -3.812  -2.388  1.00  0.00     0.000 A 
ENDBRANCH  78  79
ENDBRANCH  77  78
BRANCH  77  85
ATOM     85  N   UNL     1       4.185  -2.122  -5.789  1.00  0.00    -0.278 N 
ATOM     86  C   UNL     1       4.040  -3.418  -6.262  1.00  0.00     0.267 C 
ATOM     87  C   UNL     1       4.152  -1.181  -6.803  1.00  0.00     0.149 C 
ATOM     88  O   UNL     1       4.456  -4.447  -5.731  1.00  0.00    -0.268 OA
ATOM     89  C   UNL     1       3.501  -3.417  -7.634  1.00  0.00     0.081 C 
ATOM     90  S   UNL     1       3.186  -1.807  -8.127  1.00  0.00    -0.054 SA
ATOM     91  S   UNL     1       4.914   0.296  -6.947  1.00  0.00    -0.052 S 
ATOM     92  C   UNL     1       3.428  -4.533  -8.370  1.00  0.00     0.029 C 
BRANCH  92  93
ATOM     93  C   UNL     1       2.999  -4.512  -9.764  1.00  0.00    -0.021 A 
ATOM     94  C   UNL     1       3.795  -3.914 -10.742  1.00  0.00     0.028 A 
ATOM     95  C   UNL     1       1.736  -4.987 -10.097  1.00  0.00     0.028 A 
ATOM     96  C   UNL     1       3.267  -3.773 -12.010  1.00  0.00     0.111 A 
ATOM     97  C   UNL     1       1.304  -4.809 -11.398  1.00  0.00     0.111 A 
ATOM     98  N   UNL     1       2.038  -4.208 -12.360  1.00  0.00    -0.265 NA
ENDBRANCH  92  93
ENDBRANCH  77  85
ENDBRANCH  75  77
ENDBRANCH  74  75
ENDBRANCH  73  74
ENDBRANCH  72  73
ENDBRANCH   1  72
TORSDOF 18
