REMARK SMILES O=C(Cn1c(-c2nc(-c3ccc(C(F)(F)F)cc3)no2)cc2ccccc21)OCCOCCOC(=O)c1ccc(-c2c3nc(c(-c4c(F)c(F)c(F)c(F)c4F)c4ccc([nH]4)c(-c4c(F)c(F)c(F)c(F)c4F)c4nc(c(-c5c(F)c(F)c(F)c(F)c5F)c5ccc2[nH]5)C=C4)C=C3)cc1
REMARK SMILES IDX 30 1 29 2 28 3 2 4 1 5 3 6 4 7 5 8 27 9 21 10 22 11 26 12
REMARK SMILES IDX 23 13 25 14 24 15 6 16 7 17 20 18 8 19 19 20 9 21 10 22
REMARK SMILES IDX 18 23 11 24 17 25 12 26 13 27 14 28 15 29 16 30 31 31 32 32
REMARK SMILES IDX 33 33 34 34 35 35 36 36 37 37 38 38 99 39 39 40 98 41 40 42
REMARK SMILES IDX 41 43 42 44 92 45 43 46 97 47 91 48 93 49 44 50 96 51 90 52
REMARK SMILES IDX 89 53 45 55 77 56 57 57 76 58 58 59 61 60 75 61 94 62 59 63
REMARK SMILES IDX 60 64 74 66 95 67 62 68 46 69 47 70 55 71 48 72 49 73 53 74
REMARK SMILES IDX 56 75 50 76 51 77 54 78 52 79 78 80 79 81 87 82 80 83 81 84
REMARK SMILES IDX 85 85 88 86 82 87 83 88 86 89 84 90 63 91 64 92 72 93 65 94
REMARK SMILES IDX 66 95 70 96 73 97 67 98 68 99 71 100 69 101
REMARK H PARENT 93 54 61 65
REMARK Flexibility Score: inf
ROOT
ATOM      1  C   UNL     1       4.842  -0.894   1.556  1.00  0.00     0.202 C 
ENDROOT
BRANCH   1   2
ATOM      2  C   UNL     1       4.537  -0.095   0.291  1.00  0.00     0.261 C 
BRANCH   2   3
ATOM      3  O   UNL     1       3.265   0.571   0.278  1.00  0.00    -0.462 OA
BRANCH   3   4
ATOM      4  C   UNL     1       2.177   0.127  -0.403  1.00  0.00     0.326 C 
ATOM      5  O   UNL     1       1.091   0.689  -0.260  1.00  0.00    -0.250 OA
BRANCH   4   6
ATOM      6  C   UNL     1       2.285  -1.141  -1.189  1.00  0.00     0.245 C 
BRANCH   6   7
ATOM      7  N   UNL     1       3.218  -1.199  -2.314  1.00  0.00    -0.325 N 
ATOM      8  C   UNL     1       3.780  -0.173  -3.053  1.00  0.00     0.109 A 
ATOM      9  C   UNL     1       3.841  -2.412  -2.659  1.00  0.00     0.049 A 
ATOM     10  C   UNL     1       4.639  -0.768  -3.966  1.00  0.00     0.042 A 
ATOM     11  C   UNL     1       4.724  -2.147  -3.703  1.00  0.00     0.000 A 
ATOM     12  C   UNL     1       3.743  -3.707  -2.113  1.00  0.00     0.027 A 
ATOM     13  C   UNL     1       5.526  -3.176  -4.228  1.00  0.00     0.010 A 
ATOM     14  C   UNL     1       4.570  -4.713  -2.630  1.00  0.00     0.002 A 
ATOM     15  C   UNL     1       5.449  -4.455  -3.676  1.00  0.00     0.001 A 
BRANCH   8  16
ATOM     16  C   UNL     1       3.763   1.253  -2.851  1.00  0.00     0.274 A 
ATOM     17  N   UNL     1       2.796   2.059  -2.446  1.00  0.00    -0.185 NA
ATOM     18  O   UNL     1       4.932   1.931  -3.060  1.00  0.00    -0.332 OA
ATOM     19  C   UNL     1       3.427   3.304  -2.417  1.00  0.00     0.202 A 
ATOM     20  N   UNL     1       4.709   3.251  -2.798  1.00  0.00    -0.057 NA
BRANCH  19  21
ATOM     21  C   UNL     1       2.860   4.590  -2.001  1.00  0.00     0.023 A 
ATOM     22  C   UNL     1       3.736   5.682  -1.811  1.00  0.00     0.013 A 
ATOM     23  C   UNL     1       1.495   4.806  -1.800  1.00  0.00     0.013 A 
ATOM     24  C   UNL     1       3.277   6.942  -1.429  1.00  0.00     0.014 A 
ATOM     25  C   UNL     1       1.025   6.086  -1.438  1.00  0.00     0.014 A 
ATOM     26  C   UNL     1       1.910   7.165  -1.256  1.00  0.00     0.056 A 
BRANCH  26  27
ATOM     27  C   UNL     1       1.442   8.549  -0.869  1.00  0.00     0.416 C 
ATOM     28  F   UNL     1       1.752   8.860   0.421  1.00  0.00    -0.166 F 
ATOM     29  F   UNL     1       2.018   9.524  -1.630  1.00  0.00    -0.166 F 
ATOM     30  F   UNL     1       0.099   8.730  -0.988  1.00  0.00    -0.166 F 
ENDBRANCH  26  27
ENDBRANCH  19  21
ENDBRANCH   8  16
ENDBRANCH   6   7
ENDBRANCH   4   6
ENDBRANCH   3   4
ENDBRANCH   2   3
ENDBRANCH   1   2
BRANCH   1  31
ATOM     31  O   UNL     1       3.777  -1.661   2.098  1.00  0.00    -0.374 OA
BRANCH  31  32
ATOM     32  C   UNL     1       2.719  -0.963   2.770  1.00  0.00     0.202 C 
BRANCH  32  33
ATOM     33  C   UNL     1       3.072   0.145   3.781  1.00  0.00     0.261 C 
BRANCH  33  34
ATOM     34  O   UNL     1       3.679   1.272   3.129  1.00  0.00    -0.460 OA
BRANCH  34  35
ATOM     35  C   UNL     1       4.746   1.829   3.767  1.00  0.00     0.338 C 
ATOM     36  O   UNL     1       5.095   1.663   4.915  1.00  0.00    -0.246 OA
BRANCH  35  37
ATOM     37  C   UNL     1       5.608   2.379   2.698  1.00  0.00     0.060 A 
ATOM     38  C   UNL     1       5.081   3.229   1.730  1.00  0.00     0.016 A 
ATOM     39  C   UNL     1       6.890   1.824   2.551  1.00  0.00     0.016 A 
ATOM     40  C   UNL     1       5.815   3.450   0.573  1.00  0.00     0.010 A 
ATOM     41  C   UNL     1       7.604   2.020   1.368  1.00  0.00     0.010 A 
ATOM     42  C   UNL     1       7.045   2.802   0.357  1.00  0.00    -0.014 A 
BRANCH  42  43
ATOM     43  C   UNL     1       7.726   3.076  -0.916  1.00  0.00     0.031 A 
ATOM     44  C   UNL     1       8.136   4.502  -1.101  1.00  0.00     0.074 A 
ATOM     45  C   UNL     1       8.067   2.155  -1.843  1.00  0.00     0.049 A 
ATOM     46  N   UNL     1       7.877   5.313  -2.078  1.00  0.00    -0.248 NA
ATOM     47  C   UNL     1       8.889   5.115   0.006  1.00  0.00     0.031 C 
ATOM     48  C   UNL     1       8.026   0.695  -1.738  1.00  0.00     0.029 A 
ATOM     49  N   UNL     1       8.616   2.357  -3.083  1.00  0.00    -0.354 N 
ATOM     50  C   UNL     1       8.536   6.502  -1.774  1.00  0.00     0.074 A 
ATOM     51  C   UNL     1       9.068   6.355  -0.444  1.00  0.00     0.031 C 
ATOM     52  C   UNL     1       8.712   0.153  -2.772  1.00  0.00     0.029 A 
ATOM     53  C   UNL     1       9.144   1.214  -3.667  1.00  0.00     0.049 A 
ATOM     54  H   UNL     1       8.634   3.238  -3.521  1.00  0.00     0.167 HD
ATOM     55  C   UNL     1       8.732   7.498  -2.680  1.00  0.00     0.037 A 
ATOM     56  C   UNL     1       9.950   1.156  -4.758  1.00  0.00     0.037 A 
ATOM     57  C   UNL     1       7.823   7.423  -3.785  1.00  0.00     0.049 A 
ATOM     58  C   UNL     1       9.826   2.432  -5.502  1.00  0.00     0.074 A 
ATOM     59  C   UNL     1       6.458   7.561  -3.930  1.00  0.00     0.029 A 
ATOM     60  N   UNL     1       8.265   6.913  -4.977  1.00  0.00    -0.354 N 
ATOM     61  N   UNL     1       8.793   2.792  -6.208  1.00  0.00    -0.248 NA
ATOM     62  C   UNL     1      10.763   3.495  -5.176  1.00  0.00     0.031 C 
ATOM     63  C   UNL     1       6.103   6.677  -4.989  1.00  0.00     0.029 A 
ATOM     64  C   UNL     1       7.280   6.084  -5.447  1.00  0.00     0.049 A 
ATOM     65  H   UNL     1       9.127   7.106  -5.413  1.00  0.00     0.167 HD
ATOM     66  C   UNL     1       8.726   4.168  -6.052  1.00  0.00     0.074 A 
ATOM     67  C   UNL     1      10.021   4.553  -5.506  1.00  0.00     0.031 C 
ATOM     68  C   UNL     1       7.537   4.833  -6.126  1.00  0.00     0.037 A 
BRANCH  55  69
ATOM     69  C   UNL     1       9.924   8.415  -2.669  1.00  0.00     0.064 A 
ATOM     70  C   UNL     1       9.921   9.591  -3.443  1.00  0.00     0.173 A 
ATOM     71  C   UNL     1      11.173   8.040  -2.128  1.00  0.00     0.173 A 
ATOM     72  F   UNL     1       8.795  10.016  -4.035  1.00  0.00    -0.203 F 
ATOM     73  C   UNL     1      11.091  10.315  -3.686  1.00  0.00     0.198 A 
ATOM     74  C   UNL     1      12.328   8.793  -2.328  1.00  0.00     0.198 A 
ATOM     75  F   UNL     1      11.337   6.881  -1.476  1.00  0.00    -0.203 F 
ATOM     76  F   UNL     1      11.062  11.370  -4.511  1.00  0.00    -0.200 F 
ATOM     77  C   UNL     1      12.293   9.916  -3.128  1.00  0.00     0.200 A 
ATOM     78  F   UNL     1      13.486   8.379  -1.796  1.00  0.00    -0.200 F 
ATOM     79  F   UNL     1      13.423  10.583  -3.397  1.00  0.00    -0.200 F 
ENDBRANCH  55  69
BRANCH  56  80
ATOM     80  C   UNL     1      11.059   0.210  -5.046  1.00  0.00     0.064 A 
ATOM     81  C   UNL     1      11.599   0.097  -6.340  1.00  0.00     0.173 A 
ATOM     82  C   UNL     1      11.803  -0.380  -4.007  1.00  0.00     0.173 A 
ATOM     83  F   UNL     1      10.981   0.669  -7.383  1.00  0.00    -0.203 F 
ATOM     84  C   UNL     1      12.822  -0.541  -6.573  1.00  0.00     0.198 A 
ATOM     85  C   UNL     1      13.018  -1.026  -4.242  1.00  0.00     0.198 A 
ATOM     86  F   UNL     1      11.420  -0.255  -2.729  1.00  0.00    -0.203 F 
ATOM     87  F   UNL     1      13.339  -0.569  -7.810  1.00  0.00    -0.200 F 
ATOM     88  C   UNL     1      13.535  -1.094  -5.522  1.00  0.00     0.200 A 
ATOM     89  F   UNL     1      13.714  -1.525  -3.211  1.00  0.00    -0.200 F 
ATOM     90  F   UNL     1      14.735  -1.651  -5.734  1.00  0.00    -0.200 F 
ENDBRANCH  56  80
BRANCH  68  91
ATOM     91  C   UNL     1       6.343   4.112  -6.689  1.00  0.00     0.064 A 
ATOM     92  C   UNL     1       5.812   2.932  -6.145  1.00  0.00     0.173 A 
ATOM     93  C   UNL     1       5.618   4.725  -7.721  1.00  0.00     0.173 A 
ATOM     94  F   UNL     1       6.425   2.298  -5.137  1.00  0.00    -0.203 F 
ATOM     95  C   UNL     1       4.610   2.400  -6.612  1.00  0.00     0.198 A 
ATOM     96  C   UNL     1       4.409   4.200  -8.172  1.00  0.00     0.198 A 
ATOM     97  F   UNL     1       6.062   5.868  -8.268  1.00  0.00    -0.203 F 
ATOM     98  F   UNL     1       4.113   1.277  -6.077  1.00  0.00    -0.200 F 
ATOM     99  C   UNL     1       3.905   3.038  -7.616  1.00  0.00     0.200 A 
ATOM    100  F   UNL     1       3.720   4.834  -9.130  1.00  0.00    -0.200 F 
ATOM    101  F   UNL     1       2.735   2.539  -8.037  1.00  0.00    -0.200 F 
ENDBRANCH  68  91
ENDBRANCH  42  43
ENDBRANCH  35  37
ENDBRANCH  34  35
ENDBRANCH  33  34
ENDBRANCH  32  33
ENDBRANCH  31  32
ENDBRANCH   1  31
TORSDOF 18
