REMARK SMILES CC[N@@H+]1CCO[C@H](C[N@H+]2CCCCC[C@@H]2C(=O)OCCOCCOC(=O)c2ccc(-c3c4nc(c(-c5c(F)c(F)c(F)c(F)c5F)c5ccc([nH]5)c(-c5c(F)c(F)c(F)c(F)c5F)c5nc(c(-c6c(F)c(F)c(F)c(F)c6F)c6ccc3[nH]6)C=C5)C=C4)cc2)C1
REMARK SMILES IDX 20 1 19 2 18 3 16 4 17 5 15 6 9 7 8 9 7 10 3 11 4 12 90 13
REMARK SMILES IDX 5 15 6 16 2 17 1 18 10 19 11 20 14 22 13 23 12 24 21 26
REMARK SMILES IDX 22 27 23 28 24 29 25 30 26 31 27 32 28 33 89 34 29 35 88 36
REMARK SMILES IDX 30 37 31 38 32 39 82 40 33 41 87 42 81 43 83 44 34 45 86 46
REMARK SMILES IDX 80 47 79 48 35 50 67 51 47 52 66 53 48 54 51 55 65 56 84 57
REMARK SMILES IDX 49 58 50 59 64 61 85 62 52 63 36 64 37 65 45 66 38 67 39 68
REMARK SMILES IDX 43 69 46 70 40 71 41 72 44 73 42 74 68 75 69 76 77 77 70 78
REMARK SMILES IDX 71 79 75 80 78 81 72 82 73 83 76 84 74 85 53 86 54 87 62 88
REMARK SMILES IDX 55 89 56 90 60 91 63 92 57 93 58 94 61 95 59 96
REMARK H PARENT 9 8 3 14 83 49 51 60
REMARK Flexibility Score: 100.00
ROOT
ATOM      1  C   UNL     1       0.799  -4.914   4.046  1.00  0.00     0.202 C 
ENDROOT
BRANCH   1   2
ATOM      2  C   UNL     1       0.163  -3.614   3.547  1.00  0.00     0.261 C 
BRANCH   2   3
ATOM      3  O   UNL     1      -0.655  -3.796   2.380  1.00  0.00    -0.459 OA
BRANCH   3   4
ATOM      4  C   UNL     1      -0.095  -3.370   1.215  1.00  0.00     0.364 C 
ATOM      5  O   UNL     1       1.034  -2.893   1.125  1.00  0.00    -0.245 OA
BRANCH   4   6
ATOM      6  C   UNL     1      -1.015  -3.550  -0.014  1.00  0.00     0.295 C 
BRANCH   6   7
ATOM      7  N   UNL     1      -1.672  -2.260  -0.322  1.00  0.00    -0.321 N 
ATOM      8  H   UNL     1      -2.043  -1.965   0.582  1.00  0.00     0.348 HD
BRANCH   7   9
ATOM      9  C   UNL     1      -0.704  -1.235  -0.798  1.00  0.00     0.301 C 
BRANCH   9  10
ATOM     10  C   UNL     1       0.011  -1.464  -2.161  1.00  0.00     0.228 C 
ATOM     11  N   UNL     1       1.177   0.789  -2.566  1.00  0.00    -0.331 N 
ATOM     12  C   UNL     1       0.223   0.961  -3.683  1.00  0.00     0.291 C 
ATOM     13  C   UNL     1       1.324  -0.655  -2.314  1.00  0.00     0.300 C 
ATOM     14  H   UNL     1       2.103   1.143  -2.806  1.00  0.00     0.348 HD
ATOM     15  C   UNL     1      -1.085   0.161  -3.535  1.00  0.00     0.222 C 
ATOM     16  O   UNL     1      -0.859  -1.232  -3.287  1.00  0.00    -0.361 OA
BRANCH  11  17
ATOM     17  C   UNL     1       0.819   1.615  -1.408  1.00  0.00     0.258 C 
ATOM     18  C   UNL     1       1.729   1.455  -0.192  1.00  0.00     0.071 C 
ENDBRANCH  11  17
ENDBRANCH   9  10
ENDBRANCH   7   9
BRANCH   7  19
ATOM     19  C   UNL     1      -2.847  -2.330  -1.188  1.00  0.00     0.262 C 
BRANCH  19  20
ATOM     20  C   UNL     1      -4.108  -2.643  -0.379  1.00  0.00     0.061 CG0
ATOM     21  G   UNL     1      -4.313  -4.116  -0.066  1.00  0.00     0.000 G0
ENDBRANCH  19  20
ENDBRANCH   7  19
ENDBRANCH   6   7
BRANCH   6  22
ATOM     22  C   UNL     1      -1.882  -4.824   0.042  1.00  0.00     0.077 C 
BRANCH  22  23
ATOM     23  C   UNL     1      -3.210  -4.733   0.782  1.00  0.00     0.007 C 
BRANCH  23  24
ATOM     24  C   UNL     1      -4.313  -4.116  -0.066  1.00  0.00     0.006 CG0
ATOM     25  G   UNL     1      -4.108  -2.643  -0.379  1.00  0.00     0.000 G0
ENDBRANCH  23  24
ENDBRANCH  22  23
ENDBRANCH   6  22
ENDBRANCH   4   6
ENDBRANCH   3   4
ENDBRANCH   2   3
ENDBRANCH   1   2
BRANCH   1  26
ATOM     26  O   UNL     1       1.738  -5.561   3.193  1.00  0.00    -0.374 OA
BRANCH  26  27
ATOM     27  C   UNL     1       1.256  -6.249   2.041  1.00  0.00     0.202 C 
BRANCH  27  28
ATOM     28  C   UNL     1       0.403  -7.501   2.275  1.00  0.00     0.261 C 
BRANCH  28  29
ATOM     29  O   UNL     1      -0.863  -7.192   2.890  1.00  0.00    -0.460 OA
BRANCH  29  30
ATOM     30  C   UNL     1      -1.096  -7.849   4.050  1.00  0.00     0.338 C 
ATOM     31  O   UNL     1      -0.408  -8.723   4.560  1.00  0.00    -0.246 OA
BRANCH  30  32
ATOM     32  C   UNL     1      -2.236  -7.254   4.764  1.00  0.00     0.060 A 
ATOM     33  C   UNL     1      -1.996  -6.743   6.046  1.00  0.00     0.016 A 
ATOM     34  C   UNL     1      -3.535  -7.319   4.256  1.00  0.00     0.016 A 
ATOM     35  C   UNL     1      -3.060  -6.350   6.851  1.00  0.00     0.010 A 
ATOM     36  C   UNL     1      -4.606  -6.933   5.072  1.00  0.00     0.010 A 
ATOM     37  C   UNL     1      -4.375  -6.489   6.387  1.00  0.00    -0.014 A 
BRANCH  37  38
ATOM     38  C   UNL     1      -5.494  -6.331   7.347  1.00  0.00     0.031 A 
ATOM     39  C   UNL     1      -6.080  -7.556   7.993  1.00  0.00     0.074 A 
ATOM     40  C   UNL     1      -5.942  -5.110   7.687  1.00  0.00     0.049 A 
ATOM     41  N   UNL     1      -7.050  -7.654   8.867  1.00  0.00    -0.248 NA
ATOM     42  C   UNL     1      -5.488  -8.847   7.606  1.00  0.00     0.031 C 
ATOM     43  C   UNL     1      -5.426  -3.848   7.165  1.00  0.00     0.029 A 
ATOM     44  N   UNL     1      -6.935  -4.737   8.558  1.00  0.00    -0.354 N 
ATOM     45  C   UNL     1      -7.183  -9.010   9.133  1.00  0.00     0.074 A 
ATOM     46  C   UNL     1      -6.217  -9.702   8.307  1.00  0.00     0.031 C 
ATOM     47  C   UNL     1      -6.113  -2.835   7.719  1.00  0.00     0.029 A 
ATOM     48  C   UNL     1      -7.133  -3.381   8.614  1.00  0.00     0.049 A 
ATOM     49  H   UNL     1      -7.455  -5.381   9.091  1.00  0.00     0.167 HD
ATOM     50  C   UNL     1      -8.026  -9.623   9.998  1.00  0.00     0.037 A 
ATOM     51  C   UNL     1      -8.046  -2.664   9.298  1.00  0.00     0.037 A 
ATOM     52  C   UNL     1      -8.988  -8.937  10.819  1.00  0.00     0.049 A 
ATOM     53  C   UNL     1      -9.021  -3.374  10.200  1.00  0.00     0.074 A 
ATOM     54  C   UNL     1      -9.880  -9.469  11.734  1.00  0.00     0.029 A 
ATOM     55  N   UNL     1      -9.187  -7.564  10.818  1.00  0.00    -0.354 N 
ATOM     56  N   UNL     1      -9.128  -4.654  10.461  1.00  0.00    -0.248 NA
ATOM     57  C   UNL     1     -10.001  -2.537  10.907  1.00  0.00     0.031 C 
ATOM     58  C   UNL     1     -10.650  -8.422  12.253  1.00  0.00     0.029 A 
ATOM     59  C   UNL     1     -10.205  -7.233  11.698  1.00  0.00     0.049 A 
ATOM     60  H   UNL     1      -8.680  -6.920  10.273  1.00  0.00     0.167 HD
ATOM     61  C   UNL     1     -10.166  -4.775  11.375  1.00  0.00     0.074 A 
ATOM     62  C   UNL     1     -10.650  -3.435  11.635  1.00  0.00     0.031 C 
ATOM     63  C   UNL     1     -10.674  -5.894  11.947  1.00  0.00     0.037 A 
BRANCH  50  64
ATOM     64  C   UNL     1      -7.961 -11.120  10.082  1.00  0.00     0.064 A 
ATOM     65  C   UNL     1      -6.886 -11.776  10.700  1.00  0.00     0.173 A 
ATOM     66  C   UNL     1      -9.000 -11.906   9.563  1.00  0.00     0.173 A 
ATOM     67  F   UNL     1      -5.860 -11.069  11.198  1.00  0.00    -0.203 F 
ATOM     68  C   UNL     1      -6.842 -13.166  10.773  1.00  0.00     0.198 A 
ATOM     69  C   UNL     1      -8.966 -13.294   9.662  1.00  0.00     0.198 A 
ATOM     70  F   UNL     1     -10.052 -11.327   8.966  1.00  0.00    -0.203 F 
ATOM     71  F   UNL     1      -5.785 -13.774  11.329  1.00  0.00    -0.200 F 
ATOM     72  C   UNL     1      -7.885 -13.923  10.260  1.00  0.00     0.200 A 
ATOM     73  F   UNL     1      -9.979 -14.024   9.174  1.00  0.00    -0.200 F 
ATOM     74  F   UNL     1      -7.844 -15.261  10.336  1.00  0.00    -0.200 F 
ENDBRANCH  50  64
BRANCH  51  75
ATOM     75  C   UNL     1      -8.089  -1.188   9.144  1.00  0.00     0.064 A 
ATOM     76  C   UNL     1      -7.718  -0.337  10.194  1.00  0.00     0.173 A 
ATOM     77  C   UNL     1      -8.512  -0.599   7.943  1.00  0.00     0.173 A 
ATOM     78  F   UNL     1      -7.333  -0.853  11.370  1.00  0.00    -0.203 F 
ATOM     79  C   UNL     1      -7.780   1.048  10.052  1.00  0.00     0.198 A 
ATOM     80  C   UNL     1      -8.549   0.786   7.794  1.00  0.00     0.198 A 
ATOM     81  F   UNL     1      -8.882  -1.370   6.911  1.00  0.00    -0.203 F 
ATOM     82  F   UNL     1      -7.459   1.840  11.084  1.00  0.00    -0.200 F 
ATOM     83  C   UNL     1      -8.189   1.608   8.851  1.00  0.00     0.200 A 
ATOM     84  F   UNL     1      -8.935   1.322   6.628  1.00  0.00    -0.200 F 
ATOM     85  F   UNL     1      -8.244   2.940   8.714  1.00  0.00    -0.200 F 
ENDBRANCH  51  75
BRANCH  63  86
ATOM     86  C   UNL     1     -11.795  -5.718  12.930  1.00  0.00     0.064 A 
ATOM     87  C   UNL     1     -13.090  -5.379  12.514  1.00  0.00     0.173 A 
ATOM     88  C   UNL     1     -11.579  -5.934  14.300  1.00  0.00     0.173 A 
ATOM     89  F   UNL     1     -13.344  -5.148  11.217  1.00  0.00    -0.203 F 
ATOM     90  C   UNL     1     -14.124  -5.239  13.437  1.00  0.00     0.198 A 
ATOM     91  C   UNL     1     -12.621  -5.821  15.216  1.00  0.00     0.198 A 
ATOM     92  F   UNL     1     -10.360  -6.268  14.748  1.00  0.00    -0.203 F 
ATOM     93  F   UNL     1     -15.344  -4.871  13.022  1.00  0.00    -0.200 F 
ATOM     94  C   UNL     1     -13.891  -5.467  14.785  1.00  0.00     0.200 A 
ATOM     95  F   UNL     1     -12.396  -6.053  16.517  1.00  0.00    -0.200 F 
ATOM     96  F   UNL     1     -14.888  -5.338  15.671  1.00  0.00    -0.200 F 
ENDBRANCH  63  86
ENDBRANCH  37  38
ENDBRANCH  30  32
ENDBRANCH  29  30
ENDBRANCH  28  29
ENDBRANCH  27  28
ENDBRANCH  26  27
ENDBRANCH   1  26
TORSDOF 17
