REMARK SMILES O=C(OCCOCCOC(=O)[C@@H]1C[C@@H]2CC[C@H]1N2C(=O)c1ccncc1Cl)c1ccc(-c2c3nc(c(-c4c(F)c(F)c(F)c(F)c4F)c4ccc([nH]4)c(-c4c(F)c(F)c(F)c(F)c4F)c4nc(c(-c5c(F)c(F)c(F)c(F)c5F)c5ccc2[nH]5)C=C4)C=C3)cc1
REMARK SMILES IDX 6 1 5 2 4 3 3 4 2 5 1 6 28 7 29 8 90 9 30 10 89 11 31 12
REMARK SMILES IDX 32 13 33 14 83 15 34 16 88 17 82 18 84 19 35 20 87 21 81 22
REMARK SMILES IDX 80 23 36 25 68 26 48 27 67 28 49 29 52 30 66 31 85 32 50 33
REMARK SMILES IDX 51 34 65 36 86 37 53 38 37 39 38 40 46 41 39 42 40 43 44 44
REMARK SMILES IDX 47 45 41 46 42 47 45 48 43 49 69 50 70 51 78 52 71 53 72 54
REMARK SMILES IDX 76 55 79 56 73 57 74 58 77 59 75 60 54 61 55 62 63 63 56 64
REMARK SMILES IDX 57 65 61 66 64 67 58 68 59 69 62 70 60 71 7 72 8 73 9 74
REMARK SMILES IDX 10 75 11 76 12 77 13 78 17 79 14 80 16 81 18 82 15 83 19 84
REMARK SMILES IDX 20 85 21 86 22 87 26 88 23 89 25 90 27 91 24 92
REMARK H PARENT 84 24 52 35
REMARK Flexibility Score: inf
ROOT
ATOM      1  O   UNL     1       3.561   1.069  -0.959  1.00  0.00    -0.374 OA
ENDROOT
BRANCH   1   2
ATOM      2  C   UNL     1       3.957  -0.127  -1.628  1.00  0.00     0.202 C 
BRANCH   2   3
ATOM      3  C   UNL     1       3.762  -1.383  -0.776  1.00  0.00     0.261 C 
BRANCH   3   4
ATOM      4  O   UNL     1       2.418  -1.450  -0.280  1.00  0.00    -0.460 OA
BRANCH   4   5
ATOM      5  C   UNL     1       1.937  -0.908   0.864  1.00  0.00     0.338 C 
ATOM      6  O   UNL     1       0.720  -0.905   1.042  1.00  0.00    -0.246 OA
BRANCH   5   7
ATOM      7  C   UNL     1       2.797  -0.358   1.958  1.00  0.00     0.060 A 
ATOM      8  C   UNL     1       4.035   0.268   1.788  1.00  0.00     0.016 A 
ATOM      9  C   UNL     1       2.262  -0.407   3.258  1.00  0.00     0.016 A 
ATOM     10  C   UNL     1       4.742   0.789   2.859  1.00  0.00     0.010 A 
ATOM     11  C   UNL     1       2.955   0.135   4.344  1.00  0.00     0.010 A 
ATOM     12  C   UNL     1       4.208   0.721   4.140  1.00  0.00    -0.014 A 
BRANCH  12  13
ATOM     13  C   UNL     1       5.070   1.151   5.250  1.00  0.00     0.031 A 
ATOM     14  C   UNL     1       5.784   0.094   6.029  1.00  0.00     0.074 A 
ATOM     15  C   UNL     1       5.327   2.460   5.417  1.00  0.00     0.049 A 
ATOM     16  N   UNL     1       6.594   0.215   7.044  1.00  0.00    -0.248 NA
ATOM     17  C   UNL     1       5.570  -1.295   5.589  1.00  0.00     0.031 C 
ATOM     18  C   UNL     1       4.780   3.537   4.587  1.00  0.00     0.029 A 
ATOM     19  N   UNL     1       6.142   3.103   6.306  1.00  0.00    -0.354 N 
ATOM     20  C   UNL     1       6.961  -1.079   7.382  1.00  0.00     0.074 A 
ATOM     21  C   UNL     1       6.290  -1.973   6.467  1.00  0.00     0.031 C 
ATOM     22  C   UNL     1       5.301   4.707   4.990  1.00  0.00     0.029 A 
ATOM     23  C   UNL     1       6.156   4.467   6.147  1.00  0.00     0.049 A 
ATOM     24  H   UNL     1       6.668   2.635   6.993  1.00  0.00     0.167 HD
ATOM     25  C   UNL     1       7.782  -1.474   8.382  1.00  0.00     0.037 A 
ATOM     26  C   UNL     1       6.774   5.407   6.885  1.00  0.00     0.037 A 
ATOM     27  C   UNL     1       8.429  -0.549   9.272  1.00  0.00     0.049 A 
ATOM     28  C   UNL     1       7.593   4.941   8.060  1.00  0.00     0.074 A 
ATOM     29  C   UNL     1       9.221  -0.810  10.373  1.00  0.00     0.029 A 
ATOM     30  N   UNL     1       8.348   0.834   9.151  1.00  0.00    -0.354 N 
ATOM     31  N   UNL     1       7.876   3.716   8.437  1.00  0.00    -0.248 NA
ATOM     32  C   UNL     1       8.162   5.983   8.922  1.00  0.00     0.031 C 
ATOM     33  C   UNL     1       9.580   0.416  10.945  1.00  0.00     0.029 A 
ATOM     34  C   UNL     1       9.059   1.442  10.169  1.00  0.00     0.049 A 
ATOM     35  H   UNL     1       7.855   1.311   8.444  1.00  0.00     0.167 HD
ATOM     36  C   UNL     1       8.670   3.836   9.567  1.00  0.00     0.074 A 
ATOM     37  C   UNL     1       8.840   5.258   9.800  1.00  0.00     0.031 C 
ATOM     38  C   UNL     1       9.207   2.866  10.350  1.00  0.00     0.037 A 
BRANCH  25  39
ATOM     39  C   UNL     1       7.928  -2.951   8.597  1.00  0.00     0.064 A 
ATOM     40  C   UNL     1       8.620  -3.774   7.695  1.00  0.00     0.173 A 
ATOM     41  C   UNL     1       7.305  -3.563   9.696  1.00  0.00     0.173 A 
ATOM     42  F   UNL     1       9.204  -3.245   6.610  1.00  0.00    -0.203 F 
ATOM     43  C   UNL     1       8.648  -5.158   7.864  1.00  0.00     0.198 A 
ATOM     44  C   UNL     1       7.360  -4.942   9.877  1.00  0.00     0.198 A 
ATOM     45  F   UNL     1       6.622  -2.824  10.583  1.00  0.00    -0.203 F 
ATOM     46  F   UNL     1       9.251  -5.931   6.950  1.00  0.00    -0.200 F 
ATOM     47  C   UNL     1       8.020  -5.740   8.955  1.00  0.00     0.200 A 
ATOM     48  F   UNL     1       6.752  -5.502  10.933  1.00  0.00    -0.200 F 
ATOM     49  F   UNL     1       8.033  -7.071   9.107  1.00  0.00    -0.200 F 
ENDBRANCH  25  39
BRANCH  26  50
ATOM     50  C   UNL     1       6.603   6.851   6.571  1.00  0.00     0.064 A 
ATOM     51  C   UNL     1       7.691   7.648   6.187  1.00  0.00     0.173 A 
ATOM     52  C   UNL     1       5.348   7.474   6.665  1.00  0.00     0.173 A 
ATOM     53  F   UNL     1       8.917   7.111   6.103  1.00  0.00    -0.203 F 
ATOM     54  C   UNL     1       7.533   9.009   5.927  1.00  0.00     0.198 A 
ATOM     55  C   UNL     1       5.185   8.827   6.373  1.00  0.00     0.198 A 
ATOM     56  F   UNL     1       4.271   6.764   7.033  1.00  0.00    -0.203 F 
ATOM     57  F   UNL     1       8.600   9.756   5.609  1.00  0.00    -0.200 F 
ATOM     58  C   UNL     1       6.280   9.596   6.013  1.00  0.00     0.200 A 
ATOM     59  F   UNL     1       3.969   9.384   6.446  1.00  0.00    -0.200 F 
ATOM     60  F   UNL     1       6.129  10.904   5.762  1.00  0.00    -0.200 F 
ENDBRANCH  26  50
BRANCH  38  61
ATOM     61  C   UNL     1      10.057   3.322  11.496  1.00  0.00     0.064 A 
ATOM     62  C   UNL     1       9.497   3.911  12.639  1.00  0.00     0.173 A 
ATOM     63  C   UNL     1      11.446   3.125  11.465  1.00  0.00     0.173 A 
ATOM     64  F   UNL     1       8.176   4.134  12.705  1.00  0.00    -0.203 F 
ATOM     65  C   UNL     1      10.303   4.312  13.699  1.00  0.00     0.198 A 
ATOM     66  C   UNL     1      12.243   3.496  12.541  1.00  0.00     0.198 A 
ATOM     67  F   UNL     1      12.024   2.558  10.395  1.00  0.00    -0.203 F 
ATOM     68  F   UNL     1       9.755   4.919  14.761  1.00  0.00    -0.200 F 
ATOM     69  C   UNL     1      11.673   4.097  13.653  1.00  0.00     0.200 A 
ATOM     70  F   UNL     1      13.564   3.274  12.502  1.00  0.00    -0.200 F 
ATOM     71  F   UNL     1      12.445   4.475  14.681  1.00  0.00    -0.200 F 
ENDBRANCH  38  61
ENDBRANCH  12  13
ENDBRANCH   5   7
ENDBRANCH   4   5
ENDBRANCH   3   4
ENDBRANCH   2   3
ENDBRANCH   1   2
BRANCH   1  72
ATOM     72  C   UNL     1       2.242   1.544  -1.236  1.00  0.00     0.202 C 
BRANCH  72  73
ATOM     73  C   UNL     1       2.329   2.936  -1.863  1.00  0.00     0.261 C 
BRANCH  73  74
ATOM     74  O   UNL     1       3.059   2.841  -3.097  1.00  0.00    -0.463 OA
BRANCH  74  75
ATOM     75  C   UNL     1       4.416   2.878  -2.962  1.00  0.00     0.311 C 
ATOM     76  O   UNL     1       5.028   3.261  -1.974  1.00  0.00    -0.252 OA
BRANCH  75  77
ATOM     77  C   UNL     1       5.051   2.315  -4.201  1.00  0.00     0.124 C 
ATOM     78  C   UNL     1       6.226   1.333  -3.949  1.00  0.00     0.042 C 
ATOM     79  C   UNL     1       5.690   3.396  -5.076  1.00  0.00     0.100 C 
ATOM     80  C   UNL     1       7.350   1.945  -4.808  1.00  0.00     0.086 C 
ATOM     81  C   UNL     1       6.746   4.213  -4.308  1.00  0.00     0.028 C 
ATOM     82  N   UNL     1       6.572   2.555  -5.866  1.00  0.00    -0.332 N 
ATOM     83  C   UNL     1       7.873   3.183  -4.067  1.00  0.00     0.027 C 
BRANCH  82  84
ATOM     84  C   UNL     1       6.540   2.140  -7.170  1.00  0.00     0.256 C 
ATOM     85  O   UNL     1       7.269   1.257  -7.611  1.00  0.00    -0.269 OA
BRANCH  84  86
ATOM     86  C   UNL     1       5.491   2.689  -8.052  1.00  0.00     0.061 A 
ATOM     87  C   UNL     1       4.627   1.756  -8.637  1.00  0.00     0.035 A 
ATOM     88  C   UNL     1       5.328   4.046  -8.318  1.00  0.00     0.072 A 
ATOM     89  C   UNL     1       3.582   2.225  -9.409  1.00  0.00     0.112 A 
ATOM     90  C   UNL     1       4.229   4.413  -9.080  1.00  0.00     0.132 A 
ATOM     91  Cl  UNL     1       6.424   5.270  -7.809  1.00  0.00    -0.082 Cl
ATOM     92  N   UNL     1       3.345   3.537  -9.618  1.00  0.00    -0.263 NA
ENDBRANCH  84  86
ENDBRANCH  82  84
ENDBRANCH  75  77
ENDBRANCH  74  75
ENDBRANCH  73  74
ENDBRANCH  72  73
ENDBRANCH   1  72
TORSDOF 16
