REMARK SMILES CCC[NH2+][C@]1(C(=O)OCCOCCOC(=O)c2ccc(-c3c4nc(c(-c5c(F)c(F)c(F)c(F)c5F)c5ccc([nH]5)c(-c5c(F)c(F)c(F)c(F)c5F)c5nc(c(-c6c(F)c(F)c(F)c(F)c6F)c6ccc3[nH]6)C=C5)C=C4)cc2)CCC[C@H](OC(C)(C)C)C1
REMARK SMILES IDX 10 1 9 2 8 3 6 4 7 5 5 6 80 7 89 8 81 9 83 10 82 11 4 12
REMARK SMILES IDX 3 15 2 16 1 17 84 18 85 19 86 20 87 21 88 22 11 23 12 24
REMARK SMILES IDX 13 25 14 26 15 27 16 28 17 29 18 30 79 31 19 32 78 33 20 34
REMARK SMILES IDX 21 35 22 36 72 37 23 38 77 39 71 40 73 41 24 42 76 43 70 44
REMARK SMILES IDX 69 45 25 47 57 48 37 49 56 50 38 51 41 52 55 53 74 54 39 55
REMARK SMILES IDX 40 56 54 58 75 59 42 60 26 61 27 62 35 63 28 64 29 65 33 66
REMARK SMILES IDX 36 67 30 68 31 69 34 70 32 71 58 72 59 73 67 74 60 75 61 76
REMARK SMILES IDX 65 77 68 78 62 79 63 80 66 81 64 82 43 83 44 84 52 85 45 86
REMARK SMILES IDX 46 87 50 88 53 89 47 90 48 91 51 92 49 93
REMARK H PARENT 4 13 4 14 73 46 41 57
REMARK Flexibility Score: inf
ROOT
ATOM      1  C   UNL     1      -0.621   0.838   0.064  1.00  0.00     0.202 C 
ENDROOT
BRANCH   1   2
ATOM      2  C   UNL     1      -0.649  -0.259   1.132  1.00  0.00     0.261 C 
BRANCH   2   3
ATOM      3  O   UNL     1      -0.428   0.223   2.465  1.00  0.00    -0.459 OA
BRANCH   3   4
ATOM      4  C   UNL     1       0.859   0.075   2.879  1.00  0.00     0.368 C 
ATOM      5  O   UNL     1       1.756  -0.415   2.191  1.00  0.00    -0.245 OA
BRANCH   4   6
ATOM      6  C   UNL     1       1.102   0.508   4.351  1.00  0.00     0.196 C 
ATOM      7  C   UNL     1       0.329   1.742   4.846  1.00  0.00     0.081 C 
ATOM      8  C   UNL     1       0.521  -0.678   5.158  1.00  0.00     0.113 C 
ATOM      9  C   UNL     1       0.451   1.953   6.366  1.00  0.00     0.010 C 
ATOM     10  C   UNL     1       0.904  -0.643   6.626  1.00  0.00     0.125 C 
ATOM     11  C   UNL     1       0.409   0.688   7.245  1.00  0.00     0.032 C 
BRANCH   6  12
ATOM     12  N   UNL     1       2.584   0.604   4.482  1.00  0.00    -0.332 N 
ATOM     13  H   UNL     1       2.838   0.080   5.319  1.00  0.00     0.347 HD
ATOM     14  H   UNL     1       2.918   0.253   3.585  1.00  0.00     0.347 HD
BRANCH  12  15
ATOM     15  C   UNL     1       3.228   1.901   4.590  1.00  0.00     0.261 C 
BRANCH  15  16
ATOM     16  C   UNL     1       4.752   1.783   4.459  1.00  0.00     0.058 C 
ATOM     17  C   UNL     1       5.212   1.534   3.032  1.00  0.00     0.010 C 
ENDBRANCH  15  16
ENDBRANCH  12  15
ENDBRANCH   6  12
BRANCH  10  18
ATOM     18  O   UNL     1       2.305  -0.803   6.856  1.00  0.00    -0.372 OA
BRANCH  18  19
ATOM     19  C   UNL     1       2.951  -2.078   6.666  1.00  0.00     0.060 C 
ATOM     20  C   UNL     1       2.302  -3.168   7.525  1.00  0.00     0.042 C 
ATOM     21  C   UNL     1       3.065  -2.586   5.217  1.00  0.00     0.042 C 
ATOM     22  C   UNL     1       4.392  -1.843   7.151  1.00  0.00     0.042 C 
ENDBRANCH  18  19
ENDBRANCH  10  18
ENDBRANCH   4   6
ENDBRANCH   3   4
ENDBRANCH   2   3
ENDBRANCH   1   2
BRANCH   1  23
ATOM     23  O   UNL     1       0.494   1.720   0.023  1.00  0.00    -0.374 OA
BRANCH  23  24
ATOM     24  C   UNL     1       0.646   2.700   1.048  1.00  0.00     0.202 C 
BRANCH  24  25
ATOM     25  C   UNL     1      -0.427   3.784   1.181  1.00  0.00     0.261 C 
BRANCH  25  26
ATOM     26  O   UNL     1      -1.713   3.248   1.541  1.00  0.00    -0.460 OA
BRANCH  26  27
ATOM     27  C   UNL     1      -2.695   3.513   0.647  1.00  0.00     0.338 C 
ATOM     28  O   UNL     1      -2.616   4.209  -0.357  1.00  0.00    -0.246 OA
BRANCH  27  29
ATOM     29  C   UNL     1      -3.885   2.692   0.920  1.00  0.00     0.060 A 
ATOM     30  C   UNL     1      -4.353   1.875  -0.117  1.00  0.00     0.016 A 
ATOM     31  C   UNL     1      -4.607   2.817   2.108  1.00  0.00     0.016 A 
ATOM     32  C   UNL     1      -5.581   1.232  -0.000  1.00  0.00     0.010 A 
ATOM     33  C   UNL     1      -5.848   2.179   2.222  1.00  0.00     0.010 A 
ATOM     34  C   UNL     1      -6.359   1.425   1.149  1.00  0.00    -0.014 A 
BRANCH  34  35
ATOM     35  C   UNL     1      -7.775   0.987   1.134  1.00  0.00     0.031 A 
ATOM     36  C   UNL     1      -8.841   1.990   0.788  1.00  0.00     0.074 A 
ATOM     37  C   UNL     1      -8.101  -0.297   1.360  1.00  0.00     0.049 A 
ATOM     38  N   UNL     1     -10.137   1.830   0.698  1.00  0.00    -0.248 NA
ATOM     39  C   UNL     1      -8.384   3.360   0.502  1.00  0.00     0.031 C 
ATOM     40  C   UNL     1      -7.154  -1.367   1.660  1.00  0.00     0.029 A 
ATOM     41  N   UNL     1      -9.326  -0.915   1.368  1.00  0.00    -0.354 N 
ATOM     42  C   UNL     1     -10.647   3.073   0.347  1.00  0.00     0.074 A 
ATOM     43  C   UNL     1      -9.528   3.986   0.270  1.00  0.00     0.031 C 
ATOM     44  C   UNL     1      -7.834  -2.514   1.832  1.00  0.00     0.029 A 
ATOM     45  C   UNL     1      -9.264  -2.251   1.677  1.00  0.00     0.049 A 
ATOM     46  H   UNL     1     -10.169  -0.446   1.172  1.00  0.00     0.167 HD
ATOM     47  C   UNL     1     -11.933   3.420   0.102  1.00  0.00     0.037 A 
ATOM     48  C   UNL     1     -10.253  -3.153   1.830  1.00  0.00     0.037 A 
ATOM     49  C   UNL     1     -13.046   2.511   0.173  1.00  0.00     0.049 A 
ATOM     50  C   UNL     1     -11.682  -2.728   1.610  1.00  0.00     0.074 A 
ATOM     51  C   UNL     1     -14.384   2.762  -0.073  1.00  0.00     0.029 A 
ATOM     52  N   UNL     1     -12.947   1.172   0.524  1.00  0.00    -0.354 N 
ATOM     53  N   UNL     1     -12.153  -1.556   1.257  1.00  0.00    -0.248 NA
ATOM     54  C   UNL     1     -12.716  -3.755   1.804  1.00  0.00     0.031 C 
ATOM     55  C   UNL     1     -15.101   1.586   0.172  1.00  0.00     0.029 A 
ATOM     56  C   UNL     1     -14.204   0.590   0.523  1.00  0.00     0.049 A 
ATOM     57  H   UNL     1     -12.108   0.705   0.740  1.00  0.00     0.167 HD
ATOM     58  C   UNL     1     -13.530  -1.710   1.162  1.00  0.00     0.074 A 
ATOM     59  C   UNL     1     -13.818  -3.092   1.482  1.00  0.00     0.031 C 
ATOM     60  C   UNL     1     -14.472  -0.789   0.839  1.00  0.00     0.037 A 
BRANCH  47  61
ATOM     61  C   UNL     1     -12.209   4.852  -0.247  1.00  0.00     0.064 A 
ATOM     62  C   UNL     1     -11.858   5.387  -1.495  1.00  0.00     0.173 A 
ATOM     63  C   UNL     1     -12.863   5.691   0.668  1.00  0.00     0.173 A 
ATOM     64  F   UNL     1     -11.217   4.630  -2.398  1.00  0.00    -0.203 F 
ATOM     65  C   UNL     1     -12.133   6.717  -1.807  1.00  0.00     0.198 A 
ATOM     66  C   UNL     1     -13.159   7.012   0.343  1.00  0.00     0.198 A 
ATOM     67  F   UNL     1     -13.221   5.227   1.874  1.00  0.00    -0.203 F 
ATOM     68  F   UNL     1     -11.752   7.219  -2.990  1.00  0.00    -0.200 F 
ATOM     69  C   UNL     1     -12.789   7.526  -0.890  1.00  0.00     0.200 A 
ATOM     70  F   UNL     1     -13.801   7.790   1.226  1.00  0.00    -0.200 F 
ATOM     71  F   UNL     1     -13.059   8.803  -1.194  1.00  0.00    -0.200 F 
ENDBRANCH  47  61
BRANCH  48  72
ATOM     72  C   UNL     1      -9.928  -4.548   2.220  1.00  0.00     0.064 A 
ATOM     73  C   UNL     1     -10.101  -5.612   1.325  1.00  0.00     0.173 A 
ATOM     74  C   UNL     1      -9.448  -4.847   3.504  1.00  0.00     0.173 A 
ATOM     75  F   UNL     1     -10.581  -5.379   0.094  1.00  0.00    -0.203 F 
ATOM     76  C   UNL     1      -9.822  -6.923   1.704  1.00  0.00     0.198 A 
ATOM     77  C   UNL     1      -9.144  -6.155   3.873  1.00  0.00     0.198 A 
ATOM     78  F   UNL     1      -9.267  -3.864   4.399  1.00  0.00    -0.203 F 
ATOM     79  F   UNL     1     -10.037  -7.927   0.842  1.00  0.00    -0.200 F 
ATOM     80  C   UNL     1      -9.338  -7.193   2.975  1.00  0.00     0.200 A 
ATOM     81  F   UNL     1      -8.667  -6.409   5.099  1.00  0.00    -0.200 F 
ATOM     82  F   UNL     1      -9.067  -8.454   3.338  1.00  0.00    -0.200 F 
ENDBRANCH  48  72
BRANCH  60  83
ATOM     83  C   UNL     1     -15.898  -1.253   0.784  1.00  0.00     0.064 A 
ATOM     84  C   UNL     1     -16.623  -1.538   1.950  1.00  0.00     0.173 A 
ATOM     85  C   UNL     1     -16.560  -1.371  -0.447  1.00  0.00     0.173 A 
ATOM     86  F   UNL     1     -16.030  -1.454   3.151  1.00  0.00    -0.203 F 
ATOM     87  C   UNL     1     -17.952  -1.949   1.884  1.00  0.00     0.198 A 
ATOM     88  C   UNL     1     -17.896  -1.754  -0.509  1.00  0.00     0.198 A 
ATOM     89  F   UNL     1     -15.912  -1.101  -1.591  1.00  0.00    -0.203 F 
ATOM     90  F   UNL     1     -18.612  -2.259   3.008  1.00  0.00    -0.200 F 
ATOM     91  C   UNL     1     -18.589  -2.049   0.656  1.00  0.00     0.200 A 
ATOM     92  F   UNL     1     -18.514  -1.839  -1.695  1.00  0.00    -0.200 F 
ATOM     93  F   UNL     1     -19.870  -2.438   0.594  1.00  0.00    -0.200 F 
ENDBRANCH  60  83
ENDBRANCH  34  35
ENDBRANCH  27  29
ENDBRANCH  26  27
ENDBRANCH  25  26
ENDBRANCH  24  25
ENDBRANCH  23  24
ENDBRANCH   1  23
TORSDOF 19
