REMARK SMILES CC/C=C(/C)C(=O)N[C@H]1CCCCC[C@@H]1C(=O)OCCOCCOC(=O)c1ccc(-c2c3nc(c(-c4c(F)c(F)c(F)c(F)c4F)c4ccc([nH]4)c(-c4c(F)c(F)c(F)c(F)c4F)c4nc(c(-c5c(F)c(F)c(F)c(F)c5F)c5ccc2[nH]5)C=C4)C=C3)cc1
REMARK SMILES IDX 20 1 19 2 18 3 16 4 17 5 15 6 9 7 8 8 6 9 7 10 4 12 3 13
REMARK SMILES IDX 5 14 2 15 1 16 10 17 11 18 14 20 13 21 12 22 21 24 22 25
REMARK SMILES IDX 23 26 24 27 25 28 26 29 27 30 28 31 89 32 29 33 88 34 30 35
REMARK SMILES IDX 31 36 32 37 82 38 33 39 87 40 81 41 83 42 34 43 86 44 80 45
REMARK SMILES IDX 79 46 35 48 67 49 47 50 66 51 48 52 51 53 65 54 84 55 49 56
REMARK SMILES IDX 50 57 64 59 85 60 52 61 36 62 37 63 45 64 38 65 39 66 43 67
REMARK SMILES IDX 46 68 40 69 41 70 44 71 42 72 68 73 69 74 77 75 70 76 71 77
REMARK SMILES IDX 75 78 78 79 72 80 73 81 76 82 74 83 53 84 54 85 62 86 55 87
REMARK SMILES IDX 56 88 60 89 63 90 57 91 58 92 61 93 59 94
REMARK H PARENT 8 11 83 47 51 58
REMARK Flexibility Score: 100.00
ROOT
ATOM      1  C   UNL     1      -4.088   0.039   4.332  1.00  0.00     0.202 C 
ENDROOT
BRANCH   1   2
ATOM      2  C   UNL     1      -4.464  -1.028   5.362  1.00  0.00     0.261 C 
BRANCH   2   3
ATOM      3  O   UNL     1      -3.516  -2.095   5.474  1.00  0.00    -0.463 OA
BRANCH   3   4
ATOM      4  C   UNL     1      -3.764  -3.128   4.620  1.00  0.00     0.311 C 
ATOM      5  O   UNL     1      -4.613  -3.126   3.738  1.00  0.00    -0.252 OA
BRANCH   4   6
ATOM      6  C   UNL     1      -2.959  -4.357   4.999  1.00  0.00     0.121 C 
BRANCH   6   7
ATOM      7  C   UNL     1      -2.399  -4.990   3.672  1.00  0.00     0.096 C 
BRANCH   7   8
ATOM      8  N   UNL     1      -0.904  -4.998   3.602  1.00  0.00    -0.349 N 
ATOM      9  C   UNL     1       0.072  -5.628   2.873  1.00  0.00     0.246 C 
ATOM     10  O   UNL     1       1.135  -5.009   2.755  1.00  0.00    -0.270 OA
ATOM     11  H   UNL     1      -0.513  -4.382   4.263  1.00  0.00     0.164 HD
BRANCH   9  12
ATOM     12  C   UNL     1      -0.024  -7.013   2.303  1.00  0.00     0.010 C 
ATOM     13  C   UNL     1       0.949  -7.933   2.510  1.00  0.00    -0.018 C 
ATOM     14  C   UNL     1      -1.003  -7.345   1.215  1.00  0.00     0.050 C 
BRANCH  13  15
ATOM     15  C   UNL     1       2.272  -7.825   3.215  1.00  0.00     0.024 C 
ATOM     16  C   UNL     1       2.433  -8.849   4.327  1.00  0.00     0.008 C 
ENDBRANCH  13  15
ENDBRANCH   9  12
ENDBRANCH   7   8
BRANCH   7  17
ATOM     17  C   UNL     1      -3.076  -6.313   3.390  1.00  0.00     0.026 C 
BRANCH  17  18
ATOM     18  C   UNL     1      -2.607  -7.411   4.338  1.00  0.00     0.002 CG0
ATOM     19  G   UNL     1      -3.600  -7.630   5.461  1.00  0.00     0.000 G0
ENDBRANCH  17  18
ENDBRANCH   7  17
ENDBRANCH   6   7
BRANCH   6  20
ATOM     20  C   UNL     1      -4.031  -5.127   5.825  1.00  0.00     0.017 C 
BRANCH  20  21
ATOM     21  C   UNL     1      -3.663  -6.466   6.441  1.00  0.00     0.001 C 
BRANCH  21  22
ATOM     22  C   UNL     1      -3.600  -7.630   5.461  1.00  0.00     0.000 CG0
ATOM     23  G   UNL     1      -2.607  -7.411   4.338  1.00  0.00     0.000 G0
ENDBRANCH  21  22
ENDBRANCH  20  21
ENDBRANCH   6  20
ENDBRANCH   4   6
ENDBRANCH   3   4
ENDBRANCH   2   3
ENDBRANCH   1   2
BRANCH   1  24
ATOM     24  O   UNL     1      -3.727  -0.387   3.024  1.00  0.00    -0.374 OA
BRANCH  24  25
ATOM     25  C   UNL     1      -2.401  -0.884   2.832  1.00  0.00     0.202 C 
BRANCH  25  26
ATOM     26  C   UNL     1      -1.289   0.163   2.715  1.00  0.00     0.261 C 
BRANCH  26  27
ATOM     27  O   UNL     1      -1.047   0.820   3.972  1.00  0.00    -0.460 OA
BRANCH  27  28
ATOM     28  C   UNL     1      -1.507   2.093   4.045  1.00  0.00     0.338 C 
ATOM     29  O   UNL     1      -2.022   2.751   3.161  1.00  0.00    -0.246 OA
BRANCH  28  30
ATOM     30  C   UNL     1      -1.491   2.532   5.454  1.00  0.00     0.060 A 
ATOM     31  C   UNL     1      -2.682   3.042   5.991  1.00  0.00     0.016 A 
ATOM     32  C   UNL     1      -0.322   2.496   6.215  1.00  0.00     0.016 A 
ATOM     33  C   UNL     1      -2.695   3.569   7.278  1.00  0.00     0.010 A 
ATOM     34  C   UNL     1      -0.334   3.038   7.501  1.00  0.00     0.010 A 
ATOM     35  C   UNL     1      -1.509   3.610   8.021  1.00  0.00    -0.014 A 
BRANCH  35  36
ATOM     36  C   UNL     1      -1.455   4.401   9.271  1.00  0.00     0.031 A 
ATOM     37  C   UNL     1      -0.841   5.771   9.228  1.00  0.00     0.074 A 
ATOM     38  C   UNL     1      -1.954   3.908  10.416  1.00  0.00     0.049 A 
ATOM     39  N   UNL     1      -0.611   6.611  10.205  1.00  0.00    -0.248 NA
ATOM     40  C   UNL     1      -0.425   6.260   7.903  1.00  0.00     0.031 C 
ATOM     41  C   UNL     1      -2.612   2.612  10.561  1.00  0.00     0.029 A 
ATOM     42  N   UNL     1      -1.969   4.440  11.680  1.00  0.00    -0.354 N 
ATOM     43  C   UNL     1      -0.013   7.717   9.615  1.00  0.00     0.074 A 
ATOM     44  C   UNL     1       0.113   7.432   8.203  1.00  0.00     0.031 C 
ATOM     45  C   UNL     1      -2.953   2.439  11.849  1.00  0.00     0.029 A 
ATOM     46  C   UNL     1      -2.501   3.595  12.622  1.00  0.00     0.049 A 
ATOM     47  H   UNL     1      -1.632   5.340  11.892  1.00  0.00     0.167 HD
ATOM     48  C   UNL     1       0.389   8.868  10.204  1.00  0.00     0.037 A 
ATOM     49  C   UNL     1      -2.583   3.731  13.959  1.00  0.00     0.037 A 
ATOM     50  C   UNL     1       0.259   9.139  11.611  1.00  0.00     0.049 A 
ATOM     51  C   UNL     1      -2.059   4.991  14.600  1.00  0.00     0.074 A 
ATOM     52  C   UNL     1       0.616  10.280  12.308  1.00  0.00     0.029 A 
ATOM     53  N   UNL     1      -0.263   8.250  12.540  1.00  0.00    -0.354 N 
ATOM     54  N   UNL     1      -1.514   6.043  14.038  1.00  0.00    -0.248 NA
ATOM     55  C   UNL     1      -2.166   5.083  16.062  1.00  0.00     0.031 C 
ATOM     56  C   UNL     1       0.367  10.057  13.666  1.00  0.00     0.029 A 
ATOM     57  C   UNL     1      -0.210   8.805  13.808  1.00  0.00     0.049 A 
ATOM     58  H   UNL     1      -0.619   7.356  12.329  1.00  0.00     0.167 HD
ATOM     59  C   UNL     1      -1.245   6.934  15.069  1.00  0.00     0.074 A 
ATOM     60  C   UNL     1      -1.699   6.302  16.291  1.00  0.00     0.031 C 
ATOM     61  C   UNL     1      -0.677   8.164  15.012  1.00  0.00     0.037 A 
BRANCH  48  62
ATOM     62  C   UNL     1       1.037   9.906   9.333  1.00  0.00     0.064 A 
ATOM     63  C   UNL     1       0.311  10.627   8.372  1.00  0.00     0.173 A 
ATOM     64  C   UNL     1       2.399  10.208   9.485  1.00  0.00     0.173 A 
ATOM     65  F   UNL     1      -0.991  10.369   8.175  1.00  0.00    -0.203 F 
ATOM     66  C   UNL     1       0.930  11.591   7.580  1.00  0.00     0.198 A 
ATOM     67  C   UNL     1       3.007  11.195   8.715  1.00  0.00     0.198 A 
ATOM     68  F   UNL     1       3.140   9.551  10.390  1.00  0.00    -0.203 F 
ATOM     69  F   UNL     1       0.228  12.232   6.635  1.00  0.00    -0.200 F 
ATOM     70  C   UNL     1       2.275  11.881   7.758  1.00  0.00     0.200 A 
ATOM     71  F   UNL     1       4.303  11.483   8.899  1.00  0.00    -0.200 F 
ATOM     72  F   UNL     1       2.867  12.816   7.002  1.00  0.00    -0.200 F 
ENDBRANCH  48  62
BRANCH  49  73
ATOM     73  C   UNL     1      -3.170   2.642  14.783  1.00  0.00     0.064 A 
ATOM     74  C   UNL     1      -4.378   2.825  15.469  1.00  0.00     0.173 A 
ATOM     75  C   UNL     1      -2.529   1.401  14.912  1.00  0.00     0.173 A 
ATOM     76  F   UNL     1      -5.018   4.001  15.396  1.00  0.00    -0.203 F 
ATOM     77  C   UNL     1      -4.912   1.817  16.270  1.00  0.00     0.198 A 
ATOM     78  C   UNL     1      -3.080   0.382  15.687  1.00  0.00     0.198 A 
ATOM     79  F   UNL     1      -1.371   1.172  14.276  1.00  0.00    -0.203 F 
ATOM     80  F   UNL     1      -6.042   2.036  16.955  1.00  0.00    -0.200 F 
ATOM     81  C   UNL     1      -4.266   0.594  16.373  1.00  0.00     0.200 A 
ATOM     82  F   UNL     1      -2.460  -0.803  15.771  1.00  0.00    -0.200 F 
ATOM     83  F   UNL     1      -4.782  -0.377  17.139  1.00  0.00    -0.200 F 
ENDBRANCH  49  73
BRANCH  61  84
ATOM     84  C   UNL     1      -0.560   8.932  16.298  1.00  0.00     0.064 A 
ATOM     85  C   UNL     1       0.340   8.558  17.306  1.00  0.00     0.173 A 
ATOM     86  C   UNL     1      -1.333  10.086  16.504  1.00  0.00     0.173 A 
ATOM     87  F   UNL     1       1.091   7.456  17.166  1.00  0.00    -0.203 F 
ATOM     88  C   UNL     1       0.440   9.293  18.485  1.00  0.00     0.198 A 
ATOM     89  C   UNL     1      -1.204  10.839  17.668  1.00  0.00     0.198 A 
ATOM     90  F   UNL     1      -2.203  10.494  15.568  1.00  0.00    -0.203 F 
ATOM     91  F   UNL     1       1.268   8.886  19.457  1.00  0.00    -0.200 F 
ATOM     92  C   UNL     1      -0.325  10.437  18.661  1.00  0.00     0.200 A 
ATOM     93  F   UNL     1      -1.931  11.954  17.827  1.00  0.00    -0.200 F 
ATOM     94  F   UNL     1      -0.219  11.148  19.792  1.00  0.00    -0.200 F 
ENDBRANCH  61  84
ENDBRANCH  35  36
ENDBRANCH  28  30
ENDBRANCH  27  28
ENDBRANCH  26  27
ENDBRANCH  25  26
ENDBRANCH  24  25
ENDBRANCH   1  24
TORSDOF 17
