REMARK SMILES CCC(CC)NC(=O)N[C@@H]1C=C[C@@H](C(=O)OCCOCCOC(=O)c2ccc(-c3c4nc(c(-c5c(F)c(F)c(F)c(F)c5F)c5ccc([nH]5)c(-c5c(F)c(F)c(F)c(F)c5F)c5nc(c(-c6c(F)c(F)c(F)c(F)c6F)c6ccc3[nH]6)C=C5)C=C4)cc2)C1
REMARK SMILES IDX 18 1 17 2 16 3 14 4 15 5 13 6 10 7 11 8 88 9 12 10 9 11 6 12
REMARK SMILES IDX 7 13 8 15 3 17 2 18 1 19 4 20 5 21 19 22 20 23 21 24 22 25
REMARK SMILES IDX 23 26 24 27 25 28 26 29 87 30 27 31 86 32 28 33 29 34 30 35
REMARK SMILES IDX 80 36 31 37 85 38 79 39 81 40 32 41 84 42 78 43 77 44 33 46
REMARK SMILES IDX 65 47 45 48 64 49 46 50 49 51 63 52 82 53 47 54 48 55 62 57
REMARK SMILES IDX 83 58 50 59 34 60 35 61 43 62 36 63 37 64 41 65 44 66 38 67
REMARK SMILES IDX 39 68 42 69 40 70 66 71 67 72 75 73 68 74 69 75 73 76 76 77
REMARK SMILES IDX 70 78 71 79 74 80 72 81 51 82 52 83 60 84 53 85 54 86 58 87
REMARK SMILES IDX 61 88 55 89 56 90 59 91 57 92
REMARK H PARENT 6 14 9 16 81 45 49 56
REMARK Flexibility Score: inf
ROOT
ATOM      1  C   UNL     1       4.672  -0.810   7.585  1.00  0.00     0.202 C 
ENDROOT
BRANCH   1   2
ATOM      2  C   UNL     1       3.741   0.058   6.735  1.00  0.00     0.261 C 
BRANCH   2   3
ATOM      3  O   UNL     1       3.612  -0.497   5.416  1.00  0.00    -0.463 OA
BRANCH   3   4
ATOM      4  C   UNL     1       3.893   0.339   4.383  1.00  0.00     0.312 C 
ATOM      5  O   UNL     1       4.074   1.546   4.496  1.00  0.00    -0.252 OA
BRANCH   4   6
ATOM      6  C   UNL     1       3.979  -0.382   3.038  1.00  0.00     0.124 C 
ATOM      7  C   UNL     1       2.851  -2.272   1.907  1.00  0.00     0.107 C 
ATOM      8  C   UNL     1       2.239  -0.953   1.566  1.00  0.00    -0.006 C 
ATOM      9  C   UNL     1       3.836  -1.914   3.032  1.00  0.00     0.048 C 
ATOM     10  C   UNL     1       2.854   0.072   2.162  1.00  0.00    -0.014 C 
BRANCH   7  11
ATOM     11  N   UNL     1       3.507  -2.764   0.718  1.00  0.00    -0.332 N 
ATOM     12  N   UNL     1       3.596  -5.112   0.970  1.00  0.00    -0.335 N 
ATOM     13  C   UNL     1       3.741  -3.994   0.248  1.00  0.00     0.315 C 
ATOM     14  H   UNL     1       3.615  -5.930   0.422  1.00  0.00     0.165 HD
ATOM     15  O   UNL     1       4.108  -4.109  -0.923  1.00  0.00    -0.249 OA
ATOM     16  H   UNL     1       3.852  -2.049   0.136  1.00  0.00     0.165 HD
BRANCH  12  17
ATOM     17  C   UNL     1       3.416  -5.384   2.392  1.00  0.00     0.083 C 
BRANCH  17  18
ATOM     18  C   UNL     1       2.006  -5.937   2.644  1.00  0.00     0.021 C 
ATOM     19  C   UNL     1       1.645  -5.979   4.121  1.00  0.00     0.006 C 
ENDBRANCH  17  18
BRANCH  17  20
ATOM     20  C   UNL     1       4.567  -6.268   2.914  1.00  0.00     0.021 C 
ATOM     21  C   UNL     1       4.566  -7.707   2.416  1.00  0.00     0.006 C 
ENDBRANCH  17  20
ENDBRANCH  12  17
ENDBRANCH   7  11
ENDBRANCH   4   6
ENDBRANCH   3   4
ENDBRANCH   2   3
ENDBRANCH   1   2
BRANCH   1  22
ATOM     22  O   UNL     1       6.024  -0.886   7.132  1.00  0.00    -0.374 OA
BRANCH  22  23
ATOM     23  C   UNL     1       6.302  -1.761   6.038  1.00  0.00     0.202 C 
BRANCH  23  24
ATOM     24  C   UNL     1       6.391  -3.254   6.376  1.00  0.00     0.261 C 
BRANCH  24  25
ATOM     25  O   UNL     1       5.119  -3.797   6.778  1.00  0.00    -0.460 OA
BRANCH  25  26
ATOM     26  C   UNL     1       5.053  -4.179   8.076  1.00  0.00     0.338 C 
ATOM     27  O   UNL     1       5.962  -4.186   8.895  1.00  0.00    -0.246 OA
BRANCH  26  28
ATOM     28  C   UNL     1       3.657  -4.460   8.460  1.00  0.00     0.060 A 
ATOM     29  C   UNL     1       3.167  -3.838   9.615  1.00  0.00     0.016 A 
ATOM     30  C   UNL     1       2.873  -5.384   7.766  1.00  0.00     0.016 A 
ATOM     31  C   UNL     1       1.912  -4.180  10.114  1.00  0.00     0.010 A 
ATOM     32  C   UNL     1       1.613  -5.729   8.270  1.00  0.00     0.010 A 
ATOM     33  C   UNL     1       1.146  -5.159   9.468  1.00  0.00    -0.014 A 
BRANCH  33  34
ATOM     34  C   UNL     1      -0.059  -5.701  10.144  1.00  0.00     0.031 A 
ATOM     35  C   UNL     1       0.053  -6.992  10.908  1.00  0.00     0.074 A 
ATOM     36  C   UNL     1      -1.225  -5.032  10.121  1.00  0.00     0.049 A 
ATOM     37  N   UNL     1      -0.863  -7.651  11.571  1.00  0.00    -0.248 NA
ATOM     38  C   UNL     1       1.382  -7.625  10.928  1.00  0.00     0.031 C 
ATOM     39  C   UNL     1      -1.451  -3.751   9.457  1.00  0.00     0.029 A 
ATOM     40  N   UNL     1      -2.440  -5.343  10.680  1.00  0.00    -0.354 N 
ATOM     41  C   UNL     1      -0.224  -8.771  12.086  1.00  0.00     0.074 A 
ATOM     42  C   UNL     1       1.149  -8.723  11.630  1.00  0.00     0.031 C 
ATOM     43  C   UNL     1      -2.730  -3.383   9.645  1.00  0.00     0.029 A 
ATOM     44  C   UNL     1      -3.418  -4.415  10.420  1.00  0.00     0.049 A 
ATOM     45  H   UNL     1      -2.596  -6.154  11.216  1.00  0.00     0.167 HD
ATOM     46  C   UNL     1      -0.731  -9.745  12.879  1.00  0.00     0.037 A 
ATOM     47  C   UNL     1      -4.721  -4.409  10.760  1.00  0.00     0.037 A 
ATOM     48  C   UNL     1      -2.095  -9.797  13.333  1.00  0.00     0.049 A 
ATOM     49  C   UNL     1      -5.280  -5.545  11.577  1.00  0.00     0.074 A 
ATOM     50  C   UNL     1      -2.704 -10.742  14.139  1.00  0.00     0.029 A 
ATOM     51  N   UNL     1      -3.067  -8.859  13.013  1.00  0.00    -0.354 N 
ATOM     52  N   UNL     1      -4.666  -6.592  12.072  1.00  0.00    -0.248 NA
ATOM     53  C   UNL     1      -6.717  -5.494  11.886  1.00  0.00     0.031 C 
ATOM     54  C   UNL     1      -4.054 -10.400  14.273  1.00  0.00     0.029 A 
ATOM     55  C   UNL     1      -4.275  -9.215  13.590  1.00  0.00     0.049 A 
ATOM     56  H   UNL     1      -2.919  -8.059  12.459  1.00  0.00     0.167 HD
ATOM     57  C   UNL     1      -5.629  -7.304  12.776  1.00  0.00     0.074 A 
ATOM     58  C   UNL     1      -6.869  -6.566  12.650  1.00  0.00     0.031 C 
ATOM     59  C   UNL     1      -5.497  -8.463  13.468  1.00  0.00     0.037 A 
BRANCH  46  60
ATOM     60  C   UNL     1       0.198 -10.851  13.289  1.00  0.00     0.064 A 
ATOM     61  C   UNL     1       1.226 -10.640  14.220  1.00  0.00     0.173 A 
ATOM     62  C   UNL     1       0.048 -12.140  12.757  1.00  0.00     0.173 A 
ATOM     63  F   UNL     1       1.421  -9.421  14.746  1.00  0.00    -0.203 F 
ATOM     64  C   UNL     1       2.087 -11.673  14.583  1.00  0.00     0.198 A 
ATOM     65  C   UNL     1       0.893 -13.177  13.142  1.00  0.00     0.198 A 
ATOM     66  F   UNL     1      -0.921 -12.394  11.864  1.00  0.00    -0.203 F 
ATOM     67  F   UNL     1       3.092 -11.437  15.437  1.00  0.00    -0.200 F 
ATOM     68  C   UNL     1       1.916 -12.941  14.048  1.00  0.00     0.200 A 
ATOM     69  F   UNL     1       0.722 -14.404  12.631  1.00  0.00    -0.200 F 
ATOM     70  F   UNL     1       2.745 -13.934  14.398  1.00  0.00    -0.200 F 
ENDBRANCH  46  60
BRANCH  47  71
ATOM     71  C   UNL     1      -5.595  -3.286  10.332  1.00  0.00     0.064 A 
ATOM     72  C   UNL     1      -6.106  -2.374  11.265  1.00  0.00     0.173 A 
ATOM     73  C   UNL     1      -5.951  -3.114   8.987  1.00  0.00     0.173 A 
ATOM     74  F   UNL     1      -5.815  -2.515  12.567  1.00  0.00    -0.203 F 
ATOM     75  C   UNL     1      -6.954  -1.341  10.871  1.00  0.00     0.198 A 
ATOM     76  C   UNL     1      -6.778  -2.065   8.590  1.00  0.00     0.198 A 
ATOM     77  F   UNL     1      -5.490  -3.962   8.056  1.00  0.00    -0.203 F 
ATOM     78  F   UNL     1      -7.464  -0.509  11.789  1.00  0.00    -0.200 F 
ATOM     79  C   UNL     1      -7.284  -1.184   9.534  1.00  0.00     0.200 A 
ATOM     80  F   UNL     1      -7.087  -1.911   7.296  1.00  0.00    -0.200 F 
ATOM     81  F   UNL     1      -8.098  -0.189   9.155  1.00  0.00    -0.200 F 
ENDBRANCH  47  71
BRANCH  59  82
ATOM     82  C   UNL     1      -6.712  -8.982  14.181  1.00  0.00     0.064 A 
ATOM     83  C   UNL     1      -7.786  -9.556  13.486  1.00  0.00     0.173 A 
ATOM     84  C   UNL     1      -6.782  -8.940  15.582  1.00  0.00     0.173 A 
ATOM     85  F   UNL     1      -7.774  -9.607  12.146  1.00  0.00    -0.203 F 
ATOM     86  C   UNL     1      -8.898 -10.045  14.167  1.00  0.00     0.198 A 
ATOM     87  C   UNL     1      -7.882  -9.456  16.261  1.00  0.00     0.198 A 
ATOM     88  F   UNL     1      -5.777  -8.408  16.294  1.00  0.00    -0.203 F 
ATOM     89  F   UNL     1      -9.934 -10.548  13.481  1.00  0.00    -0.200 F 
ATOM     90  C   UNL     1      -8.943 -10.001  15.553  1.00  0.00     0.200 A 
ATOM     91  F   UNL     1      -7.918  -9.423  17.600  1.00  0.00    -0.200 F 
ATOM     92  F   UNL     1     -10.011 -10.477  16.207  1.00  0.00    -0.200 F 
ENDBRANCH  59  82
ENDBRANCH  33  34
ENDBRANCH  26  28
ENDBRANCH  25  26
ENDBRANCH  24  25
ENDBRANCH  23  24
ENDBRANCH  22  23
ENDBRANCH   1  22
TORSDOF 18
