REMARK SMILES Nc1ccc(Cl)c(SC[C@H]2CC[C@@H](C(=O)OCCOCCOC(=O)c3ccc(-c4c5nc(c(-c6c(F)c(F)c(F)c(F)c6F)c6ccc([nH]6)c(-c6c(F)c(F)c(F)c(F)c6F)c6nc(c(-c7c(F)c(F)c(F)c(F)c7F)c7ccc4[nH]7)C=C6)C=C5)cc3)O2)c1
REMARK SMILES IDX 18 1 17 2 16 3 14 4 15 5 13 6 10 7 11 8 88 9 12 10 9 11 8 12
REMARK SMILES IDX 7 13 2 14 3 15 89 16 4 17 5 18 6 19 1 20 19 23 20 24 21 25
REMARK SMILES IDX 22 26 23 27 24 28 25 29 26 30 87 31 27 32 86 33 28 34 29 35
REMARK SMILES IDX 30 36 80 37 31 38 85 39 79 40 81 41 32 42 84 43 78 44 77 45
REMARK SMILES IDX 33 47 65 48 45 49 64 50 46 51 49 52 63 53 82 54 47 55 48 56
REMARK SMILES IDX 62 58 83 59 50 60 34 61 35 62 43 63 36 64 37 65 41 66 44 67
REMARK SMILES IDX 38 68 39 69 42 70 40 71 66 72 67 73 75 74 68 75 69 76 73 77
REMARK SMILES IDX 76 78 70 79 71 80 74 81 72 82 51 83 52 84 60 85 53 86 54 87
REMARK SMILES IDX 58 88 61 89 55 90 56 91 59 92 57 93
REMARK H PARENT 1 21 1 22 81 46 49 57
REMARK Flexibility Score: inf
ROOT
ATOM      1  C   UNL     1      -4.684  -0.966   5.084  1.00  0.00     0.202 C 
ENDROOT
BRANCH   1   2
ATOM      2  C   UNL     1      -5.365  -1.753   3.959  1.00  0.00     0.261 C 
BRANCH   2   3
ATOM      3  O   UNL     1      -4.460  -2.668   3.311  1.00  0.00    -0.461 OA
BRANCH   3   4
ATOM      4  C   UNL     1      -4.422  -2.586   1.951  1.00  0.00     0.335 C 
ATOM      5  O   UNL     1      -5.214  -1.945   1.269  1.00  0.00    -0.249 OA
BRANCH   4   6
ATOM      6  C   UNL     1      -3.230  -3.341   1.345  1.00  0.00     0.228 C 
ATOM      7  C   UNL     1      -0.983  -3.913   1.229  1.00  0.00     0.129 C 
ATOM      8  C   UNL     1      -1.848  -5.189   1.095  1.00  0.00     0.036 C 
ATOM      9  O   UNL     1      -1.899  -2.884   1.647  1.00  0.00    -0.362 OA
ATOM     10  C   UNL     1      -3.172  -4.802   1.722  1.00  0.00     0.047 C 
BRANCH   7  11
ATOM     11  C   UNL     1       0.208  -4.191   2.172  1.00  0.00     0.107 C 
BRANCH  11  12
ATOM     12  S   UNL     1       1.420  -3.024   2.941  1.00  0.00    -0.122 SA
BRANCH  12  13
ATOM     13  C   UNL     1       1.014  -1.347   2.490  1.00  0.00     0.028 A 
ATOM     14  C   UNL     1       0.522   0.290   0.747  1.00  0.00     0.033 A 
ATOM     15  C   UNL     1       0.421   1.291   1.712  1.00  0.00     0.027 A 
ATOM     16  C   UNL     1       0.766  -1.027   1.152  1.00  0.00     0.042 A 
ATOM     17  C   UNL     1       0.728   1.016   3.041  1.00  0.00     0.024 A 
ATOM     18  C   UNL     1       1.080  -0.284   3.418  1.00  0.00     0.054 A 
ATOM     19  Cl  UNL     1       1.620  -0.484   5.055  1.00  0.00    -0.083 Cl
BRANCH  14  20
ATOM     20  N   UNL     1       0.274   0.574  -0.586  1.00  0.00    -0.399 N 
ATOM     21  H   UNL     1       0.103   1.501  -0.869  1.00  0.00     0.156 HD
ATOM     22  H   UNL     1       0.269  -0.152  -1.251  1.00  0.00     0.156 HD
ENDBRANCH  14  20
ENDBRANCH  12  13
ENDBRANCH  11  12
ENDBRANCH   7  11
ENDBRANCH   4   6
ENDBRANCH   3   4
ENDBRANCH   2   3
ENDBRANCH   1   2
BRANCH   1  23
ATOM     23  O   UNL     1      -3.546  -0.172   4.771  1.00  0.00    -0.374 OA
BRANCH  23  24
ATOM     24  C   UNL     1      -2.481  -0.779   4.055  1.00  0.00     0.202 C 
BRANCH  24  25
ATOM     25  C   UNL     1      -1.732  -1.966   4.680  1.00  0.00     0.261 C 
BRANCH  25  26
ATOM     26  O   UNL     1      -2.450  -2.757   5.615  1.00  0.00    -0.460 OA
BRANCH  26  27
ATOM     27  C   UNL     1      -2.121  -2.517   6.903  1.00  0.00     0.338 C 
ATOM     28  O   UNL     1      -1.352  -1.697   7.370  1.00  0.00    -0.246 OA
BRANCH  27  29
ATOM     29  C   UNL     1      -2.942  -3.420   7.697  1.00  0.00     0.060 A 
ATOM     30  C   UNL     1      -4.077  -2.901   8.322  1.00  0.00     0.016 A 
ATOM     31  C   UNL     1      -2.604  -4.772   7.768  1.00  0.00     0.016 A 
ATOM     32  C   UNL     1      -4.909  -3.759   9.024  1.00  0.00     0.010 A 
ATOM     33  C   UNL     1      -3.436  -5.628   8.475  1.00  0.00     0.010 A 
ATOM     34  C   UNL     1      -4.585  -5.120   9.103  1.00  0.00    -0.014 A 
BRANCH  34  35
ATOM     35  C   UNL     1      -5.431  -6.024   9.899  1.00  0.00     0.031 A 
ATOM     36  C   UNL     1      -4.962  -6.441  11.255  1.00  0.00     0.074 A 
ATOM     37  C   UNL     1      -6.587  -6.464   9.377  1.00  0.00     0.049 A 
ATOM     38  N   UNL     1      -5.498  -7.291  12.088  1.00  0.00    -0.248 NA
ATOM     39  C   UNL     1      -3.714  -5.824  11.734  1.00  0.00     0.031 C 
ATOM     40  C   UNL     1      -7.119  -6.080   8.068  1.00  0.00     0.029 A 
ATOM     41  N   UNL     1      -7.513  -7.339   9.875  1.00  0.00    -0.354 N 
ATOM     42  C   UNL     1      -4.652  -7.317  13.187  1.00  0.00     0.074 A 
ATOM     43  C   UNL     1      -3.549  -6.425  12.903  1.00  0.00     0.031 C 
ATOM     44  C   UNL     1      -8.276  -6.729   7.861  1.00  0.00     0.029 A 
ATOM     45  C   UNL     1      -8.538  -7.602   9.001  1.00  0.00     0.049 A 
ATOM     46  H   UNL     1      -7.450  -7.740  10.772  1.00  0.00     0.167 HD
ATOM     47  C   UNL     1      -4.798  -8.025  14.330  1.00  0.00     0.037 A 
ATOM     48  C   UNL     1      -9.551  -8.481   9.107  1.00  0.00     0.037 A 
ATOM     49  C   UNL     1      -5.904  -8.912  14.575  1.00  0.00     0.049 A 
ATOM     50  C   UNL     1      -9.646  -9.314  10.358  1.00  0.00     0.074 A 
ATOM     51  C   UNL     1      -6.177  -9.661  15.704  1.00  0.00     0.029 A 
ATOM     52  N   UNL     1      -6.915  -9.179  13.661  1.00  0.00    -0.354 N 
ATOM     53  N   UNL     1      -8.870  -9.307  11.416  1.00  0.00    -0.248 NA
ATOM     54  C   UNL     1     -10.750 -10.278  10.429  1.00  0.00     0.031 C 
ATOM     55  C   UNL     1      -7.318 -10.429  15.449  1.00  0.00     0.029 A 
ATOM     56  C   UNL     1      -7.793 -10.113  14.184  1.00  0.00     0.049 A 
ATOM     57  H   UNL     1      -6.996  -8.765  12.771  1.00  0.00     0.167 HD
ATOM     58  C   UNL     1      -9.400 -10.248  12.286  1.00  0.00     0.074 A 
ATOM     59  C   UNL     1     -10.578 -10.792  11.639  1.00  0.00     0.031 C 
ATOM     60  C   UNL     1      -8.956 -10.634  13.508  1.00  0.00     0.037 A 
BRANCH  47  61
ATOM     61  C   UNL     1      -3.728  -7.892  15.373  1.00  0.00     0.064 A 
ATOM     62  C   UNL     1      -3.541  -6.704  16.096  1.00  0.00     0.173 A 
ATOM     63  C   UNL     1      -2.889  -8.977  15.670  1.00  0.00     0.173 A 
ATOM     64  F   UNL     1      -4.305  -5.631  15.841  1.00  0.00    -0.203 F 
ATOM     65  C   UNL     1      -2.539  -6.599  17.058  1.00  0.00     0.198 A 
ATOM     66  C   UNL     1      -1.909  -8.879  16.653  1.00  0.00     0.198 A 
ATOM     67  F   UNL     1      -3.023 -10.137  15.008  1.00  0.00    -0.203 F 
ATOM     68  F   UNL     1      -2.347  -5.439  17.700  1.00  0.00    -0.200 F 
ATOM     69  C   UNL     1      -1.729  -7.689  17.341  1.00  0.00     0.200 A 
ATOM     70  F   UNL     1      -1.135  -9.937  16.934  1.00  0.00    -0.200 F 
ATOM     71  F   UNL     1      -0.770  -7.589  18.272  1.00  0.00    -0.200 F 
ENDBRANCH  47  61
BRANCH  48  72
ATOM     72  C   UNL     1     -10.529  -8.627   7.998  1.00  0.00     0.064 A 
ATOM     73  C   UNL     1     -11.869  -8.250   8.162  1.00  0.00     0.173 A 
ATOM     74  C   UNL     1     -10.146  -9.141   6.750  1.00  0.00     0.173 A 
ATOM     75  F   UNL     1     -12.289  -7.769   9.341  1.00  0.00    -0.203 F 
ATOM     76  C   UNL     1     -12.791  -8.399   7.128  1.00  0.00     0.198 A 
ATOM     77  C   UNL     1     -11.062  -9.261   5.707  1.00  0.00     0.198 A 
ATOM     78  F   UNL     1      -8.875  -9.513   6.536  1.00  0.00    -0.203 F 
ATOM     79  F   UNL     1     -14.075  -8.073   7.327  1.00  0.00    -0.200 F 
ATOM     80  C   UNL     1     -12.386  -8.898   5.899  1.00  0.00     0.200 A 
ATOM     81  F   UNL     1     -10.661  -9.727   4.516  1.00  0.00    -0.200 F 
ATOM     82  F   UNL     1     -13.271  -9.036   4.903  1.00  0.00    -0.200 F 
ENDBRANCH  48  72
BRANCH  60  83
ATOM     83  C   UNL     1      -9.754 -11.682  14.226  1.00  0.00     0.064 A 
ATOM     84  C   UNL     1      -9.749 -13.020  13.808  1.00  0.00     0.173 A 
ATOM     85  C   UNL     1     -10.483 -11.353  15.379  1.00  0.00     0.173 A 
ATOM     86  F   UNL     1      -9.081 -13.380  12.702  1.00  0.00    -0.203 F 
ATOM     87  C   UNL     1     -10.460 -13.989  14.510  1.00  0.00     0.198 A 
ATOM     88  C   UNL     1     -11.164 -12.331  16.097  1.00  0.00     0.198 A 
ATOM     89  F   UNL     1     -10.514 -10.087  15.822  1.00  0.00    -0.203 F 
ATOM     90  F   UNL     1     -10.477 -15.255  14.068  1.00  0.00    -0.200 F 
ATOM     91  C   UNL     1     -11.157 -13.646  15.659  1.00  0.00     0.200 A 
ATOM     92  F   UNL     1     -11.823 -12.001  17.216  1.00  0.00    -0.200 F 
ATOM     93  F   UNL     1     -11.828 -14.584  16.341  1.00  0.00    -0.200 F 
ENDBRANCH  60  83
ENDBRANCH  34  35
ENDBRANCH  27  29
ENDBRANCH  26  27
ENDBRANCH  25  26
ENDBRANCH  24  25
ENDBRANCH  23  24
ENDBRANCH   1  23
TORSDOF 18
