REMARK SMILES CCC[C@@H](CNC(=O)NCc1c(C)nn(C)c1C)C(=O)OCCOCCOC(=O)c1ccc(-c2c3nc(c(-c4c(F)c(F)c(F)c(F)c4F)c4ccc([nH]4)c(-c4c(F)c(F)c(F)c(F)c4F)c4nc(c(-c5c(F)c(F)c(F)c(F)c5F)c5ccc2[nH]5)C=C4)C=C3)cc1
REMARK SMILES IDX 23 1 22 2 21 3 19 4 20 5 4 6 3 7 2 8 1 9 5 10 6 11 7 12 8 14
REMARK SMILES IDX 9 15 10 17 11 18 12 19 17 20 13 21 14 22 15 23 18 24 16 25
REMARK SMILES IDX 24 26 25 27 26 28 27 29 28 30 29 31 30 32 31 33 92 34 32 35
REMARK SMILES IDX 91 36 33 37 34 38 35 39 85 40 36 41 90 42 84 43 86 44 37 45
REMARK SMILES IDX 89 46 83 47 82 48 38 50 70 51 50 52 69 53 51 54 54 55 68 56
REMARK SMILES IDX 87 57 52 58 53 59 67 61 88 62 55 63 39 64 40 65 48 66 41 67
REMARK SMILES IDX 42 68 46 69 49 70 43 71 44 72 47 73 45 74 71 75 72 76 80 77
REMARK SMILES IDX 73 78 74 79 78 80 81 81 75 82 76 83 79 84 77 85 56 86 57 87
REMARK SMILES IDX 65 88 58 89 59 90 63 91 66 92 60 93 61 94 64 95 62 96
REMARK H PARENT 6 13 9 16 86 49 54 60
REMARK Flexibility Score: inf
ROOT
ATOM      1  C   UNL     1       2.466   1.281   6.490  1.00  0.00     0.202 C 
ENDROOT
BRANCH   1   2
ATOM      2  C   UNL     1       1.034   1.532   6.015  1.00  0.00     0.261 C 
BRANCH   2   3
ATOM      3  O   UNL     1       0.720   0.819   4.805  1.00  0.00    -0.463 OA
BRANCH   3   4
ATOM      4  C   UNL     1       0.518   1.586   3.700  1.00  0.00     0.310 C 
ATOM      5  O   UNL     1       0.665   2.803   3.654  1.00  0.00    -0.252 OA
BRANCH   4   6
ATOM      6  C   UNL     1       0.048   0.781   2.506  1.00  0.00     0.118 C 
BRANCH   6   7
ATOM      7  C   UNL     1       0.837  -0.527   2.310  1.00  0.00     0.017 C 
BRANCH   7   8
ATOM      8  C   UNL     1       0.677  -1.173   0.927  1.00  0.00    -0.002 C 
ATOM      9  C   UNL     1       1.136  -0.284  -0.222  1.00  0.00     0.004 C 
ENDBRANCH   7   8
ENDBRANCH   6   7
BRANCH   6  10
ATOM     10  C   UNL     1      -1.470   0.593   2.553  1.00  0.00     0.133 C 
BRANCH  10  11
ATOM     11  N   UNL     1      -1.938  -0.070   3.757  1.00  0.00    -0.337 N 
ATOM     12  C   UNL     1      -2.644   0.330   4.824  1.00  0.00     0.315 C 
ATOM     13  H   UNL     1      -1.681  -1.019   3.799  1.00  0.00     0.165 HD
ATOM     14  O   UNL     1      -2.985  -0.530   5.640  1.00  0.00    -0.249 OA
ATOM     15  N   UNL     1      -3.023   1.592   5.045  1.00  0.00    -0.334 N 
ATOM     16  H   UNL     1      -3.696   1.670   5.760  1.00  0.00     0.165 HD
BRANCH  15  17
ATOM     17  C   UNL     1      -2.666   2.865   4.470  1.00  0.00     0.157 C 
BRANCH  17  18
ATOM     18  C   UNL     1      -3.716   3.431   3.573  1.00  0.00     0.015 A 
ATOM     19  C   UNL     1      -3.765   4.804   3.181  1.00  0.00     0.065 A 
ATOM     20  C   UNL     1      -4.776   2.847   2.885  1.00  0.00     0.040 A 
ATOM     21  C   UNL     1      -2.825   5.905   3.522  1.00  0.00     0.069 C 
ATOM     22  N   UNL     1      -4.814   5.066   2.400  1.00  0.00    -0.178 NA
ATOM     23  N   UNL     1      -5.430   3.883   2.264  1.00  0.00    -0.272 N 
ATOM     24  C   UNL     1      -5.242   1.442   2.753  1.00  0.00     0.067 C 
ATOM     25  C   UNL     1      -6.661   3.848   1.509  1.00  0.00     0.174 C 
ENDBRANCH  17  18
ENDBRANCH  15  17
ENDBRANCH  10  11
ENDBRANCH   6  10
ENDBRANCH   4   6
ENDBRANCH   3   4
ENDBRANCH   2   3
ENDBRANCH   1   2
BRANCH   1  26
ATOM     26  O   UNL     1       3.518   1.794   5.675  1.00  0.00    -0.374 OA
BRANCH  26  27
ATOM     27  C   UNL     1       3.778   1.143   4.434  1.00  0.00     0.202 C 
BRANCH  27  28
ATOM     28  C   UNL     1       4.500  -0.208   4.498  1.00  0.00     0.261 C 
BRANCH  28  29
ATOM     29  O   UNL     1       3.762  -1.199   5.236  1.00  0.00    -0.460 OA
BRANCH  29  30
ATOM     30  C   UNL     1       4.371  -1.602   6.376  1.00  0.00     0.338 C 
ATOM     31  O   UNL     1       5.489  -1.291   6.766  1.00  0.00    -0.246 OA
BRANCH  30  32
ATOM     32  C   UNL     1       3.462  -2.392   7.225  1.00  0.00     0.060 A 
ATOM     33  C   UNL     1       3.360  -2.004   8.567  1.00  0.00     0.016 A 
ATOM     34  C   UNL     1       2.850  -3.565   6.777  1.00  0.00     0.016 A 
ATOM     35  C   UNL     1       2.732  -2.837   9.487  1.00  0.00     0.010 A 
ATOM     36  C   UNL     1       2.219  -4.404   7.706  1.00  0.00     0.010 A 
ATOM     37  C   UNL     1       2.215  -4.072   9.073  1.00  0.00    -0.014 A 
BRANCH  37  38
ATOM     38  C   UNL     1       1.880  -5.074  10.117  1.00  0.00     0.031 A 
ATOM     39  C   UNL     1       2.905  -6.120  10.473  1.00  0.00     0.074 A 
ATOM     40  C   UNL     1       0.735  -4.990  10.816  1.00  0.00     0.049 A 
ATOM     41  N   UNL     1       2.878  -7.024  11.420  1.00  0.00    -0.248 NA
ATOM     42  C   UNL     1       4.128  -6.145   9.655  1.00  0.00     0.031 C 
ATOM     43  C   UNL     1      -0.320  -4.005  10.591  1.00  0.00     0.029 A 
ATOM     44  N   UNL     1       0.281  -5.740  11.872  1.00  0.00    -0.354 N 
ATOM     45  C   UNL     1       4.077  -7.718  11.313  1.00  0.00     0.074 A 
ATOM     46  C   UNL     1       4.792  -7.160  10.186  1.00  0.00     0.031 C 
ATOM     47  C   UNL     1      -1.299  -4.206  11.491  1.00  0.00     0.029 A 
ATOM     48  C   UNL     1      -0.944  -5.339  12.344  1.00  0.00     0.049 A 
ATOM     49  H   UNL     1       0.785  -6.494  12.254  1.00  0.00     0.167 HD
ATOM     50  C   UNL     1       4.551  -8.718  12.094  1.00  0.00     0.037 A 
ATOM     51  C   UNL     1      -1.689  -5.831  13.352  1.00  0.00     0.037 A 
ATOM     52  C   UNL     1       3.849  -9.273  13.220  1.00  0.00     0.049 A 
ATOM     53  C   UNL     1      -1.161  -6.976  14.177  1.00  0.00     0.074 A 
ATOM     54  C   UNL     1       4.252 -10.278  14.081  1.00  0.00     0.029 A 
ATOM     55  N   UNL     1       2.590  -8.867  13.639  1.00  0.00    -0.354 N 
ATOM     56  N   UNL     1      -0.012  -7.602  14.088  1.00  0.00    -0.248 NA
ATOM     57  C   UNL     1      -2.032  -7.473  15.252  1.00  0.00     0.031 C 
ATOM     58  C   UNL     1       3.219 -10.510  14.997  1.00  0.00     0.029 A 
ATOM     59  C   UNL     1       2.192  -9.618  14.734  1.00  0.00     0.049 A 
ATOM     60  H   UNL     1       2.059  -8.152  13.221  1.00  0.00     0.167 HD
ATOM     61  C   UNL     1      -0.013  -8.548  15.105  1.00  0.00     0.074 A 
ATOM     62  C   UNL     1      -1.268  -8.401  15.811  1.00  0.00     0.031 C 
ATOM     63  C   UNL     1       0.939  -9.459  15.426  1.00  0.00     0.037 A 
BRANCH  50  64
ATOM     64  C   UNL     1       5.894  -9.289  11.744  1.00  0.00     0.064 A 
ATOM     65  C   UNL     1       7.079  -8.576  11.979  1.00  0.00     0.173 A 
ATOM     66  C   UNL     1       5.997 -10.572  11.188  1.00  0.00     0.173 A 
ATOM     67  F   UNL     1       7.032  -7.339  12.495  1.00  0.00    -0.203 F 
ATOM     68  C   UNL     1       8.318  -9.120  11.648  1.00  0.00     0.198 A 
ATOM     69  C   UNL     1       7.239 -11.122  10.882  1.00  0.00     0.198 A 
ATOM     70  F   UNL     1       4.893 -11.295  10.945  1.00  0.00    -0.203 F 
ATOM     71  F   UNL     1       9.435  -8.405  11.841  1.00  0.00    -0.200 F 
ATOM     72  C   UNL     1       8.397 -10.394  11.106  1.00  0.00     0.200 A 
ATOM     73  F   UNL     1       7.314 -12.357  10.366  1.00  0.00    -0.200 F 
ATOM     74  F   UNL     1       9.590 -10.917  10.791  1.00  0.00    -0.200 F 
ENDBRANCH  50  64
BRANCH  51  75
ATOM     75  C   UNL     1      -3.019  -5.238  13.648  1.00  0.00     0.064 A 
ATOM     76  C   UNL     1      -3.241  -4.504  14.820  1.00  0.00     0.173 A 
ATOM     77  C   UNL     1      -4.101  -5.417  12.773  1.00  0.00     0.173 A 
ATOM     78  F   UNL     1      -2.244  -4.331  15.701  1.00  0.00    -0.203 F 
ATOM     79  C   UNL     1      -4.500  -3.985  15.116  1.00  0.00     0.198 A 
ATOM     80  C   UNL     1      -5.352  -4.876  13.057  1.00  0.00     0.198 A 
ATOM     81  F   UNL     1      -3.940  -6.118  11.641  1.00  0.00    -0.203 F 
ATOM     82  F   UNL     1      -4.698  -3.327  16.266  1.00  0.00    -0.200 F 
ATOM     83  C   UNL     1      -5.553  -4.167  14.232  1.00  0.00     0.200 A 
ATOM     84  F   UNL     1      -6.366  -5.050  12.198  1.00  0.00    -0.200 F 
ATOM     85  F   UNL     1      -6.764  -3.670  14.518  1.00  0.00    -0.200 F 
ENDBRANCH  51  75
BRANCH  63  86
ATOM     86  C   UNL     1       0.668 -10.350  16.603  1.00  0.00     0.064 A 
ATOM     87  C   UNL     1      -0.280 -11.382  16.539  1.00  0.00     0.173 A 
ATOM     88  C   UNL     1       1.383 -10.186  17.799  1.00  0.00     0.173 A 
ATOM     89  F   UNL     1      -0.998 -11.570  15.422  1.00  0.00    -0.203 F 
ATOM     90  C   UNL     1      -0.525 -12.197  17.641  1.00  0.00     0.198 A 
ATOM     91  C   UNL     1       1.155 -11.021  18.890  1.00  0.00     0.198 A 
ATOM     92  F   UNL     1       2.306  -9.220  17.909  1.00  0.00    -0.203 F 
ATOM     93  F   UNL     1      -1.471 -13.144  17.574  1.00  0.00    -0.200 F 
ATOM     94  C   UNL     1       0.196 -12.020  18.813  1.00  0.00     0.200 A 
ATOM     95  F   UNL     1       1.860 -10.857  20.017  1.00  0.00    -0.200 F 
ATOM     96  F   UNL     1      -0.041 -12.806  19.872  1.00  0.00    -0.200 F 
ENDBRANCH  63  86
ENDBRANCH  37  38
ENDBRANCH  30  32
ENDBRANCH  29  30
ENDBRANCH  28  29
ENDBRANCH  27  28
ENDBRANCH  26  27
ENDBRANCH   1  26
TORSDOF 20
