REMARK SMILES CC[NH+]1CCN(C(=O)c2ccccc2C(=O)OCCOCCOC(=O)c2ccc(-c3c4nc(c(-c5c(F)c(F)c(F)c(F)c5F)c5ccc([nH]5)c(-c5c(F)c(F)c(F)c(F)c5F)c5nc(c(-c6c(F)c(F)c(F)c(F)c6F)c6ccc3[nH]6)C=C5)C=C4)cc2)CC1
REMARK SMILES IDX 20 1 19 2 18 3 17 4 15 5 16 6 14 7 9 8 10 9 11 10 13 11
REMARK SMILES IDX 12 12 7 13 3 14 4 15 90 16 5 18 89 19 6 20 8 21 2 22 1 23
REMARK SMILES IDX 21 24 22 25 23 26 24 27 25 28 26 29 27 30 88 31 28 32 87 33
REMARK SMILES IDX 29 34 30 35 31 36 81 37 32 38 86 39 80 40 82 41 33 42 85 43
REMARK SMILES IDX 79 44 78 45 34 47 66 48 46 49 65 50 47 51 50 52 64 53 83 54
REMARK SMILES IDX 48 55 49 56 63 58 84 59 51 60 35 61 36 62 44 63 37 64 38 65
REMARK SMILES IDX 42 66 45 67 39 68 40 69 43 70 41 71 67 72 68 73 76 74 69 75
REMARK SMILES IDX 70 76 74 77 77 78 71 79 72 80 75 81 73 82 52 83 53 84 61 85
REMARK SMILES IDX 54 86 55 87 59 88 62 89 56 90 57 91 60 92 58 93
REMARK H PARENT 3 17 82 46 50 57
REMARK Flexibility Score: inf
ROOT
ATOM      1  O   UNL     1       5.855  -4.445  -0.877  1.00  0.00    -0.374 OA
ENDROOT
BRANCH   1   2
ATOM      2  C   UNL     1       4.639  -3.929  -1.421  1.00  0.00     0.202 C 
BRANCH   2   3
ATOM      3  C   UNL     1       3.360  -4.526  -0.837  1.00  0.00     0.261 C 
BRANCH   3   4
ATOM      4  O   UNL     1       3.201  -4.122   0.534  1.00  0.00    -0.460 OA
BRANCH   4   5
ATOM      5  C   UNL     1       2.428  -4.953   1.263  1.00  0.00     0.339 C 
ATOM      6  O   UNL     1       1.722  -5.848   0.826  1.00  0.00    -0.246 OA
BRANCH   5   7
ATOM      7  C   UNL     1       2.628  -4.760   2.712  1.00  0.00     0.072 A 
ATOM      8  C   UNL     1       2.584  -3.531   3.378  1.00  0.00     0.054 A 
ATOM      9  C   UNL     1       2.733  -3.496   4.777  1.00  0.00     0.015 A 
ATOM     10  C   UNL     1       2.952  -4.668   5.502  1.00  0.00     0.001 A 
ATOM     11  C   UNL     1       2.864  -5.934   3.451  1.00  0.00     0.016 A 
ATOM     12  C   UNL     1       3.040  -5.885   4.835  1.00  0.00     0.001 A 
BRANCH   8  13
ATOM     13  C   UNL     1       2.618  -2.223   2.704  1.00  0.00     0.255 C 
ATOM     14  N   UNL     1       0.297  -1.379  -0.742  1.00  0.00    -0.332 N 
ATOM     15  C   UNL     1       1.588  -0.770  -0.392  1.00  0.00     0.284 C 
ATOM     16  C   UNL     1       0.004  -2.562   0.086  1.00  0.00     0.284 C 
ATOM     17  H   UNL     1       0.421  -1.719  -1.696  1.00  0.00     0.348 HD
ATOM     18  C   UNL     1       1.835  -0.572   1.110  1.00  0.00     0.181 C 
ATOM     19  C   UNL     1       0.316  -2.439   1.595  1.00  0.00     0.181 C 
ATOM     20  N   UNL     1       1.624  -1.820   1.833  1.00  0.00    -0.327 N 
ATOM     21  O   UNL     1       3.584  -1.512   2.986  1.00  0.00    -0.269 OA
BRANCH  14  22
ATOM     22  C   UNL     1      -0.824  -0.462  -0.926  1.00  0.00     0.258 C 
ATOM     23  C   UNL     1      -0.994   0.689   0.058  1.00  0.00     0.071 C 
ENDBRANCH  14  22
ENDBRANCH   8  13
ENDBRANCH   5   7
ENDBRANCH   4   5
ENDBRANCH   3   4
ENDBRANCH   2   3
ENDBRANCH   1   2
BRANCH   1  24
ATOM     24  C   UNL     1       6.149  -4.125   0.482  1.00  0.00     0.202 C 
BRANCH  24  25
ATOM     25  C   UNL     1       6.702  -2.720   0.752  1.00  0.00     0.261 C 
BRANCH  25  26
ATOM     26  O   UNL     1       5.875  -1.648   0.269  1.00  0.00    -0.460 OA
BRANCH  26  27
ATOM     27  C   UNL     1       6.337  -1.033  -0.847  1.00  0.00     0.338 C 
ATOM     28  O   UNL     1       7.330  -1.316  -1.495  1.00  0.00    -0.246 OA
BRANCH  27  29
ATOM     29  C   UNL     1       5.408   0.033  -1.272  1.00  0.00     0.060 A 
ATOM     30  C   UNL     1       4.916   0.002  -2.583  1.00  0.00     0.016 A 
ATOM     31  C   UNL     1       5.128   1.118  -0.440  1.00  0.00     0.016 A 
ATOM     32  C   UNL     1       4.167   1.074  -3.078  1.00  0.00     0.010 A 
ATOM     33  C   UNL     1       4.383   2.193  -0.941  1.00  0.00     0.010 A 
ATOM     34  C   UNL     1       3.919   2.192  -2.271  1.00  0.00    -0.014 A 
BRANCH  34  35
ATOM     35  C   UNL     1       3.249   3.401  -2.819  1.00  0.00     0.031 A 
ATOM     36  C   UNL     1       4.063   4.606  -3.191  1.00  0.00     0.074 A 
ATOM     37  C   UNL     1       1.912   3.449  -2.963  1.00  0.00     0.049 A 
ATOM     38  N   UNL     1       3.655   5.785  -3.591  1.00  0.00    -0.248 NA
ATOM     39  C   UNL     1       5.524   4.458  -3.135  1.00  0.00     0.031 C 
ATOM     40  C   UNL     1       1.002   2.333  -2.747  1.00  0.00     0.029 A 
ATOM     41  N   UNL     1       1.083   4.497  -3.283  1.00  0.00    -0.354 N 
ATOM     42  C   UNL     1       4.806   6.504  -3.877  1.00  0.00     0.074 A 
ATOM     43  C   UNL     1       5.930   5.653  -3.543  1.00  0.00     0.031 C 
ATOM     44  C   UNL     1      -0.262   2.776  -2.827  1.00  0.00     0.029 A 
ATOM     45  C   UNL     1      -0.246   4.207  -3.101  1.00  0.00     0.049 A 
ATOM     46  H   UNL     1       1.409   5.367  -3.608  1.00  0.00     0.167 HD
ATOM     47  C   UNL     1       4.911   7.747  -4.405  1.00  0.00     0.037 A 
ATOM     48  C   UNL     1      -1.332   5.001  -3.115  1.00  0.00     0.037 A 
ATOM     49  C   UNL     1       3.796   8.601  -4.722  1.00  0.00     0.049 A 
ATOM     50  C   UNL     1      -1.185   6.441  -3.503  1.00  0.00     0.074 A 
ATOM     51  C   UNL     1       3.807   9.851  -5.317  1.00  0.00     0.029 A 
ATOM     52  N   UNL     1       2.470   8.304  -4.447  1.00  0.00    -0.354 N 
ATOM     53  N   UNL     1      -0.100   7.096  -3.831  1.00  0.00    -0.248 NA
ATOM     54  C   UNL     1      -2.414   7.244  -3.558  1.00  0.00     0.031 C 
ATOM     55  C   UNL     1       2.493  10.334  -5.351  1.00  0.00     0.029 A 
ATOM     56  C   UNL     1       1.658   9.366  -4.817  1.00  0.00     0.049 A 
ATOM     57  H   UNL     1       2.151   7.463  -4.047  1.00  0.00     0.167 HD
ATOM     58  C   UNL     1      -0.517   8.369  -4.185  1.00  0.00     0.074 A 
ATOM     59  C   UNL     1      -1.955   8.402  -4.013  1.00  0.00     0.031 C 
ATOM     60  C   UNL     1       0.229   9.405  -4.640  1.00  0.00     0.037 A 
BRANCH  47  61
ATOM     61  C   UNL     1       6.292   8.258  -4.684  1.00  0.00     0.064 A 
ATOM     62  C   UNL     1       7.045   7.767  -5.762  1.00  0.00     0.173 A 
ATOM     63  C   UNL     1       6.848   9.278  -3.901  1.00  0.00     0.173 A 
ATOM     64  F   UNL     1       6.558   6.785  -6.535  1.00  0.00    -0.203 F 
ATOM     65  C   UNL     1       8.316   8.267  -6.032  1.00  0.00     0.198 A 
ATOM     66  C   UNL     1       8.110   9.790  -4.187  1.00  0.00     0.198 A 
ATOM     67  F   UNL     1       6.163   9.783  -2.864  1.00  0.00    -0.203 F 
ATOM     68  F   UNL     1       9.032   7.761  -7.045  1.00  0.00    -0.200 F 
ATOM     69  C   UNL     1       8.845   9.281  -5.248  1.00  0.00     0.200 A 
ATOM     70  F   UNL     1       8.617  10.778  -3.436  1.00  0.00    -0.200 F 
ATOM     71  F   UNL     1      10.065   9.767  -5.513  1.00  0.00    -0.200 F 
ENDBRANCH  47  61
BRANCH  48  72
ATOM     72  C   UNL     1      -2.651   4.450  -2.717  1.00  0.00     0.064 A 
ATOM     73  C   UNL     1      -3.657   4.207  -3.659  1.00  0.00     0.173 A 
ATOM     74  C   UNL     1      -2.926   4.162  -1.372  1.00  0.00     0.173 A 
ATOM     75  F   UNL     1      -3.443   4.486  -4.953  1.00  0.00    -0.203 F 
ATOM     76  C   UNL     1      -4.899   3.709  -3.268  1.00  0.00     0.198 A 
ATOM     77  C   UNL     1      -4.161   3.647  -0.985  1.00  0.00     0.198 A 
ATOM     78  F   UNL     1      -1.991   4.374  -0.434  1.00  0.00    -0.203 F 
ATOM     79  F   UNL     1      -5.858   3.517  -4.183  1.00  0.00    -0.200 F 
ATOM     80  C   UNL     1      -5.148   3.427  -1.933  1.00  0.00     0.200 A 
ATOM     81  F   UNL     1      -4.393   3.365   0.304  1.00  0.00    -0.200 F 
ATOM     82  F   UNL     1      -6.342   2.948  -1.559  1.00  0.00    -0.200 F 
ENDBRANCH  48  72
BRANCH  60  83
ATOM     83  C   UNL     1      -0.503  10.653  -5.029  1.00  0.00     0.064 A 
ATOM     84  C   UNL     1      -1.055  11.514  -4.069  1.00  0.00     0.173 A 
ATOM     85  C   UNL     1      -0.646  10.998  -6.382  1.00  0.00     0.173 A 
ATOM     86  F   UNL     1      -0.966  11.214  -2.765  1.00  0.00    -0.203 F 
ATOM     87  C   UNL     1      -1.742  12.663  -4.451  1.00  0.00     0.198 A 
ATOM     88  C   UNL     1      -1.311  12.161  -6.759  1.00  0.00     0.198 A 
ATOM     89  F   UNL     1      -0.139  10.207  -7.339  1.00  0.00    -0.203 F 
ATOM     90  F   UNL     1      -2.304  13.445  -3.519  1.00  0.00    -0.200 F 
ATOM     91  C   UNL     1      -1.864  12.989  -5.794  1.00  0.00     0.200 A 
ATOM     92  F   UNL     1      -1.421  12.478  -8.056  1.00  0.00    -0.200 F 
ATOM     93  F   UNL     1      -2.525  14.096  -6.159  1.00  0.00    -0.200 F 
ENDBRANCH  60  83
ENDBRANCH  34  35
ENDBRANCH  27  29
ENDBRANCH  26  27
ENDBRANCH  25  26
ENDBRANCH  24  25
ENDBRANCH   1  24
TORSDOF 16
