REMARK SMILES O=C(OCCOCCOC(=O)c1cccc(N2NC(=O)[C@H]3CC=CC[C@H]3C2=O)c1)c1ccc(-c2c3nc(c(-c4c(F)c(F)c(F)c(F)c4F)c4ccc([nH]4)c(-c4c(F)c(F)c(F)c(F)c4F)c4nc(c(-c5c(F)c(F)c(F)c(F)c5F)c5ccc2[nH]5)C=C4)C=C3)cc1
REMARK SMILES IDX 5 1 4 2 3 3 2 4 1 5 30 6 31 7 92 8 32 9 91 10 33 11 34 12
REMARK SMILES IDX 35 13 85 14 36 15 90 16 84 17 86 18 37 19 89 20 83 21 82 22
REMARK SMILES IDX 38 24 70 25 50 26 69 27 51 28 54 29 68 30 87 31 52 32 53 33
REMARK SMILES IDX 67 35 88 36 55 37 39 38 40 39 48 40 41 41 42 42 46 43 49 44
REMARK SMILES IDX 43 45 44 46 47 47 45 48 71 49 72 50 80 51 73 52 74 53 78 54
REMARK SMILES IDX 81 55 75 56 76 57 79 58 77 59 56 60 57 61 65 62 58 63 59 64
REMARK SMILES IDX 63 65 66 66 60 67 61 68 64 69 62 70 6 71 7 72 8 73 9 74
REMARK SMILES IDX 10 75 11 76 12 77 13 78 29 79 14 80 16 81 15 82 17 83 18 84
REMARK SMILES IDX 27 85 19 86 26 88 28 89 20 90 21 91 25 92 22 93 24 94 23 95
REMARK H PARENT 86 23 54 34 18 87
REMARK Flexibility Score: inf
ROOT
ATOM      1  C   UNL     1       4.266  -1.553  -0.256  1.00  0.00     0.202 C 
ENDROOT
BRANCH   1   2
ATOM      2  C   UNL     1       3.967  -0.863   1.074  1.00  0.00     0.261 C 
BRANCH   2   3
ATOM      3  O   UNL     1       2.593  -0.451   1.120  1.00  0.00    -0.460 OA
BRANCH   3   4
ATOM      4  C   UNL     1       2.086   0.788   0.934  1.00  0.00     0.338 C 
ATOM      5  O   UNL     1       0.872   0.949   1.044  1.00  0.00    -0.246 OA
BRANCH   4   6
ATOM      6  C   UNL     1       2.915   1.988   0.604  1.00  0.00     0.060 A 
ATOM      7  C   UNL     1       4.125   1.965  -0.092  1.00  0.00     0.016 A 
ATOM      8  C   UNL     1       2.372   3.242   0.934  1.00  0.00     0.016 A 
ATOM      9  C   UNL     1       4.804   3.128  -0.414  1.00  0.00     0.010 A 
ATOM     10  C   UNL     1       3.031   4.424   0.585  1.00  0.00     0.010 A 
ATOM     11  C   UNL     1       4.257   4.362  -0.083  1.00  0.00    -0.014 A 
BRANCH  11  12
ATOM     12  C   UNL     1       5.062   5.559  -0.365  1.00  0.00     0.031 A 
ATOM     13  C   UNL     1       5.810   6.188   0.766  1.00  0.00     0.074 A 
ATOM     14  C   UNL     1       5.222   5.960  -1.637  1.00  0.00     0.049 A 
ATOM     15  N   UNL     1       6.559   7.255   0.772  1.00  0.00    -0.248 NA
ATOM     16  C   UNL     1       5.715   5.506   2.069  1.00  0.00     0.031 C 
ATOM     17  C   UNL     1       4.632   5.303  -2.807  1.00  0.00     0.029 A 
ATOM     18  N   UNL     1       5.953   6.989  -2.165  1.00  0.00    -0.354 N 
ATOM     19  C   UNL     1       7.002   7.390   2.080  1.00  0.00     0.074 A 
ATOM     20  C   UNL     1       6.440   6.298   2.842  1.00  0.00     0.031 C 
ATOM     21  C   UNL     1       5.042   5.936  -3.917  1.00  0.00     0.029 A 
ATOM     22  C   UNL     1       5.861   7.080  -3.532  1.00  0.00     0.049 A 
ATOM     23  H   UNL     1       6.492   7.605  -1.618  1.00  0.00     0.167 HD
ATOM     24  C   UNL     1       7.800   8.356   2.588  1.00  0.00     0.037 A 
ATOM     25  C   UNL     1       6.358   8.014  -4.364  1.00  0.00     0.037 A 
ATOM     26  C   UNL     1       8.334   9.429   1.795  1.00  0.00     0.049 A 
ATOM     27  C   UNL     1       7.157   9.135  -3.755  1.00  0.00     0.074 A 
ATOM     28  C   UNL     1       9.092  10.512   2.195  1.00  0.00     0.029 A 
ATOM     29  N   UNL     1       8.157   9.545   0.420  1.00  0.00    -0.354 N 
ATOM     30  N   UNL     1       7.512   9.312  -2.503  1.00  0.00    -0.248 NA
ATOM     31  C   UNL     1       7.610  10.194  -4.664  1.00  0.00     0.031 C 
ATOM     32  C   UNL     1       9.334  11.307   1.069  1.00  0.00     0.029 A 
ATOM     33  C   UNL     1       8.775  10.692  -0.042  1.00  0.00     0.049 A 
ATOM     34  H   UNL     1       7.663   8.904  -0.141  1.00  0.00     0.167 HD
ATOM     35  C   UNL     1       8.241  10.491  -2.474  1.00  0.00     0.074 A 
ATOM     36  C   UNL     1       8.295  10.975  -3.840  1.00  0.00     0.031 C 
ATOM     37  C   UNL     1       8.808  11.126  -1.417  1.00  0.00     0.037 A 
BRANCH  24  38
ATOM     38  C   UNL     1       8.051   8.323   4.066  1.00  0.00     0.064 A 
ATOM     39  C   UNL     1       8.861   7.346   4.664  1.00  0.00     0.173 A 
ATOM     40  C   UNL     1       7.428   9.260   4.904  1.00  0.00     0.173 A 
ATOM     41  F   UNL     1       9.453   6.407   3.912  1.00  0.00    -0.203 F 
ATOM     42  C   UNL     1       9.008   7.287   6.049  1.00  0.00     0.198 A 
ATOM     43  C   UNL     1       7.599   9.215   6.285  1.00  0.00     0.198 A 
ATOM     44  F   UNL     1       6.635  10.210   4.385  1.00  0.00    -0.203 F 
ATOM     45  F   UNL     1       9.732   6.304   6.603  1.00  0.00    -0.200 F 
ATOM     46  C   UNL     1       8.380   8.223   6.857  1.00  0.00     0.200 A 
ATOM     47  F   UNL     1       6.992  10.122   7.064  1.00  0.00    -0.200 F 
ATOM     48  F   UNL     1       8.513   8.158   8.189  1.00  0.00    -0.200 F 
ENDBRANCH  24  38
BRANCH  25  49
ATOM     49  C   UNL     1       6.068   7.957  -5.822  1.00  0.00     0.064 A 
ATOM     50  C   UNL     1       7.090   7.779  -6.764  1.00  0.00     0.173 A 
ATOM     51  C   UNL     1       4.757   8.092  -6.307  1.00  0.00     0.173 A 
ATOM     52  F   UNL     1       8.363   7.668  -6.358  1.00  0.00    -0.203 F 
ATOM     53  C   UNL     1       6.815   7.754  -8.132  1.00  0.00     0.198 A 
ATOM     54  C   UNL     1       4.479   8.034  -7.671  1.00  0.00     0.198 A 
ATOM     55  F   UNL     1       3.738   8.269  -5.453  1.00  0.00    -0.203 F 
ATOM     56  F   UNL     1       7.817   7.631  -9.012  1.00  0.00    -0.200 F 
ATOM     57  C   UNL     1       5.509   7.875  -8.584  1.00  0.00     0.200 A 
ATOM     58  F   UNL     1       3.213   8.137  -8.100  1.00  0.00    -0.200 F 
ATOM     59  F   UNL     1       5.246   7.848  -9.897  1.00  0.00    -0.200 F 
ENDBRANCH  25  49
BRANCH  37  60
ATOM     60  C   UNL     1       9.560  12.388  -1.714  1.00  0.00     0.064 A 
ATOM     61  C   UNL     1       8.895  13.579  -2.037  1.00  0.00     0.173 A 
ATOM     62  C   UNL     1      10.959  12.413  -1.620  1.00  0.00     0.173 A 
ATOM     63  F   UNL     1       7.559  13.596  -2.154  1.00  0.00    -0.203 F 
ATOM     64  C   UNL     1       9.608  14.748  -2.277  1.00  0.00     0.198 A 
ATOM     65  C   UNL     1      11.666  13.591  -1.830  1.00  0.00     0.198 A 
ATOM     66  F   UNL     1      11.636  11.298  -1.306  1.00  0.00    -0.203 F 
ATOM     67  F   UNL     1       8.959  15.866  -2.629  1.00  0.00    -0.200 F 
ATOM     68  C   UNL     1      10.991  14.756  -2.164  1.00  0.00     0.200 A 
ATOM     69  F   UNL     1      13.000  13.601  -1.705  1.00  0.00    -0.200 F 
ATOM     70  F   UNL     1      11.675  15.887  -2.384  1.00  0.00    -0.200 F 
ENDBRANCH  37  60
ENDBRANCH  11  12
ENDBRANCH   4   6
ENDBRANCH   3   4
ENDBRANCH   2   3
ENDBRANCH   1   2
BRANCH   1  71
ATOM     71  O   UNL     1       4.045  -0.740  -1.407  1.00  0.00    -0.374 OA
BRANCH  71  72
ATOM     72  C   UNL     1       2.727  -0.770  -1.966  1.00  0.00     0.202 C 
BRANCH  72  73
ATOM     73  C   UNL     1       2.839  -0.842  -3.495  1.00  0.00     0.261 C 
BRANCH  73  74
ATOM     74  O   UNL     1       3.458  -2.088  -3.843  1.00  0.00    -0.460 OA
BRANCH  74  75
ATOM     75  C   UNL     1       4.814  -2.099  -3.740  1.00  0.00     0.338 C 
ATOM     76  O   UNL     1       5.579  -1.162  -3.879  1.00  0.00    -0.246 OA
BRANCH  75  77
ATOM     77  C   UNL     1       5.185  -3.414  -3.178  1.00  0.00     0.062 A 
ATOM     78  C   UNL     1       6.202  -3.496  -2.223  1.00  0.00     0.016 A 
ATOM     79  C   UNL     1       4.470  -4.554  -3.536  1.00  0.00     0.044 A 
ATOM     80  C   UNL     1       6.419  -4.695  -1.545  1.00  0.00     0.003 A 
ATOM     81  C   UNL     1       4.754  -5.780  -2.933  1.00  0.00     0.067 A 
ATOM     82  C   UNL     1       5.679  -5.831  -1.882  1.00  0.00     0.028 A 
BRANCH  81  83
ATOM     83  N   UNL     1       4.275  -6.969  -3.545  1.00  0.00    -0.221 N 
ATOM     84  N   UNL     1       4.390  -6.991  -4.944  1.00  0.00    -0.260 N 
ATOM     85  C   UNL     1       4.066  -8.140  -2.821  1.00  0.00     0.249 C 
ATOM     86  C   UNL     1       4.516  -8.116  -5.694  1.00  0.00     0.243 C 
ATOM     87  H   UNL     1       4.379  -6.127  -5.415  1.00  0.00     0.192 HD
ATOM     88  C   UNL     1       4.479  -9.410  -3.532  1.00  0.00     0.097 C 
ATOM     89  O   UNL     1       3.741  -8.170  -1.633  1.00  0.00    -0.272 OA
ATOM     90  O   UNL     1       4.816  -8.016  -6.880  1.00  0.00    -0.273 OA
ATOM     91  C   UNL     1       4.139  -9.412  -5.020  1.00  0.00     0.097 C 
ATOM     92  C   UNL     1       5.982  -9.572  -3.239  1.00  0.00     0.041 C 
ATOM     93  C   UNL     1       4.757 -10.612  -5.755  1.00  0.00     0.041 C 
ATOM     94  C   UNL     1       6.697 -10.483  -4.179  1.00  0.00    -0.030 C 
ATOM     95  C   UNL     1       6.147 -10.956  -5.304  1.00  0.00    -0.030 C 
ENDBRANCH  81  83
ENDBRANCH  75  77
ENDBRANCH  74  75
ENDBRANCH  73  74
ENDBRANCH  72  73
ENDBRANCH  71  72
ENDBRANCH   1  71
TORSDOF 15
