REMARK SMILES CCc1c(C(=O)NCC(=O)OCCOCCOC(=O)c2ccc(-c3c4nc(c(-c5c(F)c(F)c(F)c(F)c5F)c5ccc([nH]5)c(-c5c(F)c(F)c(F)c(F)c5F)c5nc(c(-c6c(F)c(F)c(F)c(F)c6F)c6ccc3[nH]6)C=C5)C=C4)cc2)nnn1-c1ccc(Cl)cc1Cl
REMARK SMILES IDX 13 1 12 2 11 3 9 4 10 5 8 6 7 7 5 8 6 9 4 11 3 12 85 13
REMARK SMILES IDX 83 14 84 15 2 16 1 17 86 18 87 19 92 20 88 21 91 22 93 23
REMARK SMILES IDX 89 24 90 25 14 26 15 27 16 28 17 29 18 30 19 31 20 32 21 33
REMARK SMILES IDX 82 34 22 35 81 36 23 37 24 38 25 39 75 40 26 41 80 42 74 43
REMARK SMILES IDX 76 44 27 45 79 46 73 47 72 48 28 50 60 51 40 52 59 53 41 54
REMARK SMILES IDX 44 55 58 56 77 57 42 58 43 59 57 61 78 62 45 63 29 64 30 65
REMARK SMILES IDX 38 66 31 67 32 68 36 69 39 70 33 71 34 72 37 73 35 74 61 75
REMARK SMILES IDX 62 76 70 77 63 78 64 79 68 80 71 81 65 82 66 83 69 84 67 85
REMARK SMILES IDX 46 86 47 87 55 88 48 89 49 90 53 91 56 92 50 93 51 94 54 95
REMARK SMILES IDX 52 96
REMARK H PARENT 7 10 76 49 44 60
REMARK Flexibility Score: inf
ROOT
ATOM      1  C   UNL     1       4.415   4.446   1.067  1.00  0.00     0.202 C 
ENDROOT
BRANCH   1   2
ATOM      2  C   UNL     1       3.771   3.103   0.708  1.00  0.00     0.261 C 
BRANCH   2   3
ATOM      3  O   UNL     1       3.036   3.149  -0.525  1.00  0.00    -0.462 OA
BRANCH   3   4
ATOM      4  C   UNL     1       1.681   3.143  -0.393  1.00  0.00     0.325 C 
ATOM      5  O   UNL     1       1.083   3.062   0.674  1.00  0.00    -0.250 OA
BRANCH   4   6
ATOM      6  C   UNL     1       0.967   3.453  -1.712  1.00  0.00     0.239 C 
BRANCH   6   7
ATOM      7  N   UNL     1       1.746   3.204  -2.894  1.00  0.00    -0.340 N 
ATOM      8  C   UNL     1       1.963   2.091  -3.653  1.00  0.00     0.274 C 
ATOM      9  O   UNL     1       2.646   2.325  -4.658  1.00  0.00    -0.267 OA
ATOM     10  H   UNL     1       2.221   4.000  -3.224  1.00  0.00     0.164 HD
BRANCH   8  11
ATOM     11  C   UNL     1       1.473   0.726  -3.385  1.00  0.00     0.174 A 
ATOM     12  C   UNL     1       0.787   0.028  -2.380  1.00  0.00     0.077 A 
ATOM     13  N   UNL     1       0.659  -1.262  -2.912  1.00  0.00    -0.215 N 
ATOM     14  N   UNL     1       1.834  -0.201  -4.354  1.00  0.00    -0.124 NA
ATOM     15  N   UNL     1       1.433  -1.400  -3.996  1.00  0.00    -0.061 NA
BRANCH  12  16
ATOM     16  C   UNL     1       0.300   0.303  -0.992  1.00  0.00     0.055 C 
ATOM     17  C   UNL     1       1.163  -0.315   0.100  1.00  0.00     0.011 C 
ENDBRANCH  12  16
BRANCH  13  18
ATOM     18  C   UNL     1       0.080  -2.402  -2.314  1.00  0.00     0.085 A 
ATOM     19  C   UNL     1       0.919  -3.499  -2.063  1.00  0.00     0.031 A 
ATOM     20  C   UNL     1      -1.255  -2.421  -1.894  1.00  0.00     0.068 A 
ATOM     21  C   UNL     1       0.448  -4.562  -1.294  1.00  0.00     0.023 A 
ATOM     22  C   UNL     1      -1.714  -3.480  -1.109  1.00  0.00     0.043 A 
ATOM     23  Cl  UNL     1      -2.424  -1.256  -2.418  1.00  0.00    -0.082 Cl
ATOM     24  C   UNL     1      -0.856  -4.534  -0.799  1.00  0.00     0.042 A 
ATOM     25  Cl  UNL     1      -1.416  -5.821   0.195  1.00  0.00    -0.084 Cl
ENDBRANCH  13  18
ENDBRANCH   8  11
ENDBRANCH   6   7
ENDBRANCH   4   6
ENDBRANCH   3   4
ENDBRANCH   2   3
ENDBRANCH   1   2
BRANCH   1  26
ATOM     26  O   UNL     1       3.596   5.593   1.280  1.00  0.00    -0.374 OA
BRANCH  26  27
ATOM     27  C   UNL     1       2.724   6.093   0.278  1.00  0.00     0.202 C 
BRANCH  27  28
ATOM     28  C   UNL     1       3.281   6.623  -1.038  1.00  0.00     0.261 C 
BRANCH  28  29
ATOM     29  O   UNL     1       4.218   5.754  -1.648  1.00  0.00    -0.460 OA
BRANCH  29  30
ATOM     30  C   UNL     1       5.497   6.101  -1.362  1.00  0.00     0.338 C 
ATOM     31  O   UNL     1       5.873   6.861  -0.490  1.00  0.00    -0.246 OA
BRANCH  30  32
ATOM     32  C   UNL     1       6.387   5.566  -2.395  1.00  0.00     0.060 A 
ATOM     33  C   UNL     1       7.713   5.994  -2.307  1.00  0.00     0.016 A 
ATOM     34  C   UNL     1       5.846   5.031  -3.571  1.00  0.00     0.016 A 
ATOM     35  C   UNL     1       8.409   6.162  -3.476  1.00  0.00     0.010 A 
ATOM     36  C   UNL     1       6.539   5.212  -4.742  1.00  0.00     0.010 A 
ATOM     37  C   UNL     1       7.764   5.870  -4.683  1.00  0.00    -0.014 A 
BRANCH  37  38
ATOM     38  C   UNL     1       8.476   6.167  -5.902  1.00  0.00     0.031 A 
ATOM     39  C   UNL     1       9.577   5.212  -6.132  1.00  0.00     0.074 A 
ATOM     40  C   UNL     1       8.111   7.161  -6.732  1.00  0.00     0.049 A 
ATOM     41  N   UNL     1      10.842   5.451  -6.058  1.00  0.00    -0.248 NA
ATOM     42  C   UNL     1       9.233   3.784  -6.236  1.00  0.00     0.031 C 
ATOM     43  C   UNL     1       6.902   7.986  -6.695  1.00  0.00     0.029 A 
ATOM     44  N   UNL     1       8.731   7.583  -7.866  1.00  0.00    -0.354 N 
ATOM     45  C   UNL     1      11.458   4.235  -6.316  1.00  0.00     0.074 A 
ATOM     46  C   UNL     1      10.442   3.223  -6.203  1.00  0.00     0.031 C 
ATOM     47  C   UNL     1       6.767   8.631  -7.878  1.00  0.00     0.029 A 
ATOM     48  C   UNL     1       7.936   8.365  -8.697  1.00  0.00     0.049 A 
ATOM     49  H   UNL     1       9.664   7.354  -8.081  1.00  0.00     0.167 HD
ATOM     50  C   UNL     1      12.688   4.194  -6.892  1.00  0.00     0.037 A 
ATOM     51  C   UNL     1       8.214   8.657  -9.995  1.00  0.00     0.037 A 
ATOM     52  C   UNL     1      13.369   5.456  -6.760  1.00  0.00     0.049 A 
ATOM     53  C   UNL     1       9.673   8.433 -10.193  1.00  0.00     0.074 A 
ATOM     54  C   UNL     1      13.797   6.217  -5.689  1.00  0.00     0.029 A 
ATOM     55  N   UNL     1      13.347   6.305  -7.839  1.00  0.00    -0.354 N 
ATOM     56  N   UNL     1      10.597   9.176  -9.650  1.00  0.00    -0.248 NA
ATOM     57  C   UNL     1      10.099   7.098 -10.591  1.00  0.00     0.031 C 
ATOM     58  C   UNL     1      13.559   7.569  -6.074  1.00  0.00     0.029 A 
ATOM     59  C   UNL     1      13.069   7.567  -7.379  1.00  0.00     0.049 A 
ATOM     60  H   UNL     1      13.503   6.053  -8.777  1.00  0.00     0.167 HD
ATOM     61  C   UNL     1      11.568   8.277  -9.232  1.00  0.00     0.074 A 
ATOM     62  C   UNL     1      11.240   7.020  -9.900  1.00  0.00     0.031 C 
ATOM     63  C   UNL     1      12.361   8.556  -8.156  1.00  0.00     0.037 A 
BRANCH  50  64
ATOM     64  C   UNL     1      13.077   3.164  -7.918  1.00  0.00     0.064 A 
ATOM     65  C   UNL     1      14.419   3.090  -8.333  1.00  0.00     0.173 A 
ATOM     66  C   UNL     1      12.149   2.462  -8.720  1.00  0.00     0.173 A 
ATOM     67  F   UNL     1      15.377   3.748  -7.662  1.00  0.00    -0.203 F 
ATOM     68  C   UNL     1      14.789   2.419  -9.500  1.00  0.00     0.198 A 
ATOM     69  C   UNL     1      12.530   1.744  -9.848  1.00  0.00     0.198 A 
ATOM     70  F   UNL     1      10.828   2.538  -8.522  1.00  0.00    -0.203 F 
ATOM     71  F   UNL     1      16.057   2.482  -9.927  1.00  0.00    -0.200 F 
ATOM     72  C   UNL     1      13.845   1.749 -10.257  1.00  0.00     0.200 A 
ATOM     73  F   UNL     1      11.594   1.124 -10.581  1.00  0.00    -0.200 F 
ATOM     74  F   UNL     1      14.189   1.154 -11.407  1.00  0.00    -0.200 F 
ENDBRANCH  50  64
BRANCH  51  75
ATOM     75  C   UNL     1       7.271   8.719 -11.141  1.00  0.00     0.064 A 
ATOM     76  C   UNL     1       7.683   9.233 -12.383  1.00  0.00     0.173 A 
ATOM     77  C   UNL     1       6.055   8.008 -11.135  1.00  0.00     0.173 A 
ATOM     78  F   UNL     1       8.849   9.887 -12.489  1.00  0.00    -0.203 F 
ATOM     79  C   UNL     1       6.943   9.017 -13.552  1.00  0.00     0.198 A 
ATOM     80  C   UNL     1       5.315   7.798 -12.300  1.00  0.00     0.198 A 
ATOM     81  F   UNL     1       5.607   7.416 -10.020  1.00  0.00    -0.203 F 
ATOM     82  F   UNL     1       7.405   9.463 -14.729  1.00  0.00    -0.200 F 
ATOM     83  C   UNL     1       5.767   8.287 -13.511  1.00  0.00     0.200 A 
ATOM     84  F   UNL     1       4.196   7.061 -12.252  1.00  0.00    -0.200 F 
ATOM     85  F   UNL     1       5.093   8.021 -14.638  1.00  0.00    -0.200 F 
ENDBRANCH  51  75
BRANCH  63  86
ATOM     86  C   UNL     1      12.337   9.961  -7.620  1.00  0.00     0.064 A 
ATOM     87  C   UNL     1      11.196  10.590  -7.090  1.00  0.00     0.173 A 
ATOM     88  C   UNL     1      13.551  10.654  -7.535  1.00  0.00     0.173 A 
ATOM     89  F   UNL     1      10.018   9.954  -7.036  1.00  0.00    -0.203 F 
ATOM     90  C   UNL     1      11.263  11.877  -6.556  1.00  0.00     0.198 A 
ATOM     91  C   UNL     1      13.623  11.921  -6.964  1.00  0.00     0.198 A 
ATOM     92  F   UNL     1      14.684  10.081  -7.971  1.00  0.00    -0.203 F 
ATOM     93  F   UNL     1      10.156  12.466  -6.079  1.00  0.00    -0.200 F 
ATOM     94  C   UNL     1      12.478  12.538  -6.489  1.00  0.00     0.200 A 
ATOM     95  F   UNL     1      14.810  12.534  -6.855  1.00  0.00    -0.200 F 
ATOM     96  F   UNL     1      12.551  13.761  -5.945  1.00  0.00    -0.200 F 
ENDBRANCH  63  86
ENDBRANCH  37  38
ENDBRANCH  30  32
ENDBRANCH  29  30
ENDBRANCH  28  29
ENDBRANCH  27  28
ENDBRANCH  26  27
ENDBRANCH   1  26
TORSDOF 18
