REMARK SMILES C=CCc1cccc(-c2ccc([C@@H](C)C(=O)OCCOCCOC(=O)c3ccc(-c4c5nc(c(-c6c(F)c(F)c(F)c(F)c6F)c6ccc([nH]6)c(-c6c(F)c(F)c(F)c(F)c6F)c6nc(c(-c7c(F)c(F)c(F)c(F)c7F)c7ccc4[nH]7)C=C6)C=C5)cc3)cc2)c1
REMARK SMILES IDX 19 1 18 2 17 3 15 4 16 5 13 6 14 7 12 8 9 9 10 10 90 11
REMARK SMILES IDX 11 12 89 13 8 14 4 15 5 16 91 17 6 18 7 19 3 20 2 21 1 22
REMARK SMILES IDX 20 23 21 24 22 25 23 26 24 27 25 28 26 29 27 30 88 31 28 32
REMARK SMILES IDX 87 33 29 34 30 35 31 36 81 37 32 38 86 39 80 40 82 41 33 42
REMARK SMILES IDX 85 43 79 44 78 45 34 47 66 48 46 49 65 50 47 51 50 52 64 53
REMARK SMILES IDX 83 54 48 55 49 56 63 58 84 59 51 60 35 61 36 62 44 63 37 64
REMARK SMILES IDX 38 65 42 66 45 67 39 68 40 69 43 70 41 71 67 72 68 73 76 74
REMARK SMILES IDX 69 75 70 76 74 77 77 78 71 79 72 80 75 81 73 82 52 83 53 84
REMARK SMILES IDX 61 85 54 86 55 87 59 88 62 89 56 90 57 91 60 92 58 93
REMARK H PARENT 82 46 50 57
REMARK Flexibility Score: inf
ROOT
ATOM      1  C   UNL     1      -5.659  -1.470 -10.220  1.00  0.00     0.202 C 
ENDROOT
BRANCH   1   2
ATOM      2  C   UNL     1      -6.441  -0.211 -10.604  1.00  0.00     0.261 C 
BRANCH   2   3
ATOM      3  O   UNL     1      -6.450   0.737  -9.522  1.00  0.00    -0.463 OA
BRANCH   3   4
ATOM      4  C   UNL     1      -7.670   1.054  -9.017  1.00  0.00     0.313 C 
ATOM      5  O   UNL     1      -8.737   0.702  -9.514  1.00  0.00    -0.252 OA
BRANCH   4   6
ATOM      6  C   UNL     1      -7.617   1.942  -7.784  1.00  0.00     0.126 C 
ATOM      7  C   UNL     1      -7.849   3.392  -8.205  1.00  0.00     0.025 C 
BRANCH   6   8
ATOM      8  C   UNL     1      -6.412   1.805  -6.856  1.00  0.00    -0.034 A 
ATOM      9  C   UNL     1      -4.270   1.792  -4.974  1.00  0.00    -0.018 A 
ATOM     10  C   UNL     1      -4.073   2.203  -6.302  1.00  0.00     0.009 A 
ATOM     11  C   UNL     1      -5.545   1.330  -4.620  1.00  0.00     0.009 A 
ATOM     12  C   UNL     1      -5.125   2.211  -7.229  1.00  0.00     0.005 A 
ATOM     13  C   UNL     1      -6.599   1.337  -5.544  1.00  0.00     0.005 A 
BRANCH   9  14
ATOM     14  C   UNL     1      -3.205   1.934  -3.966  1.00  0.00    -0.018 A 
ATOM     15  C   UNL     1      -1.766   1.014  -2.200  1.00  0.00    -0.044 A 
ATOM     16  C   UNL     1      -1.244   2.296  -1.974  1.00  0.00     0.004 A 
ATOM     17  C   UNL     1      -2.755   0.850  -3.191  1.00  0.00     0.012 A 
ATOM     18  C   UNL     1      -1.672   3.380  -2.735  1.00  0.00     0.001 A 
ATOM     19  C   UNL     1      -2.640   3.198  -3.722  1.00  0.00     0.009 A 
BRANCH  15  20
ATOM     20  C   UNL     1      -1.327  -0.155  -1.344  1.00  0.00     0.062 C 
BRANCH  20  21
ATOM     21  C   UNL     1       0.169  -0.295  -1.240  1.00  0.00    -0.030 C 
ATOM     22  C   UNL     1       0.863  -0.185  -0.099  1.00  0.00     0.004 C 
ENDBRANCH  20  21
ENDBRANCH  15  20
ENDBRANCH   9  14
ENDBRANCH   6   8
ENDBRANCH   4   6
ENDBRANCH   3   4
ENDBRANCH   2   3
ENDBRANCH   1   2
BRANCH   1  23
ATOM     23  O   UNL     1      -6.265  -2.298  -9.228  1.00  0.00    -0.374 OA
BRANCH  23  24
ATOM     24  C   UNL     1      -6.177  -1.864  -7.870  1.00  0.00     0.202 C 
BRANCH  24  25
ATOM     25  C   UNL     1      -4.836  -2.112  -7.171  1.00  0.00     0.261 C 
BRANCH  25  26
ATOM     26  O   UNL     1      -3.780  -1.309  -7.727  1.00  0.00    -0.460 OA
BRANCH  26  27
ATOM     27  C   UNL     1      -2.820  -1.999  -8.381  1.00  0.00     0.338 C 
ATOM     28  O   UNL     1      -2.712  -3.214  -8.481  1.00  0.00    -0.246 OA
BRANCH  27  29
ATOM     29  C   UNL     1      -1.959  -1.073  -9.139  1.00  0.00     0.060 A 
ATOM     30  C   UNL     1      -1.740  -1.359 -10.493  1.00  0.00     0.016 A 
ATOM     31  C   UNL     1      -1.311   0.002  -8.526  1.00  0.00     0.016 A 
ATOM     32  C   UNL     1      -0.825  -0.607 -11.227  1.00  0.00     0.010 A 
ATOM     33  C   UNL     1      -0.385   0.751  -9.262  1.00  0.00     0.010 A 
ATOM     34  C   UNL     1      -0.110   0.424 -10.603  1.00  0.00    -0.014 A 
BRANCH  34  35
ATOM     35  C   UNL     1       1.043   1.037 -11.306  1.00  0.00     0.031 A 
ATOM     36  C   UNL     1       2.427   0.532 -11.006  1.00  0.00     0.074 A 
ATOM     37  C   UNL     1       0.861   1.996 -12.230  1.00  0.00     0.049 A 
ATOM     38  N   UNL     1       3.580   0.928 -11.482  1.00  0.00    -0.248 NA
ATOM     39  C   UNL     1       2.522  -0.573 -10.039  1.00  0.00     0.031 C 
ATOM     40  C   UNL     1      -0.432   2.527 -12.652  1.00  0.00     0.029 A 
ATOM     41  N   UNL     1       1.775   2.691 -12.982  1.00  0.00    -0.354 N 
ATOM     42  C   UNL     1       4.535   0.123 -10.874  1.00  0.00     0.074 A 
ATOM     43  C   UNL     1       3.831  -0.761  -9.970  1.00  0.00     0.031 C 
ATOM     44  C   UNL     1      -0.229   3.470 -13.589  1.00  0.00     0.029 A 
ATOM     45  C   UNL     1       1.208   3.628 -13.808  1.00  0.00     0.049 A 
ATOM     46  H   UNL     1       2.746   2.531 -12.934  1.00  0.00     0.167 HD
ATOM     47  C   UNL     1       5.876   0.113 -11.061  1.00  0.00     0.037 A 
ATOM     48  C   UNL     1       1.787   4.522 -14.633  1.00  0.00     0.037 A 
ATOM     49  C   UNL     1       6.578   0.997 -11.953  1.00  0.00     0.049 A 
ATOM     50  C   UNL     1       3.289   4.560 -14.749  1.00  0.00     0.074 A 
ATOM     51  C   UNL     1       7.936   1.066 -12.212  1.00  0.00     0.029 A 
ATOM     52  N   UNL     1       5.972   1.974 -12.730  1.00  0.00    -0.354 N 
ATOM     53  N   UNL     1       4.184   3.791 -14.178  1.00  0.00    -0.248 NA
ATOM     54  C   UNL     1       3.859   5.595 -15.623  1.00  0.00     0.031 C 
ATOM     55  C   UNL     1       8.156   2.116 -13.111  1.00  0.00     0.029 A 
ATOM     56  C   UNL     1       6.932   2.668 -13.450  1.00  0.00     0.049 A 
ATOM     57  H   UNL     1       5.004   2.148 -12.765  1.00  0.00     0.167 HD
ATOM     58  C   UNL     1       5.417   4.225 -14.648  1.00  0.00     0.074 A 
ATOM     59  C   UNL     1       5.155   5.324 -15.554  1.00  0.00     0.031 C 
ATOM     60  C   UNL     1       6.654   3.753 -14.357  1.00  0.00     0.037 A 
BRANCH  47  61
ATOM     61  C   UNL     1       6.673  -0.871 -10.256  1.00  0.00     0.064 A 
ATOM     62  C   UNL     1       6.630  -2.247 -10.525  1.00  0.00     0.173 A 
ATOM     63  C   UNL     1       7.495  -0.432  -9.208  1.00  0.00     0.173 A 
ATOM     64  F   UNL     1       5.847  -2.719 -11.507  1.00  0.00    -0.203 F 
ATOM     65  C   UNL     1       7.357  -3.151  -9.754  1.00  0.00     0.198 A 
ATOM     66  C   UNL     1       8.243  -1.335  -8.457  1.00  0.00     0.198 A 
ATOM     67  F   UNL     1       7.575   0.874  -8.912  1.00  0.00    -0.203 F 
ATOM     68  F   UNL     1       7.261  -4.465  -9.995  1.00  0.00    -0.200 F 
ATOM     69  C   UNL     1       8.166  -2.693  -8.724  1.00  0.00     0.200 A 
ATOM     70  F   UNL     1       9.032  -0.891  -7.469  1.00  0.00    -0.200 F 
ATOM     71  F   UNL     1       8.865  -3.564  -7.983  1.00  0.00    -0.200 F 
ENDBRANCH  47  61
BRANCH  48  72
ATOM     72  C   UNL     1       0.944   5.458 -15.419  1.00  0.00     0.064 A 
ATOM     73  C   UNL     1       0.839   5.337 -16.811  1.00  0.00     0.173 A 
ATOM     74  C   UNL     1       0.234   6.496 -14.797  1.00  0.00     0.173 A 
ATOM     75  F   UNL     1       1.520   4.377 -17.453  1.00  0.00    -0.203 F 
ATOM     76  C   UNL     1       0.064   6.226 -17.554  1.00  0.00     0.198 A 
ATOM     77  C   UNL     1      -0.559   7.369 -15.538  1.00  0.00     0.198 A 
ATOM     78  F   UNL     1       0.306   6.657 -13.468  1.00  0.00    -0.203 F 
ATOM     79  F   UNL     1       0.011   6.112 -18.888  1.00  0.00    -0.200 F 
ATOM     80  C   UNL     1      -0.639   7.237 -16.916  1.00  0.00     0.200 A 
ATOM     81  F   UNL     1      -1.244   8.339 -14.917  1.00  0.00    -0.200 F 
ATOM     82  F   UNL     1      -1.388   8.089 -17.630  1.00  0.00    -0.200 F 
ENDBRANCH  48  72
BRANCH  60  83
ATOM     83  C   UNL     1       7.820   4.391 -15.055  1.00  0.00     0.064 A 
ATOM     84  C   UNL     1       8.275   5.671 -14.710  1.00  0.00     0.173 A 
ATOM     85  C   UNL     1       8.519   3.689 -16.050  1.00  0.00     0.173 A 
ATOM     86  F   UNL     1       7.631   6.387 -13.777  1.00  0.00    -0.203 F 
ATOM     87  C   UNL     1       9.377   6.234 -15.349  1.00  0.00     0.198 A 
ATOM     88  C   UNL     1       9.636   4.245 -16.668  1.00  0.00     0.198 A 
ATOM     89  F   UNL     1       8.127   2.458 -16.412  1.00  0.00    -0.203 F 
ATOM     90  F   UNL     1       9.771   7.475 -15.032  1.00  0.00    -0.200 F 
ATOM     91  C   UNL     1      10.061   5.518 -16.321  1.00  0.00     0.200 A 
ATOM     92  F   UNL     1      10.303   3.546 -17.597  1.00  0.00    -0.200 F 
ATOM     93  F   UNL     1      11.126   6.059 -16.929  1.00  0.00    -0.200 F 
ENDBRANCH  60  83
ENDBRANCH  34  35
ENDBRANCH  27  29
ENDBRANCH  26  27
ENDBRANCH  25  26
ENDBRANCH  24  25
ENDBRANCH  23  24
ENDBRANCH   1  23
TORSDOF 18
