REMARK SMILES Cc1ccc(C(=O)OCCOCCOC(=O)c2ccc(-c3c4nc(c(-c5c(F)c(F)c(F)c(F)c5F)c5ccc([nH]5)c(-c5c(F)c(F)c(F)c(F)c5F)c5nc(c(-c6c(F)c(F)c(F)c(F)c6F)c6ccc3[nH]6)C=C5)C=C4)cc2)cc1N1C(=O)/C(=C/c2ccc([N+](=O)[O-])cc2)SC1=S
REMARK SMILES IDX 10 1 9 2 8 3 6 4 7 5 5 6 1 7 2 8 3 9 81 10 4 11 80 12 82 13
REMARK SMILES IDX 83 14 97 15 84 16 85 17 96 18 98 19 86 20 87 21 88 22 95 23
REMARK SMILES IDX 89 24 94 25 90 26 91 27 92 28 93 29 11 30 12 31 13 32 14 33
REMARK SMILES IDX 15 34 16 35 17 36 18 37 79 38 19 39 78 40 20 41 21 42 22 43
REMARK SMILES IDX 72 44 23 45 77 46 71 47 73 48 24 49 76 50 70 51 69 52 25 54
REMARK SMILES IDX 57 55 37 56 56 57 38 58 41 59 55 60 74 61 39 62 40 63 54 65
REMARK SMILES IDX 75 66 42 67 26 68 27 69 35 70 28 71 29 72 33 73 36 74 30 75
REMARK SMILES IDX 31 76 34 77 32 78 58 79 59 80 67 81 60 82 61 83 65 84 68 85
REMARK SMILES IDX 62 86 63 87 66 88 64 89 43 90 44 91 52 92 45 93 46 94 50 95
REMARK SMILES IDX 53 96 47 97 48 98 51 99 49 100
REMARK H PARENT 73 53 41 64
REMARK Flexibility Score: inf
ROOT
ATOM      1  C   UNL     1      -3.618   1.123  -2.479  1.00  0.00     0.202 C 
ENDROOT
BRANCH   1   2
ATOM      2  C   UNL     1      -3.800   1.651  -1.096  1.00  0.00     0.261 C 
BRANCH   2   3
ATOM      3  O   UNL     1      -2.691   1.324  -0.243  1.00  0.00    -0.460 OA
BRANCH   3   4
ATOM      4  C   UNL     1      -2.512   0.061   0.251  1.00  0.00     0.338 C 
ATOM      5  O   UNL     1      -3.318  -0.824   0.390  1.00  0.00    -0.246 OA
BRANCH   4   6
ATOM      6  C   UNL     1      -1.051  -0.095   0.427  1.00  0.00     0.062 A 
ATOM      7  C   UNL     1       3.160  -0.513  -0.311  1.00  0.00     0.046 C 
ATOM      8  C   UNL     1       1.698  -0.332  -0.025  1.00  0.00    -0.027 A 
ATOM      9  C   UNL     1       0.903  -1.477   0.173  1.00  0.00     0.006 A 
ATOM     10  C   UNL     1       1.091   0.930   0.062  1.00  0.00     0.054 A 
ATOM     11  C   UNL     1      -0.477  -1.363   0.359  1.00  0.00     0.016 A 
ATOM     12  C   UNL     1      -0.250   1.042   0.398  1.00  0.00     0.042 A 
BRANCH  10  13
ATOM     13  N   UNL     1       1.736   2.120  -0.332  1.00  0.00    -0.261 N 
ATOM     14  C   UNL     1       2.513   2.794   0.588  1.00  0.00     0.270 C 
ATOM     15  C   UNL     1       1.445   2.801  -1.508  1.00  0.00     0.152 C 
ATOM     16  O   UNL     1       2.883   2.410   1.689  1.00  0.00    -0.268 OA
ATOM     17  C   UNL     1       2.806   4.145   0.053  1.00  0.00     0.081 C 
ATOM     18  S   UNL     1       2.510   4.200  -1.633  1.00  0.00    -0.054 SA
ATOM     19  S   UNL     1       0.292   2.485  -2.675  1.00  0.00    -0.051 S 
ATOM     20  C   UNL     1       3.113   5.161   0.860  1.00  0.00     0.029 C 
BRANCH  20  21
ATOM     21  C   UNL     1       3.615   6.451   0.406  1.00  0.00    -0.024 A 
ATOM     22  C   UNL     1       2.820   7.593   0.272  1.00  0.00     0.015 A 
ATOM     23  C   UNL     1       4.995   6.518   0.178  1.00  0.00     0.015 A 
ATOM     24  C   UNL     1       3.427   8.823  -0.009  1.00  0.00     0.086 A 
ATOM     25  C   UNL     1       5.605   7.734  -0.097  1.00  0.00     0.086 A 
ATOM     26  C   UNL     1       4.822   8.890  -0.159  1.00  0.00     0.269 A 
BRANCH  26  27
ATOM     27  N   UNL     1       5.484  10.188  -0.327  1.00  0.00     0.062 N 
ATOM     28  O   UNL     1       4.771  11.200  -0.356  1.00  0.00    -0.258 OA
ATOM     29  O   UNL     1       6.721  10.195  -0.408  1.00  0.00    -0.258 OA
ENDBRANCH  26  27
ENDBRANCH  20  21
ENDBRANCH  10  13
ENDBRANCH   4   6
ENDBRANCH   3   4
ENDBRANCH   2   3
ENDBRANCH   1   2
BRANCH   1  30
ATOM     30  O   UNL     1      -3.755  -0.282  -2.361  1.00  0.00    -0.374 OA
BRANCH  30  31
ATOM     31  C   UNL     1      -3.543  -1.007  -3.554  1.00  0.00     0.202 C 
BRANCH  31  32
ATOM     32  C   UNL     1      -4.508  -0.594  -4.673  1.00  0.00     0.261 C 
BRANCH  32  33
ATOM     33  O   UNL     1      -5.869  -0.876  -4.270  1.00  0.00    -0.460 OA
BRANCH  33  34
ATOM     34  C   UNL     1      -6.617   0.189  -3.864  1.00  0.00     0.338 C 
ATOM     35  O   UNL     1      -6.750   1.235  -4.478  1.00  0.00    -0.246 OA
BRANCH  34  36
ATOM     36  C   UNL     1      -7.016   0.011  -2.434  1.00  0.00     0.060 A 
ATOM     37  C   UNL     1      -7.552   1.089  -1.700  1.00  0.00     0.016 A 
ATOM     38  C   UNL     1      -6.535  -1.106  -1.762  1.00  0.00     0.016 A 
ATOM     39  C   UNL     1      -7.445   1.115  -0.298  1.00  0.00     0.010 A 
ATOM     40  C   UNL     1      -6.311  -1.010  -0.407  1.00  0.00     0.010 A 
ATOM     41  C   UNL     1      -6.729   0.108   0.339  1.00  0.00    -0.014 A 
BRANCH  41  42
ATOM     42  C   UNL     1      -6.247   0.110   1.728  1.00  0.00     0.031 A 
ATOM     43  C   UNL     1      -6.635  -1.040   2.582  1.00  0.00     0.074 A 
ATOM     44  C   UNL     1      -5.206   0.901   2.104  1.00  0.00     0.049 A 
ATOM     45  N   UNL     1      -6.334  -1.153   3.827  1.00  0.00    -0.248 NA
ATOM     46  C   UNL     1      -7.438  -2.168   2.110  1.00  0.00     0.031 C 
ATOM     47  C   UNL     1      -4.189   0.626   3.126  1.00  0.00     0.029 A 
ATOM     48  N   UNL     1      -4.770   2.133   1.591  1.00  0.00    -0.354 N 
ATOM     49  C   UNL     1      -6.520  -2.470   4.184  1.00  0.00     0.074 A 
ATOM     50  C   UNL     1      -7.355  -3.008   3.144  1.00  0.00     0.031 C 
ATOM     51  C   UNL     1      -3.473   1.739   3.373  1.00  0.00     0.029 A 
ATOM     52  C   UNL     1      -4.088   2.812   2.615  1.00  0.00     0.049 A 
ATOM     53  H   UNL     1      -4.916   2.463   0.675  1.00  0.00     0.167 HD
ATOM     54  C   UNL     1      -5.796  -2.951   5.237  1.00  0.00     0.037 A 
ATOM     55  C   UNL     1      -4.529   4.017   3.063  1.00  0.00     0.037 A 
ATOM     56  C   UNL     1      -5.071  -1.843   5.890  1.00  0.00     0.049 A 
ATOM     57  C   UNL     1      -4.933   3.833   4.493  1.00  0.00     0.074 A 
ATOM     58  C   UNL     1      -3.735  -1.483   5.946  1.00  0.00     0.029 A 
ATOM     59  N   UNL     1      -5.789  -0.730   6.338  1.00  0.00    -0.354 N 
ATOM     60  N   UNL     1      -5.298   2.669   4.959  1.00  0.00    -0.248 NA
ATOM     61  C   UNL     1      -4.821   4.850   5.529  1.00  0.00     0.031 C 
ATOM     62  C   UNL     1      -3.666  -0.118   6.356  1.00  0.00     0.029 A 
ATOM     63  C   UNL     1      -4.956   0.348   6.570  1.00  0.00     0.049 A 
ATOM     64  H   UNL     1      -6.765  -0.716   6.471  1.00  0.00     0.167 HD
ATOM     65  C   UNL     1      -5.321   2.721   6.314  1.00  0.00     0.074 A 
ATOM     66  C   UNL     1      -5.090   4.122   6.629  1.00  0.00     0.031 C 
ATOM     67  C   UNL     1      -5.482   1.610   7.084  1.00  0.00     0.037 A 
BRANCH  54  68
ATOM     68  C   UNL     1      -5.532  -4.420   5.560  1.00  0.00     0.064 A 
ATOM     69  C   UNL     1      -4.606  -4.764   6.574  1.00  0.00     0.173 A 
ATOM     70  C   UNL     1      -6.078  -5.539   4.893  1.00  0.00     0.173 A 
ATOM     71  F   UNL     1      -4.026  -3.828   7.337  1.00  0.00    -0.203 F 
ATOM     72  C   UNL     1      -4.230  -6.086   6.851  1.00  0.00     0.198 A 
ATOM     73  C   UNL     1      -5.715  -6.861   5.180  1.00  0.00     0.198 A 
ATOM     74  F   UNL     1      -6.990  -5.429   3.929  1.00  0.00    -0.203 F 
ATOM     75  F   UNL     1      -3.319  -6.332   7.803  1.00  0.00    -0.200 F 
ATOM     76  C   UNL     1      -4.782  -7.136   6.151  1.00  0.00     0.200 A 
ATOM     77  F   UNL     1      -6.279  -7.865   4.492  1.00  0.00    -0.200 F 
ATOM     78  F   UNL     1      -4.425  -8.400   6.413  1.00  0.00    -0.200 F 
ENDBRANCH  54  68
BRANCH  55  79
ATOM     79  C   UNL     1      -5.185   4.788   1.962  1.00  0.00     0.064 A 
ATOM     80  C   UNL     1      -4.336   5.210   0.910  1.00  0.00     0.173 A 
ATOM     81  C   UNL     1      -6.542   4.614   1.655  1.00  0.00     0.173 A 
ATOM     82  F   UNL     1      -3.022   5.376   1.137  1.00  0.00    -0.203 F 
ATOM     83  C   UNL     1      -4.786   5.274  -0.409  1.00  0.00     0.198 A 
ATOM     84  C   UNL     1      -6.988   4.691   0.329  1.00  0.00     0.198 A 
ATOM     85  F   UNL     1      -7.402   4.211   2.599  1.00  0.00    -0.203 F 
ATOM     86  F   UNL     1      -3.913   5.495  -1.403  1.00  0.00    -0.200 F 
ATOM     87  C   UNL     1      -6.102   4.966  -0.704  1.00  0.00     0.200 A 
ATOM     88  F   UNL     1      -8.259   4.381   0.033  1.00  0.00    -0.200 F 
ATOM     89  F   UNL     1      -6.498   4.867  -1.981  1.00  0.00    -0.200 F 
ENDBRANCH  55  79
BRANCH  67  90
ATOM     90  C   UNL     1      -6.095   1.660   8.448  1.00  0.00     0.064 A 
ATOM     91  C   UNL     1      -6.965   2.689   8.848  1.00  0.00     0.173 A 
ATOM     92  C   UNL     1      -5.991   0.560   9.327  1.00  0.00     0.173 A 
ATOM     93  F   UNL     1      -7.255   3.720   8.041  1.00  0.00    -0.203 F 
ATOM     94  C   UNL     1      -7.619   2.660  10.076  1.00  0.00     0.198 A 
ATOM     95  C   UNL     1      -6.705   0.500  10.517  1.00  0.00     0.198 A 
ATOM     96  F   UNL     1      -5.229  -0.505   9.039  1.00  0.00    -0.203 F 
ATOM     97  F   UNL     1      -8.392   3.692  10.436  1.00  0.00    -0.200 F 
ATOM     98  C   UNL     1      -7.500   1.560  10.903  1.00  0.00     0.200 A 
ATOM     99  F   UNL     1      -6.639  -0.603  11.274  1.00  0.00    -0.200 F 
ATOM    100  F   UNL     1      -8.169   1.513  12.061  1.00  0.00    -0.200 F 
ENDBRANCH  67  90
ENDBRANCH  41  42
ENDBRANCH  34  36
ENDBRANCH  33  34
ENDBRANCH  32  33
ENDBRANCH  31  32
ENDBRANCH  30  31
ENDBRANCH   1  30
TORSDOF 17
