REMARK SMILES O=C(OCCOCCOC(=O)c1ccc(-c2c3nc(c(-c4c(F)c(F)c(F)c(F)c4F)c4ccc([nH]4)c(-c4c(F)c(F)c(F)c(F)c4F)c4nc(c(-c5c(F)c(F)c(F)c(F)c5F)c5ccc2[nH]5)C=C4)C=C3)cc1)C1=Cc2cc(Cl)c(Cl)c(Cl)c2O[C@@H]1C(F)(F)F
REMARK SMILES IDX 7 1 6 2 5 3 4 4 3 5 2 6 1 7 75 8 76 9 87 10 77 11 86 12
REMARK SMILES IDX 78 13 85 14 79 15 83 16 80 17 81 18 84 19 82 20 88 21 89 22
REMARK SMILES IDX 90 23 91 24 8 25 9 26 10 27 11 28 12 29 13 30 74 31 14 32
REMARK SMILES IDX 73 33 15 34 16 35 17 36 67 37 18 38 72 39 66 40 68 41 19 42
REMARK SMILES IDX 71 43 65 44 64 45 20 47 52 48 32 49 51 50 33 51 36 52 50 53
REMARK SMILES IDX 69 54 34 55 35 56 49 58 70 59 37 60 21 61 22 62 30 63 23 64
REMARK SMILES IDX 24 65 28 66 31 67 25 68 26 69 29 70 27 71 53 72 54 73 62 74
REMARK SMILES IDX 55 75 56 76 60 77 63 78 57 79 58 80 61 81 59 82 38 83 39 84
REMARK SMILES IDX 47 85 40 86 41 87 45 88 48 89 42 90 43 91 46 92 44 93
REMARK H PARENT 68 46 36 57
REMARK Flexibility Score: inf
ROOT
ATOM      1  C   UNL     1       2.769   1.626   2.686  1.00  0.00     0.202 C 
ENDROOT
BRANCH   1   2
ATOM      2  O   UNL     1       3.888   0.764   2.447  1.00  0.00    -0.374 OA
BRANCH   2   3
ATOM      3  C   UNL     1       4.344  -0.184   1.269  1.00  0.00     0.202 C 
BRANCH   3   4
ATOM      4  C   UNL     1       3.449  -0.740  -0.641  1.00  0.00     0.261 C 
BRANCH   4   5
ATOM      5  O   UNL     1       2.534  -1.938  -0.916  1.00  0.00    -0.460 OA
BRANCH   5   6
ATOM      6  C   UNL     1       2.740  -2.954  -0.075  1.00  0.00     0.338 C 
ATOM      7  O   UNL     1       2.143  -3.993   0.035  1.00  0.00    -0.246 OA
BRANCH   6   8
ATOM      8  C   UNL     1       3.616  -2.227   0.819  1.00  0.00     0.087 C 
ATOM      9  C   UNL     1       4.990  -2.115   0.257  1.00  0.00     0.027 C 
ATOM     10  C   UNL     1       2.421  -0.732   1.108  1.00  0.00     0.316 C 
ATOM     11  C   UNL     1       5.668  -0.577  -0.435  1.00  0.00     0.020 A 
ATOM     12  O   UNL     1       3.103   0.895   0.323  1.00  0.00    -0.474 OA
ATOM     13  C   UNL     1       6.848  -0.640  -1.121  1.00  0.00     0.034 A 
ATOM     14  C   UNL     1       4.723   0.877  -0.527  1.00  0.00     0.148 A 
ATOM     15  C   UNL     1       7.131   0.470  -1.938  1.00  0.00     0.062 A 
ATOM     16  C   UNL     1       4.990   1.825  -1.483  1.00  0.00     0.103 A 
ATOM     17  Cl  UNL     1       8.664   0.361  -2.772  1.00  0.00    -0.083 Cl
ATOM     18  C   UNL     1       6.226   1.604  -2.172  1.00  0.00     0.082 A 
ATOM     19  Cl  UNL     1       3.772   2.902  -2.016  1.00  0.00    -0.079 Cl
ATOM     20  Cl  UNL     1       6.671   2.671  -3.482  1.00  0.00    -0.081 Cl
BRANCH  10  21
ATOM     21  C   UNL     1       1.975  -1.079   2.589  1.00  0.00     0.430 C 
ATOM     22  F   UNL     1       1.094  -0.232   3.147  1.00  0.00    -0.167 F 
ATOM     23  F   UNL     1       1.321  -2.279   2.536  1.00  0.00    -0.167 F 
ATOM     24  F   UNL     1       2.997  -1.289   3.450  1.00  0.00    -0.167 F 
ENDBRANCH  10  21
ENDBRANCH   6   8
ENDBRANCH   5   6
ENDBRANCH   4   5
ENDBRANCH   3   4
ENDBRANCH   2   3
ENDBRANCH   1   2
BRANCH   1  25
ATOM     25  C   UNL     1       3.003   3.119   2.803  1.00  0.00     0.261 C 
BRANCH  25  26
ATOM     26  O   UNL     1       3.513   3.675   1.609  1.00  0.00    -0.460 OA
BRANCH  26  27
ATOM     27  C   UNL     1       4.838   3.923   1.624  1.00  0.00     0.338 C 
ATOM     28  O   UNL     1       5.673   3.532   2.417  1.00  0.00    -0.246 OA
BRANCH  27  29
ATOM     29  C   UNL     1       5.117   4.763   0.452  1.00  0.00     0.060 A 
ATOM     30  C   UNL     1       6.341   4.614  -0.202  1.00  0.00     0.016 A 
ATOM     31  C   UNL     1       4.137   5.644  -0.029  1.00  0.00     0.016 A 
ATOM     32  C   UNL     1       6.566   5.313  -1.383  1.00  0.00     0.010 A 
ATOM     33  C   UNL     1       4.357   6.332  -1.210  1.00  0.00     0.010 A 
ATOM     34  C   UNL     1       5.571   6.163  -1.889  1.00  0.00    -0.014 A 
BRANCH  34  35
ATOM     35  C   UNL     1       5.871   7.091  -2.989  1.00  0.00     0.031 A 
ATOM     36  C   UNL     1       6.384   8.437  -2.600  1.00  0.00     0.074 A 
ATOM     37  C   UNL     1       5.611   6.780  -4.268  1.00  0.00     0.049 A 
ATOM     38  N   UNL     1       6.605   9.486  -3.340  1.00  0.00    -0.248 NA
ATOM     39  C   UNL     1       6.650   8.632  -1.164  1.00  0.00     0.031 C 
ATOM     40  C   UNL     1       5.096   5.500  -4.734  1.00  0.00     0.029 A 
ATOM     41  N   UNL     1       5.722   7.533  -5.407  1.00  0.00    -0.354 N 
ATOM     42  C   UNL     1       7.028  10.468  -2.460  1.00  0.00     0.074 A 
ATOM     43  C   UNL     1       6.991   9.906  -1.129  1.00  0.00     0.031 C 
ATOM     44  C   UNL     1       4.947   5.543  -6.068  1.00  0.00     0.029 A 
ATOM     45  C   UNL     1       5.280   6.886  -6.534  1.00  0.00     0.049 A 
ATOM     46  H   UNL     1       6.083   8.449  -5.416  1.00  0.00     0.167 HD
ATOM     47  C   UNL     1       7.407  11.732  -2.746  1.00  0.00     0.037 A 
ATOM     48  C   UNL     1       5.119   7.349  -7.788  1.00  0.00     0.037 A 
ATOM     49  C   UNL     1       7.378  12.281  -4.072  1.00  0.00     0.049 A 
ATOM     50  C   UNL     1       5.477   8.783  -8.075  1.00  0.00     0.074 A 
ATOM     51  C   UNL     1       7.745  13.545  -4.488  1.00  0.00     0.029 A 
ATOM     52  N   UNL     1       6.922  11.600  -5.195  1.00  0.00    -0.354 N 
ATOM     53  N   UNL     1       5.923   9.704  -7.254  1.00  0.00    -0.248 NA
ATOM     54  C   UNL     1       5.309   9.246  -9.458  1.00  0.00     0.031 C 
ATOM     55  C   UNL     1       7.430  13.658  -5.845  1.00  0.00     0.029 A 
ATOM     56  C   UNL     1       6.961  12.434  -6.299  1.00  0.00     0.049 A 
ATOM     57  H   UNL     1       6.616  10.665  -5.203  1.00  0.00     0.167 HD
ATOM     58  C   UNL     1       6.122  10.843  -8.022  1.00  0.00     0.074 A 
ATOM     59  C   UNL     1       5.745  10.496  -9.378  1.00  0.00     0.031 C 
ATOM     60  C   UNL     1       6.586  12.059  -7.642  1.00  0.00     0.037 A 
BRANCH  47  61
ATOM     61  C   UNL     1       7.797  12.596  -1.583  1.00  0.00     0.064 A 
ATOM     62  C   UNL     1       8.921  12.312  -0.789  1.00  0.00     0.173 A 
ATOM     63  C   UNL     1       6.993  13.684  -1.216  1.00  0.00     0.173 A 
ATOM     64  F   UNL     1       9.710  11.266  -1.081  1.00  0.00    -0.203 F 
ATOM     65  C   UNL     1       9.187  13.047   0.363  1.00  0.00     0.198 A 
ATOM     66  C   UNL     1       7.289  14.445  -0.090  1.00  0.00     0.198 A 
ATOM     67  F   UNL     1       5.904  13.996  -1.935  1.00  0.00    -0.203 F 
ATOM     68  F   UNL     1      10.205  12.694   1.160  1.00  0.00    -0.200 F 
ATOM     69  C   UNL     1       8.373  14.115   0.709  1.00  0.00     0.200 A 
ATOM     70  F   UNL     1       6.508  15.483   0.237  1.00  0.00    -0.200 F 
ATOM     71  F   UNL     1       8.622  14.813   1.825  1.00  0.00    -0.200 F 
ENDBRANCH  47  61
BRANCH  48  72
ATOM     72  C   UNL     1       4.573   6.452  -8.841  1.00  0.00     0.064 A 
ATOM     73  C   UNL     1       5.371   6.013  -9.905  1.00  0.00     0.173 A 
ATOM     74  C   UNL     1       3.248   5.992  -8.788  1.00  0.00     0.173 A 
ATOM     75  F   UNL     1       6.637   6.440 -10.014  1.00  0.00    -0.203 F 
ATOM     76  C   UNL     1       4.863   5.156 -10.881  1.00  0.00     0.198 A 
ATOM     77  C   UNL     1       2.750   5.112  -9.746  1.00  0.00     0.198 A 
ATOM     78  F   UNL     1       2.441   6.381  -7.790  1.00  0.00    -0.203 F 
ATOM     79  F   UNL     1       5.636   4.780 -11.909  1.00  0.00    -0.200 F 
ATOM     80  C   UNL     1       3.556   4.698 -10.795  1.00  0.00     0.200 A 
ATOM     81  F   UNL     1       1.492   4.660  -9.650  1.00  0.00    -0.200 F 
ATOM     82  F   UNL     1       3.073   3.863 -11.725  1.00  0.00    -0.200 F 
ENDBRANCH  48  72
BRANCH  60  83
ATOM     83  C   UNL     1       6.777  13.098  -8.710  1.00  0.00     0.064 A 
ATOM     84  C   UNL     1       5.697  13.729  -9.341  1.00  0.00     0.173 A 
ATOM     85  C   UNL     1       8.074  13.532  -9.035  1.00  0.00     0.173 A 
ATOM     86  F   UNL     1       4.439  13.345  -9.076  1.00  0.00    -0.203 F 
ATOM     87  C   UNL     1       5.908  14.748 -10.267  1.00  0.00     0.198 A 
ATOM     88  C   UNL     1       8.278  14.575  -9.930  1.00  0.00     0.198 A 
ATOM     89  F   UNL     1       9.142  12.966  -8.452  1.00  0.00    -0.203 F 
ATOM     90  F   UNL     1       4.863  15.313 -10.887  1.00  0.00    -0.200 F 
ATOM     91  C   UNL     1       7.196  15.179 -10.550  1.00  0.00     0.200 A 
ATOM     92  F   UNL     1       9.522  15.006 -10.182  1.00  0.00    -0.200 F 
ATOM     93  F   UNL     1       7.394  16.178 -11.421  1.00  0.00    -0.200 F 
ENDBRANCH  60  83
ENDBRANCH  34  35
ENDBRANCH  27  29
ENDBRANCH  26  27
ENDBRANCH  25  26
ENDBRANCH   1  25
TORSDOF 15
