REMARK SMILES Cc1ccc(C(=O)OCCOCCOC(=O)c2ccc(-c3c4nc(c(-c5c(F)c(F)c(F)c(F)c5F)c5ccc([nH]5)c(-c5c(F)c(F)c(F)c(F)c5F)c5nc(c(-c6c(F)c(F)c(F)c(F)c6F)c6ccc3[nH]6)C=C5)C=C4)cc2)c2c1N[C@H](c1ccccc1F)[C@H]1CC=C[C@@H]21
REMARK SMILES IDX 12 1 11 2 10 3 9 4 8 5 6 6 7 7 5 8 1 9 2 10 3 11 81 12 4 13
REMARK SMILES IDX 80 14 82 15 95 16 83 17 91 19 94 20 92 21 93 22 84 23 85 24
REMARK SMILES IDX 89 25 86 26 88 27 90 28 87 29 13 30 14 31 15 32 16 33 17 34
REMARK SMILES IDX 18 35 79 36 19 37 78 38 20 39 21 40 22 41 72 42 23 43 77 44
REMARK SMILES IDX 71 45 73 46 24 47 76 48 70 49 69 50 25 52 57 53 37 54 56 55
REMARK SMILES IDX 38 56 41 57 55 58 74 59 39 60 40 61 54 63 75 64 42 65 26 66
REMARK SMILES IDX 27 67 35 68 28 69 29 70 33 71 36 72 30 73 31 74 34 75 32 76
REMARK SMILES IDX 58 77 59 78 67 79 60 80 61 81 65 82 68 83 62 84 63 85 66 86
REMARK SMILES IDX 64 87 43 88 44 89 52 90 45 91 46 92 50 93 53 94 47 95 48 96
REMARK SMILES IDX 51 97 49 98
REMARK H PARENT 82 18 73 51 41 62
REMARK Flexibility Score: inf
ROOT
ATOM      1  C   UNL     1       1.339   3.455   5.965  1.00  0.00     0.202 C 
ENDROOT
BRANCH   1   2
ATOM      2  O   UNL     1       0.630   4.608   6.428  1.00  0.00    -0.374 OA
BRANCH   2   3
ATOM      3  C   UNL     1      -0.703   4.428   6.895  1.00  0.00     0.202 C 
BRANCH   3   4
ATOM      4  C   UNL     1      -1.791   4.191   5.843  1.00  0.00     0.261 C 
BRANCH   4   5
ATOM      5  O   UNL     1      -1.395   3.217   4.871  1.00  0.00    -0.460 OA
BRANCH   5   6
ATOM      6  C   UNL     1      -1.400   3.663   3.591  1.00  0.00     0.338 C 
ATOM      7  O   UNL     1      -1.910   4.694   3.180  1.00  0.00    -0.246 OA
BRANCH   6   8
ATOM      8  C   UNL     1      -0.668   2.709   2.731  1.00  0.00     0.065 A 
ATOM      9  C   UNL     1       1.074  -0.177   0.061  1.00  0.00     0.046 C 
ATOM     10  C   UNL     1       0.527   0.841   1.028  1.00  0.00    -0.028 A 
ATOM     11  C   UNL     1      -0.600   0.492   1.788  1.00  0.00     0.006 A 
ATOM     12  C   UNL     1       1.090   2.136   1.142  1.00  0.00     0.042 A 
ATOM     13  C   UNL     1      -1.196   1.418   2.633  1.00  0.00     0.016 A 
ATOM     14  C   UNL     1       0.499   3.079   2.017  1.00  0.00    -0.003 A 
ATOM     15  N   UNL     1       2.247   2.456   0.436  1.00  0.00    -0.377 N 
ATOM     16  C   UNL     1       1.190   4.406   2.271  1.00  0.00     0.050 C 
ATOM     17  C   UNL     1       2.623   3.855   0.280  1.00  0.00     0.117 C 
ATOM     18  H   UNL     1       2.805   1.744   0.048  1.00  0.00     0.161 HD
ATOM     19  C   UNL     1       2.615   4.521   1.671  1.00  0.00     0.031 C 
ATOM     20  C   UNL     1       0.549   5.648   1.711  1.00  0.00    -0.023 C 
ATOM     21  C   UNL     1       2.851   6.041   1.601  1.00  0.00     0.034 C 
ATOM     22  C   UNL     1       1.469   6.564   1.383  1.00  0.00    -0.030 C 
BRANCH  17  23
ATOM     23  C   UNL     1       3.890   3.943  -0.557  1.00  0.00     0.010 A 
ATOM     24  C   UNL     1       3.778   3.763  -1.952  1.00  0.00     0.009 A 
ATOM     25  C   UNL     1       5.157   4.237  -0.045  1.00  0.00     0.128 A 
ATOM     26  C   UNL     1       4.882   3.919  -2.794  1.00  0.00     0.001 A 
ATOM     27  C   UNL     1       6.261   4.405  -0.883  1.00  0.00     0.039 A 
ATOM     28  F   UNL     1       5.348   4.405   1.270  1.00  0.00    -0.207 F 
ATOM     29  C   UNL     1       6.123   4.254  -2.260  1.00  0.00     0.003 A 
ENDBRANCH  17  23
ENDBRANCH   6   8
ENDBRANCH   5   6
ENDBRANCH   4   5
ENDBRANCH   3   4
ENDBRANCH   2   3
ENDBRANCH   1   2
BRANCH   1  30
ATOM     30  C   UNL     1       1.683   2.368   6.989  1.00  0.00     0.261 C 
BRANCH  30  31
ATOM     31  O   UNL     1       0.516   1.651   7.430  1.00  0.00    -0.460 OA
BRANCH  31  32
ATOM     32  C   UNL     1       0.276   1.706   8.760  1.00  0.00     0.338 C 
ATOM     33  O   UNL     1       0.955   2.237   9.625  1.00  0.00    -0.246 OA
BRANCH  32  34
ATOM     34  C   UNL     1      -1.063   1.166   9.033  1.00  0.00     0.060 A 
ATOM     35  C   UNL     1      -2.052   2.047   9.490  1.00  0.00     0.016 A 
ATOM     36  C   UNL     1      -1.307  -0.205   8.950  1.00  0.00     0.016 A 
ATOM     37  C   UNL     1      -3.287   1.553   9.896  1.00  0.00     0.010 A 
ATOM     38  C   UNL     1      -2.538  -0.703   9.381  1.00  0.00     0.010 A 
ATOM     39  C   UNL     1      -3.516   0.172   9.888  1.00  0.00    -0.014 A 
BRANCH  39  40
ATOM     40  C   UNL     1      -4.699  -0.362  10.596  1.00  0.00     0.031 A 
ATOM     41  C   UNL     1      -4.553  -0.748  12.040  1.00  0.00     0.074 A 
ATOM     42  C   UNL     1      -5.887  -0.458   9.977  1.00  0.00     0.049 A 
ATOM     43  N   UNL     1      -5.445  -1.234  12.864  1.00  0.00    -0.248 NA
ATOM     44  C   UNL     1      -3.223  -0.551  12.640  1.00  0.00     0.031 C 
ATOM     45  C   UNL     1      -6.152  -0.060   8.597  1.00  0.00     0.029 A 
ATOM     46  N   UNL     1      -7.094  -0.919  10.436  1.00  0.00    -0.354 N 
ATOM     47  C   UNL     1      -4.789  -1.388  14.077  1.00  0.00     0.074 A 
ATOM     48  C   UNL     1      -3.416  -0.981  13.878  1.00  0.00     0.031 C 
ATOM     49  C   UNL     1      -7.445  -0.301   8.317  1.00  0.00     0.029 A 
ATOM     50  C   UNL     1      -8.087  -0.893   9.489  1.00  0.00     0.049 A 
ATOM     51  H   UNL     1      -7.235  -1.239  11.356  1.00  0.00     0.167 HD
ATOM     52  C   UNL     1      -5.295  -1.816  15.257  1.00  0.00     0.037 A 
ATOM     53  C   UNL     1      -9.364  -1.315   9.564  1.00  0.00     0.037 A 
ATOM     54  C   UNL     1      -6.657  -2.233  15.444  1.00  0.00     0.049 A 
ATOM     55  C   UNL     1      -9.873  -1.894  10.859  1.00  0.00     0.074 A 
ATOM     56  C   UNL     1      -7.269  -2.683  16.600  1.00  0.00     0.029 A 
ATOM     57  N   UNL     1      -7.617  -2.260  14.443  1.00  0.00    -0.354 N 
ATOM     58  N   UNL     1      -9.255  -2.017  12.010  1.00  0.00    -0.248 NA
ATOM     59  C   UNL     1     -11.255  -2.396  10.867  1.00  0.00     0.031 C 
ATOM     60  C   UNL     1      -8.586  -3.031  16.286  1.00  0.00     0.029 A 
ATOM     61  C   UNL     1      -8.810  -2.750  14.948  1.00  0.00     0.049 A 
ATOM     62  H   UNL     1      -7.472  -1.973  13.513  1.00  0.00     0.167 HD
ATOM     63  C   UNL     1     -10.175  -2.587  12.880  1.00  0.00     0.074 A 
ATOM     64  C   UNL     1     -11.399  -2.774  12.130  1.00  0.00     0.031 C 
ATOM     65  C   UNL     1     -10.019  -2.926  14.184  1.00  0.00     0.037 A 
BRANCH  52  66
ATOM     66  C   UNL     1      -4.368  -1.868  16.434  1.00  0.00     0.064 A 
ATOM     67  C   UNL     1      -3.933  -0.698  17.074  1.00  0.00     0.173 A 
ATOM     68  C   UNL     1      -3.953  -3.099  16.961  1.00  0.00     0.173 A 
ATOM     69  F   UNL     1      -4.290   0.505  16.598  1.00  0.00    -0.203 F 
ATOM     70  C   UNL     1      -3.106  -0.759  18.192  1.00  0.00     0.198 A 
ATOM     71  C   UNL     1      -3.147  -3.158  18.095  1.00  0.00     0.198 A 
ATOM     72  F   UNL     1      -4.342  -4.247  16.386  1.00  0.00    -0.203 F 
ATOM     73  F   UNL     1      -2.676   0.372  18.769  1.00  0.00    -0.200 F 
ATOM     74  C   UNL     1      -2.722  -1.988  18.707  1.00  0.00     0.200 A 
ATOM     75  F   UNL     1      -2.786  -4.346  18.598  1.00  0.00    -0.200 F 
ATOM     76  F   UNL     1      -1.938  -2.046  19.793  1.00  0.00    -0.200 F 
ENDBRANCH  52  66
BRANCH  53  77
ATOM     77  C   UNL     1     -10.250  -1.205   8.376  1.00  0.00     0.064 A 
ATOM     78  C   UNL     1     -11.325  -0.307   8.361  1.00  0.00     0.173 A 
ATOM     79  C   UNL     1     -10.038  -1.989   7.233  1.00  0.00     0.173 A 
ATOM     80  F   UNL     1     -11.584   0.446   9.440  1.00  0.00    -0.203 F 
ATOM     81  C   UNL     1     -12.160  -0.203   7.249  1.00  0.00     0.198 A 
ATOM     82  C   UNL     1     -10.857  -1.866   6.112  1.00  0.00     0.198 A 
ATOM     83  F   UNL     1      -9.025  -2.867   7.198  1.00  0.00    -0.203 F 
ATOM     84  F   UNL     1     -13.202   0.639   7.274  1.00  0.00    -0.200 F 
ATOM     85  C   UNL     1     -11.921  -0.976   6.123  1.00  0.00     0.200 A 
ATOM     86  F   UNL     1     -10.616  -2.608   5.023  1.00  0.00    -0.200 F 
ATOM     87  F   UNL     1     -12.718  -0.870   5.052  1.00  0.00    -0.200 F 
ENDBRANCH  53  77
BRANCH  65  88
ATOM     88  C   UNL     1     -11.196  -3.526  14.896  1.00  0.00     0.064 A 
ATOM     89  C   UNL     1     -11.604  -4.844  14.649  1.00  0.00     0.173 A 
ATOM     90  C   UNL     1     -11.861  -2.808  15.902  1.00  0.00     0.173 A 
ATOM     91  F   UNL     1     -11.007  -5.566  13.688  1.00  0.00    -0.203 F 
ATOM     92  C   UNL     1     -12.640  -5.420  15.379  1.00  0.00     0.198 A 
ATOM     93  C   UNL     1     -12.877  -3.397  16.650  1.00  0.00     0.198 A 
ATOM     94  F   UNL     1     -11.501  -1.547  16.184  1.00  0.00    -0.203 F 
ATOM     95  F   UNL     1     -13.031  -6.673  15.108  1.00  0.00    -0.200 F 
ATOM     96  C   UNL     1     -13.267  -4.701  16.386  1.00  0.00     0.200 A 
ATOM     97  F   UNL     1     -13.469  -2.707  17.634  1.00  0.00    -0.200 F 
ATOM     98  F   UNL     1     -14.248  -5.266  17.103  1.00  0.00    -0.200 F 
ENDBRANCH  65  88
ENDBRANCH  39  40
ENDBRANCH  32  34
ENDBRANCH  31  32
ENDBRANCH  30  31
ENDBRANCH   1  30
TORSDOF 15
