REMARK SMILES Cc1nnc(SCC(=O)Nc2cccc(C(=O)OCCOCCOC(=O)c3ccc(-c4c5nc(c(-c6c(F)c(F)c(F)c(F)c6F)c6ccc([nH]6)c(-c6c(F)c(F)c(F)c(F)c6F)c6nc(c(-c7c(F)c(F)c(F)c(F)c7F)c7ccc4[nH]7)C=C6)C=C5)cc3)c2)n1-c1ccccc1
REMARK SMILES IDX 19 1 18 2 16 3 17 4 15 5 11 6 12 7 90 8 13 9 14 10 10 11
REMARK SMILES IDX 8 12 9 13 7 15 6 16 5 17 1 18 2 19 3 20 91 21 4 22 92 23
REMARK SMILES IDX 93 24 97 25 94 26 96 27 95 28 20 29 21 30 22 31 23 32 24 33
REMARK SMILES IDX 25 34 26 35 27 36 28 37 89 38 29 39 88 40 30 41 31 42 32 43
REMARK SMILES IDX 82 44 33 45 87 46 81 47 83 48 34 49 86 50 80 51 79 52 35 54
REMARK SMILES IDX 67 55 47 56 66 57 48 58 51 59 65 60 84 61 49 62 50 63 64 65
REMARK SMILES IDX 85 66 52 67 36 68 37 69 45 70 38 71 39 72 43 73 46 74 40 75
REMARK SMILES IDX 41 76 44 77 42 78 68 79 69 80 77 81 70 82 71 83 75 84 78 85
REMARK SMILES IDX 72 86 73 87 76 88 74 89 53 90 54 91 62 92 55 93 56 94 60 95
REMARK SMILES IDX 63 96 57 97 58 98 61 99 59 100
REMARK H PARENT 10 14 83 53 51 64
REMARK Flexibility Score: inf
ROOT
ATOM      1  C   UNL     1      -1.722  -3.766   7.406  1.00  0.00     0.261 C 
ENDROOT
BRANCH   1   2
ATOM      2  O   UNL     1      -1.093  -2.481   7.417  1.00  0.00    -0.460 OA
BRANCH   2   3
ATOM      3  C   UNL     1      -1.019  -1.859   8.621  1.00  0.00     0.338 C 
ATOM      4  O   UNL     1      -1.552  -2.196   9.659  1.00  0.00    -0.246 OA
BRANCH   3   5
ATOM      5  C   UNL     1      -0.035  -0.750   8.526  1.00  0.00     0.062 A 
ATOM      6  C   UNL     1       1.132   0.900   7.227  1.00  0.00     0.042 A 
ATOM      7  C   UNL     1       1.800   1.339   8.373  1.00  0.00     0.026 A 
ATOM      8  C   UNL     1       0.303  -0.203   7.292  1.00  0.00     0.041 A 
ATOM      9  C   UNL     1       1.528   0.746   9.604  1.00  0.00     0.003 A 
ATOM     10  C   UNL     1       0.582  -0.276   9.687  1.00  0.00     0.016 A 
BRANCH   6  11
ATOM     11  N   UNL     1       1.266   1.661   6.067  1.00  0.00    -0.325 N 
ATOM     12  C   UNL     1       0.249   2.245   5.375  1.00  0.00     0.234 C 
ATOM     13  O   UNL     1       0.531   3.384   4.970  1.00  0.00    -0.274 OA
ATOM     14  H   UNL     1       2.177   1.788   5.716  1.00  0.00     0.169 HD
BRANCH  12  15
ATOM     15  C   UNL     1      -1.185   1.757   5.278  1.00  0.00     0.178 C 
BRANCH  15  16
ATOM     16  S   UNL     1      -1.613   0.188   4.512  1.00  0.00    -0.076 SA
BRANCH  16  17
ATOM     17  C   UNL     1      -0.515  -0.222   3.245  1.00  0.00     0.196 A 
ATOM     18  C   UNL     1       0.909  -0.010  -0.091  1.00  0.00     0.090 C 
ATOM     19  C   UNL     1       0.420  -0.354   1.263  1.00  0.00     0.135 A 
ATOM     20  N   UNL     1       0.591  -1.508   1.875  1.00  0.00    -0.134 NA
ATOM     21  N   UNL     1      -0.285   0.493   2.091  1.00  0.00    -0.274 N 
ATOM     22  N   UNL     1       0.002  -1.426   3.115  1.00  0.00    -0.123 NA
BRANCH  21  23
ATOM     23  C   UNL     1      -0.648   1.812   1.821  1.00  0.00     0.049 A 
ATOM     24  C   UNL     1       0.200   2.827   2.253  1.00  0.00     0.027 A 
ATOM     25  C   UNL     1      -1.892   2.083   1.256  1.00  0.00     0.027 A 
ATOM     26  C   UNL     1      -0.262   4.139   2.241  1.00  0.00     0.002 A 
ATOM     27  C   UNL     1      -2.324   3.406   1.208  1.00  0.00     0.002 A 
ATOM     28  C   UNL     1      -1.527   4.426   1.735  1.00  0.00     0.000 A 
ENDBRANCH  21  23
ENDBRANCH  16  17
ENDBRANCH  15  16
ENDBRANCH  12  15
ENDBRANCH   6  11
ENDBRANCH   3   5
ENDBRANCH   2   3
ENDBRANCH   1   2
BRANCH   1  29
ATOM     29  C   UNL     1      -0.688  -4.883   7.244  1.00  0.00     0.202 C 
BRANCH  29  30
ATOM     30  O   UNL     1       0.263  -5.051   8.298  1.00  0.00    -0.374 OA
BRANCH  30  31
ATOM     31  C   UNL     1       1.337  -4.126   8.419  1.00  0.00     0.202 C 
BRANCH  31  32
ATOM     32  C   UNL     1       2.471  -4.202   7.412  1.00  0.00     0.261 C 
BRANCH  32  33
ATOM     33  O   UNL     1       2.029  -3.975   6.084  1.00  0.00    -0.460 OA
BRANCH  33  34
ATOM     34  C   UNL     1       1.924  -5.106   5.348  1.00  0.00     0.338 C 
ATOM     35  O   UNL     1       1.809  -6.246   5.757  1.00  0.00    -0.246 OA
BRANCH  34  36
ATOM     36  C   UNL     1       2.203  -4.766   3.951  1.00  0.00     0.060 A 
ATOM     37  C   UNL     1       2.259  -5.831   3.052  1.00  0.00     0.016 A 
ATOM     38  C   UNL     1       2.673  -3.486   3.621  1.00  0.00     0.016 A 
ATOM     39  C   UNL     1       2.965  -5.657   1.885  1.00  0.00     0.010 A 
ATOM     40  C   UNL     1       3.383  -3.316   2.459  1.00  0.00     0.010 A 
ATOM     41  C   UNL     1       3.586  -4.423   1.646  1.00  0.00    -0.014 A 
BRANCH  41  42
ATOM     42  C   UNL     1       4.339  -4.276   0.422  1.00  0.00     0.031 A 
ATOM     43  C   UNL     1       3.474  -4.344  -0.774  1.00  0.00     0.074 A 
ATOM     44  C   UNL     1       5.657  -4.010   0.400  1.00  0.00     0.049 A 
ATOM     45  N   UNL     1       3.469  -5.253  -1.688  1.00  0.00    -0.248 NA
ATOM     46  C   UNL     1       2.366  -3.384  -0.873  1.00  0.00     0.031 C 
ATOM     47  C   UNL     1       6.539  -3.668   1.518  1.00  0.00     0.029 A 
ATOM     48  N   UNL     1       6.481  -3.918  -0.677  1.00  0.00    -0.354 N 
ATOM     49  C   UNL     1       2.481  -4.872  -2.588  1.00  0.00     0.074 A 
ATOM     50  C   UNL     1       1.730  -3.818  -1.960  1.00  0.00     0.031 C 
ATOM     51  C   UNL     1       7.713  -3.199   1.034  1.00  0.00     0.029 A 
ATOM     52  C   UNL     1       7.715  -3.340  -0.412  1.00  0.00     0.049 A 
ATOM     53  H   UNL     1       6.224  -4.236  -1.573  1.00  0.00     0.167 HD
ATOM     54  C   UNL     1       2.550  -5.277  -3.882  1.00  0.00     0.037 A 
ATOM     55  C   UNL     1       8.634  -2.962  -1.336  1.00  0.00     0.037 A 
ATOM     56  C   UNL     1       3.376  -6.452  -4.011  1.00  0.00     0.049 A 
ATOM     57  C   UNL     1       8.331  -3.704  -2.587  1.00  0.00     0.074 A 
ATOM     58  C   UNL     1       3.318  -7.734  -3.500  1.00  0.00     0.029 A 
ATOM     59  N   UNL     1       4.671  -6.275  -4.429  1.00  0.00    -0.354 N 
ATOM     60  N   UNL     1       8.472  -4.994  -2.714  1.00  0.00    -0.248 NA
ATOM     61  C   UNL     1       7.434  -3.078  -3.546  1.00  0.00     0.031 C 
ATOM     62  C   UNL     1       4.671  -8.080  -3.208  1.00  0.00     0.029 A 
ATOM     63  C   UNL     1       5.486  -7.026  -3.621  1.00  0.00     0.049 A 
ATOM     64  H   UNL     1       4.964  -5.708  -5.178  1.00  0.00     0.167 HD
ATOM     65  C   UNL     1       7.365  -5.398  -3.445  1.00  0.00     0.074 A 
ATOM     66  C   UNL     1       6.815  -4.167  -4.010  1.00  0.00     0.031 C 
ATOM     67  C   UNL     1       6.839  -6.648  -3.282  1.00  0.00     0.037 A 
BRANCH  54  68
ATOM     68  C   UNL     1       2.245  -4.360  -5.039  1.00  0.00     0.064 A 
ATOM     69  C   UNL     1       2.251  -4.887  -6.343  1.00  0.00     0.173 A 
ATOM     70  C   UNL     1       2.266  -2.949  -4.950  1.00  0.00     0.173 A 
ATOM     71  F   UNL     1       2.258  -6.214  -6.542  1.00  0.00    -0.203 F 
ATOM     72  C   UNL     1       2.353  -4.065  -7.468  1.00  0.00     0.198 A 
ATOM     73  C   UNL     1       2.315  -2.132  -6.076  1.00  0.00     0.198 A 
ATOM     74  F   UNL     1       2.360  -2.301  -3.783  1.00  0.00    -0.203 F 
ATOM     75  F   UNL     1       2.489  -4.615  -8.682  1.00  0.00    -0.200 F 
ATOM     76  C   UNL     1       2.392  -2.689  -7.333  1.00  0.00     0.200 A 
ATOM     77  F   UNL     1       2.377  -0.801  -5.921  1.00  0.00    -0.200 F 
ATOM     78  F   UNL     1       2.557  -1.903  -8.405  1.00  0.00    -0.200 F 
ENDBRANCH  54  68
BRANCH  55  79
ATOM     79  C   UNL     1       9.514  -1.768  -1.324  1.00  0.00     0.064 A 
ATOM     80  C   UNL     1      10.582  -1.648  -2.230  1.00  0.00     0.173 A 
ATOM     81  C   UNL     1       9.147  -0.596  -0.634  1.00  0.00     0.173 A 
ATOM     82  F   UNL     1      10.965  -2.703  -2.965  1.00  0.00    -0.203 F 
ATOM     83  C   UNL     1      11.222  -0.424  -2.454  1.00  0.00     0.198 A 
ATOM     84  C   UNL     1       9.790   0.623  -0.854  1.00  0.00     0.198 A 
ATOM     85  F   UNL     1       8.092  -0.586   0.192  1.00  0.00    -0.203 F 
ATOM     86  F   UNL     1      12.191  -0.334  -3.376  1.00  0.00    -0.200 F 
ATOM     87  C   UNL     1      10.818   0.713  -1.774  1.00  0.00     0.200 A 
ATOM     88  F   UNL     1       9.362   1.724  -0.220  1.00  0.00    -0.200 F 
ATOM     89  F   UNL     1      11.384   1.899  -2.036  1.00  0.00    -0.200 F 
ENDBRANCH  55  79
BRANCH  67  90
ATOM     90  C   UNL     1       7.660  -7.647  -2.510  1.00  0.00     0.064 A 
ATOM     91  C   UNL     1       8.031  -7.502  -1.160  1.00  0.00     0.173 A 
ATOM     92  C   UNL     1       7.993  -8.854  -3.139  1.00  0.00     0.173 A 
ATOM     93  F   UNL     1       7.665  -6.425  -0.455  1.00  0.00    -0.203 F 
ATOM     94  C   UNL     1       8.750  -8.495  -0.495  1.00  0.00     0.198 A 
ATOM     95  C   UNL     1       8.676  -9.860  -2.461  1.00  0.00     0.198 A 
ATOM     96  F   UNL     1       7.620  -9.074  -4.409  1.00  0.00    -0.203 F 
ATOM     97  F   UNL     1       9.115  -8.320   0.784  1.00  0.00    -0.200 F 
ATOM     98  C   UNL     1       9.068  -9.675  -1.145  1.00  0.00     0.200 A 
ATOM     99  F   UNL     1       8.938 -11.019  -3.081  1.00  0.00    -0.200 F 
ATOM    100  F   UNL     1       9.731 -10.644  -0.499  1.00  0.00    -0.200 F 
ENDBRANCH  67  90
ENDBRANCH  41  42
ENDBRANCH  34  36
ENDBRANCH  33  34
ENDBRANCH  32  33
ENDBRANCH  31  32
ENDBRANCH  30  31
ENDBRANCH  29  30
ENDBRANCH   1  29
TORSDOF 19
