REMARK SMILES O=C(OCCOCCOC(=O)[C@@H](CCc1ccccc1)[C@@H]1CCS(=O)(=O)C1)c1ccc(-c2c3nc(c(-c4c(F)c(F)c(F)c(F)c4F)c4ccc([nH]4)c(-c4c(F)c(F)c(F)c(F)c4F)c4nc(c(-c5c(F)c(F)c(F)c(F)c5F)c5ccc2[nH]5)C=C4)C=C3)cc1
REMARK SMILES IDX 7 1 6 2 5 3 4 4 3 5 2 6 1 7 28 8 29 9 90 10 30 11 89 12
REMARK SMILES IDX 31 13 32 14 33 15 83 16 34 17 88 18 82 19 84 20 35 21 87 22
REMARK SMILES IDX 81 23 80 24 36 26 68 27 48 28 67 29 49 30 52 31 66 32 85 33
REMARK SMILES IDX 50 34 51 35 65 37 86 38 53 39 37 40 38 41 46 42 39 43 40 44
REMARK SMILES IDX 44 45 47 46 41 47 42 48 45 49 43 50 69 51 70 52 78 53 71 54
REMARK SMILES IDX 72 55 76 56 79 57 73 58 74 59 77 60 75 61 54 62 55 63 63 64
REMARK SMILES IDX 56 65 57 66 61 67 64 68 58 69 59 70 62 71 60 72 8 73 9 74
REMARK SMILES IDX 10 75 11 76 12 77 13 78 14 79 15 80 16 81 20 82 17 83 19 84
REMARK SMILES IDX 18 85 21 86 22 87 27 88 23 89 24 90 25 91 26 92
REMARK H PARENT 84 25 52 36
REMARK Flexibility Score: inf
ROOT
ATOM      1  C   UNL     1       3.061  -1.156   1.673  1.00  0.00     0.202 C 
ENDROOT
BRANCH   1   2
ATOM      2  O   UNL     1       4.424  -0.887   1.331  1.00  0.00    -0.374 OA
BRANCH   2   3
ATOM      3  C   UNL     1       4.786   0.440   0.931  1.00  0.00     0.202 C 
BRANCH   3   4
ATOM      4  C   UNL     1       4.298   0.982  -0.428  1.00  0.00     0.261 C 
BRANCH   4   5
ATOM      5  O   UNL     1       2.882   0.805  -0.618  1.00  0.00    -0.460 OA
BRANCH   5   6
ATOM      6  C   UNL     1       2.281  -0.067  -1.470  1.00  0.00     0.338 C 
ATOM      7  O   UNL     1       1.091   0.067  -1.739  1.00  0.00    -0.246 OA
BRANCH   6   8
ATOM      8  C   UNL     1       3.010  -1.239  -2.035  1.00  0.00     0.060 A 
ATOM      9  C   UNL     1       4.160  -1.749  -1.450  1.00  0.00     0.016 A 
ATOM     10  C   UNL     1       2.484  -1.933  -3.131  1.00  0.00     0.016 A 
ATOM     11  C   UNL     1       4.794  -2.876  -1.883  1.00  0.00     0.010 A 
ATOM     12  C   UNL     1       3.098  -3.111  -3.580  1.00  0.00     0.010 A 
ATOM     13  C   UNL     1       4.240  -3.587  -2.926  1.00  0.00    -0.014 A 
BRANCH  13  14
ATOM     14  C   UNL     1       5.006  -4.774  -3.292  1.00  0.00     0.031 A 
ATOM     15  C   UNL     1       5.965  -4.650  -4.422  1.00  0.00     0.074 A 
ATOM     16  C   UNL     1       5.029  -5.803  -2.425  1.00  0.00     0.049 A 
ATOM     17  N   UNL     1       6.725  -5.561  -4.954  1.00  0.00    -0.248 NA
ATOM     18  C   UNL     1       6.116  -3.307  -5.016  1.00  0.00     0.031 C 
ATOM     19  C   UNL     1       4.297  -5.852  -1.150  1.00  0.00     0.029 A 
ATOM     20  N   UNL     1       5.731  -6.973  -2.443  1.00  0.00    -0.354 N 
ATOM     21  C   UNL     1       7.393  -4.923  -5.986  1.00  0.00     0.074 A 
ATOM     22  C   UNL     1       6.994  -3.536  -5.981  1.00  0.00     0.031 C 
ATOM     23  C   UNL     1       4.596  -6.994  -0.513  1.00  0.00     0.029 A 
ATOM     24  C   UNL     1       5.447  -7.794  -1.379  1.00  0.00     0.049 A 
ATOM     25  H   UNL     1       6.377  -7.205  -3.149  1.00  0.00     0.167 HD
ATOM     26  C   UNL     1       8.232  -5.491  -6.877  1.00  0.00     0.037 A 
ATOM     27  C   UNL     1       5.784  -9.082  -1.190  1.00  0.00     0.037 A 
ATOM     28  C   UNL     1       8.595  -6.879  -6.814  1.00  0.00     0.049 A 
ATOM     29  C   UNL     1       6.609  -9.725  -2.272  1.00  0.00     0.074 A 
ATOM     30  C   UNL     1       9.365  -7.617  -7.688  1.00  0.00     0.029 A 
ATOM     31  N   UNL     1       8.197  -7.739  -5.794  1.00  0.00    -0.354 N 
ATOM     32  N   UNL     1       7.149  -9.173  -3.335  1.00  0.00    -0.248 NA
ATOM     33  C   UNL     1       6.842 -11.167  -2.158  1.00  0.00     0.031 C 
ATOM     34  C   UNL     1       9.387  -8.937  -7.226  1.00  0.00     0.029 A 
ATOM     35  C   UNL     1       8.678  -9.011  -6.034  1.00  0.00     0.049 A 
ATOM     36  H   UNL     1       7.653  -7.479  -5.016  1.00  0.00     0.167 HD
ATOM     37  C   UNL     1       7.788 -10.195  -4.016  1.00  0.00     0.074 A 
ATOM     38  C   UNL     1       7.598 -11.396  -3.223  1.00  0.00     0.031 C 
ATOM     39  C   UNL     1       8.458 -10.162  -5.194  1.00  0.00     0.037 A 
BRANCH  26  40
ATOM     40  C   UNL     1       8.681  -4.652  -8.030  1.00  0.00     0.064 A 
ATOM     41  C   UNL     1       9.632  -3.632  -7.898  1.00  0.00     0.173 A 
ATOM     42  C   UNL     1       8.113  -4.864  -9.297  1.00  0.00     0.173 A 
ATOM     43  F   UNL     1      10.170  -3.361  -6.700  1.00  0.00    -0.203 F 
ATOM     44  C   UNL     1       9.995  -2.849  -8.993  1.00  0.00     0.198 A 
ATOM     45  C   UNL     1       8.494  -4.096 -10.392  1.00  0.00     0.198 A 
ATOM     46  F   UNL     1       7.178  -5.811  -9.468  1.00  0.00    -0.203 F 
ATOM     47  F   UNL     1      10.873  -1.849  -8.838  1.00  0.00    -0.200 F 
ATOM     48  C   UNL     1       9.432  -3.087 -10.239  1.00  0.00     0.200 A 
ATOM     49  F   UNL     1       7.944  -4.325 -11.592  1.00  0.00    -0.200 F 
ATOM     50  F   UNL     1       9.782  -2.333 -11.290  1.00  0.00    -0.200 F 
ENDBRANCH  26  40
BRANCH  27  51
ATOM     51  C   UNL     1       5.240  -9.860  -0.043  1.00  0.00     0.064 A 
ATOM     52  C   UNL     1       6.082 -10.485   0.886  1.00  0.00     0.173 A 
ATOM     53  C   UNL     1       3.855 -10.047   0.117  1.00  0.00     0.173 A 
ATOM     54  F   UNL     1       7.413 -10.359   0.773  1.00  0.00    -0.203 F 
ATOM     55  C   UNL     1       5.567 -11.290   1.903  1.00  0.00     0.198 A 
ATOM     56  C   UNL     1       3.339 -10.819   1.156  1.00  0.00     0.198 A 
ATOM     57  F   UNL     1       2.994  -9.482  -0.742  1.00  0.00    -0.203 F 
ATOM     58  F   UNL     1       6.401 -11.931   2.733  1.00  0.00    -0.200 F 
ATOM     59  C   UNL     1       4.197 -11.454   2.039  1.00  0.00     0.200 A 
ATOM     60  F   UNL     1       2.013 -10.959   1.290  1.00  0.00    -0.200 F 
ATOM     61  F   UNL     1       3.704 -12.235   3.009  1.00  0.00    -0.200 F 
ENDBRANCH  27  51
BRANCH  39  62
ATOM     62  C   UNL     1       9.041 -11.457  -5.664  1.00  0.00     0.064 A 
ATOM     63  C   UNL     1       8.230 -12.478  -6.176  1.00  0.00     0.173 A 
ATOM     64  C   UNL     1      10.430 -11.648  -5.653  1.00  0.00     0.173 A 
ATOM     65  F   UNL     1       6.896 -12.341  -6.185  1.00  0.00    -0.203 F 
ATOM     66  C   UNL     1       8.791 -13.659  -6.646  1.00  0.00     0.198 A 
ATOM     67  C   UNL     1      10.989 -12.816  -6.156  1.00  0.00     0.198 A 
ATOM     68  F   UNL     1      11.242 -10.691  -5.178  1.00  0.00    -0.203 F 
ATOM     69  F   UNL     1       7.999 -14.644  -7.090  1.00  0.00    -0.200 F 
ATOM     70  C   UNL     1      10.170 -13.822  -6.646  1.00  0.00     0.200 A 
ATOM     71  F   UNL     1      12.320 -12.965  -6.173  1.00  0.00    -0.200 F 
ATOM     72  F   UNL     1      10.709 -14.955  -7.115  1.00  0.00    -0.200 F 
ENDBRANCH  39  62
ENDBRANCH  13  14
ENDBRANCH   6   8
ENDBRANCH   5   6
ENDBRANCH   4   5
ENDBRANCH   3   4
ENDBRANCH   2   3
ENDBRANCH   1   2
BRANCH   1  73
ATOM     73  C   UNL     1       2.952  -1.546   3.147  1.00  0.00     0.261 C 
BRANCH  73  74
ATOM     74  O   UNL     1       3.248  -0.379   3.927  1.00  0.00    -0.463 OA
BRANCH  74  75
ATOM     75  C   UNL     1       4.559  -0.127   4.095  1.00  0.00     0.309 C 
ATOM     76  O   UNL     1       5.445  -0.971   4.044  1.00  0.00    -0.252 OA
BRANCH  75  77
ATOM     77  C   UNL     1       4.843   1.336   4.400  1.00  0.00     0.103 C 
BRANCH  77  78
ATOM     78  C   UNL     1       4.009   2.491   3.749  1.00  0.00     0.020 C 
BRANCH  78  79
ATOM     79  C   UNL     1       2.587   2.336   3.155  1.00  0.00     0.036 C 
BRANCH  79  80
ATOM     80  C   UNL     1       1.466   2.389   4.156  1.00  0.00    -0.048 A 
ATOM     81  C   UNL     1       1.107   3.610   4.740  1.00  0.00     0.004 A 
ATOM     82  C   UNL     1       0.811   1.225   4.575  1.00  0.00     0.004 A 
ATOM     83  C   UNL     1       0.218   3.639   5.817  1.00  0.00     0.000 A 
ATOM     84  C   UNL     1      -0.060   1.250   5.660  1.00  0.00     0.000 A 
ATOM     85  C   UNL     1      -0.335   2.454   6.300  1.00  0.00     0.000 A 
ENDBRANCH  79  80
ENDBRANCH  78  79
ENDBRANCH  77  78
BRANCH  77  86
ATOM     86  C   UNL     1       5.242   1.425   5.895  1.00  0.00     0.019 C 
ATOM     87  C   UNL     1       4.118   1.167   6.904  1.00  0.00     0.021 C 
ATOM     88  C   UNL     1       5.923   2.741   6.294  1.00  0.00     0.141 C 
ATOM     89  C   UNL     1       3.431   2.489   7.170  1.00  0.00     0.137 C 
ATOM     90  S   UNL     1       4.706   3.724   7.154  1.00  0.00     0.150 S 
ATOM     91  O   UNL     1       4.296   4.821   6.291  1.00  0.00    -0.229 OA
ATOM     92  O   UNL     1       5.156   3.942   8.505  1.00  0.00    -0.229 OA
ENDBRANCH  77  86
ENDBRANCH  75  77
ENDBRANCH  74  75
ENDBRANCH  73  74
ENDBRANCH   1  73
TORSDOF 18
