REMARK SMILES C[C@@H]1CN(S(=O)(=O)c2ccc(Cl)c(C(=O)OCCOCCOC(=O)c3ccc(-c4c5nc(c(-c6c(F)c(F)c(F)c(F)c6F)c6ccc([nH]6)c(-c6c(F)c(F)c(F)c(F)c6F)c6nc(c(-c7c(F)c(F)c(F)c(F)c7F)c7ccc4[nH]7)C=C6)C=C5)cc3)c2Cl)C[C@H]1C
REMARK SMILES IDX 19 1 18 2 17 3 16 4 14 5 15 6 13 7 8 8 9 9 88 10 10 11 89 12
REMARK SMILES IDX 11 13 12 14 5 15 6 16 7 17 4 18 1 19 2 20 3 21 91 22 90 23
REMARK SMILES IDX 92 24 20 25 21 26 22 27 23 28 24 29 25 30 26 31 87 32 27 33
REMARK SMILES IDX 86 34 28 35 29 36 30 37 80 38 31 39 85 40 79 41 81 42 32 43
REMARK SMILES IDX 84 44 78 45 77 46 33 48 65 49 45 50 64 51 46 52 49 53 63 54
REMARK SMILES IDX 82 55 47 56 48 57 62 59 83 60 50 61 34 62 35 63 43 64 36 65
REMARK SMILES IDX 37 66 41 67 44 68 38 69 39 70 42 71 40 72 66 73 67 74 75 75
REMARK SMILES IDX 68 76 69 77 73 78 76 79 70 80 71 81 74 82 72 83 51 84 52 85
REMARK SMILES IDX 60 86 53 87 54 88 58 89 61 90 55 91 56 92 59 93 57 94
REMARK H PARENT 81 47 49 58
REMARK Flexibility Score: inf
ROOT
ATOM      1  O   UNL     1       0.407   9.349   7.044  1.00  0.00    -0.374 OA
ENDROOT
BRANCH   1   2
ATOM      2  C   UNL     1       1.054  10.309   6.208  1.00  0.00     0.202 C 
BRANCH   2   3
ATOM      3  C   UNL     1       2.070   9.767   5.200  1.00  0.00     0.261 C 
BRANCH   3   4
ATOM      4  O   UNL     1       1.433   8.849   4.300  1.00  0.00    -0.460 OA
BRANCH   4   5
ATOM      5  C   UNL     1       2.158   7.758   3.955  1.00  0.00     0.341 C 
ATOM      6  O   UNL     1       3.337   7.557   4.176  1.00  0.00    -0.246 OA
BRANCH   5   7
ATOM      7  C   UNL     1       1.250   6.778   3.323  1.00  0.00     0.098 A 
ATOM      8  C   UNL     1       0.184   4.592   3.285  1.00  0.00     0.102 A 
ATOM      9  C   UNL     1      -0.493   4.974   2.112  1.00  0.00     0.025 A 
ATOM     10  C   UNL     1       1.040   5.508   3.920  1.00  0.00     0.077 A 
ATOM     11  C   UNL     1      -0.272   6.219   1.529  1.00  0.00     0.023 A 
ATOM     12  Cl  UNL     1       1.814   5.162   5.430  1.00  0.00    -0.082 Cl
ATOM     13  C   UNL     1       0.607   7.120   2.124  1.00  0.00     0.057 A 
ATOM     14  Cl  UNL     1       0.860   8.622   1.306  1.00  0.00    -0.083 Cl
BRANCH   8  15
ATOM     15  S   UNL     1      -0.186   2.949   3.895  1.00  0.00     0.244 S 
ATOM     16  O   UNL     1      -1.506   2.602   3.410  1.00  0.00    -0.207 OA
ATOM     17  O   UNL     1       0.098   2.864   5.309  1.00  0.00    -0.207 OA
BRANCH  15  18
ATOM     18  N   UNL     1       0.928   1.959   3.064  1.00  0.00    -0.197 NA
ATOM     19  C   UNL     1       0.994  -0.030  -0.107  1.00  0.00     0.009 C 
ATOM     20  C   UNL     1       0.563   0.358   1.300  1.00  0.00     0.005 C 
ATOM     21  C   UNL     1       0.779   1.843   1.585  1.00  0.00     0.106 C 
ATOM     22  C   UNL     1       1.370  -0.311   2.409  1.00  0.00     0.005 C 
ATOM     23  C   UNL     1       1.046   0.573   3.616  1.00  0.00     0.106 C 
ATOM     24  C   UNL     1       0.995  -1.770   2.630  1.00  0.00     0.009 C 
ENDBRANCH  15  18
ENDBRANCH   8  15
ENDBRANCH   5   7
ENDBRANCH   4   5
ENDBRANCH   3   4
ENDBRANCH   2   3
ENDBRANCH   1   2
BRANCH   1  25
ATOM     25  C   UNL     1      -0.552   8.478   6.446  1.00  0.00     0.202 C 
BRANCH  25  26
ATOM     26  C   UNL     1      -1.926   9.070   6.098  1.00  0.00     0.261 C 
BRANCH  26  27
ATOM     27  O   UNL     1      -1.864  10.181   5.187  1.00  0.00    -0.460 OA
BRANCH  27  28
ATOM     28  C   UNL     1      -2.133  11.385   5.752  1.00  0.00     0.338 C 
ATOM     29  O   UNL     1      -2.452  11.610   6.907  1.00  0.00    -0.246 OA
BRANCH  28  30
ATOM     30  C   UNL     1      -1.839  12.469   4.798  1.00  0.00     0.060 A 
ATOM     31  C   UNL     1      -0.901  13.437   5.181  1.00  0.00     0.016 A 
ATOM     32  C   UNL     1      -2.538  12.592   3.597  1.00  0.00     0.016 A 
ATOM     33  C   UNL     1      -0.683  14.554   4.377  1.00  0.00     0.010 A 
ATOM     34  C   UNL     1      -2.324  13.718   2.795  1.00  0.00     0.010 A 
ATOM     35  C   UNL     1      -1.418  14.718   3.195  1.00  0.00    -0.014 A 
BRANCH  35  36
ATOM     36  C   UNL     1      -1.327  15.994   2.443  1.00  0.00     0.031 A 
ATOM     37  C   UNL     1      -2.428  17.009   2.580  1.00  0.00     0.074 A 
ATOM     38  C   UNL     1      -0.264  16.253   1.661  1.00  0.00     0.049 A 
ATOM     39  N   UNL     1      -2.576  18.162   1.979  1.00  0.00    -0.248 NA
ATOM     40  C   UNL     1      -3.509  16.675   3.520  1.00  0.00     0.031 C 
ATOM     41  C   UNL     1       0.883  15.366   1.479  1.00  0.00     0.029 A 
ATOM     42  N   UNL     1       0.017  17.337   0.868  1.00  0.00    -0.354 N 
ATOM     43  C   UNL     1      -3.768  18.688   2.461  1.00  0.00     0.074 A 
ATOM     44  C   UNL     1      -4.320  17.714   3.378  1.00  0.00     0.031 C 
ATOM     45  C   UNL     1       1.743  15.939   0.620  1.00  0.00     0.029 A 
ATOM     46  C   UNL     1       1.189  17.212   0.164  1.00  0.00     0.049 A 
ATOM     47  H   UNL     1      -0.566  18.128   0.809  1.00  0.00     0.167 HD
ATOM     48  C   UNL     1      -4.343  19.880   2.172  1.00  0.00     0.037 A 
ATOM     49  C   UNL     1       1.737  18.022  -0.762  1.00  0.00     0.037 A 
ATOM     50  C   UNL     1      -3.789  20.846   1.258  1.00  0.00     0.049 A 
ATOM     51  C   UNL     1       1.037  19.307  -1.126  1.00  0.00     0.074 A 
ATOM     52  C   UNL     1      -4.285  22.091   0.912  1.00  0.00     0.029 A 
ATOM     53  N   UNL     1      -2.617  20.669   0.536  1.00  0.00    -0.354 N 
ATOM     54  N   UNL     1      -0.076  19.809  -0.649  1.00  0.00    -0.248 NA
ATOM     55  C   UNL     1       1.673  20.138  -2.158  1.00  0.00     0.031 C 
ATOM     56  C   UNL     1      -3.447  22.641  -0.063  1.00  0.00     0.029 A 
ATOM     57  C   UNL     1      -2.392  21.769  -0.277  1.00  0.00     0.049 A 
ATOM     58  H   UNL     1      -2.033  19.880   0.594  1.00  0.00     0.167 HD
ATOM     59  C   UNL     1      -0.256  21.026  -1.295  1.00  0.00     0.074 A 
ATOM     60  C   UNL     1       0.871  21.192  -2.190  1.00  0.00     0.031 C 
ATOM     61  C   UNL     1      -1.262  21.925  -1.159  1.00  0.00     0.037 A 
BRANCH  48  62
ATOM     62  C   UNL     1      -5.658  20.195   2.828  1.00  0.00     0.064 A 
ATOM     63  C   UNL     1      -5.755  20.460   4.202  1.00  0.00     0.173 A 
ATOM     64  C   UNL     1      -6.833  20.263   2.064  1.00  0.00     0.173 A 
ATOM     65  F   UNL     1      -4.664  20.397   4.981  1.00  0.00    -0.203 F 
ATOM     66  C   UNL     1      -6.983  20.752   4.792  1.00  0.00     0.198 A 
ATOM     67  C   UNL     1      -8.053  20.588   2.651  1.00  0.00     0.198 A 
ATOM     68  F   UNL     1      -6.798  20.024   0.744  1.00  0.00    -0.203 F 
ATOM     69  F   UNL     1      -7.059  20.951   6.115  1.00  0.00    -0.200 F 
ATOM     70  C   UNL     1      -8.129  20.823   4.015  1.00  0.00     0.200 A 
ATOM     71  F   UNL     1      -9.157  20.670   1.895  1.00  0.00    -0.200 F 
ATOM     72  F   UNL     1      -9.309  21.111   4.582  1.00  0.00    -0.200 F 
ENDBRANCH  48  62
BRANCH  49  73
ATOM     73  C   UNL     1       3.013  17.640  -1.422  1.00  0.00     0.064 A 
ATOM     74  C   UNL     1       4.188  18.372  -1.205  1.00  0.00     0.173 A 
ATOM     75  C   UNL     1       3.081  16.544  -2.296  1.00  0.00     0.173 A 
ATOM     76  F   UNL     1       4.170  19.444  -0.398  1.00  0.00    -0.203 F 
ATOM     77  C   UNL     1       5.376  18.037  -1.851  1.00  0.00     0.198 A 
ATOM     78  C   UNL     1       4.276  16.191  -2.918  1.00  0.00     0.198 A 
ATOM     79  F   UNL     1       1.985  15.811  -2.542  1.00  0.00    -0.203 F 
ATOM     80  F   UNL     1       6.472  18.785  -1.665  1.00  0.00    -0.200 F 
ATOM     81  C   UNL     1       5.421  16.942  -2.702  1.00  0.00     0.200 A 
ATOM     82  F   UNL     1       4.317  15.125  -3.729  1.00  0.00    -0.200 F 
ATOM     83  F   UNL     1       6.564  16.618  -3.321  1.00  0.00    -0.200 F 
ENDBRANCH  49  73
BRANCH  61  84
ATOM     84  C   UNL     1      -1.172  23.192  -1.964  1.00  0.00     0.064 A 
ATOM     85  C   UNL     1      -1.345  23.198  -3.356  1.00  0.00     0.173 A 
ATOM     86  C   UNL     1      -0.949  24.422  -1.326  1.00  0.00     0.173 A 
ATOM     87  F   UNL     1      -1.547  22.048  -4.017  1.00  0.00    -0.203 F 
ATOM     88  C   UNL     1      -1.268  24.384  -4.082  1.00  0.00     0.198 A 
ATOM     89  C   UNL     1      -0.907  25.610  -2.051  1.00  0.00     0.198 A 
ATOM     90  F   UNL     1      -0.785  24.475   0.004  1.00  0.00    -0.203 F 
ATOM     91  F   UNL     1      -1.383  24.358  -5.417  1.00  0.00    -0.200 F 
ATOM     92  C   UNL     1      -1.058  25.589  -3.429  1.00  0.00     0.200 A 
ATOM     93  F   UNL     1      -0.721  26.775  -1.415  1.00  0.00    -0.200 F 
ATOM     94  F   UNL     1      -0.993  26.730  -4.128  1.00  0.00    -0.200 F 
ENDBRANCH  61  84
ENDBRANCH  35  36
ENDBRANCH  28  30
ENDBRANCH  27  28
ENDBRANCH  26  27
ENDBRANCH  25  26
ENDBRANCH   1  25
TORSDOF 16
