REMARK SMILES COc1cccc(C(=O)N2[C@@H](C(=O)OCCOCCOC(=O)c3ccc(-c4c5nc(c(-c6c(F)c(F)c(F)c(F)c6F)c6ccc([nH]6)c(-c6c(F)c(F)c(F)c(F)c6F)c6nc(c(-c7c(F)c(F)c(F)c(F)c7F)c7ccc4[nH]7)C=C6)C=C5)cc3)CS[C@@H]2c2ccccc2Cl)c1
REMARK SMILES IDX 16 1 15 2 14 3 12 4 13 5 11 6 10 7 88 8 86 9 87 10 8 11 9 12
REMARK SMILES IDX 7 13 3 14 4 15 96 16 5 17 6 18 2 19 1 20 89 21 90 22 94 23
REMARK SMILES IDX 91 24 93 25 95 26 92 27 17 28 18 29 19 30 20 31 21 32 22 33
REMARK SMILES IDX 23 34 24 35 85 36 25 37 84 38 26 39 27 40 28 41 78 42 29 43
REMARK SMILES IDX 83 44 77 45 79 46 30 47 82 48 76 49 75 50 31 52 63 53 43 54
REMARK SMILES IDX 62 55 44 56 47 57 61 58 80 59 45 60 46 61 60 63 81 64 48 65
REMARK SMILES IDX 32 66 33 67 41 68 34 69 35 70 39 71 42 72 36 73 37 74 40 75
REMARK SMILES IDX 38 76 64 77 65 78 73 79 66 80 67 81 71 82 74 83 68 84 69 85
REMARK SMILES IDX 72 86 70 87 49 88 50 89 58 90 51 91 52 92 56 93 59 94 53 95
REMARK SMILES IDX 54 96 57 97 55 98
REMARK H PARENT 79 51 47 62
REMARK Flexibility Score: inf
ROOT
ATOM      1  C   UNL     1       3.320   5.258   2.647  1.00  0.00     0.202 C 
ENDROOT
BRANCH   1   2
ATOM      2  C   UNL     1       4.538   5.666   1.823  1.00  0.00     0.261 C 
BRANCH   2   3
ATOM      3  O   UNL     1       4.731   4.751   0.734  1.00  0.00    -0.462 OA
BRANCH   3   4
ATOM      4  C   UNL     1       6.008   4.368   0.505  1.00  0.00     0.329 C 
ATOM      5  O   UNL     1       6.978   4.771   1.145  1.00  0.00    -0.250 OA
BRANCH   4   6
ATOM      6  C   UNL     1       6.158   3.264  -0.549  1.00  0.00     0.206 C 
ATOM      7  N   UNL     1       5.083   2.802  -1.459  1.00  0.00    -0.308 N 
ATOM      8  C   UNL     1       5.344   1.466  -1.995  1.00  0.00     0.176 C 
ATOM      9  C   UNL     1       6.597   2.018   0.261  1.00  0.00     0.109 C 
ATOM     10  S   UNL     1       5.646   0.607  -0.388  1.00  0.00    -0.129 SA
BRANCH   7  11
ATOM     11  C   UNL     1       4.095   3.658  -1.922  1.00  0.00     0.255 C 
ATOM     12  O   UNL     1       4.224   4.881  -1.901  1.00  0.00    -0.269 OA
BRANCH  11  13
ATOM     13  C   UNL     1       2.781   3.103  -2.388  1.00  0.00     0.043 A 
ATOM     14  C   UNL     1       0.954   1.497  -2.270  1.00  0.00     0.119 A 
ATOM     15  C   UNL     1       0.275   2.210  -3.259  1.00  0.00     0.046 A 
ATOM     16  C   UNL     1       2.197   1.955  -1.820  1.00  0.00     0.060 A 
ATOM     17  C   UNL     1       0.815   3.384  -3.783  1.00  0.00     0.005 A 
ATOM     18  C   UNL     1       2.064   3.829  -3.348  1.00  0.00     0.014 A 
BRANCH  14  19
ATOM     19  O   UNL     1       0.324   0.354  -1.863  1.00  0.00    -0.497 OA
ATOM     20  C   UNL     1       0.593  -0.096  -0.542  1.00  0.00     0.278 C 
ENDBRANCH  14  19
ENDBRANCH  11  13
ENDBRANCH   7  11
BRANCH   8  21
ATOM     21  C   UNL     1       6.565   1.277  -2.921  1.00  0.00     0.003 A 
ATOM     22  C   UNL     1       7.082  -0.040  -3.051  1.00  0.00     0.008 A 
ATOM     23  C   UNL     1       7.226   2.269  -3.670  1.00  0.00     0.047 A 
ATOM     24  C   UNL     1       8.270  -0.320  -3.733  1.00  0.00     0.001 A 
ATOM     25  C   UNL     1       8.439   1.992  -4.327  1.00  0.00     0.021 A 
ATOM     26  Cl  UNL     1       6.621   3.864  -3.925  1.00  0.00    -0.084 Cl
ATOM     27  C   UNL     1       8.973   0.708  -4.339  1.00  0.00     0.002 A 
ENDBRANCH   8  21
ENDBRANCH   4   6
ENDBRANCH   3   4
ENDBRANCH   2   3
ENDBRANCH   1   2
BRANCH   1  28
ATOM     28  O   UNL     1       3.424   3.980   3.276  1.00  0.00    -0.374 OA
BRANCH  28  29
ATOM     29  C   UNL     1       3.253   2.833   2.443  1.00  0.00     0.202 C 
BRANCH  29  30
ATOM     30  C   UNL     1       1.816   2.553   2.001  1.00  0.00     0.261 C 
BRANCH  30  31
ATOM     31  O   UNL     1       1.335   3.535   1.062  1.00  0.00    -0.460 OA
BRANCH  31  32
ATOM     32  C   UNL     1       0.159   4.119   1.386  1.00  0.00     0.338 C 
ATOM     33  O   UNL     1      -0.586   3.826   2.317  1.00  0.00    -0.246 OA
BRANCH  32  34
ATOM     34  C   UNL     1      -0.084   5.290   0.530  1.00  0.00     0.060 A 
ATOM     35  C   UNL     1      -0.014   6.566   1.100  1.00  0.00     0.016 A 
ATOM     36  C   UNL     1      -0.481   5.134  -0.798  1.00  0.00     0.016 A 
ATOM     37  C   UNL     1      -0.351   7.691   0.342  1.00  0.00     0.010 A 
ATOM     38  C   UNL     1      -0.810   6.262  -1.559  1.00  0.00     0.010 A 
ATOM     39  C   UNL     1      -0.769   7.547  -0.990  1.00  0.00    -0.014 A 
BRANCH  39  40
ATOM     40  C   UNL     1      -1.252   8.727  -1.756  1.00  0.00     0.031 A 
ATOM     41  C   UNL     1      -2.727   8.910  -1.993  1.00  0.00     0.074 A 
ATOM     42  C   UNL     1      -0.383   9.639  -2.232  1.00  0.00     0.049 A 
ATOM     43  N   UNL     1      -3.351   9.834  -2.680  1.00  0.00    -0.248 NA
ATOM     44  C   UNL     1      -3.620   7.917  -1.375  1.00  0.00     0.031 C 
ATOM     45  C   UNL     1       1.068   9.591  -2.062  1.00  0.00     0.029 A 
ATOM     46  N   UNL     1      -0.598  10.781  -2.965  1.00  0.00    -0.354 N 
ATOM     47  C   UNL     1      -4.703   9.534  -2.581  1.00  0.00     0.074 A 
ATOM     48  C   UNL     1      -4.810   8.322  -1.796  1.00  0.00     0.031 C 
ATOM     49  C   UNL     1       1.615  10.653  -2.679  1.00  0.00     0.029 A 
ATOM     50  C   UNL     1       0.558  11.437  -3.313  1.00  0.00     0.049 A 
ATOM     51  H   UNL     1      -1.495  11.099  -3.217  1.00  0.00     0.167 HD
ATOM     52  C   UNL     1      -5.761  10.213  -3.084  1.00  0.00     0.037 A 
ATOM     53  C   UNL     1       0.743  12.532  -4.078  1.00  0.00     0.037 A 
ATOM     54  C   UNL     1      -5.665  11.426  -3.854  1.00  0.00     0.049 A 
ATOM     55  C   UNL     1      -0.449  13.233  -4.677  1.00  0.00     0.074 A 
ATOM     56  C   UNL     1      -6.686  12.196  -4.383  1.00  0.00     0.029 A 
ATOM     57  N   UNL     1      -4.475  12.044  -4.205  1.00  0.00    -0.354 N 
ATOM     58  N   UNL     1      -1.723  12.954  -4.555  1.00  0.00    -0.248 NA
ATOM     59  C   UNL     1      -0.173  14.403  -5.527  1.00  0.00     0.031 C 
ATOM     60  C   UNL     1      -6.114  13.261  -5.086  1.00  0.00     0.029 A 
ATOM     61  C   UNL     1      -4.737  13.175  -4.962  1.00  0.00     0.049 A 
ATOM     62  H   UNL     1      -3.577  11.728  -3.954  1.00  0.00     0.167 HD
ATOM     63  C   UNL     1      -2.399  13.917  -5.294  1.00  0.00     0.074 A 
ATOM     64  C   UNL     1      -1.397  14.803  -5.846  1.00  0.00     0.031 C 
ATOM     65  C   UNL     1      -3.731  14.051  -5.502  1.00  0.00     0.037 A 
BRANCH  52  66
ATOM     66  C   UNL     1      -7.131   9.665  -2.818  1.00  0.00     0.064 A 
ATOM     67  C   UNL     1      -7.728   9.774  -1.554  1.00  0.00     0.173 A 
ATOM     68  C   UNL     1      -7.880   9.084  -3.853  1.00  0.00     0.173 A 
ATOM     69  F   UNL     1      -7.048  10.313  -0.531  1.00  0.00    -0.203 F 
ATOM     70  C   UNL     1      -9.022   9.310  -1.331  1.00  0.00     0.198 A 
ATOM     71  C   UNL     1      -9.182   8.642  -3.632  1.00  0.00     0.198 A 
ATOM     72  F   UNL     1      -7.356   8.963  -5.082  1.00  0.00    -0.203 F 
ATOM     73  F   UNL     1      -9.562   9.398  -0.108  1.00  0.00    -0.200 F 
ATOM     74  C   UNL     1      -9.750   8.752  -2.372  1.00  0.00     0.200 A 
ATOM     75  F   UNL     1      -9.889   8.114  -4.641  1.00  0.00    -0.200 F 
ATOM     76  F   UNL     1     -11.000   8.317  -2.159  1.00  0.00    -0.200 F 
ENDBRANCH  52  66
BRANCH  53  77
ATOM     77  C   UNL     1       2.117  13.027  -4.352  1.00  0.00     0.064 A 
ATOM     78  C   UNL     1       2.563  14.251  -3.834  1.00  0.00     0.173 A 
ATOM     79  C   UNL     1       2.995  12.310  -5.178  1.00  0.00     0.173 A 
ATOM     80  F   UNL     1       1.747  14.990  -3.067  1.00  0.00    -0.203 F 
ATOM     81  C   UNL     1       3.825  14.749  -4.149  1.00  0.00     0.198 A 
ATOM     82  C   UNL     1       4.268  12.795  -5.470  1.00  0.00     0.198 A 
ATOM     83  F   UNL     1       2.613  11.138  -5.707  1.00  0.00    -0.203 F 
ATOM     84  F   UNL     1       4.205  15.948  -3.687  1.00  0.00    -0.200 F 
ATOM     85  C   UNL     1       4.678  14.019  -4.963  1.00  0.00     0.200 A 
ATOM     86  F   UNL     1       5.090  12.085  -6.254  1.00  0.00    -0.200 F 
ATOM     87  F   UNL     1       5.889  14.502  -5.273  1.00  0.00    -0.200 F 
ENDBRANCH  53  77
BRANCH  65  88
ATOM     88  C   UNL     1      -4.186  15.203  -6.348  1.00  0.00     0.064 A 
ATOM     89  C   UNL     1      -4.017  15.198  -7.740  1.00  0.00     0.173 A 
ATOM     90  C   UNL     1      -4.841  16.300  -5.768  1.00  0.00     0.173 A 
ATOM     91  F   UNL     1      -3.383  14.178  -8.339  1.00  0.00    -0.203 F 
ATOM     92  C   UNL     1      -4.472  16.258  -8.519  1.00  0.00     0.198 A 
ATOM     93  C   UNL     1      -5.316  17.347  -6.553  1.00  0.00     0.198 A 
ATOM     94  F   UNL     1      -5.032  16.349  -4.441  1.00  0.00    -0.203 F 
ATOM     95  F   UNL     1      -4.267  16.250  -9.844  1.00  0.00    -0.200 F 
ATOM     96  C   UNL     1      -5.127  17.328  -7.927  1.00  0.00     0.200 A 
ATOM     97  F   UNL     1      -5.959  18.374  -5.981  1.00  0.00    -0.200 F 
ATOM     98  F   UNL     1      -5.572  18.343  -8.680  1.00  0.00    -0.200 F 
ENDBRANCH  65  88
ENDBRANCH  39  40
ENDBRANCH  32  34
ENDBRANCH  31  32
ENDBRANCH  30  31
ENDBRANCH  29  30
ENDBRANCH  28  29
ENDBRANCH   1  28
TORSDOF 18
