REMARK SMILES CC(C)CC(=O)Nc1ccc(NC(=O)[C@@H]2CCCC[C@@H]2C(=O)OCCOCCOC(=O)c2ccc(-c3c4nc(c(-c5c(F)c(F)c(F)c(F)c5F)c5ccc([nH]5)c(-c5c(F)c(F)c(F)c(F)c5F)c5nc(c(-c6c(F)c(F)c(F)c(F)c6F)c6ccc3[nH]6)C=C5)C=C4)cc2)cc1
REMARK SMILES IDX 24 1 23 2 21 3 22 4 20 5 15 6 16 7 17 8 19 9 18 10 13 11
REMARK SMILES IDX 12 12 14 14 11 15 8 16 9 17 96 18 10 19 95 20 7 21 5 22 6 23
REMARK SMILES IDX 4 25 2 26 1 27 3 28 25 29 26 30 27 31 28 32 29 33 30 34
REMARK SMILES IDX 31 35 32 36 33 37 94 38 34 39 93 40 35 41 36 42 37 43 87 44
REMARK SMILES IDX 38 45 92 46 86 47 88 48 39 49 91 50 85 51 84 52 40 54 72 55
REMARK SMILES IDX 52 56 71 57 53 58 56 59 70 60 89 61 54 62 55 63 69 65 90 66
REMARK SMILES IDX 57 67 41 68 42 69 50 70 43 71 44 72 48 73 51 74 45 75 46 76
REMARK SMILES IDX 49 77 47 78 73 79 74 80 82 81 75 82 76 83 80 84 83 85 77 86
REMARK SMILES IDX 78 87 81 88 79 89 58 90 59 91 67 92 60 93 61 94 65 95 68 96
REMARK SMILES IDX 62 97 63 98 66 99 64 100
REMARK H PARENT 12 13 7 24 88 53 56 64
REMARK Flexibility Score: inf
ROOT
ATOM      1  C   UNL     1      -2.004   5.472   2.597  1.00  0.00     0.261 C 
ENDROOT
BRANCH   1   2
ATOM      2  O   UNL     1      -1.813   5.150   1.210  1.00  0.00    -0.463 OA
BRANCH   2   3
ATOM      3  C   UNL     1      -0.926   5.948   0.539  1.00  0.00     0.309 C 
ATOM      4  O   UNL     1      -0.321   6.883   1.038  1.00  0.00    -0.252 OA
BRANCH   3   5
ATOM      5  C   UNL     1      -0.789   5.462  -0.900  1.00  0.00     0.111 C 
ATOM      6  C   UNL     1       0.442   5.989  -1.667  1.00  0.00     0.093 C 
ATOM      7  C   UNL     1       0.411   7.521  -1.782  1.00  0.00     0.014 C 
ATOM      8  C   UNL     1      -0.878   7.983  -2.463  1.00  0.00     0.001 C 
ATOM      9  C   UNL     1      -2.042   5.839  -1.697  1.00  0.00     0.016 C 
ATOM     10  C   UNL     1      -2.149   7.351  -1.888  1.00  0.00     0.001 C 
BRANCH   6  11
ATOM     11  C   UNL     1       1.775   5.453  -1.176  1.00  0.00     0.228 C 
ATOM     12  N   UNL     1       2.136   4.143  -1.319  1.00  0.00    -0.326 N 
ATOM     13  H   UNL     1       3.060   3.976  -1.023  1.00  0.00     0.169 HD
ATOM     14  O   UNL     1       2.603   6.190  -0.633  1.00  0.00    -0.274 OA
BRANCH  12  15
ATOM     15  C   UNL     1       1.505   2.977  -1.786  1.00  0.00     0.041 A 
ATOM     16  C   UNL     1       0.118   0.544  -2.028  1.00  0.00     0.041 A 
ATOM     17  C   UNL     1      -0.379   1.688  -2.638  1.00  0.00     0.028 A 
ATOM     18  C   UNL     1       1.412   0.578  -1.530  1.00  0.00     0.028 A 
ATOM     19  C   UNL     1       0.326   2.898  -2.527  1.00  0.00     0.028 A 
ATOM     20  C   UNL     1       2.102   1.780  -1.395  1.00  0.00     0.028 A 
BRANCH  16  21
ATOM     21  N   UNL     1      -0.663  -0.617  -1.961  1.00  0.00    -0.326 N 
ATOM     22  C   UNL     1      -0.681  -1.588  -0.984  1.00  0.00     0.224 C 
ATOM     23  O   UNL     1      -1.221  -2.670  -1.227  1.00  0.00    -0.275 OA
ATOM     24  H   UNL     1      -1.283  -0.758  -2.713  1.00  0.00     0.169 HD
BRANCH  22  25
ATOM     25  C   UNL     1      -0.265  -1.229   0.442  1.00  0.00     0.103 C 
BRANCH  25  26
ATOM     26  C   UNL     1       0.750  -2.159   1.128  1.00  0.00    -0.008 C 
ATOM     27  C   UNL     1       2.200  -1.767   0.837  1.00  0.00     0.008 C 
ATOM     28  C   UNL     1       0.552  -2.118   2.648  1.00  0.00     0.008 C 
ENDBRANCH  25  26
ENDBRANCH  22  25
ENDBRANCH  16  21
ENDBRANCH  12  15
ENDBRANCH   6  11
ENDBRANCH   3   5
ENDBRANCH   2   3
ENDBRANCH   1   2
BRANCH   1  29
ATOM     29  C   UNL     1      -1.400   4.432   3.545  1.00  0.00     0.202 C 
BRANCH  29  30
ATOM     30  O   UNL     1       0.004   4.218   3.480  1.00  0.00    -0.374 OA
BRANCH  30  31
ATOM     31  C   UNL     1       0.538   3.562   2.334  1.00  0.00     0.202 C 
BRANCH  31  32
ATOM     32  C   UNL     1       0.171   2.091   2.132  1.00  0.00     0.261 C 
BRANCH  32  33
ATOM     33  O   UNL     1      -1.237   1.871   1.911  1.00  0.00    -0.460 OA
BRANCH  33  34
ATOM     34  C   UNL     1      -1.825   1.058   2.819  1.00  0.00     0.338 C 
ATOM     35  O   UNL     1      -1.283   0.468   3.748  1.00  0.00    -0.246 OA
BRANCH  34  36
ATOM     36  C   UNL     1      -3.287   1.059   2.676  1.00  0.00     0.060 A 
ATOM     37  C   UNL     1      -4.033   1.513   3.771  1.00  0.00     0.016 A 
ATOM     38  C   UNL     1      -3.921   0.493   1.568  1.00  0.00     0.016 A 
ATOM     39  C   UNL     1      -5.416   1.371   3.777  1.00  0.00     0.010 A 
ATOM     40  C   UNL     1      -5.313   0.343   1.580  1.00  0.00     0.010 A 
ATOM     41  C   UNL     1      -6.062   0.755   2.697  1.00  0.00    -0.014 A 
BRANCH  41  42
ATOM     42  C   UNL     1      -7.512   0.469   2.801  1.00  0.00     0.031 A 
ATOM     43  C   UNL     1      -7.972  -0.896   3.225  1.00  0.00     0.074 A 
ATOM     44  C   UNL     1      -8.404   1.450   2.578  1.00  0.00     0.049 A 
ATOM     45  N   UNL     1      -9.188  -1.335   3.433  1.00  0.00    -0.248 NA
ATOM     46  C   UNL     1      -6.923  -1.902   3.451  1.00  0.00     0.031 C 
ATOM     47  C   UNL     1      -8.067   2.819   2.192  1.00  0.00     0.029 A 
ATOM     48  N   UNL     1      -9.774   1.447   2.653  1.00  0.00    -0.354 N 
ATOM     49  C   UNL     1      -9.051  -2.662   3.818  1.00  0.00     0.074 A 
ATOM     50  C   UNL     1      -7.636  -2.968   3.785  1.00  0.00     0.031 C 
ATOM     51  C   UNL     1      -9.201   3.527   2.062  1.00  0.00     0.029 A 
ATOM     52  C   UNL     1     -10.342   2.655   2.335  1.00  0.00     0.049 A 
ATOM     53  H   UNL     1     -10.298   0.655   2.910  1.00  0.00     0.167 HD
ATOM     54  C   UNL     1     -10.018  -3.540   4.178  1.00  0.00     0.037 A 
ATOM     55  C   UNL     1     -11.639   3.012   2.263  1.00  0.00     0.037 A 
ATOM     56  C   UNL     1     -11.424  -3.229   4.202  1.00  0.00     0.049 A 
ATOM     57  C   UNL     1     -12.697   2.000   2.612  1.00  0.00     0.074 A 
ATOM     58  C   UNL     1     -12.483  -4.042   4.565  1.00  0.00     0.029 A 
ATOM     59  N   UNL     1     -11.966  -2.005   3.836  1.00  0.00    -0.354 N 
ATOM     60  N   UNL     1     -12.556   0.759   3.012  1.00  0.00    -0.248 NA
ATOM     61  C   UNL     1     -14.095   2.440   2.506  1.00  0.00     0.031 C 
ATOM     62  C   UNL     1     -13.670  -3.325   4.375  1.00  0.00     0.029 A 
ATOM     63  C   UNL     1     -13.347  -2.049   3.939  1.00  0.00     0.049 A 
ATOM     64  H   UNL     1     -11.446  -1.221   3.546  1.00  0.00     0.167 HD
ATOM     65  C   UNL     1     -13.840   0.278   3.228  1.00  0.00     0.074 A 
ATOM     66  C   UNL     1     -14.748   1.366   2.928  1.00  0.00     0.031 C 
ATOM     67  C   UNL     1     -14.233  -0.953   3.637  1.00  0.00     0.037 A 
BRANCH  54  68
ATOM     68  C   UNL     1      -9.590  -4.928   4.553  1.00  0.00     0.064 A 
ATOM     69  C   UNL     1      -8.929  -5.193   5.762  1.00  0.00     0.173 A 
ATOM     70  C   UNL     1      -9.874  -6.013   3.710  1.00  0.00     0.173 A 
ATOM     71  F   UNL     1      -8.624  -4.189   6.599  1.00  0.00    -0.203 F 
ATOM     72  C   UNL     1      -8.548  -6.489   6.102  1.00  0.00     0.198 A 
ATOM     73  C   UNL     1      -9.514  -7.311   4.065  1.00  0.00     0.198 A 
ATOM     74  F   UNL     1     -10.510  -5.816   2.546  1.00  0.00    -0.203 F 
ATOM     75  F   UNL     1      -7.881  -6.713   7.243  1.00  0.00    -0.200 F 
ATOM     76  C   UNL     1      -8.846  -7.547   5.256  1.00  0.00     0.200 A 
ATOM     77  F   UNL     1      -9.814  -8.333   3.252  1.00  0.00    -0.200 F 
ATOM     78  F   UNL     1      -8.483  -8.794   5.587  1.00  0.00    -0.200 F 
ENDBRANCH  54  68
BRANCH  55  79
ATOM     79  C   UNL     1     -12.003   4.390   1.845  1.00  0.00     0.064 A 
ATOM     80  C   UNL     1     -12.567   5.298   2.751  1.00  0.00     0.173 A 
ATOM     81  C   UNL     1     -11.793   4.826   0.529  1.00  0.00     0.173 A 
ATOM     82  F   UNL     1     -12.808   4.921   4.015  1.00  0.00    -0.203 F 
ATOM     83  C   UNL     1     -12.919   6.587   2.353  1.00  0.00     0.198 A 
ATOM     84  C   UNL     1     -12.120   6.122   0.138  1.00  0.00     0.198 A 
ATOM     85  F   UNL     1     -11.255   3.995  -0.376  1.00  0.00    -0.203 F 
ATOM     86  F   UNL     1     -13.492   7.423   3.228  1.00  0.00    -0.200 F 
ATOM     87  C   UNL     1     -12.689   7.000   1.049  1.00  0.00     0.200 A 
ATOM     88  F   UNL     1     -11.883   6.521  -1.119  1.00  0.00    -0.200 F 
ATOM     89  F   UNL     1     -13.021   8.241   0.668  1.00  0.00    -0.200 F 
ENDBRANCH  55  79
BRANCH  67  90
ATOM     90  C   UNL     1     -15.706  -1.181   3.808  1.00  0.00     0.064 A 
ATOM     91  C   UNL     1     -16.562  -1.306   2.704  1.00  0.00     0.173 A 
ATOM     92  C   UNL     1     -16.261  -1.314   5.090  1.00  0.00     0.173 A 
ATOM     93  F   UNL     1     -16.081  -1.170   1.458  1.00  0.00    -0.203 F 
ATOM     94  C   UNL     1     -17.924  -1.533   2.878  1.00  0.00     0.198 A 
ATOM     95  C   UNL     1     -17.619  -1.569   5.259  1.00  0.00     0.198 A 
ATOM     96  F   UNL     1     -15.483  -1.209   6.177  1.00  0.00    -0.203 F 
ATOM     97  F   UNL     1     -18.732  -1.604   1.810  1.00  0.00    -0.200 F 
ATOM     98  C   UNL     1     -18.450  -1.671   4.154  1.00  0.00     0.200 A 
ATOM     99  F   UNL     1     -18.123  -1.714   6.492  1.00  0.00    -0.200 F 
ATOM    100  F   UNL     1     -19.761  -1.896   4.319  1.00  0.00    -0.200 F 
ENDBRANCH  67  90
ENDBRANCH  41  42
ENDBRANCH  34  36
ENDBRANCH  33  34
ENDBRANCH  32  33
ENDBRANCH  31  32
ENDBRANCH  30  31
ENDBRANCH  29  30
ENDBRANCH   1  29
TORSDOF 19
