REMARK SMILES CSc1ccc(Cl)c(C(=O)N[C@@H](CO)C(=O)OCCOCCOC(=O)c2ccc(-c3c4nc(c(-c5c(F)c(F)c(F)c(F)c5F)c5ccc([nH]5)c(-c5c(F)c(F)c(F)c(F)c5F)c5nc(c(-c6c(F)c(F)c(F)c(F)c6F)c6ccc3[nH]6)C=C5)C=C4)cc2)c1
REMARK SMILES IDX 19 1 18 2 17 3 15 4 16 5 12 6 11 7 9 8 10 9 8 11 3 12 4 13
REMARK SMILES IDX 89 14 5 15 6 16 7 17 2 18 1 19 13 20 14 21 20 23 21 24 22 25
REMARK SMILES IDX 23 26 24 27 25 28 26 29 27 30 88 31 28 32 87 33 29 34 30 35
REMARK SMILES IDX 31 36 81 37 32 38 86 39 80 40 82 41 33 42 85 43 79 44 78 45
REMARK SMILES IDX 34 47 66 48 46 49 65 50 47 51 50 52 64 53 83 54 48 55 49 56
REMARK SMILES IDX 63 58 84 59 51 60 35 61 36 62 44 63 37 64 38 65 42 66 45 67
REMARK SMILES IDX 39 68 40 69 43 70 41 71 67 72 68 73 76 74 69 75 70 76 74 77
REMARK SMILES IDX 77 78 71 79 72 80 75 81 73 82 52 83 53 84 61 85 54 86 55 87
REMARK SMILES IDX 59 88 62 89 56 90 57 91 60 92 58 93
REMARK H PARENT 11 10 14 22 82 46 50 57
REMARK Flexibility Score: inf
ROOT
ATOM      1  C   UNL     1      -0.900  -2.932  10.628  1.00  0.00     0.202 C 
ENDROOT
BRANCH   1   2
ATOM      2  C   UNL     1       0.501  -3.550  10.671  1.00  0.00     0.261 C 
BRANCH   2   3
ATOM      3  O   UNL     1       1.413  -2.905   9.767  1.00  0.00    -0.462 OA
BRANCH   3   4
ATOM      4  C   UNL     1       2.196  -3.770   9.068  1.00  0.00     0.331 C 
ATOM      5  O   UNL     1       2.337  -4.957   9.350  1.00  0.00    -0.250 OA
BRANCH   4   6
ATOM      6  C   UNL     1       2.776  -3.158   7.783  1.00  0.00     0.218 C 
BRANCH   6   7
ATOM      7  N   UNL     1       2.606  -1.722   7.524  1.00  0.00    -0.337 N 
ATOM      8  C   UNL     1       2.562  -0.978   6.367  1.00  0.00     0.253 C 
ATOM      9  O   UNL     1       2.886   0.206   6.499  1.00  0.00    -0.269 OA
ATOM     10  H   UNL     1       2.503  -1.184   8.341  1.00  0.00     0.164 HD
BRANCH   8  11
ATOM     11  C   UNL     1       1.999  -1.407   5.038  1.00  0.00     0.059 A 
ATOM     12  C   UNL     1       0.745  -0.547   3.080  1.00  0.00     0.008 A 
ATOM     13  C   UNL     1       0.596  -1.842   2.605  1.00  0.00     0.016 A 
ATOM     14  C   UNL     1       1.384  -0.349   4.314  1.00  0.00     0.030 A 
ATOM     15  C   UNL     1       1.241  -2.887   3.256  1.00  0.00     0.022 A 
ATOM     16  C   UNL     1       2.013  -2.658   4.409  1.00  0.00     0.053 A 
ATOM     17  Cl  UNL     1       3.118  -3.939   4.741  1.00  0.00    -0.083 Cl
BRANCH  12  18
ATOM     18  S   UNL     1       0.174   0.851   2.129  1.00  0.00    -0.130 SA
ATOM     19  C   UNL     1       0.849   0.424   0.489  1.00  0.00     0.091 C 
ENDBRANCH  12  18
ENDBRANCH   8  11
ENDBRANCH   6   7
BRANCH   6  20
ATOM     20  C   UNL     1       4.280  -3.479   7.779  1.00  0.00     0.193 C 
BRANCH  20  21
ATOM     21  O   UNL     1       4.957  -2.717   8.786  1.00  0.00    -0.394 OA
ATOM     22  H   UNL     1       4.842  -1.770   8.608  1.00  0.00     0.210 HD
ENDBRANCH  20  21
ENDBRANCH   6  20
ENDBRANCH   4   6
ENDBRANCH   3   4
ENDBRANCH   2   3
ENDBRANCH   1   2
BRANCH   1  23
ATOM     23  O   UNL     1      -1.475  -2.728   9.340  1.00  0.00    -0.374 OA
BRANCH  23  24
ATOM     24  C   UNL     1      -0.896  -1.728   8.499  1.00  0.00     0.202 C 
BRANCH  24  25
ATOM     25  C   UNL     1      -0.884  -0.281   9.016  1.00  0.00     0.261 C 
BRANCH  25  26
ATOM     26  O   UNL     1      -0.059  -0.102  10.185  1.00  0.00    -0.460 OA
BRANCH  26  27
ATOM     27  C   UNL     1      -0.695   0.463  11.242  1.00  0.00     0.338 C 
ATOM     28  O   UNL     1      -1.842   0.874  11.284  1.00  0.00    -0.246 OA
BRANCH  27  29
ATOM     29  C   UNL     1       0.136   0.378  12.457  1.00  0.00     0.060 A 
ATOM     30  C   UNL     1      -0.361  -0.367  13.534  1.00  0.00     0.016 A 
ATOM     31  C   UNL     1       1.296   1.140  12.597  1.00  0.00     0.016 A 
ATOM     32  C   UNL     1       0.277  -0.316  14.772  1.00  0.00     0.010 A 
ATOM     33  C   UNL     1       1.930   1.200  13.844  1.00  0.00     0.010 A 
ATOM     34  C   UNL     1       1.401   0.503  14.947  1.00  0.00    -0.014 A 
BRANCH  34  35
ATOM     35  C   UNL     1       1.913   0.744  16.319  1.00  0.00     0.031 A 
ATOM     36  C   UNL     1       1.465   1.972  17.064  1.00  0.00     0.074 A 
ATOM     37  C   UNL     1       2.728  -0.144  16.915  1.00  0.00     0.049 A 
ATOM     38  N   UNL     1       1.767   2.367  18.275  1.00  0.00    -0.248 NA
ATOM     39  C   UNL     1       0.551   2.875  16.347  1.00  0.00     0.031 C 
ATOM     40  C   UNL     1       3.208  -1.385  16.312  1.00  0.00     0.029 A 
ATOM     41  N   UNL     1       3.294  -0.134  18.165  1.00  0.00    -0.354 N 
ATOM     42  C   UNL     1       1.081   3.559  18.466  1.00  0.00     0.074 A 
ATOM     43  C   UNL     1       0.371   3.841  17.237  1.00  0.00     0.031 C 
ATOM     44  C   UNL     1       4.005  -2.016  17.192  1.00  0.00     0.029 A 
ATOM     45  C   UNL     1       4.104  -1.214  18.410  1.00  0.00     0.049 A 
ATOM     46  H   UNL     1       3.134   0.581  18.824  1.00  0.00     0.167 HD
ATOM     47  C   UNL     1       1.040   4.344  19.569  1.00  0.00     0.037 A 
ATOM     48  C   UNL     1       4.849  -1.514  19.492  1.00  0.00     0.037 A 
ATOM     49  C   UNL     1       1.744   4.068  20.793  1.00  0.00     0.049 A 
ATOM     50  C   UNL     1       4.825  -0.598  20.688  1.00  0.00     0.074 A 
ATOM     51  C   UNL     1       1.751   4.796  21.970  1.00  0.00     0.029 A 
ATOM     52  N   UNL     1       2.576   2.977  20.993  1.00  0.00    -0.354 N 
ATOM     53  N   UNL     1       4.149   0.510  20.870  1.00  0.00    -0.248 NA
ATOM     54  C   UNL     1       5.664  -0.981  21.833  1.00  0.00     0.031 C 
ATOM     55  C   UNL     1       2.618   4.167  22.869  1.00  0.00     0.029 A 
ATOM     56  C   UNL     1       3.117   3.023  22.268  1.00  0.00     0.049 A 
ATOM     57  H   UNL     1       2.755   2.273  20.328  1.00  0.00     0.167 HD
ATOM     58  C   UNL     1       4.458   0.941  22.154  1.00  0.00     0.074 A 
ATOM     59  C   UNL     1       5.375  -0.031  22.711  1.00  0.00     0.031 C 
ATOM     60  C   UNL     1       4.022   2.043  22.811  1.00  0.00     0.037 A 
BRANCH  47  61
ATOM     61  C   UNL     1       0.214   5.594  19.494  1.00  0.00     0.064 A 
ATOM     62  C   UNL     1      -1.188   5.551  19.516  1.00  0.00     0.173 A 
ATOM     63  C   UNL     1       0.833   6.852  19.434  1.00  0.00     0.173 A 
ATOM     64  F   UNL     1      -1.826   4.372  19.560  1.00  0.00    -0.203 F 
ATOM     65  C   UNL     1      -1.941   6.721  19.457  1.00  0.00     0.198 A 
ATOM     66  C   UNL     1       0.077   8.021  19.400  1.00  0.00     0.198 A 
ATOM     67  F   UNL     1       2.170   6.947  19.415  1.00  0.00    -0.203 F 
ATOM     68  F   UNL     1      -3.279   6.655  19.439  1.00  0.00    -0.200 F 
ATOM     69  C   UNL     1      -1.308   7.954  19.405  1.00  0.00     0.200 A 
ATOM     70  F   UNL     1       0.690   9.212  19.359  1.00  0.00    -0.200 F 
ATOM     71  F   UNL     1      -2.034   9.080  19.354  1.00  0.00    -0.200 F 
ENDBRANCH  47  61
BRANCH  48  72
ATOM     72  C   UNL     1       5.685  -2.741  19.496  1.00  0.00     0.064 A 
ATOM     73  C   UNL     1       5.364  -3.833  20.314  1.00  0.00     0.173 A 
ATOM     74  C   UNL     1       6.832  -2.838  18.695  1.00  0.00     0.173 A 
ATOM     75  F   UNL     1       4.293  -3.775  21.118  1.00  0.00    -0.203 F 
ATOM     76  C   UNL     1       6.168  -4.971  20.341  1.00  0.00     0.198 A 
ATOM     77  C   UNL     1       7.621  -3.986  18.704  1.00  0.00     0.198 A 
ATOM     78  F   UNL     1       7.184  -1.818  17.899  1.00  0.00    -0.203 F 
ATOM     79  F   UNL     1       5.863  -5.984  21.164  1.00  0.00    -0.200 F 
ATOM     80  C   UNL     1       7.292  -5.049  19.532  1.00  0.00     0.200 A 
ATOM     81  F   UNL     1       8.702  -4.060  17.917  1.00  0.00    -0.200 F 
ATOM     82  F   UNL     1       8.064  -6.144  19.559  1.00  0.00    -0.200 F 
ENDBRANCH  48  72
BRANCH  60  83
ATOM     83  C   UNL     1       4.503   2.240  24.219  1.00  0.00     0.064 A 
ATOM     84  C   UNL     1       5.819   2.637  24.498  1.00  0.00     0.173 A 
ATOM     85  C   UNL     1       3.626   2.065  25.300  1.00  0.00     0.173 A 
ATOM     86  F   UNL     1       6.699   2.804  23.500  1.00  0.00    -0.203 F 
ATOM     87  C   UNL     1       6.246   2.827  25.810  1.00  0.00     0.198 A 
ATOM     88  C   UNL     1       4.049   2.281  26.609  1.00  0.00     0.198 A 
ATOM     89  F   UNL     1       2.355   1.692  25.087  1.00  0.00    -0.203 F 
ATOM     90  F   UNL     1       7.520   3.163  26.056  1.00  0.00    -0.200 F 
ATOM     91  C   UNL     1       5.360   2.655  26.863  1.00  0.00     0.200 A 
ATOM     92  F   UNL     1       3.188   2.125  27.625  1.00  0.00    -0.200 F 
ATOM     93  F   UNL     1       5.772   2.842  28.125  1.00  0.00    -0.200 F 
ENDBRANCH  60  83
ENDBRANCH  34  35
ENDBRANCH  27  29
ENDBRANCH  26  27
ENDBRANCH  25  26
ENDBRANCH  24  25
ENDBRANCH  23  24
ENDBRANCH   1  23
TORSDOF 19
