REMARK SMILES O=C(OCCOCCOC(=O)c1ccc(-c2c3nc(c(-c4c(F)c(F)c(F)c(F)c4F)c4ccc([nH]4)c(-c4c(F)c(F)c(F)c(F)c4F)c4nc(c(-c5c(F)c(F)c(F)c(F)c5F)c5ccc2[nH]5)C=C4)C=C3)cc1)C1=Cc2cc(Cl)cc(Cl)c2O[C@@H]1C(F)(F)F
REMARK SMILES IDX 7 1 6 2 5 3 4 4 3 5 2 6 1 7 75 8 76 9 86 10 77 11 85 12
REMARK SMILES IDX 78 13 84 14 79 15 82 16 80 17 81 18 83 19 87 20 88 21 89 22
REMARK SMILES IDX 90 23 8 24 9 25 10 26 11 27 12 28 13 29 74 30 14 31 73 32
REMARK SMILES IDX 15 33 16 34 17 35 67 36 18 37 72 38 66 39 68 40 19 41 71 42
REMARK SMILES IDX 65 43 64 44 20 46 52 47 32 48 51 49 33 50 36 51 50 52 69 53
REMARK SMILES IDX 34 54 35 55 49 57 70 58 37 59 21 60 22 61 30 62 23 63 24 64
REMARK SMILES IDX 28 65 31 66 25 67 26 68 29 69 27 70 53 71 54 72 62 73 55 74
REMARK SMILES IDX 56 75 60 76 63 77 57 78 58 79 61 80 59 81 38 82 39 83 47 84
REMARK SMILES IDX 40 85 41 86 45 87 48 88 42 89 43 90 46 91 44 92
REMARK H PARENT 68 45 36 56
REMARK Flexibility Score: inf
ROOT
ATOM      1  C   UNL     1       2.829   0.593   2.923  1.00  0.00     0.202 C 
ENDROOT
BRANCH   1   2
ATOM      2  O   UNL     1       3.941  -0.146   2.403  1.00  0.00    -0.374 OA
BRANCH   2   3
ATOM      3  C   UNL     1       4.409  -0.600   0.963  1.00  0.00     0.202 C 
BRANCH   3   4
ATOM      4  C   UNL     1       3.518  -0.435  -1.023  1.00  0.00     0.261 C 
BRANCH   4   5
ATOM      5  O   UNL     1       2.601  -1.450  -1.707  1.00  0.00    -0.460 OA
BRANCH   5   6
ATOM      6  C   UNL     1       2.812  -2.702  -1.291  1.00  0.00     0.338 C 
ATOM      7  O   UNL     1       2.202  -3.706  -1.552  1.00  0.00    -0.246 OA
BRANCH   6   8
ATOM      8  C   UNL     1       3.694  -2.348  -0.197  1.00  0.00     0.087 C 
ATOM      9  C   UNL     1       5.068  -2.028  -0.678  1.00  0.00     0.027 C 
ATOM     10  C   UNL     1       2.488  -1.067   0.613  1.00  0.00     0.316 C 
ATOM     11  C   UNL     1       5.736  -0.336  -0.765  1.00  0.00     0.020 A 
ATOM     12  O   UNL     1       3.152   0.737   0.467  1.00  0.00    -0.474 OA
ATOM     13  C   UNL     1       6.931  -0.116  -1.395  1.00  0.00     0.032 A 
ATOM     14  C   UNL     1       4.771   1.040  -0.321  1.00  0.00     0.146 A 
ATOM     15  C   UNL     1       7.213   1.233  -1.685  1.00  0.00     0.043 A 
ATOM     16  C   UNL     1       5.053   2.280  -0.820  1.00  0.00     0.085 A 
ATOM     17  Cl  UNL     1       8.732   1.567  -2.455  1.00  0.00    -0.084 Cl
ATOM     18  C   UNL     1       6.311   2.353  -1.465  1.00  0.00     0.045 A 
ATOM     19  Cl  UNL     1       3.883   3.504  -1.008  1.00  0.00    -0.080 Cl
BRANCH  10  20
ATOM     20  C   UNL     1       2.054  -1.922   1.877  1.00  0.00     0.430 C 
ATOM     21  F   UNL     1       1.181  -1.331   2.710  1.00  0.00    -0.167 F 
ATOM     22  F   UNL     1       1.394  -3.023   1.404  1.00  0.00    -0.167 F 
ATOM     23  F   UNL     1       3.081  -2.429   2.596  1.00  0.00    -0.167 F 
ENDBRANCH  10  20
ENDBRANCH   6   8
ENDBRANCH   5   6
ENDBRANCH   4   5
ENDBRANCH   3   4
ENDBRANCH   2   3
ENDBRANCH   1   2
BRANCH   1  24
ATOM     24  C   UNL     1       3.059   1.960   3.537  1.00  0.00     0.261 C 
BRANCH  24  25
ATOM     25  O   UNL     1       3.595   2.887   2.616  1.00  0.00    -0.460 OA
BRANCH  25  26
ATOM     26  C   UNL     1       4.920   3.103   2.749  1.00  0.00     0.338 C 
ATOM     27  O   UNL     1       5.731   2.461   3.388  1.00  0.00    -0.246 OA
BRANCH  26  28
ATOM     28  C   UNL     1       5.234   4.292   1.946  1.00  0.00     0.060 A 
ATOM     29  C   UNL     1       6.473   4.352   1.301  1.00  0.00     0.016 A 
ATOM     30  C   UNL     1       4.278   5.305   1.785  1.00  0.00     0.016 A 
ATOM     31  C   UNL     1       6.740   5.414   0.444  1.00  0.00     0.010 A 
ATOM     32  C   UNL     1       4.544   6.363   0.932  1.00  0.00     0.010 A 
ATOM     33  C   UNL     1       5.780   6.421   0.271  1.00  0.00    -0.014 A 
BRANCH  33  34
ATOM     34  C   UNL     1       6.149   7.692  -0.369  1.00  0.00     0.031 A 
ATOM     35  C   UNL     1       6.624   8.778   0.541  1.00  0.00     0.074 A 
ATOM     36  C   UNL     1       6.000   7.885  -1.688  1.00  0.00     0.049 A 
ATOM     37  N   UNL     1       6.911  10.021   0.274  1.00  0.00    -0.248 NA
ATOM     38  C   UNL     1       6.776   8.409   1.961  1.00  0.00     0.031 C 
ATOM     39  C   UNL     1       5.556   6.880  -2.649  1.00  0.00     0.029 A 
ATOM     40  N   UNL     1       6.187   9.016  -2.439  1.00  0.00    -0.354 N 
ATOM     41  C   UNL     1       7.275  10.580   1.489  1.00  0.00     0.074 A 
ATOM     42  C   UNL     1       7.125   9.562   2.501  1.00  0.00     0.031 C 
ATOM     43  C   UNL     1       5.489   7.445  -3.868  1.00  0.00     0.029 A 
ATOM     44  C   UNL     1       5.848   8.858  -3.759  1.00  0.00     0.049 A 
ATOM     45  H   UNL     1       6.531   9.860  -2.067  1.00  0.00     0.167 HD
ATOM     46  C   UNL     1       7.704  11.838   1.732  1.00  0.00     0.037 A 
ATOM     47  C   UNL     1       5.808   9.771  -4.749  1.00  0.00     0.037 A 
ATOM     48  C   UNL     1       7.798  12.847   0.717  1.00  0.00     0.049 A 
ATOM     49  C   UNL     1       6.207  11.193  -4.439  1.00  0.00     0.074 A 
ATOM     50  C   UNL     1       8.217  14.157   0.840  1.00  0.00     0.029 A 
ATOM     51  N   UNL     1       7.436  12.659  -0.612  1.00  0.00    -0.354 N 
ATOM     52  N   UNL     1       6.594  11.716  -3.299  1.00  0.00    -0.248 NA
ATOM     53  C   UNL     1       6.167  12.151  -5.552  1.00  0.00     0.031 C 
ATOM     54  C   UNL     1       8.032  14.784  -0.396  1.00  0.00     0.029 A 
ATOM     55  C   UNL     1       7.591  13.841  -1.313  1.00  0.00     0.049 A 
ATOM     56  H   UNL     1       7.117  11.810  -0.996  1.00  0.00     0.167 HD
ATOM     57  C   UNL     1       6.886  13.049  -3.565  1.00  0.00     0.074 A 
ATOM     58  C   UNL     1       6.627  13.254  -4.976  1.00  0.00     0.031 C 
ATOM     59  C   UNL     1       7.340  14.011  -2.724  1.00  0.00     0.037 A 
BRANCH  46  60
ATOM     60  C   UNL     1       8.032  12.179   3.155  1.00  0.00     0.064 A 
ATOM     61  C   UNL     1       9.100  11.572   3.838  1.00  0.00     0.173 A 
ATOM     62  C   UNL     1       7.236  13.091   3.863  1.00  0.00     0.173 A 
ATOM     63  F   UNL     1       9.877  10.672   3.215  1.00  0.00    -0.203 F 
ATOM     64  C   UNL     1       9.324  11.828   5.188  1.00  0.00     0.198 A 
ATOM     65  C   UNL     1       7.491  13.377   5.201  1.00  0.00     0.198 A 
ATOM     66  F   UNL     1       6.199  13.694   3.263  1.00  0.00    -0.203 F 
ATOM     67  F   UNL     1      10.293  11.170   5.840  1.00  0.00    -0.200 F 
ATOM     68  C   UNL     1       8.524  12.734   5.866  1.00  0.00     0.200 A 
ATOM     69  F   UNL     1       6.724  14.261   5.851  1.00  0.00    -0.200 F 
ATOM     70  F   UNL     1       8.737  12.974   7.167  1.00  0.00    -0.200 F 
ENDBRANCH  46  60
BRANCH  47  71
ATOM     71  C   UNL     1       5.380   9.369  -6.114  1.00  0.00     0.064 A 
ATOM     72  C   UNL     1       6.283   9.368  -7.186  1.00  0.00     0.173 A 
ATOM     73  C   UNL     1       4.058   8.978  -6.379  1.00  0.00     0.173 A 
ATOM     74  F   UNL     1       7.553   9.753  -6.992  1.00  0.00    -0.203 F 
ATOM     75  C   UNL     1       5.878   9.009  -8.471  1.00  0.00     0.198 A 
ATOM     76  C   UNL     1       3.662   8.589  -7.657  1.00  0.00     0.198 A 
ATOM     77  F   UNL     1       3.152   8.960  -5.390  1.00  0.00    -0.203 F 
ATOM     78  F   UNL     1       6.753   9.062  -9.486  1.00  0.00    -0.200 F 
ATOM     79  C   UNL     1       4.570   8.613  -8.704  1.00  0.00     0.200 A 
ATOM     80  F   UNL     1       2.400   8.193  -7.874  1.00  0.00    -0.200 F 
ATOM     81  F   UNL     1       4.184   8.261  -9.938  1.00  0.00    -0.200 F 
ENDBRANCH  47  71
BRANCH  59  82
ATOM     82  C   UNL     1       7.659  15.359  -3.308  1.00  0.00     0.064 A 
ATOM     83  C   UNL     1       6.662  16.238  -3.751  1.00  0.00     0.173 A 
ATOM     84  C   UNL     1       8.990  15.808  -3.334  1.00  0.00     0.173 A 
ATOM     85  F   UNL     1       5.376  15.855  -3.755  1.00  0.00    -0.203 F 
ATOM     86  C   UNL     1       6.987  17.510  -4.216  1.00  0.00     0.198 A 
ATOM     87  C   UNL     1       9.306  17.093  -3.762  1.00  0.00     0.198 A 
ATOM     88  F   UNL     1       9.982  15.010  -2.911  1.00  0.00    -0.203 F 
ATOM     89  F   UNL     1       6.022  18.319  -4.675  1.00  0.00    -0.200 F 
ATOM     90  C   UNL     1       8.305  17.941  -4.209  1.00  0.00     0.200 A 
ATOM     91  F   UNL     1      10.578  17.514  -3.729  1.00  0.00    -0.200 F 
ATOM     92  F   UNL     1       8.612  19.174  -4.634  1.00  0.00    -0.200 F 
ENDBRANCH  59  82
ENDBRANCH  33  34
ENDBRANCH  26  28
ENDBRANCH  25  26
ENDBRANCH  24  25
ENDBRANCH   1  24
TORSDOF 15
