REMARK SMILES Cc1noc(C)c1C[NH2+][C@H](C)[C@H](C)C(=O)OCCOCCOC(=O)c1ccc(-c2c3nc(c(-c4c(F)c(F)c(F)c(F)c4F)c4ccc([nH]4)c(-c4c(F)c(F)c(F)c(F)c4F)c4nc(c(-c5c(F)c(F)c(F)c(F)c5F)c5ccc2[nH]5)C=C4)C=C3)cc1
REMARK SMILES IDX 18 1 17 2 16 3 14 4 15 5 12 6 13 7 10 8 11 9 9 10 8 13 7 14
REMARK SMILES IDX 1 15 2 16 3 17 4 18 5 19 6 20 19 21 20 22 21 23 22 24 23 25
REMARK SMILES IDX 24 26 25 27 26 28 87 29 27 30 86 31 28 32 29 33 30 34 80 35
REMARK SMILES IDX 31 36 85 37 79 38 81 39 32 40 84 41 78 42 77 43 33 45 65 46
REMARK SMILES IDX 45 47 64 48 46 49 49 50 63 51 82 52 47 53 48 54 62 56 83 57
REMARK SMILES IDX 50 58 34 59 35 60 43 61 36 62 37 63 41 64 44 65 38 66 39 67
REMARK SMILES IDX 42 68 40 69 66 70 67 71 75 72 68 73 69 74 73 75 76 76 70 77
REMARK SMILES IDX 71 78 74 79 72 80 51 81 52 82 60 83 53 84 54 85 58 86 61 87
REMARK SMILES IDX 55 88 56 89 59 90 57 91
REMARK H PARENT 9 11 9 12 81 44 49 55
REMARK Flexibility Score: inf
ROOT
ATOM      1  C   UNL     1      -0.938   9.292  -1.851  1.00  0.00     0.202 C 
ENDROOT
BRANCH   1   2
ATOM      2  C   UNL     1      -2.233   8.644  -2.349  1.00  0.00     0.261 C 
BRANCH   2   3
ATOM      3  O   UNL     1      -2.279   7.240  -2.036  1.00  0.00    -0.463 OA
BRANCH   3   4
ATOM      4  C   UNL     1      -2.057   6.405  -3.082  1.00  0.00     0.314 C 
ATOM      5  O   UNL     1      -1.905   6.761  -4.245  1.00  0.00    -0.252 OA
BRANCH   4   6
ATOM      6  C   UNL     1      -2.021   4.941  -2.678  1.00  0.00     0.154 C 
ATOM      7  C   UNL     1      -1.268   4.693  -1.356  1.00  0.00     0.026 C 
BRANCH   6   8
ATOM      8  C   UNL     1      -3.429   4.290  -2.685  1.00  0.00     0.193 C 
ATOM      9  C   UNL     1      -4.415   4.965  -3.654  1.00  0.00     0.076 C 
BRANCH   8  10
ATOM     10  N   UNL     1      -3.491   2.844  -2.978  1.00  0.00    -0.339 N 
ATOM     11  H   UNL     1      -4.232   2.451  -2.398  1.00  0.00     0.346 HD
ATOM     12  H   UNL     1      -3.636   2.802  -3.987  1.00  0.00     0.346 HD
BRANCH  10  13
ATOM     13  C   UNL     1      -2.303   2.034  -2.760  1.00  0.00     0.303 C 
BRANCH  13  14
ATOM     14  C   UNL     1      -2.656   0.628  -3.083  1.00  0.00     0.071 A 
ATOM     15  C   UNL     1      -4.259   0.053  -1.110  1.00  0.00     0.071 C 
ATOM     16  C   UNL     1      -3.509  -0.244  -2.353  1.00  0.00     0.090 A 
ATOM     17  N   UNL     1      -3.594  -1.447  -2.931  1.00  0.00    -0.085 NA
ATOM     18  O   UNL     1      -2.799  -1.378  -4.059  1.00  0.00    -0.361 OA
ATOM     19  C   UNL     1      -2.242  -0.142  -4.150  1.00  0.00     0.142 A 
ATOM     20  C   UNL     1      -1.362   0.096  -5.310  1.00  0.00     0.091 C 
ENDBRANCH  13  14
ENDBRANCH  10  13
ENDBRANCH   8  10
ENDBRANCH   6   8
ENDBRANCH   4   6
ENDBRANCH   3   4
ENDBRANCH   2   3
ENDBRANCH   1   2
BRANCH   1  21
ATOM     21  O   UNL     1       0.252   8.951  -2.560  1.00  0.00    -0.374 OA
BRANCH  21  22
ATOM     22  C   UNL     1       0.892   7.723  -2.218  1.00  0.00     0.202 C 
BRANCH  22  23
ATOM     23  C   UNL     1       1.746   7.739  -0.945  1.00  0.00     0.261 C 
BRANCH  23  24
ATOM     24  O   UNL     1       0.948   7.960   0.233  1.00  0.00    -0.460 OA
BRANCH  24  25
ATOM     25  C   UNL     1       1.173   9.144   0.848  1.00  0.00     0.338 C 
ATOM     26  O   UNL     1       2.041   9.964   0.582  1.00  0.00    -0.246 OA
BRANCH  25  27
ATOM     27  C   UNL     1       0.101   9.436   1.819  1.00  0.00     0.060 A 
ATOM     28  C   UNL     1      -0.508  10.694   1.730  1.00  0.00     0.016 A 
ATOM     29  C   UNL     1      -0.242   8.553   2.845  1.00  0.00     0.016 A 
ATOM     30  C   UNL     1      -1.410  11.102   2.708  1.00  0.00     0.010 A 
ATOM     31  C   UNL     1      -1.147   8.967   3.832  1.00  0.00     0.010 A 
ATOM     32  C   UNL     1      -1.698  10.261   3.791  1.00  0.00    -0.014 A 
BRANCH  32  33
ATOM     33  C   UNL     1      -2.444  10.822   4.944  1.00  0.00     0.031 A 
ATOM     34  C   UNL     1      -1.675  11.335   6.131  1.00  0.00     0.074 A 
ATOM     35  C   UNL     1      -3.781  10.954   4.900  1.00  0.00     0.049 A 
ATOM     36  N   UNL     1      -2.112  11.942   7.206  1.00  0.00    -0.248 NA
ATOM     37  C   UNL     1      -0.217  11.141   6.101  1.00  0.00     0.031 C 
ATOM     38  C   UNL     1      -4.635  10.522   3.796  1.00  0.00     0.029 A 
ATOM     39  N   UNL     1      -4.652  11.503   5.807  1.00  0.00    -0.354 N 
ATOM     40  C   UNL     1      -0.985  12.208   7.973  1.00  0.00     0.074 A 
ATOM     41  C   UNL     1       0.151  11.664   7.261  1.00  0.00     0.031 C 
ATOM     42  C   UNL     1      -5.911  10.826   4.089  1.00  0.00     0.029 A 
ATOM     43  C   UNL     1      -5.963  11.461   5.405  1.00  0.00     0.049 A 
ATOM     44  H   UNL     1      -4.364  11.890   6.665  1.00  0.00     0.167 HD
ATOM     45  C   UNL     1      -0.901  12.862   9.156  1.00  0.00     0.037 A 
ATOM     46  C   UNL     1      -7.078  11.886   6.030  1.00  0.00     0.037 A 
ATOM     47  C   UNL     1      -2.028  13.405   9.867  1.00  0.00     0.049 A 
ATOM     48  C   UNL     1      -6.963  12.568   7.369  1.00  0.00     0.074 A 
ATOM     49  C   UNL     1      -2.043  14.098  11.065  1.00  0.00     0.029 A 
ATOM     50  N   UNL     1      -3.346  13.309   9.446  1.00  0.00    -0.354 N 
ATOM     51  N   UNL     1      -5.889  12.849   8.067  1.00  0.00    -0.248 NA
ATOM     52  C   UNL     1      -8.217  13.004   7.998  1.00  0.00     0.031 C 
ATOM     53  C   UNL     1      -3.374  14.384  11.390  1.00  0.00     0.029 A 
ATOM     54  C   UNL     1      -4.184  13.910  10.371  1.00  0.00     0.049 A 
ATOM     55  H   UNL     1      -3.642  12.877   8.612  1.00  0.00     0.167 HD
ATOM     56  C   UNL     1      -6.335  13.511   9.204  1.00  0.00     0.074 A 
ATOM     57  C   UNL     1      -7.775  13.609   9.092  1.00  0.00     0.031 C 
ATOM     58  C   UNL     1      -5.617  13.996  10.247  1.00  0.00     0.037 A 
BRANCH  45  59
ATOM     59  C   UNL     1       0.461  13.011   9.766  1.00  0.00     0.064 A 
ATOM     60  C   UNL     1       1.411  13.897   9.236  1.00  0.00     0.173 A 
ATOM     61  C   UNL     1       0.811  12.280  10.911  1.00  0.00     0.173 A 
ATOM     62  F   UNL     1       1.130  14.607   8.133  1.00  0.00    -0.203 F 
ATOM     63  C   UNL     1       2.670  14.028   9.816  1.00  0.00     0.198 A 
ATOM     64  C   UNL     1       2.062  12.432  11.504  1.00  0.00     0.198 A 
ATOM     65  F   UNL     1      -0.062  11.421  11.458  1.00  0.00    -0.203 F 
ATOM     66  F   UNL     1       3.578  14.848   9.268  1.00  0.00    -0.200 F 
ATOM     67  C   UNL     1       2.992  13.301  10.952  1.00  0.00     0.200 A 
ATOM     68  F   UNL     1       2.368  11.736  12.607  1.00  0.00    -0.200 F 
ATOM     69  F   UNL     1       4.203  13.431  11.512  1.00  0.00    -0.200 F 
ENDBRANCH  45  59
BRANCH  46  70
ATOM     70  C   UNL     1      -8.405  11.688   5.394  1.00  0.00     0.064 A 
ATOM     71  C   UNL     1      -9.146  12.774   4.908  1.00  0.00     0.173 A 
ATOM     72  C   UNL     1      -8.967  10.409   5.278  1.00  0.00     0.173 A 
ATOM     73  F   UNL     1      -8.661  14.019   5.020  1.00  0.00    -0.203 F 
ATOM     74  C   UNL     1     -10.407  12.589   4.345  1.00  0.00     0.198 A 
ATOM     75  C   UNL     1     -10.217  10.222   4.691  1.00  0.00     0.198 A 
ATOM     76  F   UNL     1      -8.299   9.338   5.731  1.00  0.00    -0.203 F 
ATOM     77  F   UNL     1     -11.114  13.648   3.928  1.00  0.00    -0.200 F 
ATOM     78  C   UNL     1     -10.939  11.313   4.232  1.00  0.00     0.200 A 
ATOM     79  F   UNL     1     -10.722   8.987   4.575  1.00  0.00    -0.200 F 
ATOM     80  F   UNL     1     -12.151  11.136   3.688  1.00  0.00    -0.200 F 
ENDBRANCH  46  70
BRANCH  58  81
ATOM     81  C   UNL     1      -6.378  14.694  11.337  1.00  0.00     0.064 A 
ATOM     82  C   UNL     1      -7.192  13.986  12.233  1.00  0.00     0.173 A 
ATOM     83  C   UNL     1      -6.277  16.084  11.498  1.00  0.00     0.173 A 
ATOM     84  F   UNL     1      -7.333  12.657  12.112  1.00  0.00    -0.203 F 
ATOM     85  C   UNL     1      -7.904  14.648  13.230  1.00  0.00     0.198 A 
ATOM     86  C   UNL     1      -6.967  16.739  12.514  1.00  0.00     0.198 A 
ATOM     87  F   UNL     1      -5.506  16.806  10.672  1.00  0.00    -0.203 F 
ATOM     88  F   UNL     1      -8.718  13.958  14.041  1.00  0.00    -0.200 F 
ATOM     89  C   UNL     1      -7.787  16.023  13.373  1.00  0.00     0.200 A 
ATOM     90  F   UNL     1      -6.845  18.066  12.658  1.00  0.00    -0.200 F 
ATOM     91  F   UNL     1      -8.474  16.659  14.332  1.00  0.00    -0.200 F 
ENDBRANCH  58  81
ENDBRANCH  32  33
ENDBRANCH  25  27
ENDBRANCH  24  25
ENDBRANCH  23  24
ENDBRANCH  22  23
ENDBRANCH  21  22
ENDBRANCH   1  21
TORSDOF 18
