REMARK SMILES Cc1c(CC(=O)N[C@H](CO)C(=O)OCCOCCOC(=O)c2ccc(-c3c4nc(c(-c5c(F)c(F)c(F)c(F)c5F)c5ccc([nH]5)c(-c5c(F)c(F)c(F)c(F)c5F)c5nc(c(-c6c(F)c(F)c(F)c(F)c6F)c6ccc3[nH]6)C=C5)C=C4)cc2)cc(-c2ccc(S(C)(=O)=O)cc2)n1-c1ccc(F)cc1
REMARK SMILES IDX 14 1 13 2 11 3 12 4 8 5 7 6 5 7 6 8 4 10 3 11 1 12 2 13
REMARK SMILES IDX 97 14 85 15 86 16 98 17 99 18 104 19 100 20 103 21 101 22
REMARK SMILES IDX 102 23 87 24 88 25 96 26 89 27 95 28 90 29 91 30 92 31 93 32
REMARK SMILES IDX 94 33 9 34 10 35 15 37 16 38 17 39 18 40 19 41 20 42 21 43
REMARK SMILES IDX 22 44 23 45 84 46 24 47 83 48 25 49 26 50 27 51 77 52 28 53
REMARK SMILES IDX 82 54 76 55 78 56 29 57 81 58 75 59 74 60 30 62 62 63 42 64
REMARK SMILES IDX 61 65 43 66 46 67 60 68 79 69 44 70 45 71 59 73 80 74 47 75
REMARK SMILES IDX 31 76 32 77 40 78 33 79 34 80 38 81 41 82 35 83 36 84 39 85
REMARK SMILES IDX 37 86 63 87 64 88 72 89 65 90 66 91 70 92 73 93 67 94 68 95
REMARK SMILES IDX 71 96 69 97 48 98 49 99 57 100 50 101 51 102 55 103 58 104
REMARK SMILES IDX 52 105 53 106 56 107 54 108
REMARK H PARENT 7 9 10 36 78 61 46 72
REMARK Flexibility Score: inf
ROOT
ATOM      1  C   UNL     1      -2.879  -6.793  -2.677  1.00  0.00     0.261 C 
ENDROOT
BRANCH   1   2
ATOM      2  O   UNL     1      -2.424  -5.455  -2.386  1.00  0.00    -0.462 OA
BRANCH   2   3
ATOM      3  C   UNL     1      -2.204  -5.170  -1.073  1.00  0.00     0.331 C 
ATOM      4  O   UNL     1      -2.511  -5.915  -0.147  1.00  0.00    -0.250 OA
BRANCH   3   5
ATOM      5  C   UNL     1      -1.641  -3.754  -0.836  1.00  0.00     0.218 C 
BRANCH   5   6
ATOM      6  N   UNL     1      -2.671  -2.949  -0.173  1.00  0.00    -0.341 N 
ATOM      7  C   UNL     1      -2.576  -1.693   0.349  1.00  0.00     0.225 C 
ATOM      8  O   UNL     1      -3.607  -1.181   0.794  1.00  0.00    -0.275 OA
ATOM      9  H   UNL     1      -3.555  -3.375  -0.094  1.00  0.00     0.164 HD
BRANCH   7  10
ATOM     10  C   UNL     1      -1.245  -0.950   0.378  1.00  0.00     0.137 C 
BRANCH  10  11
ATOM     11  C   UNL     1      -0.237  -1.597   1.285  1.00  0.00    -0.017 A 
ATOM     12  C   UNL     1      -1.603  -1.554   3.476  1.00  0.00     0.065 C 
ATOM     13  C   UNL     1      -0.416  -1.894   2.630  1.00  0.00     0.024 A 
ATOM     14  N   UNL     1       0.743  -2.488   3.110  1.00  0.00    -0.314 N 
ATOM     15  C   UNL     1       1.093  -1.974   0.960  1.00  0.00     0.033 A 
ATOM     16  C   UNL     1       1.686  -2.534   2.080  1.00  0.00     0.053 A 
BRANCH  14  17
ATOM     17  C   UNL     1       0.945  -2.963   4.434  1.00  0.00     0.046 A 
ATOM     18  C   UNL     1       2.082  -2.562   5.149  1.00  0.00     0.029 A 
ATOM     19  C   UNL     1       0.038  -3.877   4.984  1.00  0.00     0.029 A 
ATOM     20  C   UNL     1       2.318  -3.091   6.416  1.00  0.00     0.041 A 
ATOM     21  C   UNL     1       0.290  -4.410   6.248  1.00  0.00     0.041 A 
ATOM     22  C   UNL     1       1.426  -4.016   6.949  1.00  0.00     0.123 A 
ATOM     23  F   UNL     1       1.671  -4.542   8.156  1.00  0.00    -0.207 F 
ENDBRANCH  14  17
BRANCH  16  24
ATOM     24  C   UNL     1       3.027  -3.130   2.198  1.00  0.00    -0.001 A 
ATOM     25  C   UNL     1       3.195  -4.456   2.631  1.00  0.00     0.011 A 
ATOM     26  C   UNL     1       4.163  -2.359   1.919  1.00  0.00     0.011 A 
ATOM     27  C   UNL     1       4.473  -4.985   2.838  1.00  0.00     0.021 A 
ATOM     28  C   UNL     1       5.445  -2.882   2.121  1.00  0.00     0.021 A 
ATOM     29  C   UNL     1       5.592  -4.185   2.600  1.00  0.00     0.067 A 
BRANCH  29  30
ATOM     30  S   UNL     1       7.211  -4.873   2.868  1.00  0.00     0.175 S 
ATOM     31  C   UNL     1       7.302  -5.114   4.624  1.00  0.00     0.163 C 
ATOM     32  O   UNL     1       7.247  -6.147   2.222  1.00  0.00    -0.224 OA
ATOM     33  O   UNL     1       8.185  -3.825   2.532  1.00  0.00    -0.224 OA
ENDBRANCH  29  30
ENDBRANCH  16  24
ENDBRANCH  10  11
ENDBRANCH   7  10
ENDBRANCH   5   6
BRANCH   5  34
ATOM     34  C   UNL     1      -1.048  -3.063  -2.072  1.00  0.00     0.193 C 
BRANCH  34  35
ATOM     35  O   UNL     1      -1.975  -2.232  -2.767  1.00  0.00    -0.394 OA
ATOM     36  H   UNL     1      -2.709  -2.772  -3.098  1.00  0.00     0.210 HD
ENDBRANCH  34  35
ENDBRANCH   5  34
ENDBRANCH   3   5
ENDBRANCH   2   3
ENDBRANCH   1   2
BRANCH   1  37
ATOM     37  C   UNL     1      -2.309  -7.347  -4.000  1.00  0.00     0.202 C 
BRANCH  37  38
ATOM     38  O   UNL     1      -0.901  -7.239  -4.170  1.00  0.00    -0.374 OA
BRANCH  38  39
ATOM     39  C   UNL     1      -0.428  -5.954  -4.586  1.00  0.00     0.202 C 
BRANCH  39  40
ATOM     40  C   UNL     1      -0.530  -5.548  -6.100  1.00  0.00     0.261 C 
BRANCH  40  41
ATOM     41  O   UNL     1      -1.716  -4.797  -6.651  1.00  0.00    -0.460 OA
BRANCH  41  42
ATOM     42  C   UNL     1      -2.252  -5.219  -7.870  1.00  0.00     0.338 C 
ATOM     43  O   UNL     1      -2.021  -6.344  -8.306  1.00  0.00    -0.246 OA
BRANCH  42  44
ATOM     44  C   UNL     1      -3.116  -4.250  -8.778  1.00  0.00     0.060 A 
ATOM     45  C   UNL     1      -4.336  -4.606  -9.398  1.00  0.00     0.016 A 
ATOM     46  C   UNL     1      -2.618  -3.100  -9.361  1.00  0.00     0.016 A 
ATOM     47  C   UNL     1      -5.021  -3.854 -10.541  1.00  0.00     0.010 A 
ATOM     48  C   UNL     1      -3.298  -2.385 -10.506  1.00  0.00     0.010 A 
ATOM     49  C   UNL     1      -4.524  -2.709 -11.245  1.00  0.00    -0.014 A 
BRANCH  49  50
ATOM     50  C   UNL     1      -5.038  -2.342 -12.956  1.00  0.00     0.031 A 
ATOM     51  C   UNL     1      -4.694  -3.591 -13.740  1.00  0.00     0.074 A 
ATOM     52  C   UNL     1      -5.300  -1.407 -14.074  1.00  0.00     0.049 A 
ATOM     53  N   UNL     1      -3.650  -3.479 -14.508  1.00  0.00    -0.248 NA
ATOM     54  C   UNL     1      -4.847  -4.940 -13.220  1.00  0.00     0.031 C 
ATOM     55  C   UNL     1      -5.469  -1.844 -15.569  1.00  0.00     0.029 A 
ATOM     56  N   UNL     1      -5.362   0.003 -14.357  1.00  0.00    -0.354 N 
ATOM     57  C   UNL     1      -2.756  -4.181 -13.786  1.00  0.00     0.074 A 
ATOM     58  C   UNL     1      -3.543  -5.256 -13.162  1.00  0.00     0.031 C 
ATOM     59  C   UNL     1      -5.631  -0.833 -16.458  1.00  0.00     0.029 A 
ATOM     60  C   UNL     1      -5.599   0.429 -15.765  1.00  0.00     0.049 A 
ATOM     61  H   UNL     1      -5.251   0.668 -13.639  1.00  0.00     0.167 HD
ATOM     62  C   UNL     1      -1.634  -3.548 -13.359  1.00  0.00     0.037 A 
ATOM     63  C   UNL     1      -5.454   1.661 -16.406  1.00  0.00     0.037 A 
ATOM     64  C   UNL     1      -1.623  -2.056 -13.427  1.00  0.00     0.049 A 
ATOM     65  C   UNL     1      -4.053   1.997 -16.038  1.00  0.00     0.074 A 
ATOM     66  C   UNL     1      -2.321  -0.994 -12.867  1.00  0.00     0.029 A 
ATOM     67  N   UNL     1      -0.868  -1.388 -14.372  1.00  0.00    -0.354 N 
ATOM     68  N   UNL     1      -2.963   1.714 -16.695  1.00  0.00    -0.248 NA
ATOM     69  C   UNL     1      -3.892   2.692 -14.774  1.00  0.00     0.031 C 
ATOM     70  C   UNL     1      -1.722   0.233 -13.147  1.00  0.00     0.029 A 
ATOM     71  C   UNL     1      -1.164  -0.017 -14.370  1.00  0.00     0.049 A 
ATOM     72  H   UNL     1      -0.211  -1.816 -14.967  1.00  0.00     0.167 HD
ATOM     73  C   UNL     1      -1.986   1.815 -15.712  1.00  0.00     0.074 A 
ATOM     74  C   UNL     1      -2.576   2.615 -14.651  1.00  0.00     0.031 C 
ATOM     75  C   UNL     1      -1.122   0.768 -15.574  1.00  0.00     0.037 A 
BRANCH  62  76
ATOM     76  C   UNL     1      -0.452  -4.391 -13.013  1.00  0.00     0.064 A 
ATOM     77  C   UNL     1      -0.370  -5.781 -13.267  1.00  0.00     0.173 A 
ATOM     78  C   UNL     1       0.738  -3.763 -12.623  1.00  0.00     0.173 A 
ATOM     79  F   UNL     1      -1.410  -6.500 -13.708  1.00  0.00    -0.203 F 
ATOM     80  C   UNL     1       0.822  -6.481 -13.166  1.00  0.00     0.198 A 
ATOM     81  C   UNL     1       1.942  -4.457 -12.585  1.00  0.00     0.198 A 
ATOM     82  F   UNL     1       0.774  -2.453 -12.340  1.00  0.00    -0.203 F 
ATOM     83  F   UNL     1       0.840  -7.793 -13.436  1.00  0.00    -0.200 F 
ATOM     84  C   UNL     1       1.985  -5.811 -12.859  1.00  0.00     0.200 A 
ATOM     85  F   UNL     1       3.074  -3.788 -12.329  1.00  0.00    -0.200 F 
ATOM     86  F   UNL     1       3.152  -6.465 -12.858  1.00  0.00    -0.200 F 
ENDBRANCH  62  76
BRANCH  63  87
ATOM     87  C   UNL     1      -5.889   2.599 -17.575  1.00  0.00     0.064 A 
ATOM     88  C   UNL     1      -6.246   2.412 -18.926  1.00  0.00     0.173 A 
ATOM     89  C   UNL     1      -5.887   3.985 -17.203  1.00  0.00     0.173 A 
ATOM     90  F   UNL     1      -6.236   1.191 -19.479  1.00  0.00    -0.203 F 
ATOM     91  C   UNL     1      -6.600   3.510 -19.786  1.00  0.00     0.198 A 
ATOM     92  C   UNL     1      -6.211   5.060 -18.044  1.00  0.00     0.198 A 
ATOM     93  F   UNL     1      -5.563   4.337 -15.951  1.00  0.00    -0.203 F 
ATOM     94  F   UNL     1      -6.940   3.293 -21.068  1.00  0.00    -0.200 F 
ATOM     95  C   UNL     1      -6.590   4.825 -19.339  1.00  0.00     0.200 A 
ATOM     96  F   UNL     1      -6.147   6.316 -17.574  1.00  0.00    -0.200 F 
ATOM     97  F   UNL     1      -6.932   5.850 -20.138  1.00  0.00    -0.200 F 
ENDBRANCH  63  87
BRANCH  75  98
ATOM     98  C   UNL     1      -0.470   0.288 -16.805  1.00  0.00     0.064 A 
ATOM     99  C   UNL     1       0.537   1.091 -17.344  1.00  0.00     0.173 A 
ATOM    100  C   UNL     1      -0.665  -0.994 -17.331  1.00  0.00     0.173 A 
ATOM    101  F   UNL     1       0.745   2.329 -16.868  1.00  0.00    -0.203 F 
ATOM    102  C   UNL     1       1.389   0.588 -18.314  1.00  0.00     0.198 A 
ATOM    103  C   UNL     1       0.221  -1.512 -18.261  1.00  0.00     0.198 A 
ATOM    104  F   UNL     1      -1.627  -1.797 -16.854  1.00  0.00    -0.203 F 
ATOM    105  F   UNL     1       2.382   1.353 -18.784  1.00  0.00    -0.200 F 
ATOM    106  C   UNL     1       1.253  -0.725 -18.743  1.00  0.00     0.200 A 
ATOM    107  F   UNL     1       0.122  -2.799 -18.624  1.00  0.00    -0.200 F 
ATOM    108  F   UNL     1       2.144  -1.244 -19.597  1.00  0.00    -0.200 F 
ENDBRANCH  75  98
ENDBRANCH  49  50
ENDBRANCH  42  44
ENDBRANCH  41  42
ENDBRANCH  40  41
ENDBRANCH  39  40
ENDBRANCH  38  39
ENDBRANCH  37  38
ENDBRANCH   1  37
TORSDOF 22
