REMARK SMILES O=C(CCOc1cccc(/C=C2/SC(=S)N(c3ccc(Cl)c(Cl)c3)C2=O)c1)OCCOCCOC(=O)c1ccc(-c2c3nc(c(-c4c(F)c(F)c(F)c(F)c4F)c4ccc([nH]4)c(-c4c(F)c(F)c(F)c(F)c4F)c4nc(c(-c5c(F)c(F)c(F)c(F)c5F)c5ccc2[nH]5)C=C4)C=C3)cc1
REMARK SMILES IDX 29 1 28 2 2 3 1 4 3 5 4 6 5 7 6 8 7 9 27 10 8 11 10 12 9 13
REMARK SMILES IDX 11 14 12 15 13 16 25 17 14 18 16 19 26 20 15 21 17 22 18 23
REMARK SMILES IDX 24 24 19 25 22 26 20 27 23 28 21 29 30 30 31 31 32 32 33 33
REMARK SMILES IDX 34 34 35 35 36 36 37 37 38 38 99 39 39 40 98 41 40 42 41 43
REMARK SMILES IDX 42 44 92 45 43 46 97 47 91 48 93 49 44 50 96 51 90 52 89 53
REMARK SMILES IDX 45 55 77 56 57 57 76 58 58 59 61 60 75 61 94 62 59 63 60 64
REMARK SMILES IDX 74 66 95 67 62 68 46 69 47 70 55 71 48 72 49 73 53 74 56 75
REMARK SMILES IDX 50 76 51 77 54 78 52 79 78 80 79 81 87 82 80 83 81 84 85 85
REMARK SMILES IDX 88 86 82 87 83 88 86 89 84 90 63 91 64 92 72 93 65 94 66 95
REMARK SMILES IDX 70 96 73 97 67 98 68 99 71 100 69 101
REMARK H PARENT 93 54 61 65
REMARK Flexibility Score: inf
ROOT
ATOM      1  C   UNL     1       4.974  -0.093  -0.061  1.00  0.00     0.261 C 
ENDROOT
BRANCH   1   2
ATOM      2  O   UNL     1       3.591   0.272   0.037  1.00  0.00    -0.463 OA
BRANCH   2   3
ATOM      3  C   UNL     1       2.586  -0.491   0.504  1.00  0.00     0.309 C 
ATOM      4  O   UNL     1       1.476   0.007   0.702  1.00  0.00    -0.252 OA
BRANCH   3   5
ATOM      5  C   UNL     1       2.844  -1.936   0.799  1.00  0.00     0.164 C 
BRANCH   5   6
ATOM      6  C   UNL     1       3.229  -2.832  -0.379  1.00  0.00     0.241 C 
BRANCH   6   7
ATOM      7  O   UNL     1       2.443  -2.676  -1.571  1.00  0.00    -0.493 OA
BRANCH   7   8
ATOM      8  C   UNL     1       2.761  -1.580  -2.334  1.00  0.00     0.119 A 
ATOM      9  C   UNL     1       3.925  -1.496  -3.091  1.00  0.00     0.046 A 
ATOM     10  C   UNL     1       1.828  -0.531  -2.361  1.00  0.00     0.054 A 
ATOM     11  C   UNL     1       4.165  -0.332  -3.832  1.00  0.00     0.004 A 
ATOM     12  C   UNL     1       2.102   0.686  -3.006  1.00  0.00    -0.021 A 
ATOM     13  C   UNL     1       3.270   0.757  -3.776  1.00  0.00     0.008 A 
BRANCH  12  14
ATOM     14  C   UNL     1       1.118   1.800  -2.888  1.00  0.00     0.029 C 
ATOM     15  C   UNL     1       1.201   2.988  -2.247  1.00  0.00     0.081 C 
ATOM     16  S   UNL     1      -0.080   4.143  -2.173  1.00  0.00    -0.054 SA
ATOM     17  C   UNL     1       2.346   3.524  -1.458  1.00  0.00     0.270 C 
ATOM     18  C   UNL     1       0.865   5.327  -1.251  1.00  0.00     0.152 C 
ATOM     19  N   UNL     1       2.133   4.844  -1.015  1.00  0.00    -0.261 N 
ATOM     20  O   UNL     1       3.298   2.814  -1.258  1.00  0.00    -0.268 OA
ATOM     21  S   UNL     1       0.238   6.816  -0.826  1.00  0.00    -0.051 S 
BRANCH  19  22
ATOM     22  C   UNL     1       3.126   5.585  -0.251  1.00  0.00     0.052 A 
ATOM     23  C   UNL     1       4.231   6.210  -0.856  1.00  0.00     0.028 A 
ATOM     24  C   UNL     1       3.039   5.682   1.144  1.00  0.00     0.048 A 
ATOM     25  C   UNL     1       5.334   6.656  -0.102  1.00  0.00     0.024 A 
ATOM     26  C   UNL     1       4.122   6.175   1.910  1.00  0.00     0.061 A 
ATOM     27  C   UNL     1       5.299   6.598   1.288  1.00  0.00     0.059 A 
ATOM     28  Cl  UNL     1       3.978   6.115   3.633  1.00  0.00    -0.083 Cl
ATOM     29  Cl  UNL     1       6.729   7.021   2.161  1.00  0.00    -0.083 Cl
ENDBRANCH  19  22
ENDBRANCH  12  14
ENDBRANCH   7   8
ENDBRANCH   6   7
ENDBRANCH   5   6
ENDBRANCH   3   5
ENDBRANCH   2   3
ENDBRANCH   1   2
BRANCH   1  30
ATOM     30  C   UNL     1       5.809   0.189   1.190  1.00  0.00     0.202 C 
BRANCH  30  31
ATOM     31  O   UNL     1       5.098   0.509   2.372  1.00  0.00    -0.374 OA
BRANCH  31  32
ATOM     32  C   UNL     1       4.310   1.691   2.324  1.00  0.00     0.202 C 
BRANCH  32  33
ATOM     33  C   UNL     1       4.845   2.915   1.561  1.00  0.00     0.261 C 
BRANCH  33  34
ATOM     34  O   UNL     1       5.201   2.759   0.163  1.00  0.00    -0.460 OA
BRANCH  34  35
ATOM     35  C   UNL     1       6.371   3.232  -0.327  1.00  0.00     0.338 C 
ATOM     36  O   UNL     1       7.308   3.620   0.354  1.00  0.00    -0.246 OA
BRANCH  35  37
ATOM     37  C   UNL     1       6.435   3.265  -1.835  1.00  0.00     0.060 A 
ATOM     38  C   UNL     1       7.557   2.823  -2.531  1.00  0.00     0.016 A 
ATOM     39  C   UNL     1       5.468   3.930  -2.583  1.00  0.00     0.016 A 
ATOM     40  C   UNL     1       7.717   3.126  -3.907  1.00  0.00     0.010 A 
ATOM     41  C   UNL     1       5.597   4.239  -3.931  1.00  0.00     0.010 A 
ATOM     42  C   UNL     1       6.763   3.893  -4.595  1.00  0.00    -0.014 A 
BRANCH  42  43
ATOM     43  C   UNL     1       6.914   4.421  -5.974  1.00  0.00     0.031 A 
ATOM     44  C   UNL     1       7.220   5.885  -6.188  1.00  0.00     0.074 A 
ATOM     45  C   UNL     1       6.514   3.667  -7.013  1.00  0.00     0.049 A 
ATOM     46  N   UNL     1       7.371   6.553  -7.304  1.00  0.00    -0.248 NA
ATOM     47  C   UNL     1       7.304   6.724  -4.980  1.00  0.00     0.031 C 
ATOM     48  C   UNL     1       5.966   2.317  -6.899  1.00  0.00     0.029 A 
ATOM     49  N   UNL     1       6.444   3.947  -8.353  1.00  0.00    -0.354 N 
ATOM     50  C   UNL     1       7.588   7.877  -6.933  1.00  0.00     0.074 A 
ATOM     51  C   UNL     1       7.456   7.936  -5.495  1.00  0.00     0.031 C 
ATOM     52  C   UNL     1       5.606   1.887  -8.120  1.00  0.00     0.029 A 
ATOM     53  C   UNL     1       5.920   2.922  -9.101  1.00  0.00     0.049 A 
ATOM     54  H   UNL     1       6.740   4.802  -8.742  1.00  0.00     0.167 HD
ATOM     55  C   UNL     1       7.901   8.935  -7.722  1.00  0.00     0.037 A 
ATOM     56  C   UNL     1       5.739   2.826 -10.432  1.00  0.00     0.037 A 
ATOM     57  C   UNL     1       8.001   8.844  -9.156  1.00  0.00     0.049 A 
ATOM     58  C   UNL     1       6.200   3.962 -11.306  1.00  0.00     0.074 A 
ATOM     59  C   UNL     1       8.452   9.788 -10.061  1.00  0.00     0.029 A 
ATOM     60  N   UNL     1       7.607   7.736  -9.896  1.00  0.00    -0.354 N 
ATOM     61  N   UNL     1       6.644   5.144 -10.953  1.00  0.00    -0.248 NA
ATOM     62  C   UNL     1       6.174   3.740 -12.758  1.00  0.00     0.031 C 
ATOM     63  C   UNL     1       8.276   9.272 -11.351  1.00  0.00     0.029 A 
ATOM     64  C   UNL     1       7.777   7.982 -11.247  1.00  0.00     0.049 A 
ATOM     65  H   UNL     1       7.258   6.898  -9.515  1.00  0.00     0.167 HD
ATOM     66  C   UNL     1       6.979   5.797 -12.131  1.00  0.00     0.074 A 
ATOM     67  C   UNL     1       6.694   4.873 -13.211  1.00  0.00     0.031 C 
ATOM     68  C   UNL     1       7.484   7.045 -12.303  1.00  0.00     0.037 A 
BRANCH  55  69
ATOM     69  C   UNL     1       8.193  10.258  -7.059  1.00  0.00     0.064 A 
ATOM     70  C   UNL     1       9.286  10.418  -6.189  1.00  0.00     0.173 A 
ATOM     71  C   UNL     1       7.412  11.395  -7.326  1.00  0.00     0.173 A 
ATOM     72  F   UNL     1      10.078   9.373  -5.901  1.00  0.00    -0.203 F 
ATOM     73  C   UNL     1       9.554  11.641  -5.578  1.00  0.00     0.198 A 
ATOM     74  C   UNL     1       7.706  12.627  -6.741  1.00  0.00     0.198 A 
ATOM     75  F   UNL     1       6.365  11.316  -8.161  1.00  0.00    -0.203 F 
ATOM     76  F   UNL     1      10.567  11.744  -4.706  1.00  0.00    -0.200 F 
ATOM     77  C   UNL     1       8.768  12.746  -5.858  1.00  0.00     0.200 A 
ATOM     78  F   UNL     1       6.956  13.700  -7.030  1.00  0.00    -0.200 F 
ATOM     79  F   UNL     1       9.030  13.924  -5.274  1.00  0.00    -0.200 F 
ENDBRANCH  55  69
BRANCH  56  80
ATOM     80  C   UNL     1       5.201   1.564 -11.002  1.00  0.00     0.064 A 
ATOM     81  C   UNL     1       6.046   0.655 -11.656  1.00  0.00     0.173 A 
ATOM     82  C   UNL     1       3.856   1.202 -10.842  1.00  0.00     0.173 A 
ATOM     83  F   UNL     1       7.340   0.959 -11.837  1.00  0.00    -0.203 F 
ATOM     84  C   UNL     1       5.565  -0.561 -12.136  1.00  0.00     0.198 A 
ATOM     85  C   UNL     1       3.381  -0.026 -11.302  1.00  0.00     0.198 A 
ATOM     86  F   UNL     1       3.011   2.026 -10.205  1.00  0.00    -0.203 F 
ATOM     87  F   UNL     1       6.392  -1.400 -12.775  1.00  0.00    -0.200 F 
ATOM     88  C   UNL     1       4.235  -0.904 -11.952  1.00  0.00     0.200 A 
ATOM     89  F   UNL     1       2.100  -0.364 -11.102  1.00  0.00    -0.200 F 
ATOM     90  F   UNL     1       3.778  -2.084 -12.395  1.00  0.00    -0.200 F 
ENDBRANCH  56  80
BRANCH  68  91
ATOM     91  C   UNL     1       7.785   7.481 -13.707  1.00  0.00     0.064 A 
ATOM     92  C   UNL     1       6.765   7.795 -14.615  1.00  0.00     0.173 A 
ATOM     93  C   UNL     1       9.114   7.660 -14.120  1.00  0.00     0.173 A 
ATOM     94  F   UNL     1       5.479   7.628 -14.271  1.00  0.00    -0.203 F 
ATOM     95  C   UNL     1       7.065   8.260 -15.893  1.00  0.00     0.198 A 
ATOM     96  C   UNL     1       9.410   8.155 -15.386  1.00  0.00     0.198 A 
ATOM     97  F   UNL     1      10.126   7.380 -13.284  1.00  0.00    -0.203 F 
ATOM     98  F   UNL     1       6.075   8.521 -16.758  1.00  0.00    -0.200 F 
ATOM     99  C   UNL     1       8.385   8.451 -16.273  1.00  0.00     0.200 A 
ATOM    100  F   UNL     1      10.685   8.355 -15.745  1.00  0.00    -0.200 F 
ATOM    101  F   UNL     1       8.671   8.917 -17.496  1.00  0.00    -0.200 F 
ENDBRANCH  68  91
ENDBRANCH  42  43
ENDBRANCH  35  37
ENDBRANCH  34  35
ENDBRANCH  33  34
ENDBRANCH  32  33
ENDBRANCH  31  32
ENDBRANCH  30  31
ENDBRANCH   1  30
TORSDOF 19
