REMARK SMILES Cc1ccccc1-c1nc(CC(=O)OCCOCCOC(=O)c2ccc(-c3c4nc(c(-c5c(F)c(F)c(F)c(F)c5F)c5ccc([nH]5)c(-c5c(F)c(F)c(F)c(F)c5F)c5nc(c(-c6c(F)c(F)c(F)c(F)c6F)c6ccc3[nH]6)C=C5)C=C4)cc2)cs1
REMARK SMILES IDX 17 1 16 2 15 3 14 4 12 5 13 6 11 7 10 8 8 9 9 10 87 11 86 12
REMARK SMILES IDX 7 13 1 14 2 15 3 16 4 17 6 18 5 19 18 20 19 21 20 22 21 23
REMARK SMILES IDX 22 24 23 25 24 26 85 27 25 28 84 29 26 30 27 31 28 32 78 33
REMARK SMILES IDX 29 34 83 35 77 36 79 37 30 38 82 39 76 40 75 41 31 43 63 44
REMARK SMILES IDX 43 45 62 46 44 47 47 48 61 49 80 50 45 51 46 52 60 54 81 55
REMARK SMILES IDX 48 56 32 57 33 58 41 59 34 60 35 61 39 62 42 63 36 64 37 65
REMARK SMILES IDX 40 66 38 67 64 68 65 69 73 70 66 71 67 72 71 73 74 74 68 75
REMARK SMILES IDX 69 76 72 77 70 78 49 79 50 80 58 81 51 82 52 83 56 84 59 85
REMARK SMILES IDX 53 86 54 87 57 88 55 89
REMARK H PARENT 79 42 47 53
REMARK Flexibility Score: inf
ROOT
ATOM      1  O   UNL     1       1.582   6.974  -0.484  1.00  0.00    -0.374 OA
ENDROOT
BRANCH   1   2
ATOM      2  C   UNL     1       0.532   6.096  -0.840  1.00  0.00     0.202 C 
BRANCH   2   3
ATOM      3  C   UNL     1       0.873   5.512  -2.183  1.00  0.00     0.261 C 
BRANCH   3   4
ATOM      4  O   UNL     1       2.044   4.666  -2.182  1.00  0.00    -0.463 OA
BRANCH   4   5
ATOM      5  C   UNL     1       3.274   5.087  -1.744  1.00  0.00     0.311 C 
ATOM      6  O   UNL     1       3.752   6.202  -1.874  1.00  0.00    -0.252 OA
BRANCH   5   7
ATOM      7  C   UNL     1       3.984   3.949  -1.056  1.00  0.00     0.179 C 
BRANCH   7   8
ATOM      8  C   UNL     1       3.010   3.359  -0.101  1.00  0.00     0.063 A 
ATOM      9  C   UNL     1       1.249   2.084   0.299  1.00  0.00     0.123 A 
ATOM     10  N   UNL     1       2.165   2.386  -0.591  1.00  0.00    -0.240 NA
ATOM     11  S   UNL     1       1.315   2.988   1.758  1.00  0.00    -0.122 S 
ATOM     12  C   UNL     1       2.722   3.785   1.181  1.00  0.00     0.091 A 
BRANCH   9  13
ATOM     13  C   UNL     1       0.375   0.926   0.174  1.00  0.00     0.013 A 
ATOM     14  C   UNL     1       2.446  -0.584   0.091  1.00  0.00     0.045 C 
ATOM     15  C   UNL     1       0.954  -0.359   0.103  1.00  0.00    -0.041 A 
ATOM     16  C   UNL     1       0.117  -1.477   0.007  1.00  0.00     0.004 A 
ATOM     17  C   UNL     1      -1.269  -1.327  -0.028  1.00  0.00     0.000 A 
ATOM     18  C   UNL     1      -1.020   1.071   0.105  1.00  0.00     0.011 A 
ATOM     19  C   UNL     1      -1.838  -0.056   0.009  1.00  0.00     0.001 A 
ENDBRANCH   9  13
ENDBRANCH   7   8
ENDBRANCH   5   7
ENDBRANCH   4   5
ENDBRANCH   3   4
ENDBRANCH   2   3
ENDBRANCH   1   2
BRANCH   1  20
ATOM     20  C   UNL     1       1.553   7.481   0.836  1.00  0.00     0.202 C 
BRANCH  20  21
ATOM     21  C   UNL     1       0.284   8.284   1.148  1.00  0.00     0.261 C 
BRANCH  21  22
ATOM     22  O   UNL     1       0.241   9.491   0.355  1.00  0.00    -0.460 OA
BRANCH  22  23
ATOM     23  C   UNL     1      -0.494   9.425  -0.787  1.00  0.00     0.338 C 
ATOM     24  O   UNL     1      -1.682   9.116  -0.842  1.00  0.00    -0.246 OA
BRANCH  23  25
ATOM     25  C   UNL     1       0.399   9.499  -1.976  1.00  0.00     0.060 A 
ATOM     26  C   UNL     1      -0.074   9.119  -3.248  1.00  0.00     0.016 A 
ATOM     27  C   UNL     1       1.766   9.588  -1.745  1.00  0.00     0.016 A 
ATOM     28  C   UNL     1       0.820   8.658  -4.228  1.00  0.00     0.010 A 
ATOM     29  C   UNL     1       2.614   8.983  -2.645  1.00  0.00     0.010 A 
ATOM     30  C   UNL     1       2.161   8.507  -3.888  1.00  0.00    -0.014 A 
BRANCH  30  31
ATOM     31  C   UNL     1       3.213   7.875  -4.692  1.00  0.00     0.031 A 
ATOM     32  C   UNL     1       4.380   8.712  -5.064  1.00  0.00     0.074 A 
ATOM     33  C   UNL     1       3.308   6.531  -4.841  1.00  0.00     0.049 A 
ATOM     34  N   UNL     1       5.297   8.344  -5.890  1.00  0.00    -0.248 NA
ATOM     35  C   UNL     1       4.586  10.073  -4.577  1.00  0.00     0.031 C 
ATOM     36  C   UNL     1       4.538   5.750  -5.003  1.00  0.00     0.029 A 
ATOM     37  N   UNL     1       2.316   5.543  -4.817  1.00  0.00    -0.354 N 
ATOM     38  C   UNL     1       6.351   9.218  -5.761  1.00  0.00     0.074 A 
ATOM     39  C   UNL     1       5.799  10.346  -5.058  1.00  0.00     0.031 C 
ATOM     40  C   UNL     1       4.229   4.479  -5.310  1.00  0.00     0.029 A 
ATOM     41  C   UNL     1       2.796   4.418  -5.517  1.00  0.00     0.049 A 
ATOM     42  H   UNL     1       1.435   5.620  -4.386  1.00  0.00     0.167 HD
ATOM     43  C   UNL     1       7.589   8.793  -6.145  1.00  0.00     0.037 A 
ATOM     44  C   UNL     1       2.122   3.941  -6.599  1.00  0.00     0.037 A 
ATOM     45  C   UNL     1       7.513   7.442  -6.735  1.00  0.00     0.049 A 
ATOM     46  C   UNL     1       2.924   4.162  -7.851  1.00  0.00     0.074 A 
ATOM     47  C   UNL     1       7.869   6.171  -6.311  1.00  0.00     0.029 A 
ATOM     48  N   UNL     1       6.707   7.245  -7.846  1.00  0.00    -0.354 N 
ATOM     49  N   UNL     1       4.122   4.673  -7.831  1.00  0.00    -0.248 NA
ATOM     50  C   UNL     1       2.452   3.922  -9.210  1.00  0.00     0.031 C 
ATOM     51  C   UNL     1       7.269   5.221  -7.196  1.00  0.00     0.029 A 
ATOM     52  C   UNL     1       6.564   5.910  -8.169  1.00  0.00     0.049 A 
ATOM     53  H   UNL     1       6.284   7.978  -8.350  1.00  0.00     0.167 HD
ATOM     54  C   UNL     1       4.550   4.923  -9.090  1.00  0.00     0.074 A 
ATOM     55  C   UNL     1       3.469   4.432  -9.932  1.00  0.00     0.031 C 
ATOM     56  C   UNL     1       5.743   5.542  -9.320  1.00  0.00     0.037 A 
BRANCH  43  57
ATOM     57  C   UNL     1       8.913   9.474  -5.825  1.00  0.00     0.064 A 
ATOM     58  C   UNL     1      10.129   8.800  -6.082  1.00  0.00     0.173 A 
ATOM     59  C   UNL     1       9.084  10.747  -5.240  1.00  0.00     0.173 A 
ATOM     60  F   UNL     1      10.154   7.615  -6.708  1.00  0.00    -0.203 F 
ATOM     61  C   UNL     1      11.378   9.317  -5.720  1.00  0.00     0.198 A 
ATOM     62  C   UNL     1      10.331  11.260  -4.867  1.00  0.00     0.198 A 
ATOM     63  F   UNL     1       8.075  11.589  -5.033  1.00  0.00    -0.203 F 
ATOM     64  F   UNL     1      12.487   8.612  -5.980  1.00  0.00    -0.200 F 
ATOM     65  C   UNL     1      11.479  10.541  -5.098  1.00  0.00     0.200 A 
ATOM     66  F   UNL     1      10.401  12.468  -4.286  1.00  0.00    -0.200 F 
ATOM     67  F   UNL     1      12.672  11.035  -4.743  1.00  0.00    -0.200 F 
ENDBRANCH  43  57
BRANCH  44  68
ATOM     68  C   UNL     1       0.647   4.064  -6.413  1.00  0.00     0.064 A 
ATOM     69  C   UNL     1       0.048   3.208  -5.462  1.00  0.00     0.173 A 
ATOM     70  C   UNL     1      -0.011   5.268  -6.702  1.00  0.00     0.173 A 
ATOM     71  F   UNL     1       0.644   2.050  -5.135  1.00  0.00    -0.203 F 
ATOM     72  C   UNL     1      -1.072   3.606  -4.733  1.00  0.00     0.198 A 
ATOM     73  C   UNL     1      -1.121   5.670  -5.953  1.00  0.00     0.198 A 
ATOM     74  F   UNL     1       0.512   6.126  -7.589  1.00  0.00    -0.203 F 
ATOM     75  F   UNL     1      -1.533   2.838  -3.733  1.00  0.00    -0.200 F 
ATOM     76  C   UNL     1      -1.626   4.857  -4.948  1.00  0.00     0.200 A 
ATOM     77  F   UNL     1      -1.636   6.896  -6.129  1.00  0.00    -0.200 F 
ATOM     78  F   UNL     1      -2.597   5.307  -4.139  1.00  0.00    -0.200 F 
ENDBRANCH  44  68
BRANCH  56  79
ATOM     79  C   UNL     1       6.217   5.850 -10.700  1.00  0.00     0.064 A 
ATOM     80  C   UNL     1       6.144   4.902 -11.730  1.00  0.00     0.173 A 
ATOM     81  C   UNL     1       6.832   7.078 -11.016  1.00  0.00     0.173 A 
ATOM     82  F   UNL     1       5.664   3.671 -11.498  1.00  0.00    -0.203 F 
ATOM     83  C   UNL     1       6.573   5.201 -13.020  1.00  0.00     0.198 A 
ATOM     84  C   UNL     1       7.327   7.345 -12.286  1.00  0.00     0.198 A 
ATOM     85  F   UNL     1       6.940   8.068 -10.118  1.00  0.00    -0.203 F 
ATOM     86  F   UNL     1       6.399   4.303 -13.999  1.00  0.00    -0.200 F 
ATOM     87  C   UNL     1       7.170   6.418 -13.296  1.00  0.00     0.200 A 
ATOM     88  F   UNL     1       7.939   8.513 -12.526  1.00  0.00    -0.200 F 
ATOM     89  F   UNL     1       7.589   6.701 -14.536  1.00  0.00    -0.200 F 
ENDBRANCH  56  79
ENDBRANCH  30  31
ENDBRANCH  23  25
ENDBRANCH  22  23
ENDBRANCH  21  22
ENDBRANCH  20  21
ENDBRANCH   1  20
TORSDOF 16
