REMARK SMILES [NH3+]C[C@H]1CC[C@@H](C(=O)NCc2ccc(C(=O)OCCOCCOC(=O)c3ccc(-c4c5nc(c(-c6c(F)c(F)c(F)c(F)c6F)c6ccc([nH]6)c(-c6c(F)c(F)c(F)c(F)c6F)c6nc(c(-c7c(F)c(F)c(F)c(F)c7F)c7ccc4[nH]7)C=C6)C=C5)cc3)cc2)CC1
REMARK SMILES IDX 18 1 17 2 15 3 16 4 14 5 11 6 12 7 90 8 13 9 89 10 10 11
REMARK SMILES IDX 9 12 7 13 8 14 6 16 3 17 4 18 92 19 5 20 91 21 2 22 1 23
REMARK SMILES IDX 19 27 20 28 21 29 22 30 23 31 24 32 25 33 26 34 27 35 88 36
REMARK SMILES IDX 28 37 87 38 29 39 30 40 31 41 81 42 32 43 86 44 80 45 82 46
REMARK SMILES IDX 33 47 85 48 79 49 78 50 34 52 66 53 46 54 65 55 47 56 50 57
REMARK SMILES IDX 64 58 83 59 48 60 49 61 63 63 84 64 51 65 35 66 36 67 44 68
REMARK SMILES IDX 37 69 38 70 42 71 45 72 39 73 40 74 43 75 41 76 67 77 68 78
REMARK SMILES IDX 76 79 69 80 70 81 74 82 77 83 71 84 72 85 75 86 73 87 52 88
REMARK SMILES IDX 53 89 61 90 54 91 55 92 59 93 62 94 56 95 57 96 60 97 58 98
REMARK H PARENT 9 15 1 24 1 25 1 26 82 51 50 62
REMARK Flexibility Score: inf
ROOT
ATOM      1  C   UNL     1      -3.962  -6.063   2.925  1.00  0.00     0.261 C 
ENDROOT
BRANCH   1   2
ATOM      2  O   UNL     1      -3.462  -4.789   2.498  1.00  0.00    -0.460 OA
BRANCH   2   3
ATOM      3  C   UNL     1      -4.279  -3.750   2.802  1.00  0.00     0.338 C 
ATOM      4  O   UNL     1      -5.392  -3.816   3.299  1.00  0.00    -0.246 OA
BRANCH   3   5
ATOM      5  C   UNL     1      -3.595  -2.463   2.559  1.00  0.00     0.060 A 
ATOM      6  C   UNL     1      -2.506   0.087   2.109  1.00  0.00    -0.029 A 
ATOM      7  C   UNL     1      -3.331  -0.142   3.214  1.00  0.00     0.006 A 
ATOM      8  C   UNL     1      -2.204  -0.993   1.254  1.00  0.00     0.006 A 
ATOM      9  C   UNL     1      -3.881  -1.406   3.430  1.00  0.00     0.016 A 
ATOM     10  C   UNL     1      -2.728  -2.268   1.485  1.00  0.00     0.016 A 
BRANCH   6  11
ATOM     11  C   UNL     1      -1.935   1.446   1.777  1.00  0.00     0.151 C 
BRANCH  11  12
ATOM     12  N   UNL     1      -2.184   2.483   2.749  1.00  0.00    -0.352 N 
ATOM     13  C   UNL     1      -1.402   3.214   3.572  1.00  0.00     0.223 C 
ATOM     14  O   UNL     1      -1.991   4.107   4.197  1.00  0.00    -0.275 OA
ATOM     15  H   UNL     1      -3.139   2.708   2.830  1.00  0.00     0.163 HD
BRANCH  13  16
ATOM     16  C   UNL     1       0.106   3.031   3.797  1.00  0.00     0.078 C 
ATOM     17  C   UNL     1       1.758   0.992   2.304  1.00  0.00     0.044 C 
ATOM     18  C   UNL     1       1.421   2.360   1.678  1.00  0.00     0.010 C 
ATOM     19  C   UNL     1       0.906   0.604   3.531  1.00  0.00     0.010 C 
ATOM     20  C   UNL     1       1.033   3.452   2.663  1.00  0.00     0.014 C 
ATOM     21  C   UNL     1       0.540   1.737   4.472  1.00  0.00     0.014 C 
BRANCH  17  22
ATOM     22  C   UNL     1       1.665  -0.167   1.280  1.00  0.00     0.262 C 
BRANCH  22  23
ATOM     23  N   UNL     1       2.267   0.097  -0.018  1.00  0.00    -0.357 N 
ATOM     24  H   UNL     1       2.155  -0.721  -0.617  1.00  0.00     0.344 HD
ATOM     25  H   UNL     1       3.260   0.297   0.102  1.00  0.00     0.344 HD
ATOM     26  H   UNL     1       1.808   0.900  -0.449  1.00  0.00     0.344 HD
ENDBRANCH  22  23
ENDBRANCH  17  22
ENDBRANCH  13  16
ENDBRANCH  11  12
ENDBRANCH   6  11
ENDBRANCH   3   5
ENDBRANCH   2   3
ENDBRANCH   1   2
BRANCH   1  27
ATOM     27  C   UNL     1      -3.333  -6.517   4.245  1.00  0.00     0.202 C 
BRANCH  27  28
ATOM     28  O   UNL     1      -3.449  -5.625   5.351  1.00  0.00    -0.374 OA
BRANCH  28  29
ATOM     29  C   UNL     1      -2.449  -4.608   5.458  1.00  0.00     0.202 C 
BRANCH  29  30
ATOM     30  C   UNL     1      -1.105  -5.047   6.056  1.00  0.00     0.261 C 
BRANCH  30  31
ATOM     31  O   UNL     1      -0.379  -5.911   5.162  1.00  0.00    -0.460 OA
BRANCH  31  32
ATOM     32  C   UNL     1      -0.313  -7.210   5.535  1.00  0.00     0.338 C 
ATOM     33  O   UNL     1      -0.713  -7.709   6.577  1.00  0.00    -0.246 OA
BRANCH  32  34
ATOM     34  C   UNL     1       0.145  -8.018   4.390  1.00  0.00     0.060 A 
ATOM     35  C   UNL     1      -0.678  -9.065   3.954  1.00  0.00     0.016 A 
ATOM     36  C   UNL     1       1.368  -7.770   3.766  1.00  0.00     0.016 A 
ATOM     37  C   UNL     1      -0.275  -9.879   2.897  1.00  0.00     0.010 A 
ATOM     38  C   UNL     1       1.778  -8.595   2.715  1.00  0.00     0.010 A 
ATOM     39  C   UNL     1       0.967  -9.661   2.286  1.00  0.00    -0.014 A 
BRANCH  39  40
ATOM     40  C   UNL     1       1.465 -10.594   1.248  1.00  0.00     0.031 A 
ATOM     41  C   UNL     1       2.487 -11.628   1.617  1.00  0.00     0.074 A 
ATOM     42  C   UNL     1       1.018 -10.505  -0.016  1.00  0.00     0.049 A 
ATOM     43  N   UNL     1       3.131 -12.472   0.852  1.00  0.00    -0.248 NA
ATOM     44  C   UNL     1       2.833 -11.720   3.043  1.00  0.00     0.031 C 
ATOM     45  C   UNL     1      -0.008  -9.575  -0.482  1.00  0.00     0.029 A 
ATOM     46  N   UNL     1       1.386 -11.197  -1.143  1.00  0.00    -0.354 N 
ATOM     47  C   UNL     1       3.963 -13.190   1.700  1.00  0.00     0.074 A 
ATOM     48  C   UNL     1       3.765 -12.661   3.034  1.00  0.00     0.031 C 
ATOM     49  C   UNL     1      -0.181  -9.745  -1.804  1.00  0.00     0.029 A 
ATOM     50  C   UNL     1       0.756 -10.761  -2.282  1.00  0.00     0.049 A 
ATOM     51  H   UNL     1       2.038 -11.934  -1.135  1.00  0.00     0.167 HD
ATOM     52  C   UNL     1       4.809 -14.203   1.393  1.00  0.00     0.037 A 
ATOM     53  C   UNL     1       0.941 -11.118  -3.567  1.00  0.00     0.037 A 
ATOM     54  C   UNL     1       5.008 -14.712   0.060  1.00  0.00     0.049 A 
ATOM     55  C   UNL     1       1.973 -12.164  -3.901  1.00  0.00     0.074 A 
ATOM     56  C   UNL     1       5.822 -15.751  -0.355  1.00  0.00     0.029 A 
ATOM     57  N   UNL     1       4.397 -14.205  -1.079  1.00  0.00    -0.354 N 
ATOM     58  N   UNL     1       2.737 -12.860  -3.094  1.00  0.00    -0.248 NA
ATOM     59  C   UNL     1       2.176 -12.464  -5.325  1.00  0.00     0.031 C 
ATOM     60  C   UNL     1       5.755 -15.829  -1.751  1.00  0.00     0.029 A 
ATOM     61  C   UNL     1       4.851 -14.879  -2.201  1.00  0.00     0.049 A 
ATOM     62  H   UNL     1       3.737 -13.475  -1.087  1.00  0.00     0.167 HD
ATOM     63  C   UNL     1       3.494 -13.694  -3.907  1.00  0.00     0.074 A 
ATOM     64  C   UNL     1       3.085 -13.428  -5.271  1.00  0.00     0.031 C 
ATOM     65  C   UNL     1       4.441 -14.598  -3.555  1.00  0.00     0.037 A 
BRANCH  52  66
ATOM     66  C   UNL     1       5.612 -14.796   2.515  1.00  0.00     0.064 A 
ATOM     67  C   UNL     1       5.014 -15.555   3.534  1.00  0.00     0.173 A 
ATOM     68  C   UNL     1       7.003 -14.614   2.566  1.00  0.00     0.173 A 
ATOM     69  F   UNL     1       3.687 -15.751   3.539  1.00  0.00    -0.203 F 
ATOM     70  C   UNL     1       5.772 -16.073   4.581  1.00  0.00     0.198 A 
ATOM     71  C   UNL     1       7.762 -15.162   3.597  1.00  0.00     0.198 A 
ATOM     72  F   UNL     1       7.628 -13.904   1.615  1.00  0.00    -0.203 F 
ATOM     73  F   UNL     1       5.170 -16.741   5.575  1.00  0.00    -0.200 F 
ATOM     74  C   UNL     1       7.145 -15.881   4.609  1.00  0.00     0.200 A 
ATOM     75  F   UNL     1       9.091 -14.988   3.614  1.00  0.00    -0.200 F 
ATOM     76  F   UNL     1       7.873 -16.380   5.618  1.00  0.00    -0.200 F 
ENDBRANCH  52  66
BRANCH  53  77
ATOM     77  C   UNL     1       0.141 -10.467  -4.636  1.00  0.00     0.064 A 
ATOM     78  C   UNL     1      -0.819 -11.190  -5.357  1.00  0.00     0.173 A 
ATOM     79  C   UNL     1       0.311  -9.111  -4.956  1.00  0.00     0.173 A 
ATOM     80  F   UNL     1      -1.000 -12.495  -5.106  1.00  0.00    -0.203 F 
ATOM     81  C   UNL     1      -1.573 -10.585  -6.360  1.00  0.00     0.198 A 
ATOM     82  C   UNL     1      -0.463  -8.500  -5.939  1.00  0.00     0.198 A 
ATOM     83  F   UNL     1       1.219  -8.375  -4.298  1.00  0.00    -0.203 F 
ATOM     84  F   UNL     1      -2.459 -11.308  -7.058  1.00  0.00    -0.200 F 
ATOM     85  C   UNL     1      -1.401  -9.238  -6.644  1.00  0.00     0.200 A 
ATOM     86  F   UNL     1      -0.303  -7.195  -6.200  1.00  0.00    -0.200 F 
ATOM     87  F   UNL     1      -2.135  -8.654  -7.600  1.00  0.00    -0.200 F 
ENDBRANCH  53  77
BRANCH  65  88
ATOM     88  C   UNL     1       5.097 -15.379  -4.659  1.00  0.00     0.064 A 
ATOM     89  C   UNL     1       6.011 -14.780  -5.539  1.00  0.00     0.173 A 
ATOM     90  C   UNL     1       4.854 -16.754  -4.803  1.00  0.00     0.173 A 
ATOM     91  F   UNL     1       6.266 -13.466  -5.456  1.00  0.00    -0.203 F 
ATOM     92  C   UNL     1       6.642 -15.525  -6.533  1.00  0.00     0.198 A 
ATOM     93  C   UNL     1       5.511 -17.502  -5.776  1.00  0.00     0.198 A 
ATOM     94  F   UNL     1       3.993 -17.377  -3.984  1.00  0.00    -0.203 F 
ATOM     95  F   UNL     1       7.479 -14.923  -7.388  1.00  0.00    -0.200 F 
ATOM     96  C   UNL     1       6.400 -16.886  -6.644  1.00  0.00     0.200 A 
ATOM     97  F   UNL     1       5.286 -18.819  -5.872  1.00  0.00    -0.200 F 
ATOM     98  F   UNL     1       7.020 -17.603  -7.590  1.00  0.00    -0.200 F 
ENDBRANCH  65  88
ENDBRANCH  39  40
ENDBRANCH  32  34
ENDBRANCH  31  32
ENDBRANCH  30  31
ENDBRANCH  29  30
ENDBRANCH  28  29
ENDBRANCH  27  28
ENDBRANCH   1  27
TORSDOF 19
