REMARK SMILES C[C@@H]1CCN(c2cncc(C(=O)OCCOCCOC(=O)c3ccc(-c4c5nc(c(-c6c(F)c(F)c(F)c(F)c6F)c6ccc([nH]6)c(-c6c(F)c(F)c(F)c(F)c6F)c6nc(c(-c7c(F)c(F)c(F)c(F)c7F)c7ccc4[nH]7)C=C6)C=C5)cc3)n2)[C@H](C)C1
REMARK SMILES IDX 17 1 16 2 15 3 14 4 13 5 11 6 12 7 10 8 6 9 7 10 85 11 8 12
REMARK SMILES IDX 9 13 5 14 1 15 2 16 3 17 88 18 4 19 86 20 87 21 18 22 19 23
REMARK SMILES IDX 20 24 21 25 22 26 23 27 84 28 24 29 83 30 25 31 26 32 27 33
REMARK SMILES IDX 77 34 28 35 82 36 76 37 78 38 29 39 81 40 75 41 74 42 30 44
REMARK SMILES IDX 62 45 42 46 61 47 43 48 46 49 60 50 79 51 44 52 45 53 59 55
REMARK SMILES IDX 80 56 47 57 31 58 32 59 40 60 33 61 34 62 38 63 41 64 35 65
REMARK SMILES IDX 36 66 39 67 37 68 63 69 64 70 72 71 65 72 66 73 70 74 73 75
REMARK SMILES IDX 67 76 68 77 71 78 69 79 48 80 49 81 57 82 50 83 51 84 55 85
REMARK SMILES IDX 58 86 52 87 53 88 56 89 54 90
REMARK H PARENT 78 43 46 54
REMARK Flexibility Score: inf
ROOT
ATOM      1  C   UNL     1       6.855   6.047  -4.174  1.00  0.00     0.202 C 
ENDROOT
BRANCH   1   2
ATOM      2  O   UNL     1       6.727   7.448  -3.922  1.00  0.00    -0.374 OA
BRANCH   2   3
ATOM      3  C   UNL     1       6.139   7.816  -2.672  1.00  0.00     0.202 C 
BRANCH   3   4
ATOM      4  C   UNL     1       4.608   7.881  -2.670  1.00  0.00     0.261 C 
BRANCH   4   5
ATOM      5  O   UNL     1       4.040   6.572  -2.851  1.00  0.00    -0.458 OA
BRANCH   5   6
ATOM      6  C   UNL     1       3.447   6.350  -4.052  1.00  0.00     0.358 C 
ATOM      7  O   UNL     1       3.219   7.184  -4.916  1.00  0.00    -0.244 OA
BRANCH   6   8
ATOM      8  C   UNL     1       3.288   4.897  -4.281  1.00  0.00     0.169 A 
ATOM      9  C   UNL     1       2.909   2.747  -3.501  1.00  0.00     0.148 A 
ATOM     10  C   UNL     1       3.205   2.300  -4.798  1.00  0.00     0.157 A 
ATOM     11  N   UNL     1       2.975   4.077  -3.240  1.00  0.00    -0.221 NA
ATOM     12  N   UNL     1       3.534   3.107  -5.844  1.00  0.00    -0.258 NA
ATOM     13  C   UNL     1       3.552   4.424  -5.554  1.00  0.00     0.147 A 
BRANCH   9  14
ATOM     14  N   UNL     1       2.509   1.896  -2.489  1.00  0.00    -0.353 N 
ATOM     15  C   UNL     1       0.909  -0.504  -0.026  1.00  0.00     0.008 C 
ATOM     16  C   UNL     1       0.551   0.041  -1.410  1.00  0.00    -0.011 C 
ATOM     17  C   UNL     1       1.575  -0.369  -2.480  1.00  0.00     0.025 C 
ATOM     18  C   UNL     1       0.334   1.563  -1.417  1.00  0.00     0.028 C 
ATOM     19  C   UNL     1       2.848   0.476  -2.438  1.00  0.00     0.118 C 
ATOM     20  C   UNL     1       1.611   2.424  -1.454  1.00  0.00     0.081 C 
ATOM     21  C   UNL     1       2.325   2.546  -0.111  1.00  0.00     0.031 C 
ENDBRANCH   9  14
ENDBRANCH   6   8
ENDBRANCH   5   6
ENDBRANCH   4   5
ENDBRANCH   3   4
ENDBRANCH   2   3
ENDBRANCH   1   2
BRANCH   1  22
ATOM     22  C   UNL     1       8.098   5.382  -3.573  1.00  0.00     0.261 C 
BRANCH  22  23
ATOM     23  O   UNL     1       8.012   5.321  -2.138  1.00  0.00    -0.460 OA
BRANCH  23  24
ATOM     24  C   UNL     1       8.850   6.150  -1.479  1.00  0.00     0.338 C 
ATOM     25  O   UNL     1       9.733   6.849  -1.958  1.00  0.00    -0.246 OA
BRANCH  24  26
ATOM     26  C   UNL     1       8.455   6.243  -0.061  1.00  0.00     0.060 A 
ATOM     27  C   UNL     1       8.352   7.525   0.495  1.00  0.00     0.016 A 
ATOM     28  C   UNL     1       8.245   5.110   0.728  1.00  0.00     0.016 A 
ATOM     29  C   UNL     1       8.093   7.677   1.855  1.00  0.00     0.010 A 
ATOM     30  C   UNL     1       7.990   5.264   2.095  1.00  0.00     0.010 A 
ATOM     31  C   UNL     1       7.949   6.547   2.671  1.00  0.00    -0.014 A 
BRANCH  31  32
ATOM     32  C   UNL     1       7.895   6.713   4.143  1.00  0.00     0.031 A 
ATOM     33  C   UNL     1       9.144   6.487   4.950  1.00  0.00     0.074 A 
ATOM     34  C   UNL     1       6.758   7.092   4.751  1.00  0.00     0.049 A 
ATOM     35  N   UNL     1       9.322   6.557   6.245  1.00  0.00    -0.248 NA
ATOM     36  C   UNL     1      10.355   6.133   4.194  1.00  0.00     0.031 C 
ATOM     37  C   UNL     1       5.494   7.374   4.075  1.00  0.00     0.029 A 
ATOM     38  N   UNL     1       6.485   7.300   6.080  1.00  0.00    -0.354 N 
ATOM     39  C   UNL     1      10.660   6.253   6.458  1.00  0.00     0.074 A 
ATOM     40  C   UNL     1      11.242   5.966   5.164  1.00  0.00     0.031 C 
ATOM     41  C   UNL     1       4.574   7.711   4.996  1.00  0.00     0.029 A 
ATOM     42  C   UNL     1       5.178   7.640   6.326  1.00  0.00     0.049 A 
ATOM     43  H   UNL     1       7.162   7.214   6.790  1.00  0.00     0.167 HD
ATOM     44  C   UNL     1      11.344   6.225   7.627  1.00  0.00     0.037 A 
ATOM     45  C   UNL     1       4.540   7.850   7.493  1.00  0.00     0.037 A 
ATOM     46  C   UNL     1      10.765   6.513   8.913  1.00  0.00     0.049 A 
ATOM     47  C   UNL     1       5.308   7.749   8.786  1.00  0.00     0.074 A 
ATOM     48  C   UNL     1      11.381   6.534  10.152  1.00  0.00     0.029 A 
ATOM     49  N   UNL     1       9.430   6.824   9.125  1.00  0.00    -0.354 N 
ATOM     50  N   UNL     1       6.579   7.491   8.976  1.00  0.00    -0.248 NA
ATOM     51  C   UNL     1       4.551   7.974  10.026  1.00  0.00     0.031 C 
ATOM     52  C   UNL     1      10.409   6.808  11.120  1.00  0.00     0.029 A 
ATOM     53  C   UNL     1       9.197   7.011  10.478  1.00  0.00     0.049 A 
ATOM     54  H   UNL     1       8.749   6.900   8.419  1.00  0.00     0.167 HD
ATOM     55  C   UNL     1       6.780   7.549  10.350  1.00  0.00     0.074 A 
ATOM     56  C   UNL     1       5.503   7.881  10.944  1.00  0.00     0.031 C 
ATOM     57  C   UNL     1       7.921   7.348  11.055  1.00  0.00     0.037 A 
BRANCH  44  58
ATOM     58  C   UNL     1      12.795   5.847   7.571  1.00  0.00     0.064 A 
ATOM     59  C   UNL     1      13.763   6.712   7.037  1.00  0.00     0.173 A 
ATOM     60  C   UNL     1      13.228   4.618   8.090  1.00  0.00     0.173 A 
ATOM     61  F   UNL     1      13.398   7.893   6.516  1.00  0.00    -0.203 F 
ATOM     62  C   UNL     1      15.107   6.349   7.004  1.00  0.00     0.198 A 
ATOM     63  C   UNL     1      14.576   4.270   8.081  1.00  0.00     0.198 A 
ATOM     64  F   UNL     1      12.344   3.756   8.616  1.00  0.00    -0.203 F 
ATOM     65  F   UNL     1      16.008   7.172   6.449  1.00  0.00    -0.200 F 
ATOM     66  C   UNL     1      15.513   5.132   7.531  1.00  0.00     0.200 A 
ATOM     67  F   UNL     1      14.969   3.099   8.601  1.00  0.00    -0.200 F 
ATOM     68  F   UNL     1      16.808   4.787   7.504  1.00  0.00    -0.200 F 
ENDBRANCH  44  58
BRANCH  45  69
ATOM     69  C   UNL     1       3.088   8.168   7.498  1.00  0.00     0.064 A 
ATOM     70  C   UNL     1       2.626   9.434   7.882  1.00  0.00     0.173 A 
ATOM     71  C   UNL     1       2.133   7.206   7.137  1.00  0.00     0.173 A 
ATOM     72  F   UNL     1       3.498  10.379   8.262  1.00  0.00    -0.203 F 
ATOM     73  C   UNL     1       1.262   9.720   7.922  1.00  0.00     0.198 A 
ATOM     74  C   UNL     1       0.772   7.502   7.150  1.00  0.00     0.198 A 
ATOM     75  F   UNL     1       2.524   5.978   6.766  1.00  0.00    -0.203 F 
ATOM     76  F   UNL     1       0.845  10.924   8.338  1.00  0.00    -0.200 F 
ATOM     77  C   UNL     1       0.337   8.756   7.550  1.00  0.00     0.200 A 
ATOM     78  F   UNL     1      -0.117   6.571   6.781  1.00  0.00    -0.200 F 
ATOM     79  F   UNL     1      -0.973   9.033   7.588  1.00  0.00    -0.200 F 
ENDBRANCH  45  69
BRANCH  57  80
ATOM     80  C   UNL     1       7.849   7.514  12.546  1.00  0.00     0.064 A 
ATOM     81  C   UNL     1       7.198   6.578  13.361  1.00  0.00     0.173 A 
ATOM     82  C   UNL     1       8.476   8.605  13.169  1.00  0.00     0.173 A 
ATOM     83  F   UNL     1       6.571   5.526  12.814  1.00  0.00    -0.203 F 
ATOM     84  C   UNL     1       7.154   6.741  14.744  1.00  0.00     0.198 A 
ATOM     85  C   UNL     1       8.456   8.748  14.553  1.00  0.00     0.198 A 
ATOM     86  F   UNL     1       9.120   9.525  12.435  1.00  0.00    -0.203 F 
ATOM     87  F   UNL     1       6.485   5.859  15.500  1.00  0.00    -0.200 F 
ATOM     88  C   UNL     1       7.789   7.821  15.339  1.00  0.00     0.200 A 
ATOM     89  F   UNL     1       9.082   9.785  15.127  1.00  0.00    -0.200 F 
ATOM     90  F   UNL     1       7.751   7.972  16.670  1.00  0.00    -0.200 F 
ENDBRANCH  57  80
ENDBRANCH  31  32
ENDBRANCH  24  26
ENDBRANCH  23  24
ENDBRANCH  22  23
ENDBRANCH   1  22
TORSDOF 15
