REMARK SMILES Cc1ccccc1/C=C1\SC(=O)N(CC(=O)Nc2ccccc2C(=O)OCCOCCOC(=O)c2ccc(-c3c4nc(c(-c5c(F)c(F)c(F)c(F)c5F)c5ccc([nH]5)c(-c5c(F)c(F)c(F)c(F)c5F)c5nc(c(-c6c(F)c(F)c(F)c(F)c6F)c6ccc3[nH]6)C=C5)C=C4)cc2)C1=O
REMARK SMILES IDX 28 1 27 2 26 3 24 4 25 5 23 6 18 7 19 8 20 9 22 10 21 11
REMARK SMILES IDX 17 12 15 13 16 14 14 16 13 17 8 18 9 19 10 20 98 21 11 22
REMARK SMILES IDX 99 23 12 24 7 25 1 26 2 27 3 28 4 29 6 30 5 31 29 32 30 33
REMARK SMILES IDX 31 34 32 35 33 36 34 37 35 38 36 39 97 40 37 41 96 42 38 43
REMARK SMILES IDX 39 44 40 45 90 46 41 47 95 48 89 49 91 50 42 51 94 52 88 53
REMARK SMILES IDX 87 54 43 56 75 57 55 58 74 59 56 60 59 61 73 62 92 63 57 64
REMARK SMILES IDX 58 65 72 67 93 68 60 69 44 70 45 71 53 72 46 73 47 74 51 75
REMARK SMILES IDX 54 76 48 77 49 78 52 79 50 80 76 81 77 82 85 83 78 84 79 85
REMARK SMILES IDX 83 86 86 87 80 88 81 89 84 90 82 91 61 92 62 93 70 94 63 95
REMARK SMILES IDX 64 96 68 97 71 98 65 99 66 100 69 101 67 102
REMARK H PARENT 17 15 91 55 59 66
REMARK Flexibility Score: inf
ROOT
ATOM      1  C   UNL     1       5.804   2.753  -2.211  1.00  0.00     0.202 C 
ENDROOT
BRANCH   1   2
ATOM      2  C   UNL     1       4.401   1.949  -2.487  1.00  0.00     0.261 C 
BRANCH   2   3
ATOM      3  O   UNL     1       2.691   2.539  -3.421  1.00  0.00    -0.460 OA
BRANCH   3   4
ATOM      4  C   UNL     1       1.816   3.493  -4.107  1.00  0.00     0.340 C 
ATOM      5  O   UNL     1       0.842   3.966  -3.543  1.00  0.00    -0.246 OA
BRANCH   4   6
ATOM      6  C   UNL     1       2.046   4.040  -5.449  1.00  0.00     0.083 A 
ATOM      7  C   UNL     1       2.249   5.424  -5.638  1.00  0.00     0.055 A 
ATOM      8  C   UNL     1       2.150   5.966  -6.921  1.00  0.00     0.027 A 
ATOM      9  C   UNL     1       1.893   5.133  -8.006  1.00  0.00     0.002 A 
ATOM     10  C   UNL     1       1.688   3.230  -6.524  1.00  0.00     0.018 A 
ATOM     11  C   UNL     1       1.648   3.773  -7.806  1.00  0.00     0.001 A 
BRANCH   7  12
ATOM     12  N   UNL     1       2.522   6.334  -4.609  1.00  0.00    -0.324 N 
ATOM     13  C   UNL     1       3.454   6.213  -3.618  1.00  0.00     0.244 C 
ATOM     14  O   UNL     1       3.585   7.147  -2.819  1.00  0.00    -0.273 OA
ATOM     15  H   UNL     1       1.979   7.155  -4.598  1.00  0.00     0.170 HD
BRANCH  13  16
ATOM     16  C   UNL     1       4.482   5.076  -3.684  1.00  0.00     0.230 C 
BRANCH  16  17
ATOM     17  N   UNL     1       4.029   3.718  -3.393  1.00  0.00    -0.259 N 
ATOM     18  C   UNL     1       1.675   1.043  -0.797  1.00  0.00     0.029 C 
ATOM     19  C   UNL     1       2.376   1.593  -1.833  1.00  0.00     0.083 C 
ATOM     20  S   UNL     1       2.943   0.535  -3.729  1.00  0.00    -0.022 SA
ATOM     21  C   UNL     1       3.071   3.466  -1.895  1.00  0.00     0.268 C 
ATOM     22  C   UNL     1       4.147   2.357  -4.529  1.00  0.00     0.294 C 
ATOM     23  O   UNL     1       2.623   4.463  -1.333  1.00  0.00    -0.268 OA
ATOM     24  O   UNL     1       4.727   2.277  -5.607  1.00  0.00    -0.261 OA
BRANCH  18  25
ATOM     25  C   UNL     1       0.880  -0.018  -0.075  1.00  0.00    -0.021 A 
ATOM     26  C   UNL     1       2.835  -1.477   0.621  1.00  0.00     0.045 C 
ATOM     27  C   UNL     1       1.372  -1.186   0.512  1.00  0.00    -0.044 A 
ATOM     28  C   UNL     1       0.495  -2.071   1.209  1.00  0.00     0.004 A 
ATOM     29  C   UNL     1      -0.841  -1.762   1.453  1.00  0.00     0.000 A 
ATOM     30  C   UNL     1      -0.450   0.320   0.333  1.00  0.00     0.008 A 
ATOM     31  C   UNL     1      -1.301  -0.523   1.068  1.00  0.00     0.001 A 
ENDBRANCH  18  25
ENDBRANCH  16  17
ENDBRANCH  13  16
ENDBRANCH   7  12
ENDBRANCH   4   6
ENDBRANCH   3   4
ENDBRANCH   2   3
ENDBRANCH   1   2
BRANCH   1  32
ATOM     32  O   UNL     1       5.621   3.774  -1.237  1.00  0.00    -0.374 OA
BRANCH  32  33
ATOM     33  C   UNL     1       6.830   4.413  -0.829  1.00  0.00     0.202 C 
BRANCH  33  34
ATOM     34  C   UNL     1       7.563   3.567   0.218  1.00  0.00     0.261 C 
BRANCH  34  35
ATOM     35  O   UNL     1       6.744   3.505   1.409  1.00  0.00    -0.460 OA
BRANCH  35  36
ATOM     36  C   UNL     1       5.875   2.458   1.498  1.00  0.00     0.338 C 
ATOM     37  O   UNL     1       6.107   1.311   1.149  1.00  0.00    -0.246 OA
BRANCH  36  38
ATOM     38  C   UNL     1       4.500   2.959   1.824  1.00  0.00     0.060 A 
ATOM     39  C   UNL     1       3.430   2.099   2.103  1.00  0.00     0.016 A 
ATOM     40  C   UNL     1       4.205   4.278   1.533  1.00  0.00     0.016 A 
ATOM     41  C   UNL     1       2.083   2.523   1.911  1.00  0.00     0.010 A 
ATOM     42  C   UNL     1       2.899   4.615   1.190  1.00  0.00     0.010 A 
ATOM     43  C   UNL     1       1.810   3.720   1.235  1.00  0.00    -0.014 A 
BRANCH  43  44
ATOM     44  C   UNL     1       0.504   4.131   0.517  1.00  0.00     0.031 A 
ATOM     45  C   UNL     1      -0.174   5.236   1.220  1.00  0.00     0.074 A 
ATOM     46  C   UNL     1      -0.192   3.759  -0.629  1.00  0.00     0.049 A 
ATOM     47  N   UNL     1      -1.388   5.174   1.679  1.00  0.00    -0.248 NA
ATOM     48  C   UNL     1       0.534   6.470   1.553  1.00  0.00     0.031 C 
ATOM     49  C   UNL     1      -1.234   4.561  -1.292  1.00  0.00     0.029 A 
ATOM     50  N   UNL     1      -0.097   2.695  -1.577  1.00  0.00    -0.354 N 
ATOM     51  C   UNL     1      -1.663   6.466   2.060  1.00  0.00     0.074 A 
ATOM     52  C   UNL     1      -0.377   7.071   2.306  1.00  0.00     0.031 C 
ATOM     53  C   UNL     1      -1.808   3.874  -2.300  1.00  0.00     0.029 A 
ATOM     54  C   UNL     1      -1.252   2.525  -2.362  1.00  0.00     0.049 A 
ATOM     55  H   UNL     1       0.705   2.132  -1.673  1.00  0.00     0.167 HD
ATOM     56  C   UNL     1      -2.808   7.100   1.667  1.00  0.00     0.037 A 
ATOM     57  C   UNL     1      -1.885   1.386  -2.809  1.00  0.00     0.037 A 
ATOM     58  C   UNL     1      -3.583   6.306   0.701  1.00  0.00     0.049 A 
ATOM     59  C   UNL     1      -3.272   1.415  -2.207  1.00  0.00     0.074 A 
ATOM     60  C   UNL     1      -3.871   6.514  -0.643  1.00  0.00     0.029 A 
ATOM     61  N   UNL     1      -3.962   4.989   0.962  1.00  0.00    -0.354 N 
ATOM     62  N   UNL     1      -3.607   2.381  -1.407  1.00  0.00    -0.248 NA
ATOM     63  C   UNL     1      -4.346   0.433  -2.323  1.00  0.00     0.031 C 
ATOM     64  C   UNL     1      -4.541   5.378  -1.146  1.00  0.00     0.029 A 
ATOM     65  C   UNL     1      -4.625   4.447  -0.127  1.00  0.00     0.049 A 
ATOM     66  H   UNL     1      -3.784   4.511   1.803  1.00  0.00     0.167 HD
ATOM     67  C   UNL     1      -4.847   2.212  -0.911  1.00  0.00     0.074 A 
ATOM     68  C   UNL     1      -5.275   0.953  -1.489  1.00  0.00     0.031 C 
ATOM     69  C   UNL     1      -5.321   3.164  -0.061  1.00  0.00     0.037 A 
BRANCH  56  70
ATOM     70  C   UNL     1      -2.973   8.611   1.820  1.00  0.00     0.064 A 
ATOM     71  C   UNL     1      -3.880   9.339   1.027  1.00  0.00     0.173 A 
ATOM     72  C   UNL     1      -2.252   9.406   2.737  1.00  0.00     0.173 A 
ATOM     73  F   UNL     1      -4.804   8.729   0.277  1.00  0.00    -0.203 F 
ATOM     74  C   UNL     1      -3.916  10.735   1.012  1.00  0.00     0.198 A 
ATOM     75  C   UNL     1      -2.231  10.802   2.677  1.00  0.00     0.198 A 
ATOM     76  F   UNL     1      -1.605   8.859   3.777  1.00  0.00    -0.203 F 
ATOM     77  F   UNL     1      -4.802  11.364   0.227  1.00  0.00    -0.200 F 
ATOM     78  C   UNL     1      -3.056  11.468   1.801  1.00  0.00     0.200 A 
ATOM     79  F   UNL     1      -1.421  11.492   3.493  1.00  0.00    -0.200 F 
ATOM     80  F   UNL     1      -3.073  12.807   1.765  1.00  0.00    -0.200 F 
ENDBRANCH  56  70
BRANCH  57  81
ATOM     81  C   UNL     1      -1.189   0.126  -3.247  1.00  0.00     0.064 A 
ATOM     82  C   UNL     1      -0.603   0.027  -4.523  1.00  0.00     0.173 A 
ATOM     83  C   UNL     1      -1.028  -1.012  -2.452  1.00  0.00     0.173 A 
ATOM     84  F   UNL     1      -0.873   0.951  -5.458  1.00  0.00    -0.203 F 
ATOM     85  C   UNL     1       0.241  -1.040  -4.883  1.00  0.00     0.198 A 
ATOM     86  C   UNL     1      -0.083  -2.011  -2.743  1.00  0.00     0.198 A 
ATOM     87  F   UNL     1      -1.847  -1.208  -1.415  1.00  0.00    -0.203 F 
ATOM     88  F   UNL     1       0.771  -1.097  -6.114  1.00  0.00    -0.200 F 
ATOM     89  C   UNL     1       0.578  -2.007  -3.953  1.00  0.00     0.200 A 
ATOM     90  F   UNL     1       0.182  -2.980  -1.854  1.00  0.00    -0.200 F 
ATOM     91  F   UNL     1       1.510  -2.933  -4.228  1.00  0.00    -0.200 F 
ENDBRANCH  57  81
BRANCH  69  92
ATOM     92  C   UNL     1      -6.546   3.074   0.786  1.00  0.00     0.064 A 
ATOM     93  C   UNL     1      -7.087   1.867   1.240  1.00  0.00     0.173 A 
ATOM     94  C   UNL     1      -7.139   4.256   1.295  1.00  0.00     0.173 A 
ATOM     95  F   UNL     1      -6.541   0.688   0.911  1.00  0.00    -0.203 F 
ATOM     96  C   UNL     1      -8.187   1.844   2.097  1.00  0.00     0.198 A 
ATOM     97  C   UNL     1      -8.191   4.228   2.197  1.00  0.00     0.198 A 
ATOM     98  F   UNL     1      -6.706   5.477   0.949  1.00  0.00    -0.203 F 
ATOM     99  F   UNL     1      -8.707   0.668   2.472  1.00  0.00    -0.200 F 
ATOM    100  C   UNL     1      -8.730   3.022   2.583  1.00  0.00     0.200 A 
ATOM    101  F   UNL     1      -8.665   5.378   2.697  1.00  0.00    -0.200 F 
ATOM    102  F   UNL     1      -9.763   2.993   3.433  1.00  0.00    -0.200 F 
ENDBRANCH  69  92
ENDBRANCH  43  44
ENDBRANCH  36  38
ENDBRANCH  35  36
ENDBRANCH  34  35
ENDBRANCH  33  34
ENDBRANCH  32  33
ENDBRANCH   1  32
TORSDOF 18
