REMARK SMILES Cc1cccc(N2C(=O)/C(=C/c3ccc(C(=O)OCCOCCOC(=O)c4ccc(-c5c6nc(c(-c7c(F)c(F)c(F)c(F)c7F)c7ccc([nH]7)c(-c7c(F)c(F)c(F)c(F)c7F)c7nc(c(-c8c(F)c(F)c(F)c(F)c8F)c8ccc5[nH]8)C=C7)C=C6)cc4)cc3)c3ccccc3C2=O)c1
REMARK SMILES IDX 21 1 20 2 19 3 18 4 16 5 17 6 15 7 12 8 13 9 91 10 14 11
REMARK SMILES IDX 90 12 11 13 7 14 8 15 98 16 9 17 10 18 97 19 99 20 92 21
REMARK SMILES IDX 96 22 93 23 95 24 94 25 6 26 1 27 2 28 3 29 100 30 4 31 5 32
REMARK SMILES IDX 22 33 23 34 24 35 25 36 26 37 27 38 28 39 89 40 29 41 88 42
REMARK SMILES IDX 30 43 31 44 32 45 82 46 33 47 87 48 81 49 83 50 34 51 86 52
REMARK SMILES IDX 80 53 79 54 35 56 67 57 47 58 66 59 48 60 51 61 65 62 84 63
REMARK SMILES IDX 49 64 50 65 64 67 85 68 52 69 36 70 37 71 45 72 38 73 39 74
REMARK SMILES IDX 43 75 46 76 40 77 41 78 44 79 42 80 68 81 69 82 77 83 70 84
REMARK SMILES IDX 71 85 75 86 78 87 72 88 73 89 76 90 74 91 53 92 54 93 62 94
REMARK SMILES IDX 55 95 56 96 60 97 63 98 57 99 58 100 61 101 59 102
REMARK H PARENT 83 55 51 66
REMARK Flexibility Score: inf
ROOT
ATOM      1  O   UNL     1      -2.714  12.471   0.958  1.00  0.00    -0.374 OA
ENDROOT
BRANCH   1   2
ATOM      2  C   UNL     1      -3.582  11.789   1.847  1.00  0.00     0.202 C 
BRANCH   2   3
ATOM      3  C   UNL     1      -4.762  11.344   1.024  1.00  0.00     0.261 C 
BRANCH   3   4
ATOM      4  O   UNL     1      -4.429  10.278   0.113  1.00  0.00    -0.460 OA
BRANCH   4   5
ATOM      5  C   UNL     1      -3.772  10.557  -1.060  1.00  0.00     0.338 C 
ATOM      6  O   UNL     1      -3.512  11.605  -1.561  1.00  0.00    -0.246 OA
BRANCH   5   7
ATOM      7  C   UNL     1      -3.259   9.253  -1.526  1.00  0.00     0.060 A 
ATOM      8  C   UNL     1      -2.040   6.800  -1.416  1.00  0.00    -0.025 A 
ATOM      9  C   UNL     1      -1.274   7.934  -1.712  1.00  0.00     0.009 A 
ATOM     10  C   UNL     1      -3.437   6.868  -1.433  1.00  0.00     0.009 A 
ATOM     11  C   UNL     1      -1.890   9.176  -1.781  1.00  0.00     0.016 A 
ATOM     12  C   UNL     1      -4.053   8.108  -1.451  1.00  0.00     0.016 A 
BRANCH   8  13
ATOM     13  C   UNL     1      -1.350   5.596  -0.960  1.00  0.00     0.022 C 
ATOM     14  N   UNL     1      -1.600   2.490   0.528  1.00  0.00    -0.242 N 
ATOM     15  C   UNL     1      -0.836   3.652   0.310  1.00  0.00     0.265 C 
ATOM     16  C   UNL     1      -2.966   2.591   0.899  1.00  0.00     0.265 C 
ATOM     17  O   UNL     1       0.382   3.778   0.207  1.00  0.00    -0.268 OA
ATOM     18  C   UNL     1      -1.655   4.883   0.146  1.00  0.00     0.049 C 
ATOM     19  C   UNL     1      -3.438   3.898   1.431  1.00  0.00     0.048 A 
ATOM     20  O   UNL     1      -3.826   1.714   0.851  1.00  0.00    -0.268 OA
ATOM     21  C   UNL     1      -2.751   5.060   1.095  1.00  0.00    -0.000 A 
ATOM     22  C   UNL     1      -4.571   3.958   2.256  1.00  0.00     0.014 A 
ATOM     23  C   UNL     1      -3.141   6.278   1.669  1.00  0.00     0.010 A 
ATOM     24  C   UNL     1      -4.987   5.180   2.784  1.00  0.00     0.001 A 
ATOM     25  C   UNL     1      -4.263   6.337   2.502  1.00  0.00     0.001 A 
BRANCH  14  26
ATOM     26  C   UNL     1      -0.980   1.179   0.332  1.00  0.00     0.053 A 
ATOM     27  C   UNL     1       2.539  -0.311  -0.036  1.00  0.00     0.044 C 
ATOM     28  C   UNL     1       1.043  -0.221   0.038  1.00  0.00    -0.049 A 
ATOM     29  C   UNL     1       0.258  -1.362  -0.082  1.00  0.00     0.003 A 
ATOM     30  C   UNL     1       0.419   1.020   0.259  1.00  0.00     0.030 A 
ATOM     31  C   UNL     1      -1.123  -1.252  -0.003  1.00  0.00     0.002 A 
ATOM     32  C   UNL     1      -1.728  -0.002   0.195  1.00  0.00     0.027 A 
ENDBRANCH  14  26
ENDBRANCH   8  13
ENDBRANCH   5   7
ENDBRANCH   4   5
ENDBRANCH   3   4
ENDBRANCH   2   3
ENDBRANCH   1   2
BRANCH   1  33
ATOM     33  C   UNL     1      -1.493  12.922   1.512  1.00  0.00     0.202 C 
BRANCH  33  34
ATOM     34  C   UNL     1      -1.683  14.008   2.578  1.00  0.00     0.261 C 
BRANCH  34  35
ATOM     35  O   UNL     1      -2.324  15.156   1.986  1.00  0.00    -0.460 OA
BRANCH  35  36
ATOM     36  C   UNL     1      -3.651  15.292   2.253  1.00  0.00     0.338 C 
ATOM     37  O   UNL     1      -4.161  15.217   3.359  1.00  0.00    -0.246 OA
BRANCH  36  38
ATOM     38  C   UNL     1      -4.426  15.257   0.979  1.00  0.00     0.060 A 
ATOM     39  C   UNL     1      -5.823  15.088   1.012  1.00  0.00     0.016 A 
ATOM     40  C   UNL     1      -3.737  15.081  -0.217  1.00  0.00     0.016 A 
ATOM     41  C   UNL     1      -6.501  14.585  -0.110  1.00  0.00     0.010 A 
ATOM     42  C   UNL     1      -4.394  14.505  -1.285  1.00  0.00     0.010 A 
ATOM     43  C   UNL     1      -5.768  14.209  -1.232  1.00  0.00    -0.014 A 
BRANCH  43  44
ATOM     44  C   UNL     1      -6.255  13.406  -2.362  1.00  0.00     0.031 A 
ATOM     45  C   UNL     1      -6.106  13.947  -3.738  1.00  0.00     0.074 A 
ATOM     46  C   UNL     1      -6.500  12.079  -2.210  1.00  0.00     0.049 A 
ATOM     47  N   UNL     1      -6.506  13.330  -4.796  1.00  0.00    -0.248 NA
ATOM     48  C   UNL     1      -5.531  15.257  -4.052  1.00  0.00     0.031 C 
ATOM     49  C   UNL     1      -6.341  11.026  -3.221  1.00  0.00     0.029 A 
ATOM     50  N   UNL     1      -6.951  11.361  -1.090  1.00  0.00    -0.354 N 
ATOM     51  C   UNL     1      -5.902  13.923  -5.876  1.00  0.00     0.074 A 
ATOM     52  C   UNL     1      -5.456  15.200  -5.387  1.00  0.00     0.031 C 
ATOM     53  C   UNL     1      -6.946   9.902  -2.804  1.00  0.00     0.029 A 
ATOM     54  C   UNL     1      -7.640  10.232  -1.576  1.00  0.00     0.049 A 
ATOM     55  H   UNL     1      -6.812  11.600  -0.146  1.00  0.00     0.167 HD
ATOM     56  C   UNL     1      -5.735  13.178  -7.005  1.00  0.00     0.037 A 
ATOM     57  C   UNL     1      -8.956  10.027  -1.296  1.00  0.00     0.037 A 
ATOM     58  C   UNL     1      -6.500  11.925  -6.917  1.00  0.00     0.049 A 
ATOM     59  C   UNL     1      -9.742  10.001  -2.573  1.00  0.00     0.074 A 
ATOM     60  C   UNL     1      -6.158  10.587  -6.832  1.00  0.00     0.029 A 
ATOM     61  N   UNL     1      -7.868  11.995  -6.638  1.00  0.00    -0.354 N 
ATOM     62  N   UNL     1      -9.275  10.518  -3.676  1.00  0.00    -0.248 NA
ATOM     63  C   UNL     1     -11.034   9.358  -2.763  1.00  0.00     0.031 C 
ATOM     64  C   UNL     1      -7.317   9.869  -6.410  1.00  0.00     0.029 A 
ATOM     65  C   UNL     1      -8.373  10.760  -6.287  1.00  0.00     0.049 A 
ATOM     66  H   UNL     1      -8.402  12.820  -6.685  1.00  0.00     0.167 HD
ATOM     67  C   UNL     1     -10.107  10.230  -4.709  1.00  0.00     0.074 A 
ATOM     68  C   UNL     1     -11.220   9.537  -4.085  1.00  0.00     0.031 C 
ATOM     69  C   UNL     1      -9.794  10.591  -5.986  1.00  0.00     0.037 A 
BRANCH  56  70
ATOM     70  C   UNL     1      -4.769  13.484  -8.136  1.00  0.00     0.064 A 
ATOM     71  C   UNL     1      -4.764  12.683  -9.300  1.00  0.00     0.173 A 
ATOM     72  C   UNL     1      -3.765  14.478  -8.112  1.00  0.00     0.173 A 
ATOM     73  F   UNL     1      -5.639  11.680  -9.456  1.00  0.00    -0.203 F 
ATOM     74  C   UNL     1      -3.849  12.871 -10.345  1.00  0.00     0.198 A 
ATOM     75  C   UNL     1      -2.889  14.701  -9.181  1.00  0.00     0.198 A 
ATOM     76  F   UNL     1      -3.538  15.240  -7.038  1.00  0.00    -0.203 F 
ATOM     77  F   UNL     1      -3.866  12.047 -11.402  1.00  0.00    -0.200 F 
ATOM     78  C   UNL     1      -2.924  13.893 -10.294  1.00  0.00     0.200 A 
ATOM     79  F   UNL     1      -1.991  15.696  -9.105  1.00  0.00    -0.200 F 
ATOM     80  F   UNL     1      -2.060  14.086 -11.300  1.00  0.00    -0.200 F 
ENDBRANCH  56  70
BRANCH  57  81
ATOM     81  C   UNL     1      -9.318  10.574   0.042  1.00  0.00     0.064 A 
ATOM     82  C   UNL     1      -8.733   9.927   1.155  1.00  0.00     0.173 A 
ATOM     83  C   UNL     1      -9.690  11.916   0.203  1.00  0.00     0.173 A 
ATOM     84  F   UNL     1      -8.333   8.649   1.051  1.00  0.00    -0.203 F 
ATOM     85  C   UNL     1      -8.386  10.632   2.307  1.00  0.00     0.198 A 
ATOM     86  C   UNL     1      -9.347  12.615   1.367  1.00  0.00     0.198 A 
ATOM     87  F   UNL     1     -10.234  12.593  -0.818  1.00  0.00    -0.203 F 
ATOM     88  F   UNL     1      -7.676  10.028   3.272  1.00  0.00    -0.200 F 
ATOM     89  C   UNL     1      -8.656  11.986   2.393  1.00  0.00     0.200 A 
ATOM     90  F   UNL     1      -9.583  13.933   1.448  1.00  0.00    -0.200 F 
ATOM     91  F   UNL     1      -8.194  12.696   3.433  1.00  0.00    -0.200 F 
ENDBRANCH  57  81
BRANCH  69  92
ATOM     92  C   UNL     1     -10.806  10.768  -7.083  1.00  0.00     0.064 A 
ATOM     93  C   UNL     1     -12.159  11.057  -6.841  1.00  0.00     0.173 A 
ATOM     94  C   UNL     1     -10.390  10.859  -8.432  1.00  0.00     0.173 A 
ATOM     95  F   UNL     1     -12.653  11.124  -5.597  1.00  0.00    -0.203 F 
ATOM     96  C   UNL     1     -13.044  11.358  -7.875  1.00  0.00     0.198 A 
ATOM     97  C   UNL     1     -11.261  11.229  -9.452  1.00  0.00     0.198 A 
ATOM     98  F   UNL     1      -9.118  10.635  -8.794  1.00  0.00    -0.203 F 
ATOM     99  F   UNL     1     -14.334  11.586  -7.595  1.00  0.00    -0.200 F 
ATOM    100  C   UNL     1     -12.592  11.461  -9.176  1.00  0.00     0.200 A 
ATOM    101  F   UNL     1     -10.794  11.387 -10.698  1.00  0.00    -0.200 F 
ATOM    102  F   UNL     1     -13.433  11.809 -10.158  1.00  0.00    -0.200 F 
ENDBRANCH  69  92
ENDBRANCH  43  44
ENDBRANCH  36  38
ENDBRANCH  35  36
ENDBRANCH  34  35
ENDBRANCH  33  34
ENDBRANCH   1  33
TORSDOF 16
