REMARK SMILES C/C(=N\[NH+]=C1/NC(=O)[C@@H](CC(=O)OCCOCCOC(=O)c2ccc(-c3c4nc(c(-c5c(F)c(F)c(F)c(F)c5F)c5ccc([nH]5)c(-c5c(F)c(F)c(F)c(F)c5F)c5nc(c(-c6c(F)c(F)c(F)c(F)c6F)c6ccc3[nH]6)C=C5)C=C4)cc2)S1)c1ccc(Br)cc1
REMARK SMILES IDX 15 1 14 2 13 3 11 4 12 5 10 6 9 7 4 8 5 9 6 11 85 12 7 13
REMARK SMILES IDX 8 15 3 16 1 17 2 18 86 19 87 20 92 21 88 22 91 23 89 24
REMARK SMILES IDX 90 25 16 26 17 27 18 28 19 29 20 30 21 31 22 32 23 33 84 34
REMARK SMILES IDX 24 35 83 36 25 37 26 38 27 39 77 40 28 41 82 42 76 43 78 44
REMARK SMILES IDX 29 45 81 46 75 47 74 48 30 50 62 51 42 52 61 53 43 54 46 55
REMARK SMILES IDX 60 56 79 57 44 58 45 59 59 61 80 62 47 63 31 64 32 65 40 66
REMARK SMILES IDX 33 67 34 68 38 69 41 70 35 71 36 72 39 73 37 74 63 75 64 76
REMARK SMILES IDX 72 77 65 78 66 79 70 80 73 81 67 82 68 83 71 84 69 85 48 86
REMARK SMILES IDX 49 87 57 88 50 89 51 90 55 91 58 92 52 93 53 94 56 95 54 96
REMARK H PARENT 4 10 6 14 78 49 46 60
REMARK Flexibility Score: inf
ROOT
ATOM      1  C   UNL     1      -3.854  -2.881   6.533  1.00  0.00     0.202 C 
ENDROOT
BRANCH   1   2
ATOM      2  C   UNL     1      -4.779  -3.273   5.379  1.00  0.00     0.261 C 
BRANCH   2   3
ATOM      3  O   UNL     1      -4.151  -3.052   4.103  1.00  0.00    -0.463 OA
BRANCH   3   4
ATOM      4  C   UNL     1      -4.759  -2.156   3.282  1.00  0.00     0.307 C 
ATOM      5  O   UNL     1      -5.810  -1.578   3.521  1.00  0.00    -0.252 OA
BRANCH   4   6
ATOM      6  C   UNL     1      -4.037  -2.021   1.966  1.00  0.00     0.150 C 
BRANCH   6   7
ATOM      7  C   UNL     1      -2.520  -1.952   2.113  1.00  0.00     0.184 C 
ATOM      8  N   UNL     1      -0.539  -1.548  -1.157  1.00  0.00    -0.142 N 
ATOM      9  C   UNL     1      -1.191  -1.502  -0.049  1.00  0.00     0.337 C 
ATOM     10  H   UNL     1      -0.242  -2.395  -1.563  1.00  0.00     0.343 HD
ATOM     11  N   UNL     1      -1.515  -0.379   0.629  1.00  0.00    -0.202 N 
ATOM     12  S   UNL     1      -1.692  -2.925   0.802  1.00  0.00    -0.020 SA
ATOM     13  C   UNL     1      -2.063  -0.527   1.864  1.00  0.00     0.322 C 
ATOM     14  H   UNL     1      -1.359   0.513   0.242  1.00  0.00     0.316 HD
ATOM     15  O   UNL     1      -2.178   0.386   2.672  1.00  0.00    -0.246 OA
BRANCH   8  16
ATOM     16  N   UNL     1      -0.283  -0.308  -1.741  1.00  0.00    -0.090 NA
ATOM     17  C   UNL     1       1.844  -0.286  -0.448  1.00  0.00     0.071 C 
ATOM     18  C   UNL     1       0.879   0.230  -1.500  1.00  0.00     0.088 C 
BRANCH  18  19
ATOM     19  C   UNL     1       1.235   1.483  -2.248  1.00  0.00    -0.000 A 
ATOM     20  C   UNL     1       0.240   2.127  -3.003  1.00  0.00     0.011 A 
ATOM     21  C   UNL     1       2.532   2.009  -2.249  1.00  0.00     0.011 A 
ATOM     22  C   UNL     1       0.535   3.275  -3.743  1.00  0.00     0.016 A 
ATOM     23  C   UNL     1       2.830   3.154  -2.997  1.00  0.00     0.016 A 
ATOM     24  C   UNL     1       1.831   3.781  -3.739  1.00  0.00     0.018 A 
ATOM     25  Br  UNL     1       2.242   5.321  -4.753  1.00  0.00    -0.051 Br
ENDBRANCH  18  19
ENDBRANCH   8  16
ENDBRANCH   6   7
ENDBRANCH   4   6
ENDBRANCH   3   4
ENDBRANCH   2   3
ENDBRANCH   1   2
BRANCH   1  26
ATOM     26  O   UNL     1      -3.616  -1.484   6.693  1.00  0.00    -0.374 OA
BRANCH  26  27
ATOM     27  C   UNL     1      -2.664  -0.878   5.819  1.00  0.00     0.202 C 
BRANCH  27  28
ATOM     28  C   UNL     1      -1.189  -1.118   6.170  1.00  0.00     0.261 C 
BRANCH  28  29
ATOM     29  O   UNL     1      -0.804  -2.495   5.980  1.00  0.00    -0.460 OA
BRANCH  29  30
ATOM     30  C   UNL     1      -0.493  -3.161   7.118  1.00  0.00     0.338 C 
ATOM     31  O   UNL     1      -0.425  -2.705   8.251  1.00  0.00    -0.246 OA
BRANCH  30  32
ATOM     32  C   UNL     1      -0.390  -4.609   6.856  1.00  0.00     0.060 A 
ATOM     33  C   UNL     1      -1.144  -5.470   7.665  1.00  0.00     0.016 A 
ATOM     34  C   UNL     1       0.497  -5.124   5.908  1.00  0.00     0.016 A 
ATOM     35  C   UNL     1      -0.974  -6.850   7.569  1.00  0.00     0.010 A 
ATOM     36  C   UNL     1       0.675  -6.510   5.821  1.00  0.00     0.010 A 
ATOM     37  C   UNL     1      -0.031  -7.376   6.678  1.00  0.00    -0.014 A 
BRANCH  37  38
ATOM     38  C   UNL     1       0.348  -8.808   6.766  1.00  0.00     0.031 A 
ATOM     39  C   UNL     1       1.579  -9.183   7.543  1.00  0.00     0.074 A 
ATOM     40  C   UNL     1      -0.397  -9.763   6.183  1.00  0.00     0.049 A 
ATOM     41  N   UNL     1       2.147 -10.353   7.693  1.00  0.00    -0.248 NA
ATOM     42  C   UNL     1       2.264  -8.088   8.248  1.00  0.00     0.031 C 
ATOM     43  C   UNL     1      -1.640  -9.536   5.450  1.00  0.00     0.029 A 
ATOM     44  N   UNL     1      -0.204 -11.121   6.109  1.00  0.00    -0.354 N 
ATOM     45  C   UNL     1       3.258 -10.133   8.496  1.00  0.00     0.074 A 
ATOM     46  C   UNL     1       3.299  -8.716   8.786  1.00  0.00     0.031 C 
ATOM     47  C   UNL     1      -2.092 -10.713   4.986  1.00  0.00     0.029 A 
ATOM     48  C   UNL     1      -1.152 -11.770   5.359  1.00  0.00     0.049 A 
ATOM     49  H   UNL     1       0.543 -11.584   6.553  1.00  0.00     0.167 HD
ATOM     50  C   UNL     1       4.160 -11.032   8.955  1.00  0.00     0.037 A 
ATOM     51  C   UNL     1      -1.234 -13.064   4.994  1.00  0.00     0.037 A 
ATOM     52  C   UNL     1       4.118 -12.442   8.671  1.00  0.00     0.049 A 
ATOM     53  C   UNL     1      -0.175 -14.034   5.454  1.00  0.00     0.074 A 
ATOM     54  C   UNL     1       4.985 -13.434   9.092  1.00  0.00     0.029 A 
ATOM     55  N   UNL     1       3.155 -13.057   7.886  1.00  0.00    -0.354 N 
ATOM     56  N   UNL     1       0.869 -13.820   6.216  1.00  0.00    -0.248 NA
ATOM     57  C   UNL     1      -0.308 -15.427   5.001  1.00  0.00     0.031 C 
ATOM     58  C   UNL     1       4.570 -14.645   8.528  1.00  0.00     0.029 A 
ATOM     59  C   UNL     1       3.417 -14.414   7.795  1.00  0.00     0.049 A 
ATOM     60  H   UNL     1       2.397 -12.598   7.457  1.00  0.00     0.167 HD
ATOM     61  C   UNL     1       1.496 -15.051   6.363  1.00  0.00     0.074 A 
ATOM     62  C   UNL     1       0.714 -16.010   5.611  1.00  0.00     0.031 C 
ATOM     63  C   UNL     1       2.616 -15.360   7.061  1.00  0.00     0.037 A 
BRANCH  50  64
ATOM     64  C   UNL     1       5.290 -10.510   9.792  1.00  0.00     0.064 A 
ATOM     65  C   UNL     1       5.091 -10.077  11.111  1.00  0.00     0.173 A 
ATOM     66  C   UNL     1       6.594 -10.468   9.276  1.00  0.00     0.173 A 
ATOM     67  F   UNL     1       3.860 -10.082  11.645  1.00  0.00    -0.203 F 
ATOM     68  C   UNL     1       6.152  -9.597  11.874  1.00  0.00     0.198 A 
ATOM     69  C   UNL     1       7.657 -10.013  10.050  1.00  0.00     0.198 A 
ATOM     70  F   UNL     1       6.837 -10.874   8.021  1.00  0.00    -0.203 F 
ATOM     71  F   UNL     1       5.932  -9.146  13.117  1.00  0.00    -0.200 F 
ATOM     72  C   UNL     1       7.435  -9.572  11.346  1.00  0.00     0.200 A 
ATOM     73  F   UNL     1       8.897  -9.998   9.541  1.00  0.00    -0.200 F 
ATOM     74  F   UNL     1       8.456  -9.113  12.083  1.00  0.00    -0.200 F 
ENDBRANCH  50  64
BRANCH  51  75
ATOM     75  C   UNL     1      -2.353 -13.522   4.131  1.00  0.00     0.064 A 
ATOM     76  C   UNL     1      -3.353 -14.366   4.631  1.00  0.00     0.173 A 
ATOM     77  C   UNL     1      -2.437 -13.137   2.785  1.00  0.00     0.173 A 
ATOM     78  F   UNL     1      -3.301 -14.784   5.905  1.00  0.00    -0.203 F 
ATOM     79  C   UNL     1      -4.387 -14.820   3.814  1.00  0.00     0.198 A 
ATOM     80  C   UNL     1      -3.485 -13.570   1.976  1.00  0.00     0.198 A 
ATOM     81  F   UNL     1      -1.502 -12.333   2.257  1.00  0.00    -0.203 F 
ATOM     82  F   UNL     1      -5.306 -15.662   4.306  1.00  0.00    -0.200 F 
ATOM     83  C   UNL     1      -4.455 -14.417   2.489  1.00  0.00     0.200 A 
ATOM     84  F   UNL     1      -3.552 -13.171   0.698  1.00  0.00    -0.200 F 
ATOM     85  F   UNL     1      -5.451 -14.852   1.705  1.00  0.00    -0.200 F 
ENDBRANCH  51  75
BRANCH  63  86
ATOM     86  C   UNL     1       3.040 -16.799   7.095  1.00  0.00     0.064 A 
ATOM     87  C   UNL     1       3.631 -17.421   5.987  1.00  0.00     0.173 A 
ATOM     88  C   UNL     1       2.906 -17.546   8.276  1.00  0.00     0.173 A 
ATOM     89  F   UNL     1       3.769 -16.753   4.832  1.00  0.00    -0.203 F 
ATOM     90  C   UNL     1       4.059 -18.744   6.054  1.00  0.00     0.198 A 
ATOM     91  C   UNL     1       3.358 -18.860   8.348  1.00  0.00     0.198 A 
ATOM     92  F   UNL     1       2.352 -16.993   9.366  1.00  0.00    -0.203 F 
ATOM     93  F   UNL     1       4.590 -19.331   4.973  1.00  0.00    -0.200 F 
ATOM     94  C   UNL     1       3.930 -19.460   7.236  1.00  0.00     0.200 A 
ATOM     95  F   UNL     1       3.244 -19.545   9.494  1.00  0.00    -0.200 F 
ATOM     96  F   UNL     1       4.353 -20.730   7.302  1.00  0.00    -0.200 F 
ENDBRANCH  63  86
ENDBRANCH  37  38
ENDBRANCH  30  32
ENDBRANCH  29  30
ENDBRANCH  28  29
ENDBRANCH  27  28
ENDBRANCH  26  27
ENDBRANCH   1  26
TORSDOF 17
