REMARK SMILES NS(=O)(=O)c1ccc(-n2nc(C(F)(F)F)cc2-c2ccc(C(=O)OCCOCCOC(=O)c3ccc(-c4c5nc(c(-c6c(F)c(F)c(F)c(F)c6F)c6ccc([nH]6)c(-c6c(F)c(F)c(F)c(F)c6F)c6nc(c(-c7c(F)c(F)c(F)c(F)c7F)c7ccc4[nH]7)C=C6)C=C5)cc3)cc2)cc1
REMARK SMILES IDX 26 1 25 2 24 3 22 4 23 5 21 6 18 7 19 8 97 9 20 10 96 11
REMARK SMILES IDX 17 12 9 13 10 14 11 15 16 16 8 17 5 18 6 19 99 20 7 21 98 22
REMARK SMILES IDX 2 23 3 24 4 25 1 26 12 29 13 30 14 31 15 32 27 33 28 34
REMARK SMILES IDX 29 35 30 36 31 37 32 38 33 39 34 40 95 41 35 42 94 43 36 44
REMARK SMILES IDX 37 45 38 46 88 47 39 48 93 49 87 50 89 51 40 52 92 53 86 54
REMARK SMILES IDX 85 55 41 57 73 58 53 59 72 60 54 61 57 62 71 63 90 64 55 65
REMARK SMILES IDX 56 66 70 68 91 69 58 70 42 71 43 72 51 73 44 74 45 75 49 76
REMARK SMILES IDX 52 77 46 78 47 79 50 80 48 81 74 82 75 83 83 84 76 85 77 86
REMARK SMILES IDX 81 87 84 88 78 89 79 90 82 91 80 92 59 93 60 94 68 95 61 96
REMARK SMILES IDX 62 97 66 98 69 99 63 100 64 101 67 102 65 103
REMARK H PARENT 1 27 1 28 89 56 57 67
REMARK Flexibility Score: inf
ROOT
ATOM      1  C   UNL     1       6.423  -5.664  -2.820  1.00  0.00     0.202 C 
ENDROOT
BRANCH   1   2
ATOM      2  C   UNL     1       6.603  -6.794  -1.804  1.00  0.00     0.261 C 
BRANCH   2   3
ATOM      3  O   UNL     1       5.644  -6.753  -0.738  1.00  0.00    -0.460 OA
BRANCH   3   4
ATOM      4  C   UNL     1       6.160  -6.325   0.440  1.00  0.00     0.338 C 
ATOM      5  O   UNL     1       7.318  -6.010   0.662  1.00  0.00    -0.246 OA
BRANCH   4   6
ATOM      6  C   UNL     1       5.086  -6.105   1.427  1.00  0.00     0.060 A 
ATOM      7  C   UNL     1       3.287  -5.732   3.526  1.00  0.00     0.000 A 
ATOM      8  C   UNL     1       4.324  -4.813   3.320  1.00  0.00     0.011 A 
ATOM      9  C   UNL     1       3.117  -6.800   2.634  1.00  0.00     0.011 A 
ATOM     10  C   UNL     1       5.223  -5.001   2.277  1.00  0.00     0.016 A 
ATOM     11  C   UNL     1       4.008  -6.981   1.572  1.00  0.00     0.016 A 
BRANCH   7  12
ATOM     12  C   UNL     1       2.461  -5.628   4.723  1.00  0.00     0.075 A 
ATOM     13  N   UNL     1       1.760  -4.503   5.132  1.00  0.00    -0.233 N 
ATOM     14  N   UNL     1       1.375  -4.592   6.432  1.00  0.00    -0.163 NA
ATOM     15  C   UNL     1       1.646  -5.865   6.787  1.00  0.00     0.167 A 
ATOM     16  C   UNL     1       2.357  -6.530   5.761  1.00  0.00     0.064 A 
BRANCH  13  17
ATOM     17  C   UNL     1       1.423  -3.369   4.349  1.00  0.00     0.065 A 
ATOM     18  C   UNL     1       0.864  -1.147   2.769  1.00  0.00     0.082 A 
ATOM     19  C   UNL     1       0.761  -2.425   2.216  1.00  0.00     0.024 A 
ATOM     20  C   UNL     1       1.227  -0.972   4.111  1.00  0.00     0.024 A 
ATOM     21  C   UNL     1       1.055  -3.536   3.004  1.00  0.00     0.030 A 
ATOM     22  C   UNL     1       1.476  -2.089   4.914  1.00  0.00     0.030 A 
BRANCH  18  23
ATOM     23  S   UNL     1       0.558   0.270   1.756  1.00  0.00     0.238 S 
ATOM     24  O   UNL     1       1.297   1.392   2.272  1.00  0.00    -0.207 OA
ATOM     25  O   UNL     1      -0.858   0.322   1.462  1.00  0.00    -0.207 OA
BRANCH  23  26
ATOM     26  N   UNL     1       1.317  -0.122   0.303  1.00  0.00    -0.225 NA
ATOM     27  H   UNL     1       1.197   0.644  -0.360  1.00  0.00     0.137 HD
ATOM     28  H   UNL     1       0.902  -0.971  -0.079  1.00  0.00     0.137 HD
ENDBRANCH  23  26
ENDBRANCH  18  23
ENDBRANCH  13  17
BRANCH  15  29
ATOM     29  C   UNL     1       1.254  -6.469   8.110  1.00  0.00     0.435 C 
ATOM     30  F   UNL     1       1.640  -5.722   9.175  1.00  0.00    -0.164 F 
ATOM     31  F   UNL     1      -0.090  -6.651   8.207  1.00  0.00    -0.164 F 
ATOM     32  F   UNL     1       1.814  -7.700   8.279  1.00  0.00    -0.164 F 
ENDBRANCH  15  29
ENDBRANCH   7  12
ENDBRANCH   4   6
ENDBRANCH   3   4
ENDBRANCH   2   3
ENDBRANCH   1   2
BRANCH   1  33
ATOM     33  O   UNL     1       6.531  -4.308  -2.392  1.00  0.00    -0.374 OA
BRANCH  33  34
ATOM     34  C   UNL     1       5.570  -3.739  -1.509  1.00  0.00     0.202 C 
BRANCH  34  35
ATOM     35  C   UNL     1       4.156  -3.510  -2.015  1.00  0.00     0.261 C 
BRANCH  35  36
ATOM     36  O   UNL     1       3.573  -4.706  -2.497  1.00  0.00    -0.460 OA
BRANCH  36  37
ATOM     37  C   UNL     1       3.573  -4.817  -3.845  1.00  0.00     0.338 C 
ATOM     38  O   UNL     1       4.187  -4.139  -4.649  1.00  0.00    -0.246 OA
BRANCH  37  39
ATOM     39  C   UNL     1       2.550  -5.801  -4.211  1.00  0.00     0.060 A 
ATOM     40  C   UNL     1       2.333  -5.976  -5.577  1.00  0.00     0.016 A 
ATOM     41  C   UNL     1       1.587  -6.133  -3.251  1.00  0.00     0.016 A 
ATOM     42  C   UNL     1       1.031  -6.125  -5.995  1.00  0.00     0.010 A 
ATOM     43  C   UNL     1       0.298  -6.293  -3.670  1.00  0.00     0.010 A 
ATOM     44  C   UNL     1       0.024  -6.132  -5.024  1.00  0.00    -0.014 A 
BRANCH  44  45
ATOM     45  C   UNL     1      -1.364  -6.135  -5.430  1.00  0.00     0.031 A 
ATOM     46  C   UNL     1      -1.757  -7.508  -5.807  1.00  0.00     0.074 A 
ATOM     47  C   UNL     1      -2.163  -5.052  -5.323  1.00  0.00     0.049 A 
ATOM     48  N   UNL     1      -1.834  -7.989  -7.003  1.00  0.00    -0.248 NA
ATOM     49  C   UNL     1      -1.740  -8.539  -4.751  1.00  0.00     0.031 C 
ATOM     50  C   UNL     1      -1.876  -3.745  -4.721  1.00  0.00     0.029 A 
ATOM     51  N   UNL     1      -3.475  -4.929  -5.685  1.00  0.00    -0.354 N 
ATOM     52  C   UNL     1      -2.147  -9.329  -6.819  1.00  0.00     0.074 A 
ATOM     53  C   UNL     1      -1.742  -9.653  -5.483  1.00  0.00     0.031 C 
ATOM     54  C   UNL     1      -3.033  -3.058  -4.546  1.00  0.00     0.029 A 
ATOM     55  C   UNL     1      -4.120  -3.806  -5.146  1.00  0.00     0.049 A 
ATOM     56  H   UNL     1      -3.929  -5.573  -6.274  1.00  0.00     0.167 HD
ATOM     57  C   UNL     1      -3.087  -9.919  -7.605  1.00  0.00     0.037 A 
ATOM     58  C   UNL     1      -5.466  -3.596  -5.167  1.00  0.00     0.037 A 
ATOM     59  C   UNL     1      -3.300  -9.133  -8.797  1.00  0.00     0.049 A 
ATOM     60  C   UNL     1      -6.012  -4.476  -6.237  1.00  0.00     0.074 A 
ATOM     61  C   UNL     1      -2.521  -8.740  -9.866  1.00  0.00     0.029 A 
ATOM     62  N   UNL     1      -4.368  -8.273  -8.764  1.00  0.00    -0.354 N 
ATOM     63  N   UNL     1      -5.731  -4.325  -7.503  1.00  0.00    -0.248 NA
ATOM     64  C   UNL     1      -6.421  -5.813  -5.835  1.00  0.00     0.031 C 
ATOM     65  C   UNL     1      -2.939  -7.409 -10.166  1.00  0.00     0.029 A 
ATOM     66  C   UNL     1      -4.014  -7.084  -9.338  1.00  0.00     0.049 A 
ATOM     67  H   UNL     1      -5.253  -8.479  -8.385  1.00  0.00     0.167 HD
ATOM     68  C   UNL     1      -5.497  -5.614  -7.963  1.00  0.00     0.074 A 
ATOM     69  C   UNL     1      -5.981  -6.492  -6.898  1.00  0.00     0.031 C 
ATOM     70  C   UNL     1      -4.657  -5.830  -9.018  1.00  0.00     0.037 A 
BRANCH  57  71
ATOM     71  C   UNL     1      -4.140 -10.876  -7.078  1.00  0.00     0.064 A 
ATOM     72  C   UNL     1      -5.022 -11.464  -8.005  1.00  0.00     0.173 A 
ATOM     73  C   UNL     1      -4.520 -11.013  -5.721  1.00  0.00     0.173 A 
ATOM     74  F   UNL     1      -4.777 -11.386  -9.322  1.00  0.00    -0.203 F 
ATOM     75  C   UNL     1      -6.223 -12.059  -7.610  1.00  0.00     0.198 A 
ATOM     76  C   UNL     1      -5.693 -11.652  -5.329  1.00  0.00     0.198 A 
ATOM     77  F   UNL     1      -3.850 -10.453  -4.711  1.00  0.00    -0.203 F 
ATOM     78  F   UNL     1      -7.087 -12.487  -8.539  1.00  0.00    -0.200 F 
ATOM     79  C   UNL     1      -6.561 -12.146  -6.273  1.00  0.00     0.200 A 
ATOM     80  F   UNL     1      -6.006 -11.703  -4.026  1.00  0.00    -0.200 F 
ATOM     81  F   UNL     1      -7.738 -12.660  -5.895  1.00  0.00    -0.200 F 
ENDBRANCH  57  71
BRANCH  58  82
ATOM     82  C   UNL     1      -6.348  -3.052  -4.098  1.00  0.00     0.064 A 
ATOM     83  C   UNL     1      -7.679  -2.673  -4.363  1.00  0.00     0.173 A 
ATOM     84  C   UNL     1      -6.007  -3.195  -2.740  1.00  0.00     0.173 A 
ATOM     85  F   UNL     1      -8.111  -2.575  -5.629  1.00  0.00    -0.203 F 
ATOM     86  C   UNL     1      -8.610  -2.469  -3.335  1.00  0.00     0.198 A 
ATOM     87  C   UNL     1      -6.937  -2.993  -1.715  1.00  0.00     0.198 A 
ATOM     88  F   UNL     1      -4.793  -3.639  -2.385  1.00  0.00    -0.203 F 
ATOM     89  F   UNL     1      -9.883  -2.168  -3.630  1.00  0.00    -0.200 F 
ATOM     90  C   UNL     1      -8.240  -2.640  -2.012  1.00  0.00     0.200 A 
ATOM     91  F   UNL     1      -6.579  -3.213  -0.442  1.00  0.00    -0.200 F 
ATOM     92  F   UNL     1      -9.145  -2.513  -1.030  1.00  0.00    -0.200 F 
ENDBRANCH  58  82
BRANCH  70  93
ATOM     93  C   UNL     1      -4.234  -4.641  -9.835  1.00  0.00     0.064 A 
ATOM     94  C   UNL     1      -3.380  -3.621  -9.380  1.00  0.00     0.173 A 
ATOM     95  C   UNL     1      -4.573  -4.644 -11.194  1.00  0.00     0.173 A 
ATOM     96  F   UNL     1      -2.950  -3.596  -8.111  1.00  0.00    -0.203 F 
ATOM     97  C   UNL     1      -2.900  -2.643 -10.254  1.00  0.00     0.198 A 
ATOM     98  C   UNL     1      -4.066  -3.689 -12.068  1.00  0.00     0.198 A 
ATOM     99  F   UNL     1      -5.349  -5.622 -11.685  1.00  0.00    -0.203 F 
ATOM    100  F   UNL     1      -2.078  -1.681  -9.806  1.00  0.00    -0.200 F 
ATOM    101  C   UNL     1      -3.234  -2.687 -11.599  1.00  0.00     0.200 A 
ATOM    102  F   UNL     1      -4.354  -3.768 -13.374  1.00  0.00    -0.200 F 
ATOM    103  F   UNL     1      -2.731  -1.781 -12.450  1.00  0.00    -0.200 F 
ENDBRANCH  70  93
ENDBRANCH  44  45
ENDBRANCH  37  39
ENDBRANCH  36  37
ENDBRANCH  35  36
ENDBRANCH  34  35
ENDBRANCH  33  34
ENDBRANCH   1  33
TORSDOF 19
