REMARK SMILES COc1ccc(-n2c(C)nnc2SCC(=O)OCCOCCOC(=O)c2ccc(-c3c4nc(c(-c5c(F)c(F)c(F)c(F)c5F)c5ccc([nH]5)c(-c5c(F)c(F)c(F)c(F)c5F)c5nc(c(-c6c(F)c(F)c(F)c(F)c6F)c6ccc3[nH]6)C=C5)C=C4)cc2)cc1F
REMARK SMILES IDX 19 1 18 2 17 3 15 4 16 5 14 6 13 7 12 8 7 9 8 10 9 11 10 12
REMARK SMILES IDX 11 13 6 14 3 15 4 16 90 17 5 18 89 19 91 20 2 21 1 22 20 23
REMARK SMILES IDX 21 24 22 25 23 26 24 27 25 28 26 29 27 30 88 31 28 32 87 33
REMARK SMILES IDX 29 34 30 35 31 36 81 37 32 38 86 39 80 40 82 41 33 42 85 43
REMARK SMILES IDX 79 44 78 45 34 47 66 48 46 49 65 50 47 51 50 52 64 53 83 54
REMARK SMILES IDX 48 55 49 56 63 58 84 59 51 60 35 61 36 62 44 63 37 64 38 65
REMARK SMILES IDX 42 66 45 67 39 68 40 69 43 70 41 71 67 72 68 73 76 74 69 75
REMARK SMILES IDX 70 76 74 77 77 78 71 79 72 80 75 81 73 82 52 83 53 84 61 85
REMARK SMILES IDX 54 86 55 87 59 88 62 89 56 90 57 91 60 92 58 93
REMARK H PARENT 82 46 50 57
REMARK Flexibility Score: inf
ROOT
ATOM      1  C   UNL     1       4.799   4.181  -0.240  1.00  0.00     0.202 C 
ENDROOT
BRANCH   1   2
ATOM      2  C   UNL     1       5.212   3.062  -1.212  1.00  0.00     0.261 C 
BRANCH   2   3
ATOM      3  O   UNL     1       4.882   3.361  -2.583  1.00  0.00    -0.463 OA
BRANCH   3   4
ATOM      4  C   UNL     1       5.001   2.315  -3.460  1.00  0.00     0.316 C 
ATOM      5  O   UNL     1       5.511   1.240  -3.164  1.00  0.00    -0.251 OA
BRANCH   4   6
ATOM      6  C   UNL     1       4.306   2.551  -4.809  1.00  0.00     0.200 C 
BRANCH   6   7
ATOM      7  S   UNL     1       3.950   4.279  -5.117  1.00  0.00    -0.074 SA
BRANCH   7   8
ATOM      8  C   UNL     1       2.263   4.682  -5.201  1.00  0.00     0.196 A 
ATOM      9  N   UNL     1       1.135   4.396  -4.415  1.00  0.00    -0.274 N 
ATOM     10  C   UNL     1       0.402   5.589  -4.503  1.00  0.00     0.135 A 
ATOM     11  C   UNL     1      -0.516   6.138  -3.466  1.00  0.00     0.090 C 
ATOM     12  N   UNL     1       0.812   6.278  -5.543  1.00  0.00    -0.134 NA
ATOM     13  N   UNL     1       1.961   5.704  -5.985  1.00  0.00    -0.123 NA
BRANCH   9  14
ATOM     14  C   UNL     1       0.720   3.265  -3.644  1.00  0.00     0.053 A 
ATOM     15  C   UNL     1      -0.095   1.192  -1.870  1.00  0.00     0.154 A 
ATOM     16  C   UNL     1      -1.037   1.958  -2.561  1.00  0.00     0.052 A 
ATOM     17  C   UNL     1       1.243   1.435  -2.129  1.00  0.00     0.167 A 
ATOM     18  C   UNL     1      -0.639   2.990  -3.433  1.00  0.00     0.031 A 
ATOM     19  C   UNL     1       1.626   2.433  -3.019  1.00  0.00     0.070 A 
ATOM     20  F   UNL     1       2.230   0.767  -1.517  1.00  0.00    -0.203 F 
BRANCH  15  21
ATOM     21  O   UNL     1      -0.593   0.260  -1.005  1.00  0.00    -0.494 OA
ATOM     22  C   UNL     1       0.303  -0.194   0.010  1.00  0.00     0.278 C 
ENDBRANCH  15  21
ENDBRANCH   9  14
ENDBRANCH   7   8
ENDBRANCH   6   7
ENDBRANCH   4   6
ENDBRANCH   3   4
ENDBRANCH   2   3
ENDBRANCH   1   2
BRANCH   1  23
ATOM     23  O   UNL     1       3.398   4.402  -0.040  1.00  0.00    -0.374 OA
BRANCH  23  24
ATOM     24  C   UNL     1       2.631   4.868  -1.139  1.00  0.00     0.202 C 
BRANCH  24  25
ATOM     25  C   UNL     1       2.785   6.311  -1.554  1.00  0.00     0.261 C 
BRANCH  25  26
ATOM     26  O   UNL     1       4.095   6.526  -2.038  1.00  0.00    -0.460 OA
BRANCH  26  27
ATOM     27  C   UNL     1       4.844   7.307  -1.237  1.00  0.00     0.338 C 
ATOM     28  O   UNL     1       4.717   7.488  -0.042  1.00  0.00    -0.246 OA
BRANCH  27  29
ATOM     29  C   UNL     1       5.643   8.134  -2.139  1.00  0.00     0.060 A 
ATOM     30  C   UNL     1       6.074   9.335  -1.591  1.00  0.00     0.016 A 
ATOM     31  C   UNL     1       5.679   7.873  -3.524  1.00  0.00     0.016 A 
ATOM     32  C   UNL     1       6.375  10.350  -2.458  1.00  0.00     0.010 A 
ATOM     33  C   UNL     1       5.991   8.892  -4.393  1.00  0.00     0.010 A 
ATOM     34  C   UNL     1       6.285  10.131  -3.847  1.00  0.00    -0.014 A 
BRANCH  34  35
ATOM     35  C   UNL     1       6.764  11.211  -4.674  1.00  0.00     0.031 A 
ATOM     36  C   UNL     1       8.195  11.475  -4.410  1.00  0.00     0.074 A 
ATOM     37  C   UNL     1       6.024  11.924  -5.534  1.00  0.00     0.049 A 
ATOM     38  N   UNL     1       8.676  12.463  -3.735  1.00  0.00    -0.248 NA
ATOM     39  C   UNL     1       9.159  10.407  -4.710  1.00  0.00     0.031 C 
ATOM     40  C   UNL     1       4.696  11.661  -6.080  1.00  0.00     0.029 A 
ATOM     41  N   UNL     1       6.388  13.085  -6.134  1.00  0.00    -0.354 N 
ATOM     42  C   UNL     1      10.037  12.224  -3.645  1.00  0.00     0.074 A 
ATOM     43  C   UNL     1      10.258  10.884  -4.126  1.00  0.00     0.031 C 
ATOM     44  C   UNL     1       4.456  12.535  -7.089  1.00  0.00     0.029 A 
ATOM     45  C   UNL     1       5.543  13.499  -7.148  1.00  0.00     0.049 A 
ATOM     46  H   UNL     1       7.189  13.592  -5.870  1.00  0.00     0.167 HD
ATOM     47  C   UNL     1      10.898  13.240  -3.388  1.00  0.00     0.037 A 
ATOM     48  C   UNL     1       5.793  14.531  -7.992  1.00  0.00     0.037 A 
ATOM     49  C   UNL     1      10.232  14.346  -2.749  1.00  0.00     0.049 A 
ATOM     50  C   UNL     1       6.762  15.430  -7.306  1.00  0.00     0.074 A 
ATOM     51  C   UNL     1       9.582  14.509  -1.540  1.00  0.00     0.029 A 
ATOM     52  N   UNL     1       9.816  15.391  -3.537  1.00  0.00    -0.354 N 
ATOM     53  N   UNL     1       6.473  16.138  -6.250  1.00  0.00    -0.248 NA
ATOM     54  C   UNL     1       8.182  15.199  -7.531  1.00  0.00     0.031 C 
ATOM     55  C   UNL     1       8.468  15.354  -1.825  1.00  0.00     0.029 A 
ATOM     56  C   UNL     1       8.529  15.702  -3.174  1.00  0.00     0.049 A 
ATOM     57  H   UNL     1      10.346  15.837  -4.237  1.00  0.00     0.167 HD
ATOM     58  C   UNL     1       7.610  16.074  -5.458  1.00  0.00     0.074 A 
ATOM     59  C   UNL     1       8.657  15.558  -6.335  1.00  0.00     0.031 C 
ATOM     60  C   UNL     1       7.528  16.183  -4.100  1.00  0.00     0.037 A 
BRANCH  47  61
ATOM     61  C   UNL     1      12.230  13.350  -4.072  1.00  0.00     0.064 A 
ATOM     62  C   UNL     1      12.525  12.715  -5.301  1.00  0.00     0.173 A 
ATOM     63  C   UNL     1      13.143  14.335  -3.659  1.00  0.00     0.173 A 
ATOM     64  F   UNL     1      11.683  11.851  -5.881  1.00  0.00    -0.203 F 
ATOM     65  C   UNL     1      13.650  13.033  -6.054  1.00  0.00     0.198 A 
ATOM     66  C   UNL     1      14.240  14.692  -4.447  1.00  0.00     0.198 A 
ATOM     67  F   UNL     1      12.935  15.027  -2.529  1.00  0.00    -0.203 F 
ATOM     68  F   UNL     1      13.857  12.409  -7.222  1.00  0.00    -0.200 F 
ATOM     69  C   UNL     1      14.493  14.041  -5.642  1.00  0.00     0.200 A 
ATOM     70  F   UNL     1      15.019  15.716  -4.074  1.00  0.00    -0.200 F 
ATOM     71  F   UNL     1      15.513  14.419  -6.423  1.00  0.00    -0.200 F 
ENDBRANCH  47  61
BRANCH  48  72
ATOM     72  C   UNL     1       5.612  14.561  -9.464  1.00  0.00     0.064 A 
ATOM     73  C   UNL     1       5.558  13.380 -10.230  1.00  0.00     0.173 A 
ATOM     74  C   UNL     1       5.818  15.757 -10.174  1.00  0.00     0.173 A 
ATOM     75  F   UNL     1       5.420  12.183  -9.646  1.00  0.00    -0.203 F 
ATOM     76  C   UNL     1       5.753  13.391 -11.612  1.00  0.00     0.198 A 
ATOM     77  C   UNL     1       6.022  15.765 -11.557  1.00  0.00     0.198 A 
ATOM     78  F   UNL     1       5.915  16.923  -9.518  1.00  0.00    -0.203 F 
ATOM     79  F   UNL     1       5.769  12.234 -12.289  1.00  0.00    -0.200 F 
ATOM     80  C   UNL     1       6.006  14.579 -12.272  1.00  0.00     0.200 A 
ATOM     81  F   UNL     1       6.303  16.915 -12.185  1.00  0.00    -0.200 F 
ATOM     82  F   UNL     1       6.279  14.576 -13.584  1.00  0.00    -0.200 F 
ENDBRANCH  48  72
BRANCH  60  83
ATOM     83  C   UNL     1       6.215  16.631  -3.517  1.00  0.00     0.064 A 
ATOM     84  C   UNL     1       6.207  17.767  -2.695  1.00  0.00     0.173 A 
ATOM     85  C   UNL     1       5.009  15.916  -3.638  1.00  0.00     0.173 A 
ATOM     86  F   UNL     1       7.338  18.462  -2.500  1.00  0.00    -0.203 F 
ATOM     87  C   UNL     1       5.053  18.171  -2.029  1.00  0.00     0.198 A 
ATOM     88  C   UNL     1       3.845  16.346  -3.001  1.00  0.00     0.198 A 
ATOM     89  F   UNL     1       4.954  14.768  -4.326  1.00  0.00    -0.203 F 
ATOM     90  F   UNL     1       5.095  19.230  -1.209  1.00  0.00    -0.200 F 
ATOM     91  C   UNL     1       3.871  17.468  -2.191  1.00  0.00     0.200 A 
ATOM     92  F   UNL     1       2.704  15.655  -3.144  1.00  0.00    -0.200 F 
ATOM     93  F   UNL     1       2.763  17.858  -1.543  1.00  0.00    -0.200 F 
ENDBRANCH  60  83
ENDBRANCH  34  35
ENDBRANCH  27  29
ENDBRANCH  26  27
ENDBRANCH  25  26
ENDBRANCH  24  25
ENDBRANCH  23  24
ENDBRANCH   1  23
TORSDOF 18
