REMARK SMILES CCCCCCOC(=O)Nc1cccc(-c2ccc([C@@H](C)C(=O)OCCOCCOC(=O)c3ccc(-c4c5nc(c(-c6c(F)c(F)c(F)c(F)c6F)c6ccc([nH]6)c(-c6c(F)c(F)c(F)c(F)c6F)c6nc(c(-c7c(F)c(F)c(F)c(F)c7F)c7ccc4[nH]7)C=C6)C=C5)cc3)cc2F)c1
REMARK SMILES IDX 22 1 23 2 20 3 21 4 19 5 16 6 17 7 97 8 18 9 96 10 98 11
REMARK SMILES IDX 15 12 11 13 12 14 99 15 13 16 14 17 10 18 8 19 9 20 7 22
REMARK SMILES IDX 6 23 5 24 4 25 3 26 2 27 1 28 24 29 25 30 26 31 27 32 28 33
REMARK SMILES IDX 29 34 30 35 31 36 32 37 33 38 34 39 95 40 35 41 94 42 36 43
REMARK SMILES IDX 37 44 38 45 88 46 39 47 93 48 87 49 89 50 40 51 92 52 86 53
REMARK SMILES IDX 85 54 41 56 73 57 53 58 72 59 54 60 57 61 71 62 90 63 55 64
REMARK SMILES IDX 56 65 70 67 91 68 58 69 42 70 43 71 51 72 44 73 45 74 49 75
REMARK SMILES IDX 52 76 46 77 47 78 50 79 48 80 74 81 75 82 83 83 76 84 77 85
REMARK SMILES IDX 81 86 84 87 78 88 79 89 82 90 80 91 59 92 60 93 68 94 61 95
REMARK SMILES IDX 62 96 66 97 69 98 63 99 64 100 67 101 65 102
REMARK H PARENT 10 21 89 55 57 66
REMARK Flexibility Score: inf
ROOT
ATOM      1  C   UNL     1      -7.685  -3.683  10.114  1.00  0.00     0.313 C 
ATOM      2  O   UNL     1      -8.301  -4.739  10.222  1.00  0.00    -0.252 OA
ENDROOT
BRANCH   1   3
ATOM      3  C   UNL     1      -6.465  -3.380  10.968  1.00  0.00     0.126 C 
ATOM      4  C   UNL     1      -6.920  -2.984  12.370  1.00  0.00     0.025 C 
BRANCH   3   5
ATOM      5  C   UNL     1      -5.424  -2.408  10.421  1.00  0.00    -0.031 A 
ATOM      6  C   UNL     1      -3.347  -0.609   9.648  1.00  0.00     0.018 A 
ATOM      7  C   UNL     1      -4.658  -0.157   9.854  1.00  0.00     0.012 A 
ATOM      8  C   UNL     1      -3.113  -1.984   9.794  1.00  0.00     0.131 A 
ATOM      9  C   UNL     1      -5.681  -1.041  10.236  1.00  0.00     0.005 A 
ATOM     10  C   UNL     1      -4.123  -2.869  10.171  1.00  0.00     0.044 A 
ATOM     11  F   UNL     1      -1.881  -2.484   9.612  1.00  0.00    -0.206 F 
BRANCH   6  12
ATOM     12  C   UNL     1      -2.245   0.319   9.344  1.00  0.00    -0.013 A 
ATOM     13  C   UNL     1      -0.286   0.904   8.005  1.00  0.00     0.045 A 
ATOM     14  C   UNL     1       0.047   1.905   8.915  1.00  0.00     0.026 A 
ATOM     15  C   UNL     1      -1.430   0.125   8.218  1.00  0.00     0.035 A 
ATOM     16  C   UNL     1      -0.785   2.157  10.005  1.00  0.00     0.003 A 
ATOM     17  C   UNL     1      -1.919   1.369  10.219  1.00  0.00     0.009 A 
BRANCH  13  18
ATOM     18  N   UNL     1       0.608   0.629   6.961  1.00  0.00    -0.291 N 
ATOM     19  C   UNL     1       0.342  -0.005   5.779  1.00  0.00     0.411 C 
ATOM     20  O   UNL     1       1.230  -0.560   5.145  1.00  0.00    -0.224 OA
ATOM     21  H   UNL     1       1.537   0.928   7.095  1.00  0.00     0.173 HD
BRANCH  19  22
ATOM     22  O   UNL     1      -0.937   0.166   5.358  1.00  0.00    -0.449 OA
BRANCH  22  23
ATOM     23  C   UNL     1      -1.293  -0.323   4.056  1.00  0.00     0.235 C 
BRANCH  23  24
ATOM     24  C   UNL     1      -0.994   0.698   2.952  1.00  0.00     0.042 C 
BRANCH  24  25
ATOM     25  C   UNL     1       0.480   0.836   2.550  1.00  0.00     0.003 C 
BRANCH  25  26
ATOM     26  C   UNL     1       1.141  -0.452   2.041  1.00  0.00    -0.000 C 
BRANCH  26  27
ATOM     27  C   UNL     1       0.611  -0.967   0.703  1.00  0.00    -0.003 C 
ATOM     28  C   UNL     1       0.985  -0.067  -0.463  1.00  0.00     0.004 C 
ENDBRANCH  26  27
ENDBRANCH  25  26
ENDBRANCH  24  25
ENDBRANCH  23  24
ENDBRANCH  22  23
ENDBRANCH  19  22
ENDBRANCH  13  18
ENDBRANCH   6  12
ENDBRANCH   3   5
ENDBRANCH   1   3
BRANCH   1  29
ATOM     29  O   UNL     1      -8.030  -2.678   9.268  1.00  0.00    -0.463 OA
BRANCH  29  30
ATOM     30  C   UNL     1      -9.091  -2.974   8.343  1.00  0.00     0.261 C 
BRANCH  30  31
ATOM     31  C   UNL     1      -8.597  -2.920   6.896  1.00  0.00     0.202 C 
BRANCH  31  32
ATOM     32  O   UNL     1      -7.653  -3.918   6.511  1.00  0.00    -0.374 OA
BRANCH  32  33
ATOM     33  C   UNL     1      -6.305  -3.761   6.954  1.00  0.00     0.202 C 
BRANCH  33  34
ATOM     34  C   UNL     1      -5.457  -2.714   6.220  1.00  0.00     0.261 C 
BRANCH  34  35
ATOM     35  O   UNL     1      -5.936  -1.374   6.431  1.00  0.00    -0.460 OA
BRANCH  35  36
ATOM     36  C   UNL     1      -6.443  -0.773   5.328  1.00  0.00     0.338 C 
ATOM     37  O   UNL     1      -6.469  -1.209   4.189  1.00  0.00    -0.246 OA
BRANCH  36  38
ATOM     38  C   UNL     1      -7.149   0.466   5.706  1.00  0.00     0.060 A 
ATOM     39  C   UNL     1      -8.480   0.602   5.291  1.00  0.00     0.016 A 
ATOM     40  C   UNL     1      -6.499   1.511   6.364  1.00  0.00     0.016 A 
ATOM     41  C   UNL     1      -9.152   1.807   5.483  1.00  0.00     0.010 A 
ATOM     42  C   UNL     1      -7.174   2.724   6.549  1.00  0.00     0.010 A 
ATOM     43  C   UNL     1      -8.489   2.890   6.075  1.00  0.00    -0.014 A 
BRANCH  43  44
ATOM     44  C   UNL     1      -9.125   4.231   6.057  1.00  0.00     0.031 A 
ATOM     45  C   UNL     1      -8.697   5.228   5.016  1.00  0.00     0.074 A 
ATOM     46  C   UNL     1     -10.098   4.545   6.930  1.00  0.00     0.049 A 
ATOM     47  N   UNL     1      -9.092   6.463   4.833  1.00  0.00    -0.248 NA
ATOM     48  C   UNL     1      -7.685   4.772   4.049  1.00  0.00     0.031 C 
ATOM     49  C   UNL     1     -10.632   3.652   7.956  1.00  0.00     0.029 A 
ATOM     50  N   UNL     1     -10.807   5.710   7.094  1.00  0.00    -0.354 N 
ATOM     51  C   UNL     1      -8.375   6.931   3.739  1.00  0.00     0.074 A 
ATOM     52  C   UNL     1      -7.499   5.860   3.316  1.00  0.00     0.031 C 
ATOM     53  C   UNL     1     -11.579   4.305   8.652  1.00  0.00     0.029 A 
ATOM     54  C   UNL     1     -11.694   5.671   8.142  1.00  0.00     0.049 A 
ATOM     55  H   UNL     1     -10.692   6.497   6.515  1.00  0.00     0.167 HD
ATOM     56  C   UNL     1      -8.448   8.142   3.137  1.00  0.00     0.037 A 
ATOM     57  C   UNL     1     -12.489   6.635   8.645  1.00  0.00     0.037 A 
ATOM     58  C   UNL     1      -9.325   9.205   3.553  1.00  0.00     0.049 A 
ATOM     59  C   UNL     1     -12.501   7.997   7.998  1.00  0.00     0.074 A 
ATOM     60  C   UNL     1      -9.486  10.460   2.993  1.00  0.00     0.029 A 
ATOM     61  N   UNL     1     -10.188   9.137   4.637  1.00  0.00    -0.354 N 
ATOM     62  N   UNL     1     -11.838   8.423   6.950  1.00  0.00    -0.248 NA
ATOM     63  C   UNL     1     -13.377   9.011   8.602  1.00  0.00     0.031 C 
ATOM     64  C   UNL     1     -10.407  11.171   3.770  1.00  0.00     0.029 A 
ATOM     65  C   UNL     1     -10.863  10.339   4.779  1.00  0.00     0.049 A 
ATOM     66  H   UNL     1     -10.303   8.352   5.220  1.00  0.00     0.167 HD
ATOM     67  C   UNL     1     -12.239   9.738   6.751  1.00  0.00     0.074 A 
ATOM     68  C   UNL     1     -13.212  10.038   7.780  1.00  0.00     0.031 C 
ATOM     69  C   UNL     1     -11.840  10.618   5.800  1.00  0.00     0.037 A 
BRANCH  56  70
ATOM     70  C   UNL     1      -7.535   8.397   1.973  1.00  0.00     0.064 A 
ATOM     71  C   UNL     1      -7.739   7.787   0.727  1.00  0.00     0.173 A 
ATOM     72  C   UNL     1      -6.471   9.304   2.094  1.00  0.00     0.173 A 
ATOM     73  F   UNL     1      -8.735   6.903   0.563  1.00  0.00    -0.203 F 
ATOM     74  C   UNL     1      -6.898   8.058  -0.350  1.00  0.00     0.198 A 
ATOM     75  C   UNL     1      -5.650   9.595   1.008  1.00  0.00     0.198 A 
ATOM     76  F   UNL     1      -6.235   9.919   3.263  1.00  0.00    -0.203 F 
ATOM     77  F   UNL     1      -7.087   7.433  -1.520  1.00  0.00    -0.200 F 
ATOM     78  C   UNL     1      -5.860   8.968  -0.211  1.00  0.00     0.200 A 
ATOM     79  F   UNL     1      -4.656  10.484   1.141  1.00  0.00    -0.200 F 
ATOM     80  F   UNL     1      -5.059   9.237  -1.251  1.00  0.00    -0.200 F 
ENDBRANCH  56  70
BRANCH  57  81
ATOM     81  C   UNL     1     -13.331   6.358   9.838  1.00  0.00     0.064 A 
ATOM     82  C   UNL     1     -14.730   6.330   9.749  1.00  0.00     0.173 A 
ATOM     83  C   UNL     1     -12.754   6.146  11.099  1.00  0.00     0.173 A 
ATOM     84  F   UNL     1     -15.330   6.554   8.570  1.00  0.00    -0.203 F 
ATOM     85  C   UNL     1     -15.519   6.120  10.878  1.00  0.00     0.198 A 
ATOM     86  C   UNL     1     -13.543   5.906  12.222  1.00  0.00     0.198 A 
ATOM     87  F   UNL     1     -11.421   6.165  11.240  1.00  0.00    -0.203 F 
ATOM     88  F   UNL     1     -16.855   6.150  10.774  1.00  0.00    -0.200 F 
ATOM     89  C   UNL     1     -14.925   5.903  12.112  1.00  0.00     0.200 A 
ATOM     90  F   UNL     1     -12.964   5.685  13.410  1.00  0.00    -0.200 F 
ATOM     91  F   UNL     1     -15.685   5.702  13.198  1.00  0.00    -0.200 F 
ENDBRANCH  57  81
BRANCH  69  92
ATOM     92  C   UNL     1     -12.484  11.975   5.796  1.00  0.00     0.064 A 
ATOM     93  C   UNL     1     -12.197  12.932   6.780  1.00  0.00     0.173 A 
ATOM     94  C   UNL     1     -13.366  12.337   4.766  1.00  0.00     0.173 A 
ATOM     95  F   UNL     1     -11.371  12.632   7.794  1.00  0.00    -0.203 F 
ATOM     96  C   UNL     1     -12.789  14.193   6.747  1.00  0.00     0.198 A 
ATOM     97  C   UNL     1     -13.932  13.608   4.719  1.00  0.00     0.198 A 
ATOM     98  F   UNL     1     -13.668  11.462   3.795  1.00  0.00    -0.203 F 
ATOM     99  F   UNL     1     -12.537  15.075   7.724  1.00  0.00    -0.200 F 
ATOM    100  C   UNL     1     -13.649  14.532   5.713  1.00  0.00     0.200 A 
ATOM    101  F   UNL     1     -14.751  13.939   3.711  1.00  0.00    -0.200 F 
ATOM    102  F   UNL     1     -14.211  15.748   5.678  1.00  0.00    -0.200 F 
ENDBRANCH  69  92
ENDBRANCH  43  44
ENDBRANCH  36  38
ENDBRANCH  35  36
ENDBRANCH  34  35
ENDBRANCH  33  34
ENDBRANCH  32  33
ENDBRANCH  31  32
ENDBRANCH  30  31
ENDBRANCH  29  30
ENDBRANCH   1  29
TORSDOF 23
