REMARK SMILES Cc1ccccc1OC1(C(=O)OCCOCCOC(=O)c2ccc(-c3c4nc(c(-c5c(F)c(F)c(F)c(F)c5F)c5ccc([nH]5)c(-c5c(F)c(F)c(F)c(F)c5F)c5nc(c(-c6c(F)c(F)c(F)c(F)c6F)c6ccc3[nH]6)C=C5)C=C4)cc2)CCN(c2ncc(C#N)c(N)n2)CC1
REMARK SMILES IDX 15 1 14 2 13 3 12 4 10 5 11 6 9 7 84 8 97 9 85 10 96 11
REMARK SMILES IDX 86 12 8 13 7 14 1 15 2 16 3 17 4 18 6 19 5 20 87 21 88 22
REMARK SMILES IDX 95 23 89 24 93 25 90 26 94 27 91 30 92 31 16 32 17 33 18 34
REMARK SMILES IDX 19 35 20 36 21 37 22 38 83 39 23 40 82 41 24 42 25 43 26 44
REMARK SMILES IDX 76 45 27 46 81 47 75 48 77 49 28 50 80 51 74 52 73 53 29 55
REMARK SMILES IDX 61 56 41 57 60 58 42 59 45 60 59 61 78 62 43 63 44 64 58 66
REMARK SMILES IDX 79 67 46 68 30 69 31 70 39 71 32 72 33 73 37 74 40 75 34 76
REMARK SMILES IDX 35 77 38 78 36 79 62 80 63 81 71 82 64 83 65 84 69 85 72 86
REMARK SMILES IDX 66 87 67 88 70 89 68 90 47 91 48 92 56 93 49 94 50 95 54 96
REMARK SMILES IDX 57 97 51 98 52 99 55 100 53 101
REMARK H PARENT 94 28 94 29 77 54 45 65
REMARK Flexibility Score: inf
ROOT
ATOM      1  O   UNL     1       2.949   4.643  -2.098  1.00  0.00    -0.374 OA
ENDROOT
BRANCH   1   2
ATOM      2  C   UNL     1       4.207   4.052  -2.321  1.00  0.00     0.202 C 
BRANCH   2   3
ATOM      3  C   UNL     1       4.769   3.796  -0.965  1.00  0.00     0.261 C 
BRANCH   3   4
ATOM      4  O   UNL     1       3.988   2.901  -0.137  1.00  0.00    -0.460 OA
BRANCH   4   5
ATOM      5  C   UNL     1       2.632   3.013   0.102  1.00  0.00     0.350 C 
ATOM      6  O   UNL     1       2.014   4.044   0.312  1.00  0.00    -0.247 OA
BRANCH   5   7
ATOM      7  C   UNL     1       2.054   1.567   0.124  1.00  0.00     0.209 C 
ATOM      8  C   UNL     1       2.579   1.001  -1.198  1.00  0.00     0.082 C 
ATOM      9  C   UNL     1       2.533   1.051   1.484  1.00  0.00     0.082 C 
ATOM     10  C   UNL     1       3.821   0.132  -1.110  1.00  0.00     0.124 C 
ATOM     11  C   UNL     1       3.509  -0.096   1.452  1.00  0.00     0.124 C 
ATOM     12  N   UNL     1       4.289  -0.191   0.231  1.00  0.00    -0.340 N 
BRANCH   7  13
ATOM     13  O   UNL     1       0.619   1.633   0.085  1.00  0.00    -0.475 OA
BRANCH  13  14
ATOM     14  C   UNL     1      -0.271   0.589   0.046  1.00  0.00     0.123 A 
ATOM     15  C   UNL     1       1.124  -1.622  -0.149  1.00  0.00     0.048 C 
ATOM     16  C   UNL     1      -0.118  -0.809  -0.027  1.00  0.00    -0.009 A 
ATOM     17  C   UNL     1      -1.266  -1.640  -0.035  1.00  0.00     0.007 A 
ATOM     18  C   UNL     1      -2.549  -1.123  -0.002  1.00  0.00     0.001 A 
ATOM     19  C   UNL     1      -1.589   1.086   0.070  1.00  0.00     0.047 A 
ATOM     20  C   UNL     1      -2.712   0.250   0.040  1.00  0.00     0.004 A 
ENDBRANCH  13  14
ENDBRANCH   7  13
BRANCH  12  21
ATOM     21  C   UNL     1       5.077  -1.346   0.180  1.00  0.00     0.227 A 
ATOM     22  N   UNL     1       6.174  -1.331  -0.584  1.00  0.00    -0.220 NA
ATOM     23  N   UNL     1       4.626  -2.456   0.794  1.00  0.00    -0.195 NA
ATOM     24  C   UNL     1       6.879  -2.475  -0.653  1.00  0.00     0.138 A 
ATOM     25  C   UNL     1       5.322  -3.594   0.674  1.00  0.00     0.147 A 
ATOM     26  C   UNL     1       6.501  -3.643  -0.034  1.00  0.00     0.113 A 
BRANCH  25  27
ATOM     27  N   UNL     1       4.712  -4.708   1.219  1.00  0.00    -0.382 N 
ATOM     28  H   UNL     1       5.157  -5.585   1.174  1.00  0.00     0.158 HD
ATOM     29  H   UNL     1       3.832  -4.624   1.653  1.00  0.00     0.158 HD
ENDBRANCH  25  27
BRANCH  26  30
ATOM     30  C   UNL     1       7.314  -4.811  -0.117  1.00  0.00     0.105 C 
ATOM     31  N   UNL     1       7.995  -5.741  -0.155  1.00  0.00    -0.192 NA
ENDBRANCH  26  30
ENDBRANCH  12  21
ENDBRANCH   5   7
ENDBRANCH   4   5
ENDBRANCH   3   4
ENDBRANCH   2   3
ENDBRANCH   1   2
BRANCH   1  32
ATOM     32  C   UNL     1       2.081   4.719  -3.203  1.00  0.00     0.202 C 
BRANCH  32  33
ATOM     33  C   UNL     1       2.740   5.412  -4.399  1.00  0.00     0.261 C 
BRANCH  33  34
ATOM     34  O   UNL     1       2.994   6.813  -4.112  1.00  0.00    -0.460 OA
BRANCH  34  35
ATOM     35  C   UNL     1       4.235   7.160  -3.654  1.00  0.00     0.338 C 
ATOM     36  O   UNL     1       5.273   7.029  -4.280  1.00  0.00    -0.246 OA
BRANCH  35  37
ATOM     37  C   UNL     1       4.175   7.522  -2.202  1.00  0.00     0.060 A 
ATOM     38  C   UNL     1       5.346   7.612  -1.420  1.00  0.00     0.016 A 
ATOM     39  C   UNL     1       2.942   7.415  -1.575  1.00  0.00     0.016 A 
ATOM     40  C   UNL     1       5.287   7.389  -0.034  1.00  0.00     0.010 A 
ATOM     41  C   UNL     1       2.920   7.006  -0.263  1.00  0.00     0.010 A 
ATOM     42  C   UNL     1       4.086   6.961   0.517  1.00  0.00    -0.014 A 
BRANCH  42  43
ATOM     43  C   UNL     1       3.858   6.466   1.876  1.00  0.00     0.031 A 
ATOM     44  C   UNL     1       2.915   7.279   2.684  1.00  0.00     0.074 A 
ATOM     45  C   UNL     1       4.236   5.220   2.273  1.00  0.00     0.049 A 
ATOM     46  N   UNL     1       2.645   7.036   3.911  1.00  0.00    -0.248 NA
ATOM     47  C   UNL     1       2.214   8.475   2.199  1.00  0.00     0.031 C 
ATOM     48  C   UNL     1       3.663   4.375   3.327  1.00  0.00     0.029 A 
ATOM     49  N   UNL     1       5.245   4.384   1.769  1.00  0.00    -0.354 N 
ATOM     50  C   UNL     1       1.541   7.775   4.261  1.00  0.00     0.074 A 
ATOM     51  C   UNL     1       1.397   8.751   3.219  1.00  0.00     0.031 C 
ATOM     52  C   UNL     1       4.498   3.352   3.603  1.00  0.00     0.029 A 
ATOM     53  C   UNL     1       5.692   3.543   2.798  1.00  0.00     0.049 A 
ATOM     54  H   UNL     1       5.584   4.388   0.845  1.00  0.00     0.167 HD
ATOM     55  C   UNL     1       0.836   7.355   5.345  1.00  0.00     0.037 A 
ATOM     56  C   UNL     1       6.988   3.580   3.207  1.00  0.00     0.037 A 
ATOM     57  C   UNL     1       1.584   6.283   6.019  1.00  0.00     0.049 A 
ATOM     58  C   UNL     1       6.946   4.109   4.607  1.00  0.00     0.074 A 
ATOM     59  C   UNL     1       1.434   4.910   6.088  1.00  0.00     0.029 A 
ATOM     60  N   UNL     1       2.892   6.553   6.427  1.00  0.00    -0.354 N 
ATOM     61  N   UNL     1       6.016   4.936   5.014  1.00  0.00    -0.248 NA
ATOM     62  C   UNL     1       7.765   3.580   5.689  1.00  0.00     0.031 C 
ATOM     63  C   UNL     1       2.700   4.359   6.470  1.00  0.00     0.029 A 
ATOM     64  C   UNL     1       3.611   5.394   6.648  1.00  0.00     0.049 A 
ATOM     65  H   UNL     1       3.257   7.459   6.544  1.00  0.00     0.167 HD
ATOM     66  C   UNL     1       5.978   4.902   6.372  1.00  0.00     0.074 A 
ATOM     67  C   UNL     1       7.129   4.096   6.754  1.00  0.00     0.031 C 
ATOM     68  C   UNL     1       4.991   5.465   7.124  1.00  0.00     0.037 A 
BRANCH  55  69
ATOM     69  C   UNL     1      -0.566   7.774   5.731  1.00  0.00     0.064 A 
ATOM     70  C   UNL     1      -1.134   7.273   6.923  1.00  0.00     0.173 A 
ATOM     71  C   UNL     1      -1.436   8.583   4.967  1.00  0.00     0.173 A 
ATOM     72  F   UNL     1      -0.430   6.483   7.746  1.00  0.00    -0.203 F 
ATOM     73  C   UNL     1      -2.449   7.553   7.311  1.00  0.00     0.198 A 
ATOM     74  C   UNL     1      -2.738   8.897   5.377  1.00  0.00     0.198 A 
ATOM     75  F   UNL     1      -1.098   9.072   3.771  1.00  0.00    -0.203 F 
ATOM     76  F   UNL     1      -2.939   7.012   8.435  1.00  0.00    -0.200 F 
ATOM     77  C   UNL     1      -3.248   8.375   6.545  1.00  0.00     0.200 A 
ATOM     78  F   UNL     1      -3.499   9.698   4.615  1.00  0.00    -0.200 F 
ATOM     79  F   UNL     1      -4.503   8.653   6.921  1.00  0.00    -0.200 F 
ENDBRANCH  55  69
BRANCH  56  80
ATOM     80  C   UNL     1       7.907   3.891   2.067  1.00  0.00     0.064 A 
ATOM     81  C   UNL     1       8.041   2.888   1.076  1.00  0.00     0.173 A 
ATOM     82  C   UNL     1       8.162   5.211   1.671  1.00  0.00     0.173 A 
ATOM     83  F   UNL     1       7.809   1.603   1.390  1.00  0.00    -0.203 F 
ATOM     84  C   UNL     1       8.233   3.211  -0.269  1.00  0.00     0.198 A 
ATOM     85  C   UNL     1       8.354   5.528   0.319  1.00  0.00     0.198 A 
ATOM     86  F   UNL     1       8.064   6.213   2.555  1.00  0.00    -0.203 F 
ATOM     87  F   UNL     1       8.163   2.255  -1.209  1.00  0.00    -0.200 F 
ATOM     88  C   UNL     1       8.331   4.537  -0.651  1.00  0.00     0.200 A 
ATOM     89  F   UNL     1       8.443   6.811  -0.062  1.00  0.00    -0.200 F 
ATOM     90  F   UNL     1       8.313   4.862  -1.953  1.00  0.00    -0.200 F 
ENDBRANCH  56  80
BRANCH  68  91
ATOM     91  C   UNL     1       5.308   6.118   8.440  1.00  0.00     0.064 A 
ATOM     92  C   UNL     1       6.618   6.449   8.831  1.00  0.00     0.173 A 
ATOM     93  C   UNL     1       4.281   6.604   9.279  1.00  0.00     0.173 A 
ATOM     94  F   UNL     1       7.677   6.215   8.043  1.00  0.00    -0.203 F 
ATOM     95  C   UNL     1       6.888   7.093  10.033  1.00  0.00     0.198 A 
ATOM     96  C   UNL     1       4.552   7.336  10.429  1.00  0.00     0.198 A 
ATOM     97  F   UNL     1       2.983   6.426   8.997  1.00  0.00    -0.203 F 
ATOM     98  F   UNL     1       8.160   7.295  10.398  1.00  0.00    -0.200 F 
ATOM     99  C   UNL     1       5.855   7.544  10.827  1.00  0.00     0.200 A 
ATOM    100  F   UNL     1       3.539   7.853  11.137  1.00  0.00    -0.200 F 
ATOM    101  F   UNL     1       6.116   8.200  11.963  1.00  0.00    -0.200 F 
ENDBRANCH  68  91
ENDBRANCH  42  43
ENDBRANCH  35  37
ENDBRANCH  34  35
ENDBRANCH  33  34
ENDBRANCH  32  33
ENDBRANCH   1  32
TORSDOF 19
