REMARK SMILES Cn1cc(C(=O)OCCOCCOC(=O)c2ccc(-c3c4nc(c(-c5c(F)c(F)c(F)c(F)c5F)c5ccc([nH]5)c(-c5c(F)c(F)c(F)c(F)c5F)c5nc(c(-c6c(F)c(F)c(F)c(F)c6F)c6ccc3[nH]6)C=C5)C=C4)cc2)c(C(=O)Nc2ccc(-c3nc4cc(Cl)ccc4o3)cc2)n1
REMARK SMILES IDX 9 1 8 2 7 3 5 4 6 5 4 6 1 7 2 8 3 9 99 10 79 11 80 12 81 13
REMARK SMILES IDX 82 14 83 16 84 17 98 18 85 19 97 20 86 21 87 22 88 23 96 24
REMARK SMILES IDX 89 25 95 26 90 27 94 28 91 29 93 30 92 31 10 32 11 33 12 34
REMARK SMILES IDX 13 35 14 36 15 37 16 38 17 39 78 40 18 41 77 42 19 43 20 44
REMARK SMILES IDX 21 45 71 46 22 47 76 48 70 49 72 50 23 51 75 52 69 53 68 54
REMARK SMILES IDX 24 56 56 57 36 58 55 59 37 60 40 61 54 62 73 63 38 64 39 65
REMARK SMILES IDX 53 67 74 68 41 69 25 70 26 71 34 72 27 73 28 74 32 75 35 76
REMARK SMILES IDX 29 77 30 78 33 79 31 80 57 81 58 82 66 83 59 84 60 85 64 86
REMARK SMILES IDX 67 87 61 88 62 89 65 90 63 91 42 92 43 93 51 94 44 95 45 96
REMARK SMILES IDX 49 97 52 98 46 99 47 100 50 101 48 102
REMARK H PARENT 82 15 72 55 40 66
REMARK Flexibility Score: inf
ROOT
ATOM      1  C   UNL     1       2.399  -4.318  -1.700  1.00  0.00     0.202 C 
ENDROOT
BRANCH   1   2
ATOM      2  C   UNL     1       2.425  -3.881  -0.246  1.00  0.00     0.261 C 
BRANCH   2   3
ATOM      3  O   UNL     1       1.958  -2.538  -0.231  1.00  0.00    -0.460 OA
BRANCH   3   4
ATOM      4  C   UNL     1       1.903  -1.917   0.973  1.00  0.00     0.342 C 
ATOM      5  O   UNL     1       2.318  -2.356   2.035  1.00  0.00    -0.246 OA
BRANCH   4   6
ATOM      6  C   UNL     1       1.123  -0.726   0.809  1.00  0.00     0.111 A 
ATOM      7  C   UNL     1      -1.972   0.866  -0.090  1.00  0.00     0.173 C 
ATOM      8  N   UNL     1      -0.641   0.454   0.288  1.00  0.00    -0.274 N 
ATOM      9  C   UNL     1      -0.217  -0.814   0.466  1.00  0.00     0.125 A 
ATOM     10  N   UNL     1       0.323   1.361   0.473  1.00  0.00    -0.167 NA
ATOM     11  C   UNL     1       1.433   0.666   0.835  1.00  0.00     0.165 A 
BRANCH  11  12
ATOM     12  C   UNL     1       2.639   1.457   1.218  1.00  0.00     0.277 C 
ATOM     13  O   UNL     1       2.582   2.691   1.303  1.00  0.00    -0.267 OA
ATOM     14  N   UNL     1       3.813   0.905   1.685  1.00  0.00    -0.321 N 
ATOM     15  H   UNL     1       4.198   1.403   2.442  1.00  0.00     0.170 HD
BRANCH  14  16
ATOM     16  C   UNL     1       4.575  -0.205   1.318  1.00  0.00     0.041 A 
ATOM     17  C   UNL     1       5.443  -0.746   2.277  1.00  0.00     0.027 A 
ATOM     18  C   UNL     1       4.561  -0.742   0.041  1.00  0.00     0.027 A 
ATOM     19  C   UNL     1       6.120  -1.949   2.030  1.00  0.00     0.016 A 
ATOM     20  C   UNL     1       5.298  -1.903  -0.224  1.00  0.00     0.016 A 
ATOM     21  C   UNL     1       5.996  -2.571   0.789  1.00  0.00     0.037 A 
BRANCH  21  22
ATOM     22  C   UNL     1       6.391  -3.955   0.548  1.00  0.00     0.227 A 
ATOM     23  N   UNL     1       6.913  -4.490  -0.542  1.00  0.00    -0.209 NA
ATOM     24  O   UNL     1       5.812  -4.864   1.404  1.00  0.00    -0.436 OA
ATOM     25  C   UNL     1       6.599  -5.823  -0.438  1.00  0.00     0.111 A 
ATOM     26  C   UNL     1       5.909  -6.052   0.741  1.00  0.00     0.155 A 
ATOM     27  C   UNL     1       6.815  -6.891  -1.319  1.00  0.00     0.053 A 
ATOM     28  C   UNL     1       5.375  -7.277   1.124  1.00  0.00     0.051 A 
ATOM     29  C   UNL     1       6.293  -8.142  -0.965  1.00  0.00     0.043 A 
ATOM     30  C   UNL     1       5.574  -8.332   0.223  1.00  0.00     0.024 A 
ATOM     31  Cl  UNL     1       6.523  -9.479  -2.029  1.00  0.00    -0.084 Cl
ENDBRANCH  21  22
ENDBRANCH  14  16
ENDBRANCH  11  12
ENDBRANCH   4   6
ENDBRANCH   3   4
ENDBRANCH   2   3
ENDBRANCH   1   2
BRANCH   1  32
ATOM     32  O   UNL     1       3.521  -3.853  -2.448  1.00  0.00    -0.374 OA
BRANCH  32  33
ATOM     33  C   UNL     1       3.431  -2.589  -3.113  1.00  0.00     0.202 C 
BRANCH  33  34
ATOM     34  C   UNL     1       2.317  -2.394  -4.155  1.00  0.00     0.261 C 
BRANCH  34  35
ATOM     35  O   UNL     1       1.813  -3.611  -4.699  1.00  0.00    -0.460 OA
BRANCH  35  36
ATOM     36  C   UNL     1       2.758  -4.434  -5.211  1.00  0.00     0.338 C 
ATOM     37  O   UNL     1       3.796  -4.112  -5.758  1.00  0.00    -0.246 OA
BRANCH  36  38
ATOM     38  C   UNL     1       2.445  -5.769  -4.662  1.00  0.00     0.060 A 
ATOM     39  C   UNL     1       3.501  -6.496  -4.103  1.00  0.00     0.016 A 
ATOM     40  C   UNL     1       1.120  -6.210  -4.525  1.00  0.00     0.016 A 
ATOM     41  C   UNL     1       3.234  -7.673  -3.414  1.00  0.00     0.010 A 
ATOM     42  C   UNL     1       0.854  -7.400  -3.850  1.00  0.00     0.010 A 
ATOM     43  C   UNL     1       1.918  -8.148  -3.323  1.00  0.00    -0.014 A 
BRANCH  43  44
ATOM     44  C   UNL     1       1.721  -9.578  -3.017  1.00  0.00     0.031 A 
ATOM     45  C   UNL     1       1.846 -10.520  -4.181  1.00  0.00     0.074 A 
ATOM     46  C   UNL     1       1.524 -10.037  -1.771  1.00  0.00     0.049 A 
ATOM     47  N   UNL     1       1.727 -11.819  -4.220  1.00  0.00    -0.248 NA
ATOM     48  C   UNL     1       2.174  -9.904  -5.482  1.00  0.00     0.031 C 
ATOM     49  C   UNL     1       1.483  -9.228  -0.555  1.00  0.00     0.029 A 
ATOM     50  N   UNL     1       1.334 -11.322  -1.328  1.00  0.00    -0.354 N 
ATOM     51  C   UNL     1       1.990 -12.171  -5.536  1.00  0.00     0.074 A 
ATOM     52  C   UNL     1       2.252 -10.958  -6.273  1.00  0.00     0.031 C 
ATOM     53  C   UNL     1       1.285 -10.040   0.500  1.00  0.00     0.029 A 
ATOM     54  C   UNL     1       1.150 -11.419   0.028  1.00  0.00     0.049 A 
ATOM     55  H   UNL     1       1.330 -12.102  -1.929  1.00  0.00     0.167 HD
ATOM     56  C   UNL     1       2.010 -13.401  -6.090  1.00  0.00     0.037 A 
ATOM     57  C   UNL     1       0.885 -12.504   0.782  1.00  0.00     0.037 A 
ATOM     58  C   UNL     1       1.695 -14.602  -5.379  1.00  0.00     0.049 A 
ATOM     59  C   UNL     1       0.752 -13.850   0.107  1.00  0.00     0.074 A 
ATOM     60  C   UNL     1       1.595 -15.892  -5.862  1.00  0.00     0.029 A 
ATOM     61  N   UNL     1       1.414 -14.649  -4.022  1.00  0.00    -0.354 N 
ATOM     62  N   UNL     1       0.964 -14.178  -1.145  1.00  0.00    -0.248 NA
ATOM     63  C   UNL     1       0.320 -14.975   0.952  1.00  0.00     0.031 C 
ATOM     64  C   UNL     1       1.212 -16.718  -4.800  1.00  0.00     0.029 A 
ATOM     65  C   UNL     1       1.114 -15.945  -3.652  1.00  0.00     0.049 A 
ATOM     66  H   UNL     1       1.427 -13.874  -3.414  1.00  0.00     0.167 HD
ATOM     67  C   UNL     1       0.709 -15.541  -1.235  1.00  0.00     0.074 A 
ATOM     68  C   UNL     1       0.345 -15.986   0.094  1.00  0.00     0.031 C 
ATOM     69  C   UNL     1       0.763 -16.355  -2.318  1.00  0.00     0.037 A 
BRANCH  56  70
ATOM     70  C   UNL     1       2.324 -13.470  -7.549  1.00  0.00     0.064 A 
ATOM     71  C   UNL     1       3.636 -13.316  -8.020  1.00  0.00     0.173 A 
ATOM     72  C   UNL     1       1.295 -13.631  -8.486  1.00  0.00     0.173 A 
ATOM     73  F   UNL     1       4.644 -13.116  -7.158  1.00  0.00    -0.203 F 
ATOM     74  C   UNL     1       3.904 -13.307  -9.386  1.00  0.00     0.198 A 
ATOM     75  C   UNL     1       1.569 -13.640  -9.849  1.00  0.00     0.198 A 
ATOM     76  F   UNL     1       0.023 -13.755  -8.078  1.00  0.00    -0.203 F 
ATOM     77  F   UNL     1       5.156 -13.109  -9.820  1.00  0.00    -0.200 F 
ATOM     78  C   UNL     1       2.872 -13.472 -10.298  1.00  0.00     0.200 A 
ATOM     79  F   UNL     1       0.571 -13.790 -10.730  1.00  0.00    -0.200 F 
ATOM     80  F   UNL     1       3.129 -13.453 -11.613  1.00  0.00    -0.200 F 
ENDBRANCH  56  70
BRANCH  57  81
ATOM     81  C   UNL     1       0.683 -12.384   2.251  1.00  0.00     0.064 A 
ATOM     82  C   UNL     1       1.571 -12.987   3.153  1.00  0.00     0.173 A 
ATOM     83  C   UNL     1      -0.440 -11.733   2.782  1.00  0.00     0.173 A 
ATOM     84  F   UNL     1       2.644 -13.649   2.694  1.00  0.00    -0.203 F 
ATOM     85  C   UNL     1       1.331 -12.965   4.526  1.00  0.00     0.198 A 
ATOM     86  C   UNL     1      -0.666 -11.689   4.157  1.00  0.00     0.198 A 
ATOM     87  F   UNL     1      -1.327 -11.149   1.964  1.00  0.00    -0.203 F 
ATOM     88  F   UNL     1       2.166 -13.598   5.361  1.00  0.00    -0.200 F 
ATOM     89  C   UNL     1       0.214 -12.314   5.027  1.00  0.00     0.200 A 
ATOM     90  F   UNL     1      -1.745 -11.055   4.636  1.00  0.00    -0.200 F 
ATOM     91  F   UNL     1      -0.024 -12.303   6.346  1.00  0.00    -0.200 F 
ENDBRANCH  57  81
BRANCH  69  92
ATOM     92  C   UNL     1       0.433 -17.803  -2.116  1.00  0.00     0.064 A 
ATOM     93  C   UNL     1      -0.890 -18.231  -1.940  1.00  0.00     0.173 A 
ATOM     94  C   UNL     1       1.440 -18.777  -2.188  1.00  0.00     0.173 A 
ATOM     95  F   UNL     1      -1.884 -17.334  -1.855  1.00  0.00    -0.203 F 
ATOM     96  C   UNL     1      -1.192 -19.585  -1.832  1.00  0.00     0.198 A 
ATOM     97  C   UNL     1       1.131 -20.131  -2.106  1.00  0.00     0.198 A 
ATOM     98  F   UNL     1       2.720 -18.415  -2.367  1.00  0.00    -0.203 F 
ATOM     99  F   UNL     1      -2.460 -19.973  -1.637  1.00  0.00    -0.200 F 
ATOM    100  C   UNL     1      -0.184 -20.534  -1.925  1.00  0.00     0.200 A 
ATOM    101  F   UNL     1       2.104 -21.047  -2.211  1.00  0.00    -0.200 F 
ATOM    102  F   UNL     1      -0.480 -21.838  -1.838  1.00  0.00    -0.200 F 
ENDBRANCH  69  92
ENDBRANCH  43  44
ENDBRANCH  36  38
ENDBRANCH  35  36
ENDBRANCH  34  35
ENDBRANCH  33  34
ENDBRANCH  32  33
ENDBRANCH   1  32
TORSDOF 17
