REMARK SMILES COc1cc([C@@H]2[NH2+][C@H](C(=O)OCCOCCOC(=O)c3ccc(-c4c5nc(c(-c6c(F)c(F)c(F)c(F)c6F)c6ccc([nH]6)c(-c6c(F)c(F)c(F)c(F)c6F)c6nc(c(-c7c(F)c(F)c(F)c(F)c7F)c7ccc4[nH]7)C=C6)C=C5)cc3)CS2)ccc1OCc1ccc(Cl)cc1
REMARK SMILES IDX 13 1 12 2 11 3 9 4 10 5 8 6 6 7 7 8 84 9 83 12 5 13 3 14
REMARK SMILES IDX 4 15 87 16 86 17 85 18 2 19 1 20 88 21 89 22 90 23 91 24
REMARK SMILES IDX 96 25 92 26 95 27 93 28 94 29 14 30 15 31 16 32 17 33 18 34
REMARK SMILES IDX 19 35 20 36 21 37 82 38 22 39 81 40 23 41 24 42 25 43 75 44
REMARK SMILES IDX 26 45 80 46 74 47 76 48 27 49 79 50 73 51 72 52 28 54 60 55
REMARK SMILES IDX 40 56 59 57 41 58 44 59 58 60 77 61 42 62 43 63 57 65 78 66
REMARK SMILES IDX 45 67 29 68 30 69 38 70 31 71 32 72 36 73 39 74 33 75 34 76
REMARK SMILES IDX 37 77 35 78 61 79 62 80 70 81 63 82 64 83 68 84 71 85 65 86
REMARK SMILES IDX 66 87 69 88 67 89 46 90 47 91 55 92 48 93 49 94 53 95 56 96
REMARK SMILES IDX 50 97 51 98 54 99 52 100
REMARK H PARENT 7 10 7 11 76 53 44 64
REMARK Flexibility Score: inf
ROOT
ATOM      1  C   UNL     1       4.757   2.098  -5.850  1.00  0.00     0.202 C 
ENDROOT
BRANCH   1   2
ATOM      2  C   UNL     1       4.605   3.609  -5.663  1.00  0.00     0.261 C 
BRANCH   2   3
ATOM      3  O   UNL     1       3.207   3.931  -5.566  1.00  0.00    -0.459 OA
BRANCH   3   4
ATOM      4  C   UNL     1       2.737   4.925  -6.358  1.00  0.00     0.365 C 
ATOM      5  O   UNL     1       3.442   5.704  -6.990  1.00  0.00    -0.245 OA
BRANCH   4   6
ATOM      6  C   UNL     1       1.206   5.017  -6.359  1.00  0.00     0.304 C 
ATOM      7  C   UNL     1      -0.232   3.885  -4.757  1.00  0.00     0.274 C 
ATOM      8  N   UNL     1       0.523   3.737  -6.002  1.00  0.00    -0.319 N 
ATOM      9  S   UNL     1      -0.646   5.624  -4.550  1.00  0.00    -0.087 SA
ATOM     10  H   UNL     1      -0.117   3.478  -6.753  1.00  0.00     0.348 HD
ATOM     11  H   UNL     1       1.229   3.012  -5.875  1.00  0.00     0.348 HD
ATOM     12  C   UNL     1       0.780   6.194  -5.490  1.00  0.00     0.153 C 
BRANCH   7  13
ATOM     13  C   UNL     1       0.474   3.240  -3.579  1.00  0.00     0.024 A 
ATOM     14  C   UNL     1       0.710   1.321  -2.062  1.00  0.00     0.161 A 
ATOM     15  C   UNL     1       0.058   1.973  -3.124  1.00  0.00     0.061 A 
ATOM     16  C   UNL     1       1.828   1.907  -1.465  1.00  0.00     0.161 A 
ATOM     17  C   UNL     1       2.259   3.153  -1.930  1.00  0.00     0.051 A 
ATOM     18  C   UNL     1       1.584   3.818  -2.953  1.00  0.00     0.015 A 
BRANCH  14  19
ATOM     19  O   UNL     1       0.302   0.056  -1.731  1.00  0.00    -0.493 OA
ATOM     20  C   UNL     1      -0.994   0.034  -1.131  1.00  0.00     0.278 C 
ENDBRANCH  14  19
BRANCH  16  21
ATOM     21  O   UNL     1       2.614   1.440  -0.451  1.00  0.00    -0.485 OA
BRANCH  21  22
ATOM     22  C   UNL     1       2.116   0.462   0.452  1.00  0.00     0.265 C 
BRANCH  22  23
ATOM     23  C   UNL     1       1.175   0.952   1.521  1.00  0.00    -0.011 A 
ATOM     24  C   UNL     1       0.885   2.305   1.716  1.00  0.00     0.009 A 
ATOM     25  C   UNL     1       0.605  -0.005   2.377  1.00  0.00     0.009 A 
ATOM     26  C   UNL     1      -0.008   2.693   2.714  1.00  0.00     0.021 A 
ATOM     27  C   UNL     1      -0.283   0.382   3.377  1.00  0.00     0.021 A 
ATOM     28  C   UNL     1      -0.595   1.730   3.532  1.00  0.00     0.041 A 
ATOM     29  Cl  UNL     1      -1.716   2.209   4.745  1.00  0.00    -0.084 Cl
ENDBRANCH  22  23
ENDBRANCH  21  22
ENDBRANCH  16  21
ENDBRANCH   7  13
ENDBRANCH   4   6
ENDBRANCH   3   4
ENDBRANCH   2   3
ENDBRANCH   1   2
BRANCH   1  30
ATOM     30  O   UNL     1       4.422   1.635  -7.164  1.00  0.00    -0.374 OA
BRANCH  30  31
ATOM     31  C   UNL     1       3.029   1.485  -7.431  1.00  0.00     0.202 C 
BRANCH  31  32
ATOM     32  C   UNL     1       2.417   0.135  -7.039  1.00  0.00     0.261 C 
BRANCH  32  33
ATOM     33  O   UNL     1       2.640  -0.208  -5.663  1.00  0.00    -0.460 OA
BRANCH  33  34
ATOM     34  C   UNL     1       3.706  -1.014  -5.450  1.00  0.00     0.338 C 
ATOM     35  O   UNL     1       4.441  -1.514  -6.295  1.00  0.00    -0.246 OA
BRANCH  34  36
ATOM     36  C   UNL     1       3.955  -1.163  -4.006  1.00  0.00     0.060 A 
ATOM     37  C   UNL     1       5.262  -1.001  -3.528  1.00  0.00     0.016 A 
ATOM     38  C   UNL     1       2.937  -1.549  -3.140  1.00  0.00     0.016 A 
ATOM     39  C   UNL     1       5.561  -1.254  -2.184  1.00  0.00     0.010 A 
ATOM     40  C   UNL     1       3.244  -1.801  -1.801  1.00  0.00     0.010 A 
ATOM     41  C   UNL     1       4.558  -1.674  -1.302  1.00  0.00    -0.014 A 
BRANCH  41  42
ATOM     42  C   UNL     1       4.856  -2.063   0.112  1.00  0.00     0.031 A 
ATOM     43  C   UNL     1       4.523  -3.460   0.580  1.00  0.00     0.074 A 
ATOM     44  C   UNL     1       5.301  -1.164   1.016  1.00  0.00     0.049 A 
ATOM     45  N   UNL     1       4.526  -3.959   1.792  1.00  0.00    -0.248 NA
ATOM     46  C   UNL     1       4.090  -4.412  -0.455  1.00  0.00     0.031 C 
ATOM     47  C   UNL     1       5.597   0.245   0.750  1.00  0.00     0.029 A 
ATOM     48  N   UNL     1       5.476  -1.284   2.378  1.00  0.00    -0.354 N 
ATOM     49  C   UNL     1       4.095  -5.273   1.661  1.00  0.00     0.074 A 
ATOM     50  C   UNL     1       3.739  -5.462   0.271  1.00  0.00     0.031 C 
ATOM     51  C   UNL     1       5.823   0.876   1.916  1.00  0.00     0.029 A 
ATOM     52  C   UNL     1       5.709  -0.085   3.010  1.00  0.00     0.049 A 
ATOM     53  H   UNL     1       5.437  -2.146   2.853  1.00  0.00     0.167 HD
ATOM     54  C   UNL     1       4.054  -6.257   2.592  1.00  0.00     0.037 A 
ATOM     55  C   UNL     1       5.797   0.214   4.321  1.00  0.00     0.037 A 
ATOM     56  C   UNL     1       4.469  -6.102   3.960  1.00  0.00     0.049 A 
ATOM     57  C   UNL     1       5.739  -0.885   5.349  1.00  0.00     0.074 A 
ATOM     58  C   UNL     1       4.609  -7.074   4.936  1.00  0.00     0.029 A 
ATOM     59  N   UNL     1       4.810  -4.896   4.547  1.00  0.00    -0.354 N 
ATOM     60  N   UNL     1       5.478  -2.158   5.188  1.00  0.00    -0.248 NA
ATOM     61  C   UNL     1       6.041  -0.509   6.739  1.00  0.00     0.031 C 
ATOM     62  C   UNL     1       5.000  -6.450   6.126  1.00  0.00     0.029 A 
ATOM     63  C   UNL     1       5.146  -5.096   5.877  1.00  0.00     0.049 A 
ATOM     64  H   UNL     1       4.814  -4.025   4.088  1.00  0.00     0.167 HD
ATOM     65  C   UNL     1       5.660  -2.745   6.435  1.00  0.00     0.074 A 
ATOM     66  C   UNL     1       6.029  -1.686   7.348  1.00  0.00     0.031 C 
ATOM     67  C   UNL     1       5.554  -4.051   6.779  1.00  0.00     0.037 A 
BRANCH  54  68
ATOM     68  C   UNL     1       3.597  -7.617   2.145  1.00  0.00     0.064 A 
ATOM     69  C   UNL     1       4.368  -8.392   1.263  1.00  0.00     0.173 A 
ATOM     70  C   UNL     1       2.404  -8.170   2.632  1.00  0.00     0.173 A 
ATOM     71  F   UNL     1       5.516  -7.908   0.766  1.00  0.00    -0.203 F 
ATOM     72  C   UNL     1       3.941  -9.652   0.854  1.00  0.00     0.198 A 
ATOM     73  C   UNL     1       1.997  -9.446   2.247  1.00  0.00     0.198 A 
ATOM     74  F   UNL     1       1.636  -7.478   3.486  1.00  0.00    -0.203 F 
ATOM     75  F   UNL     1       4.666 -10.347  -0.034  1.00  0.00    -0.200 F 
ATOM     76  C   UNL     1       2.760 -10.180   1.351  1.00  0.00     0.200 A 
ATOM     77  F   UNL     1       0.864  -9.963   2.741  1.00  0.00    -0.200 F 
ATOM     78  F   UNL     1       2.354 -11.397   0.962  1.00  0.00    -0.200 F 
ENDBRANCH  54  68
BRANCH  55  79
ATOM     79  C   UNL     1       5.998   1.620   4.758  1.00  0.00     0.064 A 
ATOM     80  C   UNL     1       7.244   2.055   5.229  1.00  0.00     0.173 A 
ATOM     81  C   UNL     1       4.936   2.535   4.772  1.00  0.00     0.173 A 
ATOM     82  F   UNL     1       8.280   1.204   5.261  1.00  0.00    -0.203 F 
ATOM     83  C   UNL     1       7.413   3.342   5.733  1.00  0.00     0.198 A 
ATOM     84  C   UNL     1       5.112   3.831   5.256  1.00  0.00     0.198 A 
ATOM     85  F   UNL     1       3.724   2.164   4.334  1.00  0.00    -0.203 F 
ATOM     86  F   UNL     1       8.599   3.712   6.236  1.00  0.00    -0.200 F 
ATOM     87  C   UNL     1       6.347   4.229   5.746  1.00  0.00     0.200 A 
ATOM     88  F   UNL     1       4.082   4.688   5.265  1.00  0.00    -0.200 F 
ATOM     89  F   UNL     1       6.507   5.463   6.246  1.00  0.00    -0.200 F 
ENDBRANCH  55  79
BRANCH  67  90
ATOM     90  C   UNL     1       5.944  -4.436   8.177  1.00  0.00     0.064 A 
ATOM     91  C   UNL     1       5.163  -4.101   9.292  1.00  0.00     0.173 A 
ATOM     92  C   UNL     1       7.118  -5.174   8.398  1.00  0.00     0.173 A 
ATOM     93  F   UNL     1       4.040  -3.382   9.138  1.00  0.00    -0.203 F 
ATOM     94  C   UNL     1       5.558  -4.463  10.578  1.00  0.00     0.198 A 
ATOM     95  C   UNL     1       7.494  -5.562   9.681  1.00  0.00     0.198 A 
ATOM     96  F   UNL     1       7.900  -5.526   7.366  1.00  0.00    -0.203 F 
ATOM     97  F   UNL     1       4.824  -4.085  11.633  1.00  0.00    -0.200 F 
ATOM     98  C   UNL     1       6.719  -5.198  10.771  1.00  0.00     0.200 A 
ATOM     99  F   UNL     1       8.609  -6.283   9.862  1.00  0.00    -0.200 F 
ATOM    100  F   UNL     1       7.095  -5.548  12.008  1.00  0.00    -0.200 F 
ENDBRANCH  67  90
ENDBRANCH  41  42
ENDBRANCH  34  36
ENDBRANCH  33  34
ENDBRANCH  32  33
ENDBRANCH  31  32
ENDBRANCH  30  31
ENDBRANCH   1  30
TORSDOF 19
