REMARK SMILES Cc1c(NCc2ccccn2)cccc1C(=O)N1CCOC[C@@H]1CC(=O)OCCOCCOC(=O)c1ccc(-c2c3nc(c(-c4c(F)c(F)c(F)c(F)c4F)c4ccc([nH]4)c(-c4c(F)c(F)c(F)c(F)c4F)c4nc(c(-c5c(F)c(F)c(F)c(F)c5F)c5ccc2[nH]5)C=C4)C=C3)cc1
REMARK SMILES IDX 28 1 27 2 25 3 26 4 24 5 23 6 18 7 19 8 20 9 22 10 21 11
REMARK SMILES IDX 16 12 17 13 15 14 1 15 2 16 3 17 12 18 14 19 13 20 4 21 5 23
REMARK SMILES IDX 6 24 7 25 11 26 8 27 10 28 9 29 29 30 30 31 31 32 32 33
REMARK SMILES IDX 33 34 34 35 35 36 36 37 37 38 98 39 38 40 97 41 39 42 40 43
REMARK SMILES IDX 41 44 91 45 42 46 96 47 90 48 92 49 43 50 95 51 89 52 88 53
REMARK SMILES IDX 44 55 76 56 56 57 75 58 57 59 60 60 74 61 93 62 58 63 59 64
REMARK SMILES IDX 73 66 94 67 61 68 45 69 46 70 54 71 47 72 48 73 52 74 55 75
REMARK SMILES IDX 49 76 50 77 53 78 51 79 77 80 78 81 86 82 79 83 80 84 84 85
REMARK SMILES IDX 87 86 81 87 82 88 85 89 83 90 62 91 63 92 71 93 64 94 65 95
REMARK SMILES IDX 69 96 72 97 66 98 67 99 70 100 68 101
REMARK H PARENT 4 22 92 54 60 65
REMARK Flexibility Score: inf
ROOT
ATOM      1  C   UNL     1       1.038   1.624   2.267  1.00  0.00     0.261 C 
ENDROOT
BRANCH   1   2
ATOM      2  O   UNL     1       1.199   2.742   1.418  1.00  0.00    -0.463 OA
BRANCH   2   3
ATOM      3  C   UNL     1       2.088   3.661   1.865  1.00  0.00     0.308 C 
ATOM      4  O   UNL     1       2.419   3.857   3.014  1.00  0.00    -0.252 OA
BRANCH   3   5
ATOM      5  C   UNL     1       2.700   4.322   0.678  1.00  0.00     0.150 C 
BRANCH   5   6
ATOM      6  C   UNL     1       3.607   3.401  -0.161  1.00  0.00     0.122 C 
ATOM      7  N   UNL     1       3.104   2.172  -0.883  1.00  0.00    -0.330 N 
ATOM      8  C   UNL     1       4.127   1.660  -1.789  1.00  0.00     0.148 C 
ATOM      9  C   UNL     1       5.445   1.389  -1.059  1.00  0.00     0.181 C 
ATOM     10  C   UNL     1       4.868   2.967   0.633  1.00  0.00     0.185 C 
ATOM     11  O   UNL     1       5.885   2.510  -0.277  1.00  0.00    -0.377 OA
BRANCH   7  12
ATOM     12  C   UNL     1       1.774   1.905  -1.204  1.00  0.00     0.254 C 
ATOM     13  O   UNL     1       0.951   2.820  -1.249  1.00  0.00    -0.269 OA
BRANCH  12  14
ATOM     14  C   UNL     1       1.260   0.472  -1.440  1.00  0.00     0.045 A 
ATOM     15  C   UNL     1       3.047  -0.983  -0.358  1.00  0.00     0.047 C 
ATOM     16  C   UNL     1       1.615  -0.704  -0.717  1.00  0.00    -0.015 A 
ATOM     17  C   UNL     1       0.674  -1.771  -0.567  1.00  0.00     0.038 A 
ATOM     18  C   UNL     1      -0.522  -1.705  -1.293  1.00  0.00     0.026 A 
ATOM     19  C   UNL     1       0.138   0.391  -2.277  1.00  0.00     0.014 A 
ATOM     20  C   UNL     1      -0.741  -0.693  -2.220  1.00  0.00     0.003 A 
BRANCH  17  21
ATOM     21  N   UNL     1       1.001  -2.925   0.131  1.00  0.00    -0.379 N 
ATOM     22  H   UNL     1       1.724  -2.856   0.796  1.00  0.00     0.160 HD
BRANCH  21  23
ATOM     23  C   UNL     1       0.369  -4.237  -0.030  1.00  0.00     0.169 C 
BRANCH  23  24
ATOM     24  C   UNL     1       0.634  -4.943  -1.355  1.00  0.00     0.059 A 
ATOM     25  C   UNL     1       1.033  -4.273  -2.514  1.00  0.00     0.026 A 
ATOM     26  N   UNL     1       0.387  -6.280  -1.376  1.00  0.00    -0.259 NA
ATOM     27  C   UNL     1       1.158  -4.963  -3.714  1.00  0.00     0.004 A 
ATOM     28  C   UNL     1       0.547  -6.935  -2.550  1.00  0.00     0.111 A 
ATOM     29  C   UNL     1       0.916  -6.324  -3.735  1.00  0.00     0.020 A 
ENDBRANCH  23  24
ENDBRANCH  21  23
ENDBRANCH  17  21
ENDBRANCH  12  14
ENDBRANCH   7  12
ENDBRANCH   5   6
ENDBRANCH   3   5
ENDBRANCH   2   3
ENDBRANCH   1   2
BRANCH   1  30
ATOM     30  C   UNL     1       2.299   0.805   2.377  1.00  0.00     0.202 C 
BRANCH  30  31
ATOM     31  O   UNL     1       2.848   1.006   3.667  1.00  0.00    -0.374 OA
BRANCH  31  32
ATOM     32  C   UNL     1       4.075   0.354   3.945  1.00  0.00     0.202 C 
BRANCH  32  33
ATOM     33  C   UNL     1       4.155  -1.130   3.539  1.00  0.00     0.261 C 
BRANCH  33  34
ATOM     34  O   UNL     1       3.264  -1.970   4.324  1.00  0.00    -0.460 OA
BRANCH  34  35
ATOM     35  C   UNL     1       2.082  -2.385   3.777  1.00  0.00     0.338 C 
ATOM     36  O   UNL     1       1.975  -3.261   2.934  1.00  0.00    -0.246 OA
BRANCH  35  37
ATOM     37  C   UNL     1       0.937  -1.559   4.278  1.00  0.00     0.060 A 
ATOM     38  C   UNL     1      -0.305  -1.520   3.610  1.00  0.00     0.016 A 
ATOM     39  C   UNL     1       1.206  -0.612   5.251  1.00  0.00     0.016 A 
ATOM     40  C   UNL     1      -1.204  -0.443   3.809  1.00  0.00     0.010 A 
ATOM     41  C   UNL     1       0.396   0.504   5.326  1.00  0.00     0.010 A 
ATOM     42  C   UNL     1      -0.823   0.624   4.617  1.00  0.00    -0.014 A 
BRANCH  42  43
ATOM     43  C   UNL     1      -1.474   1.953   4.769  1.00  0.00     0.031 A 
ATOM     44  C   UNL     1      -1.609   2.471   6.176  1.00  0.00     0.074 A 
ATOM     45  C   UNL     1      -1.559   2.883   3.770  1.00  0.00     0.049 A 
ATOM     46  N   UNL     1      -2.024   3.651   6.489  1.00  0.00    -0.248 NA
ATOM     47  C   UNL     1      -1.309   1.673   7.368  1.00  0.00     0.031 C 
ATOM     48  C   UNL     1      -1.202   4.300   3.948  1.00  0.00     0.029 A 
ATOM     49  N   UNL     1      -1.878   2.822   2.394  1.00  0.00    -0.354 N 
ATOM     50  C   UNL     1      -1.711   3.885   7.810  1.00  0.00     0.074 A 
ATOM     51  C   UNL     1      -1.373   2.591   8.336  1.00  0.00     0.031 C 
ATOM     52  C   UNL     1      -1.552   5.002   2.865  1.00  0.00     0.029 A 
ATOM     53  C   UNL     1      -2.291   4.122   1.992  1.00  0.00     0.049 A 
ATOM     54  H   UNL     1      -1.825   2.025   1.819  1.00  0.00     0.167 HD
ATOM     55  C   UNL     1      -1.686   5.177   8.249  1.00  0.00     0.037 A 
ATOM     56  C   UNL     1      -3.450   4.448   1.342  1.00  0.00     0.037 A 
ATOM     57  C   UNL     1      -2.177   6.082   7.207  1.00  0.00     0.049 A 
ATOM     58  C   UNL     1      -4.258   5.509   1.995  1.00  0.00     0.074 A 
ATOM     59  C   UNL     1      -1.570   6.994   6.364  1.00  0.00     0.029 A 
ATOM     60  N   UNL     1      -3.481   5.932   6.753  1.00  0.00    -0.354 N 
ATOM     61  N   UNL     1      -3.913   6.050   3.119  1.00  0.00    -0.248 NA
ATOM     62  C   UNL     1      -5.586   5.912   1.551  1.00  0.00     0.031 C 
ATOM     63  C   UNL     1      -2.537   7.411   5.412  1.00  0.00     0.029 A 
ATOM     64  C   UNL     1      -3.733   6.762   5.681  1.00  0.00     0.049 A 
ATOM     65  H   UNL     1      -4.139   5.314   7.144  1.00  0.00     0.167 HD
ATOM     66  C   UNL     1      -5.028   6.572   3.696  1.00  0.00     0.074 A 
ATOM     67  C   UNL     1      -6.006   6.595   2.628  1.00  0.00     0.031 C 
ATOM     68  C   UNL     1      -5.050   6.775   5.044  1.00  0.00     0.037 A 
BRANCH  55  69
ATOM     69  C   UNL     1      -1.131   5.713   9.560  1.00  0.00     0.064 A 
ATOM     70  C   UNL     1      -1.136   7.110   9.806  1.00  0.00     0.173 A 
ATOM     71  C   UNL     1      -0.544   4.955  10.591  1.00  0.00     0.173 A 
ATOM     72  F   UNL     1      -1.663   7.977   8.931  1.00  0.00    -0.203 F 
ATOM     73  C   UNL     1      -0.598   7.683  10.963  1.00  0.00     0.198 A 
ATOM     74  C   UNL     1      -0.030   5.526  11.762  1.00  0.00     0.198 A 
ATOM     75  F   UNL     1      -0.415   3.630  10.526  1.00  0.00    -0.203 F 
ATOM     76  F   UNL     1      -0.614   9.014  11.115  1.00  0.00    -0.200 F 
ATOM     77  C   UNL     1      -0.051   6.890  11.947  1.00  0.00     0.200 A 
ATOM     78  F   UNL     1       0.496   4.733  12.707  1.00  0.00    -0.200 F 
ATOM     79  F   UNL     1       0.454   7.432  13.062  1.00  0.00    -0.200 F 
ENDBRANCH  55  69
BRANCH  56  80
ATOM     80  C   UNL     1      -4.060   3.449   0.418  1.00  0.00     0.064 A 
ATOM     81  C   UNL     1      -3.402   3.448  -0.809  1.00  0.00     0.173 A 
ATOM     82  C   UNL     1      -4.397   2.222   1.000  1.00  0.00     0.173 A 
ATOM     83  F   UNL     1      -3.281   4.582  -1.516  1.00  0.00    -0.203 F 
ATOM     84  C   UNL     1      -2.600   2.372  -1.104  1.00  0.00     0.198 A 
ATOM     85  C   UNL     1      -3.620   1.126   0.692  1.00  0.00     0.198 A 
ATOM     86  F   UNL     1      -5.194   2.179   2.076  1.00  0.00    -0.203 F 
ATOM     87  F   UNL     1      -1.724   2.482  -2.106  1.00  0.00    -0.200 F 
ATOM     88  C   UNL     1      -2.618   1.278  -0.248  1.00  0.00     0.200 A 
ATOM     89  F   UNL     1      -3.655   0.026   1.456  1.00  0.00    -0.200 F 
ATOM     90  F   UNL     1      -1.554   0.490  -0.120  1.00  0.00    -0.200 F 
ENDBRANCH  56  80
BRANCH  68  91
ATOM     91  C   UNL     1      -6.301   7.008   5.848  1.00  0.00     0.064 A 
ATOM     92  C   UNL     1      -7.593   6.637   5.433  1.00  0.00     0.173 A 
ATOM     93  C   UNL     1      -6.220   7.560   7.146  1.00  0.00     0.173 A 
ATOM     94  F   UNL     1      -7.800   5.918   4.323  1.00  0.00    -0.203 F 
ATOM     95  C   UNL     1      -8.727   6.941   6.186  1.00  0.00     0.198 A 
ATOM     96  C   UNL     1      -7.347   7.781   7.933  1.00  0.00     0.198 A 
ATOM     97  F   UNL     1      -5.043   7.882   7.702  1.00  0.00    -0.203 F 
ATOM     98  F   UNL     1      -9.942   6.654   5.697  1.00  0.00    -0.200 F 
ATOM     99  C   UNL     1      -8.604   7.513   7.435  1.00  0.00     0.200 A 
ATOM    100  F   UNL     1      -7.203   8.250   9.180  1.00  0.00    -0.200 F 
ATOM    101  F   UNL     1      -9.692   7.782   8.168  1.00  0.00    -0.200 F 
ENDBRANCH  68  91
ENDBRANCH  42  43
ENDBRANCH  35  37
ENDBRANCH  34  35
ENDBRANCH  33  34
ENDBRANCH  32  33
ENDBRANCH  31  32
ENDBRANCH  30  31
ENDBRANCH   1  30
TORSDOF 20
