REMARK SMILES C[C@@H](C[NH3+])S/C=C/C(=O)OCCOCCOC(=O)c1ccc(-c2c3nc(c(-c4c(F)c(F)c(F)c(F)c4F)c4ccc([nH]4)c(-c4c(F)c(F)c(F)c(F)c4F)c4nc(c(-c5c(F)c(F)c(F)c(F)c5F)c5ccc2[nH]5)C=C4)C=C3)cc1
REMARK SMILES IDX 12 1 11 2 10 3 8 4 9 5 7 6 6 7 5 8 2 9 1 10 3 11 4 12 13 16
REMARK SMILES IDX 14 17 15 18 16 19 17 20 18 21 19 22 20 23 81 24 21 25 80 26
REMARK SMILES IDX 22 27 23 28 24 29 74 30 25 31 79 32 73 33 75 34 26 35 78 36
REMARK SMILES IDX 72 37 71 38 27 40 59 41 39 42 58 43 40 44 43 45 57 46 76 47
REMARK SMILES IDX 41 48 42 49 56 51 77 52 44 53 28 54 29 55 37 56 30 57 31 58
REMARK SMILES IDX 35 59 38 60 32 61 33 62 36 63 34 64 60 65 61 66 69 67 62 68
REMARK SMILES IDX 63 69 67 70 70 71 64 72 65 73 68 74 66 75 45 76 46 77 54 78
REMARK SMILES IDX 47 79 48 80 52 81 55 82 49 83 50 84 53 85 51 86
REMARK H PARENT 4 13 4 14 4 15 75 39 43 50
REMARK Flexibility Score: inf
ROOT
ATOM      1  C   UNL     1      -2.628   3.037  -5.195  1.00  0.00     0.202 C 
ENDROOT
BRANCH   1   2
ATOM      2  C   UNL     1      -2.851   1.552  -4.901  1.00  0.00     0.261 C 
BRANCH   2   3
ATOM      3  O   UNL     1      -2.607   1.253  -3.518  1.00  0.00    -0.460 OA
BRANCH   3   4
ATOM      4  C   UNL     1      -1.532   0.462  -3.290  1.00  0.00     0.331 C 
ATOM      5  O   UNL     1      -0.873  -0.128  -4.134  1.00  0.00    -0.247 OA
BRANCH   4   6
ATOM      6  C   UNL     1      -1.147   0.412  -1.867  1.00  0.00     0.100 C 
ATOM      7  C   UNL     1      -1.832   0.928  -0.842  1.00  0.00     0.048 C 
BRANCH   7   8
ATOM      8  S   UNL     1      -1.390   0.805   0.824  1.00  0.00    -0.125 SA
BRANCH   8   9
ATOM      9  C   UNL     1       0.426   1.019   0.991  1.00  0.00     0.103 C 
ATOM     10  C   UNL     1       1.255  -0.147   0.451  1.00  0.00     0.026 C 
BRANCH   9  11
ATOM     11  C   UNL     1       0.983   2.409   0.607  1.00  0.00     0.273 C 
BRANCH  11  12
ATOM     12  N   UNL     1       0.978   2.757  -0.816  1.00  0.00    -0.357 N 
ATOM     13  H   UNL     1       1.595   2.122  -1.323  1.00  0.00     0.344 HD
ATOM     14  H   UNL     1       1.306   3.715  -0.933  1.00  0.00     0.344 HD
ATOM     15  H   UNL     1       0.030   2.674  -1.183  1.00  0.00     0.344 HD
ENDBRANCH  11  12
ENDBRANCH   9  11
ENDBRANCH   8   9
ENDBRANCH   7   8
ENDBRANCH   4   6
ENDBRANCH   3   4
ENDBRANCH   2   3
ENDBRANCH   1   2
BRANCH   1  16
ATOM     16  O   UNL     1      -1.319   3.535  -4.930  1.00  0.00    -0.374 OA
BRANCH  16  17
ATOM     17  C   UNL     1      -1.026   3.894  -3.575  1.00  0.00     0.202 C 
BRANCH  17  18
ATOM     18  C   UNL     1      -1.591   5.241  -3.106  1.00  0.00     0.261 C 
BRANCH  18  19
ATOM     19  O   UNL     1      -3.021   5.184  -2.934  1.00  0.00    -0.460 OA
BRANCH  19  20
ATOM     20  C   UNL     1      -3.739   5.946  -3.789  1.00  0.00     0.338 C 
ATOM     21  O   UNL     1      -3.312   6.742  -4.616  1.00  0.00    -0.246 OA
BRANCH  20  22
ATOM     22  C   UNL     1      -5.159   5.554  -3.734  1.00  0.00     0.060 A 
ATOM     23  C   UNL     1      -5.787   5.216  -4.940  1.00  0.00     0.016 A 
ATOM     24  C   UNL     1      -5.881   5.570  -2.539  1.00  0.00     0.016 A 
ATOM     25  C   UNL     1      -7.151   4.933  -4.963  1.00  0.00     0.010 A 
ATOM     26  C   UNL     1      -7.253   5.298  -2.565  1.00  0.00     0.010 A 
ATOM     27  C   UNL     1      -7.899   5.009  -3.781  1.00  0.00    -0.014 A 
BRANCH  27  28
ATOM     28  C   UNL     1      -9.378   4.920  -3.844  1.00  0.00     0.031 A 
ATOM     29  C   UNL     1     -10.187   6.186  -3.835  1.00  0.00     0.074 A 
ATOM     30  C   UNL     1      -9.992   3.727  -3.935  1.00  0.00     0.049 A 
ATOM     31  N   UNL     1     -11.486   6.344  -3.839  1.00  0.00    -0.248 NA
ATOM     32  C   UNL     1      -9.428   7.447  -3.821  1.00  0.00     0.031 C 
ATOM     33  C   UNL     1      -9.317   2.433  -3.988  1.00  0.00     0.029 A 
ATOM     34  N   UNL     1     -11.328   3.415  -3.990  1.00  0.00    -0.354 N 
ATOM     35  C   UNL     1     -11.700   7.715  -3.828  1.00  0.00     0.074 A 
ATOM     36  C   UNL     1     -10.399   8.348  -3.786  1.00  0.00     0.031 C 
ATOM     37  C   UNL     1     -10.243   1.462  -4.051  1.00  0.00     0.029 A 
ATOM     38  C   UNL     1     -11.575   2.065  -4.014  1.00  0.00     0.049 A 
ATOM     39  H   UNL     1     -12.040   4.094  -4.010  1.00  0.00     0.167 HD
ATOM     40  C   UNL     1     -12.876   8.386  -3.860  1.00  0.00     0.037 A 
ATOM     41  C   UNL     1     -12.743   1.394  -3.986  1.00  0.00     0.037 A 
ATOM     42  C   UNL     1     -14.169   7.757  -3.898  1.00  0.00     0.049 A 
ATOM     43  C   UNL     1     -14.038   2.163  -3.962  1.00  0.00     0.074 A 
ATOM     44  C   UNL     1     -15.418   8.353  -3.932  1.00  0.00     0.029 A 
ATOM     45  N   UNL     1     -14.380   6.386  -3.904  1.00  0.00    -0.354 N 
ATOM     46  N   UNL     1     -14.232   3.459  -3.958  1.00  0.00    -0.248 NA
ATOM     47  C   UNL     1     -15.279   1.373  -3.943  1.00  0.00     0.031 C 
ATOM     48  C   UNL     1     -16.385   7.343  -3.916  1.00  0.00     0.029 A 
ATOM     49  C   UNL     1     -15.739   6.117  -3.924  1.00  0.00     0.049 A 
ATOM     50  H   UNL     1     -13.669   5.705  -3.895  1.00  0.00     0.167 HD
ATOM     51  C   UNL     1     -15.609   3.641  -3.961  1.00  0.00     0.074 A 
ATOM     52  C   UNL     1     -16.204   2.322  -3.981  1.00  0.00     0.031 C 
ATOM     53  C   UNL     1     -16.316   4.798  -3.948  1.00  0.00     0.037 A 
BRANCH  40  54
ATOM     54  C   UNL     1     -12.819   9.885  -3.841  1.00  0.00     0.064 A 
ATOM     55  C   UNL     1     -12.402  10.618  -4.962  1.00  0.00     0.173 A 
ATOM     56  C   UNL     1     -13.232  10.598  -2.706  1.00  0.00     0.173 A 
ATOM     57  F   UNL     1     -11.984   9.982  -6.066  1.00  0.00    -0.203 F 
ATOM     58  C   UNL     1     -12.385  12.010  -4.941  1.00  0.00     0.198 A 
ATOM     59  C   UNL     1     -13.239  11.990  -2.697  1.00  0.00     0.198 A 
ATOM     60  F   UNL     1     -13.643   9.944  -1.609  1.00  0.00    -0.203 F 
ATOM     61  F   UNL     1     -11.949  12.689  -6.011  1.00  0.00    -0.200 F 
ATOM     62  C   UNL     1     -12.811  12.695  -3.812  1.00  0.00     0.200 A 
ATOM     63  F   UNL     1     -13.661  12.650  -1.610  1.00  0.00    -0.200 F 
ATOM     64  F   UNL     1     -12.805  14.035  -3.798  1.00  0.00    -0.200 F 
ENDBRANCH  40  54
BRANCH  41  65
ATOM     65  C   UNL     1     -12.739  -0.091  -3.963  1.00  0.00     0.064 A 
ATOM     66  C   UNL     1     -13.181  -0.835  -5.065  1.00  0.00     0.173 A 
ATOM     67  C   UNL     1     -12.298  -0.796  -2.833  1.00  0.00     0.173 A 
ATOM     68  F   UNL     1     -13.637  -0.206  -6.158  1.00  0.00    -0.203 F 
ATOM     69  C   UNL     1     -13.194  -2.229  -5.033  1.00  0.00     0.198 A 
ATOM     70  C   UNL     1     -12.286  -2.188  -2.812  1.00  0.00     0.198 A 
ATOM     71  F   UNL     1     -11.868  -0.129  -1.752  1.00  0.00    -0.203 F 
ATOM     72  F   UNL     1     -13.661  -2.916  -6.084  1.00  0.00    -0.200 F 
ATOM     73  C   UNL     1     -12.740  -2.904  -3.909  1.00  0.00     0.200 A 
ATOM     74  F   UNL     1     -11.837  -2.836  -1.728  1.00  0.00    -0.200 F 
ATOM     75  F   UNL     1     -12.748  -4.243  -3.881  1.00  0.00    -0.200 F 
ENDBRANCH  41  65
BRANCH  53  76
ATOM     76  C   UNL     1     -17.814   4.694  -3.986  1.00  0.00     0.064 A 
ATOM     77  C   UNL     1     -18.550   4.266  -2.872  1.00  0.00     0.173 A 
ATOM     78  C   UNL     1     -18.522   5.078  -5.135  1.00  0.00     0.173 A 
ATOM     79  F   UNL     1     -17.919   3.877  -1.755  1.00  0.00    -0.203 F 
ATOM     80  C   UNL     1     -19.941   4.204  -2.915  1.00  0.00     0.198 A 
ATOM     81  C   UNL     1     -19.913   5.042  -5.165  1.00  0.00     0.198 A 
ATOM     82  F   UNL     1     -17.865   5.503  -6.224  1.00  0.00    -0.203 F 
ATOM     83  F   UNL     1     -20.622   3.752  -1.854  1.00  0.00    -0.200 F 
ATOM     84  C   UNL     1     -20.621   4.599  -4.058  1.00  0.00     0.200 A 
ATOM     85  F   UNL     1     -20.569   5.437  -6.265  1.00  0.00    -0.200 F 
ATOM     86  F   UNL     1     -21.960   4.548  -4.094  1.00  0.00    -0.200 F 
ENDBRANCH  53  76
ENDBRANCH  27  28
ENDBRANCH  20  22
ENDBRANCH  19  20
ENDBRANCH  18  19
ENDBRANCH  17  18
ENDBRANCH  16  17
ENDBRANCH   1  16
TORSDOF 18
