REMARK SMILES C[C@H]1SCCC[C@]1(Nc1ccc(Cl)cc1)C(=O)OCCOCCOC(=O)c1ccc(-c2c3nc(c(-c4c(F)c(F)c(F)c(F)c4F)c4ccc([nH]4)c(-c4c(F)c(F)c(F)c(F)c4F)c4nc(c(-c5c(F)c(F)c(F)c(F)c5F)c5ccc2[nH]5)C=C4)C=C3)cc1
REMARK SMILES IDX 21 1 20 2 19 3 18 4 16 5 17 6 7 7 1 8 2 9 3 10 4 11 6 12
REMARK SMILES IDX 5 13 8 14 9 16 10 17 15 18 11 19 14 20 12 21 13 22 22 23
REMARK SMILES IDX 23 24 24 25 25 26 26 27 27 28 28 29 89 30 29 31 88 32 30 33
REMARK SMILES IDX 31 34 32 35 82 36 33 37 87 38 81 39 83 40 34 41 86 42 80 43
REMARK SMILES IDX 79 44 35 46 67 47 47 48 66 49 48 50 51 51 65 52 84 53 49 54
REMARK SMILES IDX 50 55 64 57 85 58 52 59 36 60 37 61 45 62 38 63 39 64 43 65
REMARK SMILES IDX 46 66 40 67 41 68 44 69 42 70 68 71 69 72 77 73 70 74 71 75
REMARK SMILES IDX 75 76 78 77 72 78 73 79 76 80 74 81 53 82 54 83 62 84 55 85
REMARK SMILES IDX 56 86 60 87 63 88 57 89 58 90 61 91 59 92
REMARK H PARENT 8 15 83 45 51 56
REMARK Flexibility Score: inf
ROOT
ATOM      1  O   UNL     1       1.608   4.047  -0.559  1.00  0.00    -0.374 OA
ENDROOT
BRANCH   1   2
ATOM      2  C   UNL     1       2.204   4.307   0.711  1.00  0.00     0.202 C 
BRANCH   2   3
ATOM      3  C   UNL     1       1.293   4.187   1.933  1.00  0.00     0.261 C 
BRANCH   3   4
ATOM      4  O   UNL     1       0.868   2.831   2.155  1.00  0.00    -0.461 OA
BRANCH   4   5
ATOM      5  C   UNL     1      -0.419   2.557   1.809  1.00  0.00     0.333 C 
ATOM      6  O   UNL     1      -1.164   3.389   1.294  1.00  0.00    -0.249 OA
BRANCH   5   7
ATOM      7  C   UNL     1      -0.859   1.092   2.154  1.00  0.00     0.147 C 
ATOM      8  C   UNL     1       1.516  -0.018   2.579  1.00  0.00     0.022 C 
ATOM      9  C   UNL     1       0.223   0.024   1.752  1.00  0.00     0.080 C 
ATOM     10  S   UNL     1      -0.413  -1.714   1.850  1.00  0.00    -0.156 SA
ATOM     11  C   UNL     1      -1.827  -1.558   0.738  1.00  0.00     0.070 C 
ATOM     12  C   UNL     1      -2.139   0.899   1.275  1.00  0.00     0.042 C 
ATOM     13  C   UNL     1      -2.771  -0.487   1.245  1.00  0.00     0.014 C 
BRANCH   7  14
ATOM     14  N   UNL     1      -1.258   0.915   3.587  1.00  0.00    -0.369 N 
ATOM     15  H   UNL     1      -1.772   0.119   3.854  1.00  0.00     0.161 HD
BRANCH  14  16
ATOM     16  C   UNL     1      -0.911   1.861   4.545  1.00  0.00     0.035 A 
ATOM     17  C   UNL     1      -1.439   3.157   4.508  1.00  0.00     0.027 A 
ATOM     18  C   UNL     1       0.099   1.583   5.472  1.00  0.00     0.027 A 
ATOM     19  C   UNL     1      -0.922   4.170   5.320  1.00  0.00     0.022 A 
ATOM     20  C   UNL     1       0.625   2.591   6.285  1.00  0.00     0.022 A 
ATOM     21  C   UNL     1       0.124   3.886   6.190  1.00  0.00     0.041 A 
ATOM     22  Cl  UNL     1       0.822   5.144   7.133  1.00  0.00    -0.084 Cl
ENDBRANCH  14  16
ENDBRANCH   7  14
ENDBRANCH   5   7
ENDBRANCH   4   5
ENDBRANCH   3   4
ENDBRANCH   2   3
ENDBRANCH   1   2
BRANCH   1  23
ATOM     23  C   UNL     1       1.426   2.685  -0.939  1.00  0.00     0.202 C 
BRANCH  23  24
ATOM     24  C   UNL     1       2.672   1.939  -1.424  1.00  0.00     0.261 C 
BRANCH  24  25
ATOM     25  O   UNL     1       3.613   1.728  -0.354  1.00  0.00    -0.460 OA
BRANCH  25  26
ATOM     26  C   UNL     1       4.776   2.403  -0.487  1.00  0.00     0.338 C 
ATOM     27  O   UNL     1       5.137   3.076  -1.446  1.00  0.00    -0.246 OA
BRANCH  26  28
ATOM     28  C   UNL     1       5.532   2.386   0.776  1.00  0.00     0.060 A 
ATOM     29  C   UNL     1       5.964   3.620   1.281  1.00  0.00     0.016 A 
ATOM     30  C   UNL     1       5.900   1.194   1.404  1.00  0.00     0.016 A 
ATOM     31  C   UNL     1       6.823   3.665   2.375  1.00  0.00     0.010 A 
ATOM     32  C   UNL     1       6.772   1.240   2.498  1.00  0.00     0.010 A 
ATOM     33  C   UNL     1       7.272   2.473   2.958  1.00  0.00    -0.014 A 
BRANCH  33  34
ATOM     34  C   UNL     1       8.398   2.523   3.921  1.00  0.00     0.031 A 
ATOM     35  C   UNL     1       9.793   2.267   3.418  1.00  0.00     0.074 A 
ATOM     36  C   UNL     1       8.192   2.846   5.209  1.00  0.00     0.049 A 
ATOM     37  N   UNL     1      10.925   2.253   4.075  1.00  0.00    -0.248 NA
ATOM     38  C   UNL     1       9.930   1.994   1.978  1.00  0.00     0.031 C 
ATOM     39  C   UNL     1       6.896   3.165   5.802  1.00  0.00     0.029 A 
ATOM     40  N   UNL     1       9.079   2.960   6.250  1.00  0.00    -0.354 N 
ATOM     41  C   UNL     1      11.904   1.970   3.132  1.00  0.00     0.074 A 
ATOM     42  C   UNL     1      11.234   1.789   1.863  1.00  0.00     0.031 C 
ATOM     43  C   UNL     1       7.069   3.430   7.109  1.00  0.00     0.029 A 
ATOM     44  C   UNL     1       8.483   3.273   7.447  1.00  0.00     0.049 A 
ATOM     45  H   UNL     1      10.049   2.829   6.149  1.00  0.00     0.167 HD
ATOM     46  C   UNL     1      13.244   1.879   3.306  1.00  0.00     0.037 A 
ATOM     47  C   UNL     1       9.020   3.399   8.676  1.00  0.00     0.037 A 
ATOM     48  C   UNL     1      13.912   2.062   4.567  1.00  0.00     0.049 A 
ATOM     49  C   UNL     1      10.505   3.219   8.856  1.00  0.00     0.074 A 
ATOM     50  C   UNL     1      15.266   2.000   4.844  1.00  0.00     0.029 A 
ATOM     51  N   UNL     1      13.270   2.338   5.765  1.00  0.00    -0.354 N 
ATOM     52  N   UNL     1      11.426   2.969   7.957  1.00  0.00    -0.248 NA
ATOM     53  C   UNL     1      11.026   3.343  10.226  1.00  0.00     0.031 C 
ATOM     54  C   UNL     1      15.441   2.196   6.218  1.00  0.00     0.029 A 
ATOM     55  C   UNL     1      14.199   2.427   6.789  1.00  0.00     0.049 A 
ATOM     56  H   UNL     1      12.298   2.455   5.872  1.00  0.00     0.167 HD
ATOM     57  C   UNL     1      12.633   2.934   8.644  1.00  0.00     0.074 A 
ATOM     58  C   UNL     1      12.330   3.199  10.034  1.00  0.00     0.031 C 
ATOM     59  C   UNL     1      13.880   2.703   8.166  1.00  0.00     0.037 A 
BRANCH  46  60
ATOM     60  C   UNL     1      14.078   1.545   2.105  1.00  0.00     0.064 A 
ATOM     61  C   UNL     1      14.308   2.482   1.087  1.00  0.00     0.173 A 
ATOM     62  C   UNL     1      14.685   0.286   1.991  1.00  0.00     0.173 A 
ATOM     63  F   UNL     1      13.737   3.694   1.143  1.00  0.00    -0.203 F 
ATOM     64  C   UNL     1      15.101   2.162  -0.013  1.00  0.00     0.198 A 
ATOM     65  C   UNL     1      15.498  -0.021   0.903  1.00  0.00     0.198 A 
ATOM     66  F   UNL     1      14.498  -0.644   2.940  1.00  0.00    -0.203 F 
ATOM     67  F   UNL     1      15.277   3.058  -0.994  1.00  0.00    -0.200 F 
ATOM     68  C   UNL     1      15.701   0.914  -0.100  1.00  0.00     0.200 A 
ATOM     69  F   UNL     1      16.084  -1.224   0.825  1.00  0.00    -0.200 F 
ATOM     70  F   UNL     1      16.470   0.611  -1.155  1.00  0.00    -0.200 F 
ENDBRANCH  46  60
BRANCH  47  71
ATOM     71  C   UNL     1       8.147   3.698   9.840  1.00  0.00     0.064 A 
ATOM     72  C   UNL     1       8.223   4.929  10.507  1.00  0.00     0.173 A 
ATOM     73  C   UNL     1       7.237   2.748  10.326  1.00  0.00     0.173 A 
ATOM     74  F   UNL     1       9.099   5.859  10.097  1.00  0.00    -0.203 F 
ATOM     75  C   UNL     1       7.436   5.190  11.626  1.00  0.00     0.198 A 
ATOM     76  C   UNL     1       6.430   3.021  11.428  1.00  0.00     0.198 A 
ATOM     77  F   UNL     1       7.129   1.553   9.726  1.00  0.00    -0.203 F 
ATOM     78  F   UNL     1       7.563   6.356  12.275  1.00  0.00    -0.200 F 
ATOM     79  C   UNL     1       6.536   4.238  12.083  1.00  0.00     0.200 A 
ATOM     80  F   UNL     1       5.557   2.101  11.860  1.00  0.00    -0.200 F 
ATOM     81  F   UNL     1       5.781   4.489  13.160  1.00  0.00    -0.200 F 
ENDBRANCH  47  71
BRANCH  59  82
ATOM     82  C   UNL     1      15.017   2.762   9.145  1.00  0.00     0.064 A 
ATOM     83  C   UNL     1      15.227   1.747  10.089  1.00  0.00     0.173 A 
ATOM     84  C   UNL     1      15.931   3.826   9.106  1.00  0.00     0.173 A 
ATOM     85  F   UNL     1      14.373   0.717  10.174  1.00  0.00    -0.203 F 
ATOM     86  C   UNL     1      16.300   1.807  10.975  1.00  0.00     0.198 A 
ATOM     87  C   UNL     1      17.018   3.868   9.975  1.00  0.00     0.198 A 
ATOM     88  F   UNL     1      15.778   4.818   8.216  1.00  0.00    -0.203 F 
ATOM     89  F   UNL     1      16.459   0.848  11.898  1.00  0.00    -0.200 F 
ATOM     90  C   UNL     1      17.198   2.863  10.913  1.00  0.00     0.200 A 
ATOM     91  F   UNL     1      17.891   4.883   9.905  1.00  0.00    -0.200 F 
ATOM     92  F   UNL     1      18.233   2.914  11.762  1.00  0.00    -0.200 F 
ENDBRANCH  59  82
ENDBRANCH  33  34
ENDBRANCH  26  28
ENDBRANCH  25  26
ENDBRANCH  24  25
ENDBRANCH  23  24
ENDBRANCH   1  23
TORSDOF 16
