REMARK SMILES C[C@@H](C(=O)OCCOCCOC(=O)c1ccc(-c2c3nc(c(-c4c(F)c(F)c(F)c(F)c4F)c4ccc([nH]4)c(-c4c(F)c(F)c(F)c(F)c4F)c4nc(c(-c5c(F)c(F)c(F)c(F)c5F)c5ccc2[nH]5)C=C4)C=C3)cc1)N(C)C(=O)NC[C@H]1C[N@H+]2CCC[C@@H]2CO1
REMARK SMILES IDX 7 1 6 2 5 3 3 4 4 5 2 6 1 7 77 8 78 9 79 10 80 11 81 12
REMARK SMILES IDX 82 14 83 15 84 16 91 17 85 18 90 19 86 20 89 21 87 23 88 24
REMARK SMILES IDX 8 25 9 26 10 27 11 28 12 29 13 30 14 31 15 32 76 33 16 34
REMARK SMILES IDX 75 35 17 36 18 37 19 38 69 39 20 40 74 41 68 42 70 43 21 44
REMARK SMILES IDX 73 45 67 46 66 47 22 49 54 50 34 51 53 52 35 53 38 54 52 55
REMARK SMILES IDX 71 56 36 57 37 58 51 60 72 61 39 62 23 63 24 64 32 65 25 66
REMARK SMILES IDX 26 67 30 68 33 69 27 70 28 71 31 72 29 73 55 74 56 75 64 76
REMARK SMILES IDX 57 77 58 78 62 79 65 80 59 81 60 82 63 83 61 84 40 85 41 86
REMARK SMILES IDX 49 87 42 88 43 89 47 90 50 91 44 92 45 93 48 94 46 95
REMARK H PARENT 81 13 85 22 70 48 38 59
REMARK Flexibility Score: inf
ROOT
ATOM      1  C   UNL     1       2.257  -4.469   0.797  1.00  0.00     0.202 C 
ENDROOT
BRANCH   1   2
ATOM      2  C   UNL     1       2.054  -4.062  -0.666  1.00  0.00     0.261 C 
BRANCH   2   3
ATOM      3  O   UNL     1       1.786  -2.649  -0.769  1.00  0.00    -0.462 OA
BRANCH   3   4
ATOM      4  C   UNL     1       0.719  -2.310  -1.542  1.00  0.00     0.328 C 
ATOM      5  O   UNL     1       0.141  -3.094  -2.291  1.00  0.00    -0.250 OA
BRANCH   4   6
ATOM      6  C   UNL     1       0.335  -0.818  -1.433  1.00  0.00     0.193 C 
ATOM      7  C   UNL     1       1.107   0.005  -0.397  1.00  0.00     0.044 C 
BRANCH   6   8
ATOM      8  N   UNL     1      -1.151  -0.698  -1.381  1.00  0.00    -0.314 N 
ATOM      9  C   UNL     1      -1.798  -0.799  -2.673  1.00  0.00     0.149 C 
BRANCH   8  10
ATOM     10  C   UNL     1      -1.803  -0.873  -0.188  1.00  0.00     0.317 C 
ATOM     11  O   UNL     1      -1.198  -0.965   0.883  1.00  0.00    -0.249 OA
ATOM     12  N   UNL     1      -3.139  -0.968  -0.077  1.00  0.00    -0.335 N 
ATOM     13  H   UNL     1      -3.399  -1.216   0.840  1.00  0.00     0.165 HD
BRANCH  12  14
ATOM     14  C   UNL     1      -4.314  -0.809  -0.927  1.00  0.00     0.155 C 
BRANCH  14  15
ATOM     15  C   UNL     1      -5.019  -2.123  -1.356  1.00  0.00     0.192 C 
ATOM     16  C   UNL     1      -5.254  -2.132  -2.898  1.00  0.00     0.296 C 
ATOM     17  O   UNL     1      -4.285  -3.277  -0.888  1.00  0.00    -0.364 OA
ATOM     18  N   UNL     1      -5.779  -3.422  -3.349  1.00  0.00    -0.328 N 
ATOM     19  C   UNL     1      -4.884  -4.507  -1.344  1.00  0.00     0.225 C 
ATOM     20  C   UNL     1      -5.845  -3.603  -4.796  1.00  0.00     0.262 C 
ATOM     21  C   UNL     1      -4.898  -4.500  -2.866  1.00  0.00     0.210 C 
ATOM     22  H   UNL     1      -6.729  -3.448  -2.978  1.00  0.00     0.348 HD
ATOM     23  C   UNL     1      -5.773  -5.125  -4.975  1.00  0.00     0.068 C 
ATOM     24  C   UNL     1      -5.515  -5.687  -3.574  1.00  0.00     0.073 C 
ENDBRANCH  14  15
ENDBRANCH  12  14
ENDBRANCH   8  10
ENDBRANCH   6   8
ENDBRANCH   4   6
ENDBRANCH   3   4
ENDBRANCH   2   3
ENDBRANCH   1   2
BRANCH   1  25
ATOM     25  O   UNL     1       1.084  -4.515   1.613  1.00  0.00    -0.374 OA
BRANCH  25  26
ATOM     26  C   UNL     1       0.459  -3.265   1.907  1.00  0.00     0.202 C 
BRANCH  26  27
ATOM     27  C   UNL     1       1.055  -2.465   3.073  1.00  0.00     0.261 C 
BRANCH  27  28
ATOM     28  O   UNL     1       2.460  -2.210   2.903  1.00  0.00    -0.460 OA
BRANCH  28  29
ATOM     29  C   UNL     1       3.264  -2.959   3.691  1.00  0.00     0.338 C 
ATOM     30  O   UNL     1       2.933  -3.723   4.588  1.00  0.00    -0.246 OA
BRANCH  29  31
ATOM     31  C   UNL     1       4.657  -2.870   3.221  1.00  0.00     0.060 A 
ATOM     32  C   UNL     1       5.329  -4.075   2.979  1.00  0.00     0.016 A 
ATOM     33  C   UNL     1       5.321  -1.648   3.088  1.00  0.00     0.016 A 
ATOM     34  C   UNL     1       6.683  -4.067   2.658  1.00  0.00     0.010 A 
ATOM     35  C   UNL     1       6.684  -1.641   2.774  1.00  0.00     0.010 A 
ATOM     36  C   UNL     1       7.378  -2.853   2.597  1.00  0.00    -0.014 A 
BRANCH  36  37
ATOM     37  C   UNL     1       8.858  -2.874   2.511  1.00  0.00     0.031 A 
ATOM     38  C   UNL     1       9.661  -2.720   3.773  1.00  0.00     0.074 A 
ATOM     39  C   UNL     1       9.476  -3.082   1.336  1.00  0.00     0.049 A 
ATOM     40  N   UNL     1      10.959  -2.713   3.938  1.00  0.00    -0.248 NA
ATOM     41  C   UNL     1       8.895  -2.552   5.018  1.00  0.00     0.031 C 
ATOM     42  C   UNL     1       8.805  -3.285   0.055  1.00  0.00     0.029 A 
ATOM     43  N   UNL     1      10.813  -3.155   1.034  1.00  0.00    -0.354 N 
ATOM     44  C   UNL     1      11.164  -2.541   5.300  1.00  0.00     0.074 A 
ATOM     45  C   UNL     1       9.860  -2.413   5.914  1.00  0.00     0.031 C 
ATOM     46  C   UNL     1       9.735  -3.454  -0.901  1.00  0.00     0.029 A 
ATOM     47  C   UNL     1      11.064  -3.343  -0.302  1.00  0.00     0.049 A 
ATOM     48  H   UNL     1      11.524  -3.081   1.711  1.00  0.00     0.167 HD
ATOM     49  C   UNL     1      12.335  -2.504   5.980  1.00  0.00     0.037 A 
ATOM     50  C   UNL     1      12.236  -3.400  -0.965  1.00  0.00     0.037 A 
ATOM     51  C   UNL     1      13.631  -2.631   5.367  1.00  0.00     0.049 A 
ATOM     52  C   UNL     1      13.526  -3.289  -0.196  1.00  0.00     0.074 A 
ATOM     53  C   UNL     1      14.877  -2.621   5.970  1.00  0.00     0.029 A 
ATOM     54  N   UNL     1      13.847  -2.783   4.005  1.00  0.00    -0.354 N 
ATOM     55  N   UNL     1      13.712  -3.151   1.095  1.00  0.00    -0.248 NA
ATOM     56  C   UNL     1      14.770  -3.346  -0.976  1.00  0.00     0.031 C 
ATOM     57  C   UNL     1      15.848  -2.719   4.968  1.00  0.00     0.029 A 
ATOM     58  C   UNL     1      15.207  -2.842   3.746  1.00  0.00     0.049 A 
ATOM     59  H   UNL     1      13.139  -2.841   3.324  1.00  0.00     0.167 HD
ATOM     60  C   UNL     1      15.088  -3.131   1.284  1.00  0.00     0.074 A 
ATOM     61  C   UNL     1      15.691  -3.284  -0.024  1.00  0.00     0.031 C 
ATOM     62  C   UNL     1      15.789  -2.999   2.437  1.00  0.00     0.037 A 
BRANCH  49  63
ATOM     63  C   UNL     1      12.266  -2.294   7.464  1.00  0.00     0.064 A 
ATOM     64  C   UNL     1      11.803  -3.296   8.330  1.00  0.00     0.173 A 
ATOM     65  C   UNL     1      12.691  -1.082   8.030  1.00  0.00     0.173 A 
ATOM     66  F   UNL     1      11.372  -4.467   7.838  1.00  0.00    -0.203 F 
ATOM     67  C   UNL     1      11.744  -3.083   9.705  1.00  0.00     0.198 A 
ATOM     68  C   UNL     1      12.657  -0.883   9.407  1.00  0.00     0.198 A 
ATOM     69  F   UNL     1      13.146  -0.093   7.246  1.00  0.00    -0.203 F 
ATOM     70  F   UNL     1      11.256  -4.037  10.509  1.00  0.00    -0.200 F 
ATOM     71  C   UNL     1      12.177  -1.880  10.243  1.00  0.00     0.200 A 
ATOM     72  F   UNL     1      13.086   0.276   9.926  1.00  0.00    -0.200 F 
ATOM     73  F   UNL     1      12.125  -1.678  11.567  1.00  0.00    -0.200 F 
ENDBRANCH  49  63
BRANCH  50  74
ATOM     74  C   UNL     1      12.242  -3.563  -2.442  1.00  0.00     0.064 A 
ATOM     75  C   UNL     1      12.699  -4.745  -3.040  1.00  0.00     0.173 A 
ATOM     76  C   UNL     1      11.798  -2.534  -3.286  1.00  0.00     0.173 A 
ATOM     77  F   UNL     1      13.158  -5.748  -2.276  1.00  0.00    -0.203 F 
ATOM     78  C   UNL     1      12.726  -4.886  -4.426  1.00  0.00     0.198 A 
ATOM     79  C   UNL     1      11.800  -2.687  -4.670  1.00  0.00     0.198 A 
ATOM     80  F   UNL     1      11.354  -1.382  -2.763  1.00  0.00    -0.203 F 
ATOM     81  F   UNL     1      13.207  -6.011  -4.974  1.00  0.00    -0.200 F 
ATOM     82  C   UNL     1      12.270  -3.860  -5.240  1.00  0.00     0.200 A 
ATOM     83  F   UNL     1      11.348  -1.696  -5.452  1.00  0.00    -0.200 F 
ATOM     84  F   UNL     1      12.291  -3.998  -6.572  1.00  0.00    -0.200 F 
ENDBRANCH  50  74
BRANCH  62  85
ATOM     85  C   UNL     1      17.287  -3.045   2.343  1.00  0.00     0.064 A 
ATOM     86  C   UNL     1      18.023  -1.981   1.800  1.00  0.00     0.173 A 
ATOM     87  C   UNL     1      17.996  -4.148   2.842  1.00  0.00     0.173 A 
ATOM     88  F   UNL     1      17.391  -0.911   1.296  1.00  0.00    -0.203 F 
ATOM     89  C   UNL     1      19.413  -2.031   1.739  1.00  0.00     0.198 A 
ATOM     90  C   UNL     1      19.387  -4.181   2.806  1.00  0.00     0.198 A 
ATOM     91  F   UNL     1      17.340  -5.188   3.378  1.00  0.00    -0.203 F 
ATOM     92  F   UNL     1      20.094  -1.024   1.175  1.00  0.00    -0.200 F 
ATOM     93  C   UNL     1      20.094  -3.127   2.249  1.00  0.00     0.200 A 
ATOM     94  F   UNL     1      20.044  -5.235   3.311  1.00  0.00    -0.200 F 
ATOM     95  F   UNL     1      21.433  -3.170   2.196  1.00  0.00    -0.200 F 
ENDBRANCH  62  85
ENDBRANCH  36  37
ENDBRANCH  29  31
ENDBRANCH  28  29
ENDBRANCH  27  28
ENDBRANCH  26  27
ENDBRANCH  25  26
ENDBRANCH   1  25
TORSDOF 18
