REMARK SMILES Cc1[nH]c2ccccc2c1[C@H]([NH3+])CC(=O)OCCOCCOC(=O)c1ccc(-c2c3nc(c(-c4c(F)c(F)c(F)c(F)c4F)c4ccc([nH]4)c(-c4c(F)c(F)c(F)c(F)c4F)c4nc(c(-c5c(F)c(F)c(F)c(F)c5F)c5ccc2[nH]5)C=C4)C=C3)cc1
REMARK SMILES IDX 19 1 18 2 17 3 16 4 14 5 15 6 13 7 11 8 10 9 1 10 2 11 3 12
REMARK SMILES IDX 4 13 9 15 5 16 8 17 6 18 7 19 12 20 20 24 21 25 22 26 23 27
REMARK SMILES IDX 24 28 25 29 26 30 87 31 27 32 86 33 28 34 29 35 30 36 80 37
REMARK SMILES IDX 31 38 85 39 79 40 81 41 32 42 84 43 78 44 77 45 33 47 65 48
REMARK SMILES IDX 45 49 64 50 46 51 49 52 63 53 82 54 47 55 48 56 62 58 83 59
REMARK SMILES IDX 50 60 34 61 35 62 43 63 36 64 37 65 41 66 44 67 38 68 39 69
REMARK SMILES IDX 42 70 40 71 66 72 67 73 75 74 68 75 69 76 73 77 76 78 70 79
REMARK SMILES IDX 71 80 74 81 72 82 51 83 52 84 60 85 53 86 54 87 58 88 61 89
REMARK SMILES IDX 55 90 56 91 59 92 57 93
REMARK H PARENT 3 14 12 21 12 22 12 23 81 46 49 57
REMARK Flexibility Score: inf
ROOT
ATOM      1  O   UNL     1      -3.953  -1.788   4.071  1.00  0.00    -0.374 OA
ENDROOT
BRANCH   1   2
ATOM      2  C   UNL     1      -2.894  -0.850   4.276  1.00  0.00     0.202 C 
BRANCH   2   3
ATOM      3  C   UNL     1      -1.485  -1.447   4.363  1.00  0.00     0.261 C 
BRANCH   3   4
ATOM      4  O   UNL     1      -0.946  -1.703   3.050  1.00  0.00    -0.463 OA
BRANCH   4   5
ATOM      5  C   UNL     1      -0.706  -2.997   2.715  1.00  0.00     0.312 C 
ATOM      6  O   UNL     1      -0.867  -3.956   3.459  1.00  0.00    -0.252 OA
BRANCH   5   7
ATOM      7  C   UNL     1      -0.189  -3.129   1.302  1.00  0.00     0.192 C 
BRANCH   7   8
ATOM      8  C   UNL     1      -1.213  -2.701   0.242  1.00  0.00     0.225 C 
BRANCH   8   9
ATOM      9  C   UNL     1      -0.947  -3.348  -1.105  1.00  0.00     0.038 A 
ATOM     10  C   UNL     1       0.084  -1.514  -2.733  1.00  0.00     0.065 C 
ATOM     11  C   UNL     1      -0.404  -2.850  -2.290  1.00  0.00     0.022 A 
ATOM     12  N   UNL     1      -0.321  -3.899  -3.179  1.00  0.00    -0.358 N 
ATOM     13  C   UNL     1      -0.834  -5.049  -2.643  1.00  0.00     0.046 A 
ATOM     14  H   UNL     1       0.059  -3.830  -4.085  1.00  0.00     0.166 HD
ATOM     15  C   UNL     1      -1.267  -4.737  -1.360  1.00  0.00     0.009 A 
ATOM     16  C   UNL     1      -0.941  -6.331  -3.196  1.00  0.00     0.027 A 
ATOM     17  C   UNL     1      -1.871  -5.760  -0.594  1.00  0.00     0.011 A 
ATOM     18  C   UNL     1      -1.531  -7.326  -2.413  1.00  0.00     0.002 A 
ATOM     19  C   UNL     1      -1.999  -7.046  -1.133  1.00  0.00     0.001 A 
ENDBRANCH   8   9
BRANCH   8  20
ATOM     20  N   UNL     1      -1.276  -1.246   0.116  1.00  0.00    -0.351 N 
ATOM     21  H   UNL     1      -0.375  -0.893  -0.205  1.00  0.00     0.345 HD
ATOM     22  H   UNL     1      -1.498  -0.836   1.023  1.00  0.00     0.345 HD
ATOM     23  H   UNL     1      -2.000  -0.994  -0.557  1.00  0.00     0.345 HD
ENDBRANCH   8  20
ENDBRANCH   7   8
ENDBRANCH   5   7
ENDBRANCH   4   5
ENDBRANCH   3   4
ENDBRANCH   2   3
ENDBRANCH   1   2
BRANCH   1  24
ATOM     24  C   UNL     1      -4.109  -2.278   2.741  1.00  0.00     0.202 C 
BRANCH  24  25
ATOM     25  C   UNL     1      -4.953  -1.402   1.808  1.00  0.00     0.261 C 
BRANCH  25  26
ATOM     26  O   UNL     1      -4.346  -0.118   1.578  1.00  0.00    -0.460 OA
BRANCH  26  27
ATOM     27  C   UNL     1      -4.951   0.917   2.200  1.00  0.00     0.338 C 
ATOM     28  O   UNL     1      -6.004   0.898   2.823  1.00  0.00    -0.246 OA
BRANCH  27  29
ATOM     29  C   UNL     1      -4.081   2.108   2.174  1.00  0.00     0.060 A 
ATOM     30  C   UNL     1      -3.853   2.760   3.392  1.00  0.00     0.016 A 
ATOM     31  C   UNL     1      -3.558   2.625   0.986  1.00  0.00     0.016 A 
ATOM     32  C   UNL     1      -3.148   3.961   3.422  1.00  0.00     0.010 A 
ATOM     33  C   UNL     1      -2.856   3.836   1.016  1.00  0.00     0.010 A 
ATOM     34  C   UNL     1      -2.679   4.528   2.229  1.00  0.00    -0.014 A 
BRANCH  34  35
ATOM     35  C   UNL     1      -2.139   5.910   2.247  1.00  0.00     0.031 A 
ATOM     36  C   UNL     1      -3.031   7.049   1.837  1.00  0.00     0.074 A 
ATOM     37  C   UNL     1      -0.887   6.155   2.673  1.00  0.00     0.049 A 
ATOM     38  N   UNL     1      -2.770   8.331   1.777  1.00  0.00    -0.248 NA
ATOM     39  C   UNL     1      -4.404   6.696   1.444  1.00  0.00     0.031 C 
ATOM     40  C   UNL     1       0.060   5.144   3.137  1.00  0.00     0.029 A 
ATOM     41  N   UNL     1      -0.200   7.339   2.785  1.00  0.00    -0.354 N 
ATOM     42  C   UNL     1      -3.942   8.935   1.340  1.00  0.00     0.074 A 
ATOM     43  C   UNL     1      -4.905   7.878   1.117  1.00  0.00     0.031 C 
ATOM     44  C   UNL     1       1.210   5.750   3.479  1.00  0.00     0.029 A 
ATOM     45  C   UNL     1       1.089   7.186   3.232  1.00  0.00     0.049 A 
ATOM     46  H   UNL     1      -0.594   8.214   2.565  1.00  0.00     0.167 HD
ATOM     47  C   UNL     1      -4.195  10.252   1.153  1.00  0.00     0.037 A 
ATOM     48  C   UNL     1       2.064   8.100   3.404  1.00  0.00     0.037 A 
ATOM     49  C   UNL     1      -3.239  11.304   1.378  1.00  0.00     0.049 A 
ATOM     50  C   UNL     1       1.778   9.552   3.116  1.00  0.00     0.074 A 
ATOM     51  C   UNL     1      -3.409  12.670   1.234  1.00  0.00     0.029 A 
ATOM     52  N   UNL     1      -1.930  11.106   1.788  1.00  0.00    -0.354 N 
ATOM     53  N   UNL     1       0.661  10.116   2.727  1.00  0.00    -0.248 NA
ATOM     54  C   UNL     1       2.893  10.494   3.293  1.00  0.00     0.031 C 
ATOM     55  C   UNL     1      -2.188  13.295   1.509  1.00  0.00     0.029 A 
ATOM     56  C   UNL     1      -1.272  12.322   1.875  1.00  0.00     0.049 A 
ATOM     57  H   UNL     1      -1.527  10.230   1.989  1.00  0.00     0.167 HD
ATOM     58  C   UNL     1       0.929  11.477   2.640  1.00  0.00     0.074 A 
ATOM     59  C   UNL     1       2.312  11.656   3.030  1.00  0.00     0.031 C 
ATOM     60  C   UNL     1       0.104  12.487   2.270  1.00  0.00     0.037 A 
BRANCH  47  61
ATOM     61  C   UNL     1      -5.560  10.631   0.658  1.00  0.00     0.064 A 
ATOM     62  C   UNL     1      -6.692  10.547   1.482  1.00  0.00     0.173 A 
ATOM     63  C   UNL     1      -5.731  11.119  -0.646  1.00  0.00     0.173 A 
ATOM     64  F   UNL     1      -6.583  10.075   2.733  1.00  0.00    -0.203 F 
ATOM     65  C   UNL     1      -7.949  10.918   1.011  1.00  0.00     0.198 A 
ATOM     66  C   UNL     1      -6.985  11.514  -1.105  1.00  0.00     0.198 A 
ATOM     67  F   UNL     1      -4.680  11.223  -1.473  1.00  0.00    -0.203 F 
ATOM     68  F   UNL     1      -9.024  10.790   1.802  1.00  0.00    -0.200 F 
ATOM     69  C   UNL     1      -8.094  11.407  -0.279  1.00  0.00     0.200 A 
ATOM     70  F   UNL     1      -7.120  11.998  -2.347  1.00  0.00    -0.200 F 
ATOM     71  F   UNL     1      -9.303  11.770  -0.728  1.00  0.00    -0.200 F 
ENDBRANCH  47  61
BRANCH  48  72
ATOM     72  C   UNL     1       3.411   7.672   3.862  1.00  0.00     0.064 A 
ATOM     73  C   UNL     1       3.897   8.035   5.125  1.00  0.00     0.173 A 
ATOM     74  C   UNL     1       4.251   6.913   3.033  1.00  0.00     0.173 A 
ATOM     75  F   UNL     1       3.143   8.784   5.942  1.00  0.00    -0.203 F 
ATOM     76  C   UNL     1       5.179   7.671   5.535  1.00  0.00     0.198 A 
ATOM     77  C   UNL     1       5.521   6.525   3.455  1.00  0.00     0.198 A 
ATOM     78  F   UNL     1       3.835   6.544   1.812  1.00  0.00    -0.203 F 
ATOM     79  F   UNL     1       5.637   8.072   6.728  1.00  0.00    -0.200 F 
ATOM     80  C   UNL     1       5.987   6.912   4.702  1.00  0.00     0.200 A 
ATOM     81  F   UNL     1       6.294   5.784   2.650  1.00  0.00    -0.200 F 
ATOM     82  F   UNL     1       7.218   6.561   5.097  1.00  0.00    -0.200 F 
ENDBRANCH  48  72
BRANCH  60  83
ATOM     83  C   UNL     1       0.661  13.881   2.299  1.00  0.00     0.064 A 
ATOM     84  C   UNL     1       1.595  14.319   1.348  1.00  0.00     0.173 A 
ATOM     85  C   UNL     1       0.225  14.802   3.263  1.00  0.00     0.173 A 
ATOM     86  F   UNL     1       2.055  13.474   0.414  1.00  0.00    -0.203 F 
ATOM     87  C   UNL     1       2.089  15.621   1.378  1.00  0.00     0.198 A 
ATOM     88  C   UNL     1       0.698  16.111   3.272  1.00  0.00     0.198 A 
ATOM     89  F   UNL     1      -0.673  14.436   4.191  1.00  0.00    -0.203 F 
ATOM     90  F   UNL     1       3.015  16.005   0.487  1.00  0.00    -0.200 F 
ATOM     91  C   UNL     1       1.635  16.517   2.334  1.00  0.00     0.200 A 
ATOM     92  F   UNL     1       0.248  16.979   4.188  1.00  0.00    -0.200 F 
ATOM     93  F   UNL     1       2.106  17.772   2.356  1.00  0.00    -0.200 F 
ENDBRANCH  60  83
ENDBRANCH  34  35
ENDBRANCH  27  29
ENDBRANCH  26  27
ENDBRANCH  25  26
ENDBRANCH  24  25
ENDBRANCH   1  24
TORSDOF 17
