REMARK SMILES O=C(OCCOCCOC(=O)c1ccccc1/C=C1/SC(=S)N(C2CCCC2)C1=O)c1ccc(-c2c3nc(c(-c4c(F)c(F)c(F)c(F)c4F)c4ccc([nH]4)c(-c4c(F)c(F)c(F)c(F)c4F)c4nc(c(-c5c(F)c(F)c(F)c(F)c5F)c5ccc2[nH]5)C=C4)C=C3)cc1
REMARK SMILES IDX 6 1 5 2 4 3 3 4 2 5 1 6 31 7 32 8 93 9 33 10 92 11 34 12
REMARK SMILES IDX 35 13 36 14 86 15 37 16 91 17 85 18 87 19 38 20 90 21 84 22
REMARK SMILES IDX 83 23 39 25 71 26 51 27 70 28 52 29 55 30 69 31 88 32 53 33
REMARK SMILES IDX 54 34 68 36 89 37 56 38 40 39 41 40 49 41 42 42 43 43 47 44
REMARK SMILES IDX 50 45 44 46 45 47 48 48 46 49 72 50 73 51 81 52 74 53 75 54
REMARK SMILES IDX 79 55 82 56 76 57 77 58 80 59 78 60 57 61 58 62 66 63 59 64
REMARK SMILES IDX 60 65 64 66 67 67 61 68 62 69 65 70 63 71 7 72 8 73 9 74
REMARK SMILES IDX 10 75 11 76 12 77 13 78 17 79 14 80 16 81 15 82 18 83 19 84
REMARK SMILES IDX 20 85 29 86 21 87 23 88 30 89 22 90 24 91 25 92 28 93 26 94
REMARK SMILES IDX 27 95
REMARK H PARENT 87 24 55 35
REMARK Flexibility Score: inf
ROOT
ATOM      1  O   UNL     1       4.011  -0.927  -0.783  1.00  0.00    -0.374 OA
ENDROOT
BRANCH   1   2
ATOM      2  C   UNL     1       4.391  -1.417   0.501  1.00  0.00     0.202 C 
BRANCH   2   3
ATOM      3  C   UNL     1       4.240  -0.354   1.591  1.00  0.00     0.261 C 
BRANCH   3   4
ATOM      4  O   UNL     1       2.880   0.096   1.676  1.00  0.00    -0.460 OA
BRANCH   4   5
ATOM      5  C   UNL     1       2.264   1.059   0.954  1.00  0.00     0.338 C 
ATOM      6  O   UNL     1       1.038   1.149   1.038  1.00  0.00    -0.246 OA
BRANCH   5   7
ATOM      7  C   UNL     1       2.964   2.049   0.072  1.00  0.00     0.060 A 
ATOM      8  C   UNL     1       4.195   1.864  -0.564  1.00  0.00     0.016 A 
ATOM      9  C   UNL     1       2.260   3.236  -0.202  1.00  0.00     0.016 A 
ATOM     10  C   UNL     1       4.709   2.793  -1.453  1.00  0.00     0.010 A 
ATOM     11  C   UNL     1       2.783   4.199  -1.066  1.00  0.00     0.010 A 
ATOM     12  C   UNL     1       4.017   3.974  -1.680  1.00  0.00    -0.014 A 
BRANCH  12  13
ATOM     13  C   UNL     1       4.732   5.046  -2.378  1.00  0.00     0.031 A 
ATOM     14  C   UNL     1       5.455   6.039  -1.529  1.00  0.00     0.074 A 
ATOM     15  C   UNL     1       4.822   5.036  -3.715  1.00  0.00     0.049 A 
ATOM     16  N   UNL     1       6.066   7.138  -1.870  1.00  0.00    -0.248 NA
ATOM     17  C   UNL     1       5.505   5.740  -0.086  1.00  0.00     0.031 C 
ATOM     18  C   UNL     1       4.280   3.995  -4.589  1.00  0.00     0.029 A 
ATOM     19  N   UNL     1       5.412   5.924  -4.570  1.00  0.00    -0.354 N 
ATOM     20  C   UNL     1       6.535   7.681  -0.683  1.00  0.00     0.074 A 
ATOM     21  C   UNL     1       6.156   6.790   0.387  1.00  0.00     0.031 C 
ATOM     22  C   UNL     1       4.549   4.316  -5.865  1.00  0.00     0.029 A 
ATOM     23  C   UNL     1       5.218   5.613  -5.891  1.00  0.00     0.049 A 
ATOM     24  H   UNL     1       5.926   6.708  -4.267  1.00  0.00     0.167 HD
ATOM     25  C   UNL     1       7.204   8.844  -0.517  1.00  0.00     0.037 A 
ATOM     26  C   UNL     1       5.505   6.341  -6.986  1.00  0.00     0.037 A 
ATOM     27  C   UNL     1       7.538   9.704  -1.618  1.00  0.00     0.049 A 
ATOM     28  C   UNL     1       6.158   7.683  -6.776  1.00  0.00     0.074 A 
ATOM     29  C   UNL     1       8.139  10.946  -1.603  1.00  0.00     0.029 A 
ATOM     30  N   UNL     1       7.282   9.391  -2.950  1.00  0.00    -0.354 N 
ATOM     31  N   UNL     1       6.525   8.255  -5.652  1.00  0.00    -0.248 NA
ATOM     32  C   UNL     1       6.423   8.488  -7.973  1.00  0.00     0.031 C 
ATOM     33  C   UNL     1       8.200  11.407  -2.923  1.00  0.00     0.029 A 
ATOM     34  C   UNL     1       7.697  10.425  -3.768  1.00  0.00     0.049 A 
ATOM     35  H   UNL     1       6.866   8.556  -3.264  1.00  0.00     0.167 HD
ATOM     36  C   UNL     1       7.086   9.474  -6.002  1.00  0.00     0.074 A 
ATOM     37  C   UNL     1       7.013   9.555  -7.450  1.00  0.00     0.031 C 
ATOM     38  C   UNL     1       7.615  10.439  -5.209  1.00  0.00     0.037 A 
BRANCH  25  39
ATOM     39  C   UNL     1       7.489   9.265   0.894  1.00  0.00     0.064 A 
ATOM     40  C   UNL     1       8.404   8.581   1.711  1.00  0.00     0.173 A 
ATOM     41  C   UNL     1       6.763  10.319   1.469  1.00  0.00     0.173 A 
ATOM     42  F   UNL     1       9.097   7.540   1.223  1.00  0.00    -0.203 F 
ATOM     43  C   UNL     1       8.544   8.905   3.059  1.00  0.00     0.198 A 
ATOM     44  C   UNL     1       6.930  10.662   2.808  1.00  0.00     0.198 A 
ATOM     45  F   UNL     1       5.867  11.000   0.739  1.00  0.00    -0.203 F 
ATOM     46  F   UNL     1       9.359   8.181   3.840  1.00  0.00    -0.200 F 
ATOM     47  C   UNL     1       7.808   9.945   3.606  1.00  0.00     0.200 A 
ATOM     48  F   UNL     1       6.217  11.668   3.334  1.00  0.00    -0.200 F 
ATOM     49  F   UNL     1       7.928  10.242   4.907  1.00  0.00    -0.200 F 
ENDBRANCH  25  39
BRANCH  26  50
ATOM     50  C   UNL     1       5.127   5.839  -8.332  1.00  0.00     0.064 A 
ATOM     51  C   UNL     1       6.096   5.481  -9.277  1.00  0.00     0.173 A 
ATOM     52  C   UNL     1       3.779   5.674  -8.692  1.00  0.00     0.173 A 
ATOM     53  F   UNL     1       7.398   5.636  -8.994  1.00  0.00    -0.203 F 
ATOM     54  C   UNL     1       5.734   4.981 -10.528  1.00  0.00     0.198 A 
ATOM     55  C   UNL     1       3.418   5.147  -9.930  1.00  0.00     0.198 A 
ATOM     56  F   UNL     1       2.808   6.002  -7.826  1.00  0.00    -0.203 F 
ATOM     57  F   UNL     1       6.681   4.673 -11.425  1.00  0.00    -0.200 F 
ATOM     58  C   UNL     1       4.396   4.805 -10.850  1.00  0.00     0.200 A 
ATOM     59  F   UNL     1       2.124   4.966 -10.228  1.00  0.00    -0.200 F 
ATOM     60  F   UNL     1       4.050   4.311 -12.046  1.00  0.00    -0.200 F 
ENDBRANCH  26  50
BRANCH  38  61
ATOM     61  C   UNL     1       8.206  11.633  -5.894  1.00  0.00     0.064 A 
ATOM     62  C   UNL     1       7.401  12.632  -6.458  1.00  0.00     0.173 A 
ATOM     63  C   UNL     1       9.597  11.817  -5.899  1.00  0.00     0.173 A 
ATOM     64  F   UNL     1       6.068  12.491  -6.486  1.00  0.00    -0.203 F 
ATOM     65  C   UNL     1       7.972  13.773  -7.013  1.00  0.00     0.198 A 
ATOM     66  C   UNL     1      10.161  12.971  -6.427  1.00  0.00     0.198 A 
ATOM     67  F   UNL     1      10.403  10.889  -5.361  1.00  0.00    -0.203 F 
ATOM     68  F   UNL     1       7.190  14.704  -7.575  1.00  0.00    -0.200 F 
ATOM     69  C   UNL     1       9.349  13.947  -6.987  1.00  0.00     0.200 A 
ATOM     70  F   UNL     1      11.489  13.146  -6.384  1.00  0.00    -0.200 F 
ATOM     71  F   UNL     1       9.894  15.056  -7.502  1.00  0.00    -0.200 F 
ENDBRANCH  38  61
ENDBRANCH  12  13
ENDBRANCH   5   7
ENDBRANCH   4   5
ENDBRANCH   3   4
ENDBRANCH   2   3
ENDBRANCH   1   2
BRANCH   1  72
ATOM     72  C   UNL     1       2.681  -1.234  -1.203  1.00  0.00     0.202 C 
BRANCH  72  73
ATOM     73  C   UNL     1       2.761  -2.193  -2.374  1.00  0.00     0.261 C 
BRANCH  73  74
ATOM     74  O   UNL     1       3.412  -3.384  -1.921  1.00  0.00    -0.460 OA
BRANCH  74  75
ATOM     75  C   UNL     1       4.761  -3.433  -2.062  1.00  0.00     0.338 C 
ATOM     76  O   UNL     1       5.479  -2.618  -2.617  1.00  0.00    -0.246 OA
BRANCH  75  77
ATOM     77  C   UNL     1       5.243  -4.627  -1.331  1.00  0.00     0.067 A 
ATOM     78  C   UNL     1       6.363  -4.429  -0.509  1.00  0.00     0.016 A 
ATOM     79  C   UNL     1       4.586  -5.878  -1.384  1.00  0.00    -0.010 A 
ATOM     80  C   UNL     1       6.794  -5.447   0.334  1.00  0.00     0.001 A 
ATOM     81  C   UNL     1       5.028  -6.882  -0.511  1.00  0.00     0.009 A 
ATOM     82  C   UNL     1       6.117  -6.665   0.344  1.00  0.00     0.001 A 
BRANCH  79  83
ATOM     83  C   UNL     1       3.396  -6.160  -2.224  1.00  0.00     0.030 C 
ATOM     84  C   UNL     1       3.236  -5.807  -3.511  1.00  0.00     0.081 C 
ATOM     85  S   UNL     1       1.711  -5.707  -4.296  1.00  0.00    -0.054 SA
ATOM     86  C   UNL     1       4.256  -5.176  -4.387  1.00  0.00     0.266 C 
ATOM     87  C   UNL     1       2.287  -4.435  -5.394  1.00  0.00     0.148 C 
ATOM     88  N   UNL     1       3.652  -4.272  -5.251  1.00  0.00    -0.290 N 
ATOM     89  O   UNL     1       5.446  -5.450  -4.329  1.00  0.00    -0.268 OA
ATOM     90  S   UNL     1       1.214  -3.637  -6.391  1.00  0.00    -0.052 S 
BRANCH  88  91
ATOM     91  C   UNL     1       4.550  -3.367  -5.987  1.00  0.00     0.092 C 
ATOM     92  C   UNL     1       4.752  -3.749  -7.448  1.00  0.00     0.025 C 
ATOM     93  C   UNL     1       4.221  -1.867  -6.014  1.00  0.00     0.025 C 
ATOM     94  C   UNL     1       5.465  -2.535  -8.021  1.00  0.00     0.002 C 
ATOM     95  C   UNL     1       4.848  -1.336  -7.308  1.00  0.00     0.002 C 
ENDBRANCH  88  91
ENDBRANCH  79  83
ENDBRANCH  75  77
ENDBRANCH  74  75
ENDBRANCH  73  74
ENDBRANCH  72  73
ENDBRANCH   1  72
TORSDOF 16
