REMARK SMILES CN(c1ccc(C(=O)OCCOCCOC(=O)c2ccc(-c3c4nc(c(-c5c(F)c(F)c(F)c(F)c5F)c5ccc([nH]5)c(-c5c(F)c(F)c(F)c(F)c5F)c5nc(c(-c6c(F)c(F)c(F)c(F)c6F)c6ccc3[nH]6)C=C5)C=C4)cc2)c(F)c1F)[C@H]1C[C@H]2CC[C@@H](C1)[NH2+]2
REMARK SMILES IDX 12 1 11 2 10 3 9 4 7 5 8 6 6 7 3 8 4 9 83 10 5 11 81 12
REMARK SMILES IDX 84 13 82 14 2 15 1 16 85 17 86 18 91 19 87 20 90 21 88 22
REMARK SMILES IDX 92 23 89 24 13 27 14 28 15 29 16 30 17 31 18 32 19 33 80 34
REMARK SMILES IDX 20 35 79 36 21 37 22 38 23 39 73 40 24 41 78 42 72 43 74 44
REMARK SMILES IDX 25 45 77 46 71 47 70 48 26 50 58 51 38 52 57 53 39 54 42 55
REMARK SMILES IDX 56 56 75 57 40 58 41 59 55 61 76 62 43 63 27 64 28 65 36 66
REMARK SMILES IDX 29 67 30 68 34 69 37 70 31 71 32 72 35 73 33 74 59 75 60 76
REMARK SMILES IDX 68 77 61 78 62 79 66 80 69 81 63 82 64 83 67 84 65 85 44 86
REMARK SMILES IDX 45 87 53 88 46 89 47 90 51 91 54 92 48 93 49 94 52 95 50 96
REMARK H PARENT 92 25 92 26 74 49 42 60
REMARK Flexibility Score: inf
ROOT
ATOM      1  O   UNL     1      -3.788   1.633  -7.086  1.00  0.00    -0.374 OA
ENDROOT
BRANCH   1   2
ATOM      2  C   UNL     1      -3.816   3.046  -7.293  1.00  0.00     0.202 C 
BRANCH   2   3
ATOM      3  C   UNL     1      -4.181   3.883  -6.066  1.00  0.00     0.261 C 
BRANCH   3   4
ATOM      4  O   UNL     1      -3.171   3.754  -5.051  1.00  0.00    -0.460 OA
BRANCH   4   5
ATOM      5  C   UNL     1      -3.594   3.227  -3.880  1.00  0.00     0.341 C 
ATOM      6  O   UNL     1      -4.745   2.986  -3.554  1.00  0.00    -0.246 OA
BRANCH   5   7
ATOM      7  C   UNL     1      -2.446   2.765  -3.086  1.00  0.00     0.099 A 
ATOM      8  C   UNL     1      -0.353   1.791  -1.455  1.00  0.00     0.076 A 
ATOM      9  C   UNL     1      -1.495   1.013  -1.712  1.00  0.00     0.030 A 
ATOM     10  C   UNL     1      -0.279   3.054  -2.078  1.00  0.00     0.182 A 
ATOM     11  C   UNL     1      -2.538   1.497  -2.502  1.00  0.00     0.021 A 
ATOM     12  C   UNL     1      -1.307   3.533  -2.892  1.00  0.00     0.175 A 
ATOM     13  F   UNL     1       0.807   3.827  -1.904  1.00  0.00    -0.201 F 
ATOM     14  F   UNL     1      -1.190   4.747  -3.451  1.00  0.00    -0.203 F 
BRANCH   8  15
ATOM     15  N   UNL     1       0.618   1.319  -0.560  1.00  0.00    -0.369 N 
ATOM     16  C   UNL     1       1.118  -0.024  -0.808  1.00  0.00     0.144 C 
BRANCH  15  17
ATOM     17  C   UNL     1       0.988   2.175   0.601  1.00  0.00     0.093 C 
ATOM     18  C   UNL     1      -0.255   2.607   1.424  1.00  0.00     0.090 C 
ATOM     19  C   UNL     1       2.102   1.638   1.529  1.00  0.00     0.090 C 
ATOM     20  C   UNL     1      -0.515   1.752   2.670  1.00  0.00     0.184 C 
ATOM     21  C   UNL     1       1.615   0.921   2.800  1.00  0.00     0.184 C 
ATOM     22  C   UNL     1      -0.664   0.262   2.369  1.00  0.00     0.071 C 
ATOM     23  N   UNL     1       0.678   1.786   3.524  1.00  0.00    -0.341 N 
ATOM     24  C   UNL     1       0.743  -0.304   2.559  1.00  0.00     0.071 C 
ATOM     25  H   UNL     1       0.476   1.414   4.452  1.00  0.00     0.346 HD
ATOM     26  H   UNL     1       1.036   2.727   3.683  1.00  0.00     0.346 HD
ENDBRANCH  15  17
ENDBRANCH   8  15
ENDBRANCH   5   7
ENDBRANCH   4   5
ENDBRANCH   3   4
ENDBRANCH   2   3
ENDBRANCH   1   2
BRANCH   1  27
ATOM     27  C   UNL     1      -2.601   1.085  -6.509  1.00  0.00     0.202 C 
BRANCH  27  28
ATOM     28  C   UNL     1      -1.423   0.883  -7.469  1.00  0.00     0.261 C 
BRANCH  28  29
ATOM     29  O   UNL     1      -0.829   2.137  -7.847  1.00  0.00    -0.460 OA
BRANCH  29  30
ATOM     30  C   UNL     1      -1.039   2.506  -9.134  1.00  0.00     0.338 C 
ATOM     31  O   UNL     1      -1.600   1.868 -10.006  1.00  0.00    -0.246 OA
BRANCH  30  32
ATOM     32  C   UNL     1      -0.634   3.913  -9.317  1.00  0.00     0.060 A 
ATOM     33  C   UNL     1      -1.549   4.778  -9.932  1.00  0.00     0.016 A 
ATOM     34  C   UNL     1       0.640   4.359  -8.962  1.00  0.00     0.016 A 
ATOM     35  C   UNL     1      -1.174   6.083 -10.244  1.00  0.00     0.010 A 
ATOM     36  C   UNL     1       1.018   5.665  -9.285  1.00  0.00     0.010 A 
ATOM     37  C   UNL     1       0.126   6.518  -9.960  1.00  0.00    -0.014 A 
BRANCH  37  38
ATOM     38  C   UNL     1       0.616   7.803 -10.510  1.00  0.00     0.031 A 
ATOM     39  C   UNL     1       1.453   7.783 -11.756  1.00  0.00     0.074 A 
ATOM     40  C   UNL     1       0.328   8.967  -9.905  1.00  0.00     0.049 A 
ATOM     41  N   UNL     1       2.081   8.763 -12.352  1.00  0.00    -0.248 NA
ATOM     42  C   UNL     1       1.611   6.476 -12.413  1.00  0.00     0.031 C 
ATOM     43  C   UNL     1      -0.508   9.114  -8.718  1.00  0.00     0.029 A 
ATOM     44  N   UNL     1       0.728  10.245 -10.203  1.00  0.00    -0.354 N 
ATOM     45  C   UNL     1       2.723   8.189 -13.441  1.00  0.00     0.074 A 
ATOM     46  C   UNL     1       2.427   6.773 -13.412  1.00  0.00     0.031 C 
ATOM     47  C   UNL     1      -0.546  10.413  -8.374  1.00  0.00     0.029 A 
ATOM     48  C   UNL     1       0.294  11.177  -9.295  1.00  0.00     0.049 A 
ATOM     49  H   UNL     1       1.273  10.471 -10.991  1.00  0.00     0.167 HD
ATOM     50  C   UNL     1       3.488   8.793 -14.381  1.00  0.00     0.037 A 
ATOM     51  C   UNL     1       0.572  12.492  -9.201  1.00  0.00     0.037 A 
ATOM     52  C   UNL     1       3.769  10.204 -14.409  1.00  0.00     0.049 A 
ATOM     53  C   UNL     1       1.474  13.134 -10.220  1.00  0.00     0.074 A 
ATOM     54  C   UNL     1       4.497  10.920 -15.343  1.00  0.00     0.029 A 
ATOM     55  N   UNL     1       3.341  11.113 -13.451  1.00  0.00    -0.354 N 
ATOM     56  N   UNL     1       2.070  12.593 -11.255  1.00  0.00    -0.248 NA
ATOM     57  C   UNL     1       1.747  14.569 -10.055  1.00  0.00     0.031 C 
ATOM     58  C   UNL     1       4.556  12.252 -14.921  1.00  0.00     0.029 A 
ATOM     59  C   UNL     1       3.820  12.378 -13.753  1.00  0.00     0.049 A 
ATOM     60  H   UNL     1       2.781  10.892 -12.673  1.00  0.00     0.167 HD
ATOM     61  C   UNL     1       2.781  13.616 -11.868  1.00  0.00     0.074 A 
ATOM     62  C   UNL     1       2.526  14.817 -11.100  1.00  0.00     0.031 C 
ATOM     63  C   UNL     1       3.575  13.562 -12.966  1.00  0.00     0.037 A 
BRANCH  50  64
ATOM     64  C   UNL     1       4.102   7.923 -15.438  1.00  0.00     0.064 A 
ATOM     65  C   UNL     1       5.487   7.700 -15.454  1.00  0.00     0.173 A 
ATOM     66  C   UNL     1       3.330   7.329 -16.448  1.00  0.00     0.173 A 
ATOM     67  F   UNL     1       6.271   8.246 -14.511  1.00  0.00    -0.203 F 
ATOM     68  C   UNL     1       6.077   6.918 -16.442  1.00  0.00     0.198 A 
ATOM     69  C   UNL     1       3.920   6.523 -17.419  1.00  0.00     0.198 A 
ATOM     70  F   UNL     1       2.000   7.498 -16.469  1.00  0.00    -0.203 F 
ATOM     71  F   UNL     1       7.405   6.736 -16.447  1.00  0.00    -0.200 F 
ATOM     72  C   UNL     1       5.293   6.324 -17.419  1.00  0.00     0.200 A 
ATOM     73  F   UNL     1       3.158   5.926 -18.346  1.00  0.00    -0.200 F 
ATOM     74  F   UNL     1       5.859   5.552 -18.357  1.00  0.00    -0.200 F 
ENDBRANCH  50  64
BRANCH  51  75
ATOM     75  C   UNL     1      -0.014  13.275  -8.084  1.00  0.00     0.064 A 
ATOM     76  C   UNL     1       0.415  13.086  -6.762  1.00  0.00     0.173 A 
ATOM     77  C   UNL     1      -1.053  14.185  -8.312  1.00  0.00     0.173 A 
ATOM     78  F   UNL     1       1.409  12.226  -6.495  1.00  0.00    -0.203 F 
ATOM     79  C   UNL     1      -0.198  13.755  -5.705  1.00  0.00     0.198 A 
ATOM     80  C   UNL     1      -1.650  14.872  -7.256  1.00  0.00     0.198 A 
ATOM     81  F   UNL     1      -1.478  14.417  -9.562  1.00  0.00    -0.203 F 
ATOM     82  F   UNL     1       0.203  13.527  -4.447  1.00  0.00    -0.200 F 
ATOM     83  C   UNL     1      -1.230  14.647  -5.953  1.00  0.00     0.200 A 
ATOM     84  F   UNL     1      -2.633  15.749  -7.501  1.00  0.00    -0.200 F 
ATOM     85  F   UNL     1      -1.821  15.290  -4.936  1.00  0.00    -0.200 F 
ENDBRANCH  51  75
BRANCH  63  86
ATOM     86  C   UNL     1       4.238  14.836 -13.407  1.00  0.00     0.064 A 
ATOM     87  C   UNL     1       3.845  15.473 -14.594  1.00  0.00     0.173 A 
ATOM     88  C   UNL     1       5.310  15.386 -12.690  1.00  0.00     0.173 A 
ATOM     89  F   UNL     1       2.830  14.983 -15.321  1.00  0.00    -0.203 F 
ATOM     90  C   UNL     1       4.511  16.606 -15.053  1.00  0.00     0.198 A 
ATOM     91  C   UNL     1       5.955  16.536 -13.138  1.00  0.00     0.198 A 
ATOM     92  F   UNL     1       5.716  14.822 -11.543  1.00  0.00    -0.203 F 
ATOM     93  F   UNL     1       4.140  17.178 -16.207  1.00  0.00    -0.200 F 
ATOM     94  C   UNL     1       5.562  17.139 -14.323  1.00  0.00     0.200 A 
ATOM     95  F   UNL     1       6.955  17.064 -12.418  1.00  0.00    -0.200 F 
ATOM     96  F   UNL     1       6.194  18.237 -14.761  1.00  0.00    -0.200 F 
ENDBRANCH  63  86
ENDBRANCH  37  38
ENDBRANCH  30  32
ENDBRANCH  29  30
ENDBRANCH  28  29
ENDBRANCH  27  28
ENDBRANCH   1  27
TORSDOF 16
