REMARK SMILES O=C(OCCOCCOC(=O)c1ccc(-c2c3nc(c(-c4c(F)c(F)c(F)c(F)c4F)c4ccc([nH]4)c(-c4c(F)c(F)c(F)c(F)c4F)c4nc(c(-c5c(F)c(F)c(F)c(F)c5F)c5ccc2[nH]5)C=C4)C=C3)cc1)c1ccc(CNC(=O)c2ccccc2I)cc1
REMARK SMILES IDX 5 1 4 2 3 3 2 4 1 5 75 6 76 7 91 8 77 9 90 10 78 11 79 12
REMARK SMILES IDX 80 13 81 14 82 16 83 17 84 18 88 19 85 20 87 21 89 22 86 23
REMARK SMILES IDX 6 24 7 25 8 26 9 27 10 28 11 29 12 30 13 31 74 32 14 33
REMARK SMILES IDX 73 34 15 35 16 36 17 37 67 38 18 39 72 40 66 41 68 42 19 43
REMARK SMILES IDX 71 44 65 45 64 46 20 48 52 49 32 50 51 51 33 52 36 53 50 54
REMARK SMILES IDX 69 55 34 56 35 57 49 59 70 60 37 61 21 62 22 63 30 64 23 65
REMARK SMILES IDX 24 66 28 67 31 68 25 69 26 70 29 71 27 72 53 73 54 74 62 75
REMARK SMILES IDX 55 76 56 77 60 78 63 79 57 80 58 81 61 82 59 83 38 84 39 85
REMARK SMILES IDX 47 86 40 87 41 88 45 89 48 90 42 91 43 92 46 93 44 94
REMARK H PARENT 80 15 68 47 36 58
REMARK Flexibility Score: inf
ROOT
ATOM      1  C   UNL     1       4.248   0.370  -1.514  1.00  0.00     0.202 C 
ENDROOT
BRANCH   1   2
ATOM      2  C   UNL     1       3.970  -0.926  -0.756  1.00  0.00     0.261 C 
BRANCH   2   3
ATOM      3  O   UNL     1       2.580  -0.983  -0.387  1.00  0.00    -0.460 OA
BRANCH   3   4
ATOM      4  C   UNL     1       2.088  -0.934   0.874  1.00  0.00     0.338 C 
ATOM      5  O   UNL     1       0.881  -1.026   1.074  1.00  0.00    -0.246 OA
BRANCH   4   6
ATOM      6  C   UNL     1       2.993  -0.810   2.041  1.00  0.00     0.060 A 
ATOM      7  C   UNL     1       3.915   0.231   2.177  1.00  0.00     0.016 A 
ATOM      8  C   UNL     1       2.819  -1.709   3.098  1.00  0.00     0.016 A 
ATOM      9  C   UNL     1       4.698   0.343   3.322  1.00  0.00     0.006 A 
ATOM     10  C   UNL     1       3.586  -1.583   4.260  1.00  0.00     0.006 A 
ATOM     11  C   UNL     1       4.535  -0.556   4.379  1.00  0.00    -0.029 A 
BRANCH  11  12
ATOM     12  C   UNL     1       5.310  -0.347   5.651  1.00  0.00     0.152 C 
BRANCH  12  13
ATOM     13  N   UNL     1       6.736  -0.500   5.449  1.00  0.00    -0.348 N 
ATOM     14  C   UNL     1       7.761   0.394   5.616  1.00  0.00     0.252 C 
ATOM     15  H   UNL     1       7.015  -1.393   5.141  1.00  0.00     0.164 HD
ATOM     16  O   UNL     1       8.909   0.057   5.334  1.00  0.00    -0.269 OA
BRANCH  14  17
ATOM     17  C   UNL     1       7.512   1.793   6.028  1.00  0.00     0.053 A 
ATOM     18  C   UNL     1       7.957   2.775   5.124  1.00  0.00     0.015 A 
ATOM     19  C   UNL     1       6.968   2.192   7.256  1.00  0.00     0.026 A 
ATOM     20  C   UNL     1       7.803   4.132   5.409  1.00  0.00     0.001 A 
ATOM     21  C   UNL     1       6.773   3.558   7.516  1.00  0.00     0.015 A 
ATOM     22  I   UNL     1       6.551   0.877   8.840  1.00  0.00    -0.043 I 
ATOM     23  C   UNL     1       7.188   4.522   6.594  1.00  0.00     0.001 A 
ENDBRANCH  14  17
ENDBRANCH  12  13
ENDBRANCH  11  12
ENDBRANCH   4   6
ENDBRANCH   3   4
ENDBRANCH   2   3
ENDBRANCH   1   2
BRANCH   1  24
ATOM     24  O   UNL     1       3.973   1.543  -0.749  1.00  0.00    -0.374 OA
BRANCH  24  25
ATOM     25  C   UNL     1       2.611   1.997  -0.787  1.00  0.00     0.202 C 
BRANCH  25  26
ATOM     26  C   UNL     1       2.598   3.525  -0.892  1.00  0.00     0.261 C 
BRANCH  26  27
ATOM     27  O   UNL     1       3.127   3.877  -2.178  1.00  0.00    -0.460 OA
BRANCH  27  28
ATOM     28  C   UNL     1       4.481   3.912  -2.228  1.00  0.00     0.338 C 
ATOM     29  O   UNL     1       5.247   4.195  -1.321  1.00  0.00    -0.246 OA
BRANCH  28  30
ATOM     30  C   UNL     1       4.906   3.338  -3.525  1.00  0.00     0.060 A 
ATOM     31  C   UNL     1       6.135   2.667  -3.583  1.00  0.00     0.016 A 
ATOM     32  C   UNL     1       4.088   3.413  -4.658  1.00  0.00     0.016 A 
ATOM     33  C   UNL     1       6.574   2.117  -4.787  1.00  0.00     0.010 A 
ATOM     34  C   UNL     1       4.524   2.863  -5.859  1.00  0.00     0.010 A 
ATOM     35  C   UNL     1       5.786   2.252  -5.936  1.00  0.00    -0.014 A 
BRANCH  35  36
ATOM     36  C   UNL     1       6.353   1.977  -7.271  1.00  0.00     0.031 A 
ATOM     37  C   UNL     1       6.901   3.142  -8.045  1.00  0.00     0.074 A 
ATOM     38  C   UNL     1       6.339   0.741  -7.794  1.00  0.00     0.049 A 
ATOM     39  N   UNL     1       7.343   3.193  -9.274  1.00  0.00    -0.248 NA
ATOM     40  C   UNL     1       6.937   4.433  -7.337  1.00  0.00     0.031 C 
ATOM     41  C   UNL     1       5.848  -0.459  -7.120  1.00  0.00     0.029 A 
ATOM     42  N   UNL     1       6.732   0.298  -9.031  1.00  0.00    -0.354 N 
ATOM     43  C   UNL     1       7.700   4.518  -9.486  1.00  0.00     0.074 A 
ATOM     44  C   UNL     1       7.391   5.246  -8.276  1.00  0.00     0.031 C 
ATOM     45  C   UNL     1       5.955  -1.503  -7.959  1.00  0.00     0.029 A 
ATOM     46  C   UNL     1       6.492  -1.037  -9.237  1.00  0.00     0.049 A 
ATOM     47  H   UNL     1       7.148   0.882  -9.706  1.00  0.00     0.167 HD
ATOM     48  C   UNL     1       8.248   5.074 -10.591  1.00  0.00     0.037 A 
ATOM     49  C   UNL     1       6.668  -1.782 -10.345  1.00  0.00     0.037 A 
ATOM     50  C   UNL     1       8.542   4.340 -11.790  1.00  0.00     0.049 A 
ATOM     51  C   UNL     1       7.227  -1.128 -11.583  1.00  0.00     0.074 A 
ATOM     52  C   UNL     1       9.107   4.796 -12.967  1.00  0.00     0.029 A 
ATOM     53  N   UNL     1       8.285   2.987 -11.964  1.00  0.00    -0.354 N 
ATOM     54  N   UNL     1       7.590   0.118 -11.771  1.00  0.00    -0.248 NA
ATOM     55  C   UNL     1       7.400  -1.986 -12.764  1.00  0.00     0.031 C 
ATOM     56  C   UNL     1       9.154   3.728 -13.868  1.00  0.00     0.029 A 
ATOM     57  C   UNL     1       8.664   2.595 -13.236  1.00  0.00     0.049 A 
ATOM     58  H   UNL     1       7.892   2.395 -11.283  1.00  0.00     0.167 HD
ATOM     59  C   UNL     1       8.062   0.188 -13.076  1.00  0.00     0.074 A 
ATOM     60  C   UNL     1       7.947  -1.145 -13.631  1.00  0.00     0.031 C 
ATOM     61  C   UNL     1       8.548   1.256 -13.755  1.00  0.00     0.037 A 
BRANCH  48  62
ATOM     62  C   UNL     1       8.540   6.544 -10.549  1.00  0.00     0.064 A 
ATOM     63  C   UNL     1       9.573   7.065  -9.755  1.00  0.00     0.173 A 
ATOM     64  C   UNL     1       7.781   7.442 -11.313  1.00  0.00     0.173 A 
ATOM     65  F   UNL     1      10.313   6.250  -8.989  1.00  0.00    -0.203 F 
ATOM     66  C   UNL     1       9.819   8.435  -9.708  1.00  0.00     0.198 A 
ATOM     67  C   UNL     1       8.048   8.809 -11.285  1.00  0.00     0.198 A 
ATOM     68  F   UNL     1       6.779   6.996 -12.085  1.00  0.00    -0.203 F 
ATOM     69  F   UNL     1      10.777   8.915  -8.904  1.00  0.00    -0.200 F 
ATOM     70  C   UNL     1       9.061   9.304 -10.478  1.00  0.00     0.200 A 
ATOM     71  F   UNL     1       7.320   9.647 -12.035  1.00  0.00    -0.200 F 
ATOM     72  F   UNL     1       9.300  10.622 -10.434  1.00  0.00    -0.200 F 
ENDBRANCH  48  62
BRANCH  49  73
ATOM     73  C   UNL     1       6.319  -3.226 -10.335  1.00  0.00     0.064 A 
ATOM     74  C   UNL     1       7.317  -4.208 -10.401  1.00  0.00     0.173 A 
ATOM     75  C   UNL     1       4.985  -3.655 -10.267  1.00  0.00     0.173 A 
ATOM     76  F   UNL     1       8.605  -3.847 -10.491  1.00  0.00    -0.203 F 
ATOM     77  C   UNL     1       6.994  -5.564 -10.417  1.00  0.00     0.198 A 
ATOM     78  C   UNL     1       4.665  -5.012 -10.257  1.00  0.00     0.198 A 
ATOM     79  F   UNL     1       3.993  -2.756 -10.203  1.00  0.00    -0.203 F 
ATOM     80  F   UNL     1       7.966  -6.480 -10.523  1.00  0.00    -0.200 F 
ATOM     81  C   UNL     1       5.669  -5.965 -10.339  1.00  0.00     0.200 A 
ATOM     82  F   UNL     1       3.384  -5.395 -10.171  1.00  0.00    -0.200 F 
ATOM     83  F   UNL     1       5.359  -7.268 -10.350  1.00  0.00    -0.200 F 
ENDBRANCH  49  73
BRANCH  61  84
ATOM     84  C   UNL     1       9.029   1.019 -15.156  1.00  0.00     0.064 A 
ATOM     85  C   UNL     1       8.135   0.803 -16.214  1.00  0.00     0.173 A 
ATOM     86  C   UNL     1      10.401   1.065 -15.449  1.00  0.00     0.173 A 
ATOM     87  F   UNL     1       6.816   0.738 -15.981  1.00  0.00    -0.203 F 
ATOM     88  C   UNL     1       8.600   0.620 -17.514  1.00  0.00     0.198 A 
ATOM     89  C   UNL     1      10.859   0.910 -16.754  1.00  0.00     0.198 A 
ATOM     90  F   UNL     1      11.294   1.278 -14.472  1.00  0.00    -0.203 F 
ATOM     91  F   UNL     1       7.731   0.373 -18.505  1.00  0.00    -0.200 F 
ATOM     92  C   UNL     1       9.959   0.681 -17.784  1.00  0.00     0.200 A 
ATOM     93  F   UNL     1      12.171   0.984 -17.015  1.00  0.00    -0.200 F 
ATOM     94  F   UNL     1      10.403   0.514 -19.037  1.00  0.00    -0.200 F 
ENDBRANCH  61  84
ENDBRANCH  35  36
ENDBRANCH  28  30
ENDBRANCH  27  28
ENDBRANCH  26  27
ENDBRANCH  25  26
ENDBRANCH  24  25
ENDBRANCH   1  24
TORSDOF 17
