REMARK SMILES O=C(OCCOCCOC(=O)c1ccc(-c2c3nc(c(-c4c(F)c(F)c(F)c(F)c4F)c4ccc([nH]4)c(-c4c(F)c(F)c(F)c(F)c4F)c4nc(c(-c5c(F)c(F)c(F)c(F)c5F)c5ccc2[nH]5)C=C4)C=C3)cc1)C1=Cc2ccc(Cl)c(Cl)c2O[C@@H]1C(F)(F)F
REMARK SMILES IDX 7 1 6 2 5 3 4 4 3 5 2 6 1 7 75 8 76 9 86 10 77 11 85 12
REMARK SMILES IDX 78 13 84 14 79 15 82 16 80 17 83 18 81 19 87 20 88 21 89 22
REMARK SMILES IDX 90 23 8 24 9 25 10 26 11 27 12 28 13 29 74 30 14 31 73 32
REMARK SMILES IDX 15 33 16 34 17 35 67 36 18 37 72 38 66 39 68 40 19 41 71 42
REMARK SMILES IDX 65 43 64 44 20 46 52 47 32 48 51 49 33 50 36 51 50 52 69 53
REMARK SMILES IDX 34 54 35 55 49 57 70 58 37 59 21 60 22 61 30 62 23 63 24 64
REMARK SMILES IDX 28 65 31 66 25 67 26 68 29 69 27 70 53 71 54 72 62 73 55 74
REMARK SMILES IDX 56 75 60 76 63 77 57 78 58 79 61 80 59 81 38 82 39 83 47 84
REMARK SMILES IDX 40 85 41 86 45 87 48 88 42 89 43 90 46 91 44 92
REMARK H PARENT 68 45 36 56
REMARK Flexibility Score: inf
ROOT
ATOM      1  C   UNL     1       2.730   0.879   2.997  1.00  0.00     0.202 C 
ENDROOT
BRANCH   1   2
ATOM      2  O   UNL     1       3.858   0.124   2.539  1.00  0.00    -0.374 OA
BRANCH   2   3
ATOM      3  C   UNL     1       4.321  -0.473   1.149  1.00  0.00     0.202 C 
BRANCH   3   4
ATOM      4  C   UNL     1       3.441  -0.480  -0.848  1.00  0.00     0.261 C 
BRANCH   4   5
ATOM      5  O   UNL     1       2.524  -1.553  -1.446  1.00  0.00    -0.460 OA
BRANCH   5   6
ATOM      6  C   UNL     1       2.724  -2.762  -0.916  1.00  0.00     0.338 C 
ATOM      7  O   UNL     1       2.122  -3.787  -1.098  1.00  0.00    -0.246 OA
BRANCH   6   8
ATOM      8  C   UNL     1       3.595  -2.313   0.148  1.00  0.00     0.087 C 
ATOM      9  C   UNL     1       4.973  -2.055  -0.350  1.00  0.00     0.027 C 
ATOM     10  C   UNL     1       2.399  -0.952   0.831  1.00  0.00     0.316 C 
ATOM     11  C   UNL     1       5.659  -0.388  -0.587  1.00  0.00     0.019 A 
ATOM     12  O   UNL     1       3.085   0.827   0.527  1.00  0.00    -0.474 OA
ATOM     13  C   UNL     1       6.844  -0.264  -1.259  1.00  0.00     0.013 A 
ATOM     14  C   UNL     1       4.712   1.041  -0.282  1.00  0.00     0.148 A 
ATOM     15  C   UNL     1       7.124   1.029  -1.726  1.00  0.00     0.023 A 
ATOM     16  C   UNL     1       4.988   2.218  -0.932  1.00  0.00     0.102 A 
ATOM     17  C   UNL     1       6.229   2.179  -1.631  1.00  0.00     0.063 A 
ATOM     18  Cl  UNL     1       3.791   3.411  -1.182  1.00  0.00    -0.079 Cl
ATOM     19  Cl  UNL     1       6.773   3.529  -2.586  1.00  0.00    -0.083 Cl
BRANCH  10  20
ATOM     20  C   UNL     1       1.946  -1.693   2.157  1.00  0.00     0.430 C 
ATOM     21  F   UNL     1       1.058  -1.034   2.921  1.00  0.00    -0.167 F 
ATOM     22  F   UNL     1       1.294  -2.833   1.772  1.00  0.00    -0.167 F 
ATOM     23  F   UNL     1       2.962  -2.132   2.933  1.00  0.00    -0.167 F 
ENDBRANCH  10  20
ENDBRANCH   6   8
ENDBRANCH   5   6
ENDBRANCH   4   5
ENDBRANCH   3   4
ENDBRANCH   2   3
ENDBRANCH   1   2
BRANCH   1  24
ATOM     24  C   UNL     1       2.952   2.285   3.518  1.00  0.00     0.261 C 
BRANCH  24  25
ATOM     25  O   UNL     1       3.469   3.147   2.526  1.00  0.00    -0.460 OA
BRANCH  25  26
ATOM     26  C   UNL     1       4.794   3.377   2.619  1.00  0.00     0.338 C 
ATOM     27  O   UNL     1       5.619   2.792   3.294  1.00  0.00    -0.246 OA
BRANCH  26  28
ATOM     28  C   UNL     1       5.088   4.499   1.719  1.00  0.00     0.060 A 
ATOM     29  C   UNL     1       6.327   4.532   1.077  1.00  0.00     0.016 A 
ATOM     30  C   UNL     1       4.115   5.481   1.475  1.00  0.00     0.016 A 
ATOM     31  C   UNL     1       6.580   5.533   0.146  1.00  0.00     0.010 A 
ATOM     32  C   UNL     1       4.362   6.470   0.540  1.00  0.00     0.010 A 
ATOM     33  C   UNL     1       5.598   6.497  -0.122  1.00  0.00    -0.014 A 
BRANCH  33  34
ATOM     34  C   UNL     1       5.938   7.708  -0.882  1.00  0.00     0.031 A 
ATOM     35  C   UNL     1       6.433   8.870  -0.085  1.00  0.00     0.074 A 
ATOM     36  C   UNL     1       5.745   7.790  -2.207  1.00  0.00     0.049 A 
ATOM     37  N   UNL     1       6.697  10.087  -0.469  1.00  0.00    -0.248 NA
ATOM     38  C   UNL     1       6.630   8.626   1.355  1.00  0.00     0.031 C 
ATOM     39  C   UNL     1       5.267   6.708  -3.059  1.00  0.00     0.029 A 
ATOM     40  N   UNL     1       5.909   8.847  -3.063  1.00  0.00    -0.354 N 
ATOM     41  C   UNL     1       7.086  10.753   0.682  1.00  0.00     0.074 A 
ATOM     42  C   UNL     1       6.982   9.824   1.782  1.00  0.00     0.031 C 
ATOM     43  C   UNL     1       5.184   7.150  -4.325  1.00  0.00     0.029 A 
ATOM     44  C   UNL     1       5.538   8.567  -4.354  1.00  0.00     0.049 A 
ATOM     45  H   UNL     1       6.260   9.722  -2.779  1.00  0.00     0.167 HD
ATOM     46  C   UNL     1       7.495  12.035   0.803  1.00  0.00     0.037 A 
ATOM     47  C   UNL     1       5.457   9.383  -5.422  1.00  0.00     0.037 A 
ATOM     48  C   UNL     1       7.535  12.954  -0.299  1.00  0.00     0.049 A 
ATOM     49  C   UNL     1       5.834  10.832  -5.249  1.00  0.00     0.074 A 
ATOM     50  C   UNL     1       7.925  14.277  -0.302  1.00  0.00     0.029 A 
ATOM     51  N   UNL     1       7.138  12.643  -1.595  1.00  0.00    -0.354 N 
ATOM     52  N   UNL     1       6.241  11.459  -4.170  1.00  0.00    -0.248 NA
ATOM     53  C   UNL     1       5.741  11.690  -6.437  1.00  0.00     0.031 C 
ATOM     54  C   UNL     1       7.687  14.792  -1.579  1.00  0.00     0.029 A 
ATOM     55  C   UNL     1       7.242  13.764  -2.399  1.00  0.00     0.049 A 
ATOM     56  H   UNL     1       6.829  11.758  -1.895  1.00  0.00     0.167 HD
ATOM     57  C   UNL     1       6.492  12.769  -4.555  1.00  0.00     0.074 A 
ATOM     58  C   UNL     1       6.186  12.848  -5.969  1.00  0.00     0.031 C 
ATOM     59  C   UNL     1       6.945  13.809  -3.811  1.00  0.00     0.037 A 
BRANCH  46  60
ATOM     60  C   UNL     1       7.847  12.503   2.183  1.00  0.00     0.064 A 
ATOM     61  C   UNL     1       8.939  11.975   2.890  1.00  0.00     0.173 A 
ATOM     62  C   UNL     1       7.042  13.450   2.831  1.00  0.00     0.173 A 
ATOM     63  F   UNL     1       9.725  11.044   2.326  1.00  0.00    -0.203 F 
ATOM     64  C   UNL     1       9.178  12.336   4.213  1.00  0.00     0.198 A 
ATOM     65  C   UNL     1       7.311  13.843   4.138  1.00  0.00     0.198 A 
ATOM     66  F   UNL     1       5.982  13.982   2.205  1.00  0.00    -0.203 F 
ATOM     67  F   UNL     1      10.169  11.749   4.898  1.00  0.00    -0.200 F 
ATOM     68  C   UNL     1       8.367  13.274   4.834  1.00  0.00     0.200 A 
ATOM     69  F   UNL     1       6.532  14.757   4.733  1.00  0.00    -0.200 F 
ATOM     70  F   UNL     1       8.591  13.615   6.110  1.00  0.00    -0.200 F 
ENDBRANCH  46  60
BRANCH  47  71
ATOM     71  C   UNL     1       4.991   8.852  -6.730  1.00  0.00     0.064 A 
ATOM     72  C   UNL     1       5.861   8.759  -7.825  1.00  0.00     0.173 A 
ATOM     73  C   UNL     1       3.669   8.417  -6.911  1.00  0.00     0.173 A 
ATOM     74  F   UNL     1       7.128   9.182  -7.711  1.00  0.00    -0.203 F 
ATOM     75  C   UNL     1       5.424   8.266  -9.053  1.00  0.00     0.198 A 
ATOM     76  C   UNL     1       3.242   7.895  -8.130  1.00  0.00     0.198 A 
ATOM     77  F   UNL     1       2.794   8.483  -5.897  1.00  0.00    -0.203 F 
ATOM     78  F   UNL     1       6.265   8.228 -10.096  1.00  0.00    -0.200 F 
ATOM     79  C   UNL     1       4.117   7.826  -9.203  1.00  0.00     0.200 A 
ATOM     80  F   UNL     1       1.982   7.458  -8.265  1.00  0.00    -0.200 F 
ATOM     81  F   UNL     1       3.700   7.343 -10.381  1.00  0.00    -0.200 F 
ENDBRANCH  47  71
BRANCH  59  82
ATOM     82  C   UNL     1       7.212  15.109  -4.514  1.00  0.00     0.064 A 
ATOM     83  C   UNL     1       6.179  15.928  -4.990  1.00  0.00     0.173 A 
ATOM     84  C   UNL     1       8.530  15.581  -4.624  1.00  0.00     0.173 A 
ATOM     85  F   UNL     1       4.904  15.519  -4.919  1.00  0.00    -0.203 F 
ATOM     86  C   UNL     1       6.458  17.166  -5.563  1.00  0.00     0.198 A 
ATOM     87  C   UNL     1       8.801  16.835  -5.160  1.00  0.00     0.198 A 
ATOM     88  F   UNL     1       9.554  14.840  -4.174  1.00  0.00    -0.203 F 
ATOM     89  F   UNL     1       5.460  17.918  -6.047  1.00  0.00    -0.200 F 
ATOM     90  C   UNL     1       7.766  17.625  -5.634  1.00  0.00     0.200 A 
ATOM     91  F   UNL     1      10.063  17.285  -5.204  1.00  0.00    -0.200 F 
ATOM     92  F   UNL     1       8.028  18.828  -6.161  1.00  0.00    -0.200 F 
ENDBRANCH  59  82
ENDBRANCH  33  34
ENDBRANCH  26  28
ENDBRANCH  25  26
ENDBRANCH  24  25
ENDBRANCH   1  24
TORSDOF 15
