REMARK SMILES O=Cc1ccc2c(c1)C=C(C(=O)OCCOCCOC(=O)c1ccc(-c3c4nc(c(-c5c(F)c(F)c(F)c(F)c5F)c5ccc([nH]5)c(-c5c(F)c(F)c(F)c(F)c5F)c5nc(c(-c6c(F)c(F)c(F)c(F)c6F)c6ccc3[nH]6)C=C5)C=C4)cc1)[C@H](C(F)(F)F)O2
REMARK SMILES IDX 17 1 16 2 15 3 14 4 13 5 11 6 12 7 10 8 3 9 4 10 8 11 5 12
REMARK SMILES IDX 7 13 6 14 9 15 90 16 85 17 2 18 1 19 86 20 87 21 88 22 89 23
REMARK SMILES IDX 18 24 19 25 20 26 21 27 22 28 23 29 84 30 24 31 83 32 25 33
REMARK SMILES IDX 26 34 27 35 77 36 28 37 82 38 76 39 78 40 29 41 81 42 75 43
REMARK SMILES IDX 74 44 30 46 62 47 42 48 61 49 43 50 46 51 60 52 79 53 44 54
REMARK SMILES IDX 45 55 59 57 80 58 47 59 31 60 32 61 40 62 33 63 34 64 38 65
REMARK SMILES IDX 41 66 35 67 36 68 39 69 37 70 63 71 64 72 72 73 65 74 66 75
REMARK SMILES IDX 70 76 73 77 67 78 68 79 71 80 69 81 48 82 49 83 57 84 50 85
REMARK SMILES IDX 51 86 55 87 58 88 52 89 53 90 56 91 54 92
REMARK H PARENT 78 45 46 56
REMARK Flexibility Score: inf
ROOT
ATOM      1  C   UNL     1       8.031  -1.953   6.388  1.00  0.00     0.202 C 
ENDROOT
BRANCH   1   2
ATOM      2  O   UNL     1       9.457  -1.917   6.368  1.00  0.00    -0.374 OA
BRANCH   2   3
ATOM      3  C   UNL     1      10.093  -0.869   5.641  1.00  0.00     0.202 C 
BRANCH   3   4
ATOM      4  C   UNL     1      10.116  -1.003   4.116  1.00  0.00     0.261 C 
BRANCH   4   5
ATOM      5  O   UNL     1       8.789  -1.099   3.574  1.00  0.00    -0.460 OA
BRANCH   5   6
ATOM      6  C   UNL     1       8.523  -2.258   2.926  1.00  0.00     0.338 C 
ATOM      7  O   UNL     1       9.325  -3.132   2.641  1.00  0.00    -0.246 OA
BRANCH   6   8
ATOM      8  C   UNL     1       7.079  -2.394   2.676  1.00  0.00     0.087 C 
ATOM      9  C   UNL     1       2.927  -0.993   0.690  1.00  0.00     0.015 A 
ATOM     10  C   UNL     1       2.477  -2.318   0.705  1.00  0.00     0.015 A 
ATOM     11  C   UNL     1       4.198  -0.663   1.178  1.00  0.00     0.023 A 
ATOM     12  C   UNL     1       3.297  -3.321   1.217  1.00  0.00     0.048 A 
ATOM     13  C   UNL     1       5.026  -1.671   1.682  1.00  0.00     0.018 A 
ATOM     14  C   UNL     1       4.557  -2.994   1.712  1.00  0.00     0.128 A 
ATOM     15  C   UNL     1       6.413  -1.404   2.059  1.00  0.00     0.027 C 
ATOM     16  O   UNL     1       5.329  -4.037   2.152  1.00  0.00    -0.475 OA
ATOM     17  C   UNL     1       6.370  -3.665   3.094  1.00  0.00     0.316 C 
BRANCH   9  18
ATOM     18  C   UNL     1       2.069   0.066   0.121  1.00  0.00     0.260 C 
ATOM     19  O   UNL     1       0.948  -0.168  -0.311  1.00  0.00    -0.298 OA
ENDBRANCH   9  18
BRANCH  17  20
ATOM     20  C   UNL     1       7.220  -4.911   3.401  1.00  0.00     0.430 C 
ATOM     21  F   UNL     1       8.070  -4.678   4.429  1.00  0.00    -0.167 F 
ATOM     22  F   UNL     1       6.419  -5.932   3.805  1.00  0.00    -0.167 F 
ATOM     23  F   UNL     1       7.921  -5.354   2.339  1.00  0.00    -0.167 F 
ENDBRANCH  17  20
ENDBRANCH   6   8
ENDBRANCH   5   6
ENDBRANCH   4   5
ENDBRANCH   3   4
ENDBRANCH   2   3
ENDBRANCH   1   2
BRANCH   1  24
ATOM     24  C   UNL     1       7.314  -0.907   7.251  1.00  0.00     0.261 C 
BRANCH  24  25
ATOM     25  O   UNL     1       7.495   0.431   6.754  1.00  0.00    -0.460 OA
BRANCH  25  26
ATOM     26  C   UNL     1       8.232   1.237   7.555  1.00  0.00     0.338 C 
ATOM     27  O   UNL     1       8.693   0.972   8.655  1.00  0.00    -0.246 OA
BRANCH  26  28
ATOM     28  C   UNL     1       8.574   2.478   6.841  1.00  0.00     0.060 A 
ATOM     29  C   UNL     1       9.929   2.825   6.751  1.00  0.00     0.016 A 
ATOM     30  C   UNL     1       7.585   3.334   6.354  1.00  0.00     0.016 A 
ATOM     31  C   UNL     1      10.300   4.058   6.218  1.00  0.00     0.010 A 
ATOM     32  C   UNL     1       7.957   4.575   5.830  1.00  0.00     0.010 A 
ATOM     33  C   UNL     1       9.312   4.956   5.796  1.00  0.00    -0.014 A 
BRANCH  33  34
ATOM     34  C   UNL     1       9.675   6.358   5.486  1.00  0.00     0.031 A 
ATOM     35  C   UNL     1       9.466   7.408   6.540  1.00  0.00     0.074 A 
ATOM     36  C   UNL     1      10.189   6.691   4.289  1.00  0.00     0.049 A 
ATOM     37  N   UNL     1       9.628   8.704   6.470  1.00  0.00    -0.248 NA
ATOM     38  C   UNL     1       9.006   6.928   7.853  1.00  0.00     0.031 C 
ATOM     39  C   UNL     1      10.486   5.754   3.209  1.00  0.00     0.029 A 
ATOM     40  N   UNL     1      10.540   7.916   3.783  1.00  0.00    -0.354 N 
ATOM     41  C   UNL     1       9.277   9.195   7.720  1.00  0.00     0.074 A 
ATOM     42  C   UNL     1       8.868   8.062   8.522  1.00  0.00     0.031 C 
ATOM     43  C   UNL     1      10.962   6.442   2.157  1.00  0.00     0.029 A 
ATOM     44  C   UNL     1      10.967   7.868   2.480  1.00  0.00     0.049 A 
ATOM     45  H   UNL     1      10.490   8.750   4.304  1.00  0.00     0.167 HD
ATOM     46  C   UNL     1       9.299  10.476   8.161  1.00  0.00     0.037 A 
ATOM     47  C   UNL     1      11.298   8.867   1.639  1.00  0.00     0.037 A 
ATOM     48  C   UNL     1       9.709  11.598   7.359  1.00  0.00     0.049 A 
ATOM     49  C   UNL     1      11.242  10.291   2.127  1.00  0.00     0.074 A 
ATOM     50  C   UNL     1       9.781  12.934   7.713  1.00  0.00     0.029 A 
ATOM     51  N   UNL     1      10.108  11.514   6.032  1.00  0.00    -0.354 N 
ATOM     52  N   UNL     1      10.921  10.750   3.312  1.00  0.00    -0.248 NA
ATOM     53  C   UNL     1      11.596  11.338   1.157  1.00  0.00     0.031 C 
ATOM     54  C   UNL     1      10.176  13.663   6.586  1.00  0.00     0.029 A 
ATOM     55  C   UNL     1      10.404  12.777   5.546  1.00  0.00     0.049 A 
ATOM     56  H   UNL     1      10.172  10.679   5.514  1.00  0.00     0.167 HD
ATOM     57  C   UNL     1      11.065  12.129   3.242  1.00  0.00     0.074 A 
ATOM     58  C   UNL     1      11.508  12.434   1.897  1.00  0.00     0.031 C 
ATOM     59  C   UNL     1      10.856  13.060   4.207  1.00  0.00     0.037 A 
BRANCH  46  60
ATOM     60  C   UNL     1       8.833  10.730   9.565  1.00  0.00     0.064 A 
ATOM     61  C   UNL     1       9.581  10.321  10.679  1.00  0.00     0.173 A 
ATOM     62  C   UNL     1       7.622  11.400   9.798  1.00  0.00     0.173 A 
ATOM     63  F   UNL     1      10.738   9.662  10.511  1.00  0.00    -0.203 F 
ATOM     64  C   UNL     1       9.118  10.543  11.974  1.00  0.00     0.198 A 
ATOM     65  C   UNL     1       7.177  11.648  11.094  1.00  0.00     0.198 A 
ATOM     66  F   UNL     1       6.869  11.814   8.768  1.00  0.00    -0.203 F 
ATOM     67  F   UNL     1       9.822  10.093  13.022  1.00  0.00    -0.200 F 
ATOM     68  C   UNL     1       7.920  11.211  12.180  1.00  0.00     0.200 A 
ATOM     69  F   UNL     1       6.024  12.302  11.291  1.00  0.00    -0.200 F 
ATOM     70  F   UNL     1       7.476  11.424  13.426  1.00  0.00    -0.200 F 
ENDBRANCH  46  60
BRANCH  47  71
ATOM     71  C   UNL     1      11.707   8.553   0.245  1.00  0.00     0.064 A 
ATOM     72  C   UNL     1      13.029   8.742  -0.178  1.00  0.00     0.173 A 
ATOM     73  C   UNL     1      10.785   8.060  -0.690  1.00  0.00     0.173 A 
ATOM     74  F   UNL     1      13.940   9.235   0.673  1.00  0.00    -0.203 F 
ATOM     75  C   UNL     1      13.412   8.460  -1.488  1.00  0.00     0.198 A 
ATOM     76  C   UNL     1      11.175   7.752  -1.991  1.00  0.00     0.198 A 
ATOM     77  F   UNL     1       9.507   7.862  -0.334  1.00  0.00    -0.203 F 
ATOM     78  F   UNL     1      14.674   8.684  -1.877  1.00  0.00    -0.200 F 
ATOM     79  C   UNL     1      12.487   7.958  -2.391  1.00  0.00     0.200 A 
ATOM     80  F   UNL     1      10.281   7.256  -2.857  1.00  0.00    -0.200 F 
ATOM     81  F   UNL     1      12.858   7.679  -3.648  1.00  0.00    -0.200 F 
ENDBRANCH  47  71
BRANCH  59  82
ATOM     82  C   UNL     1      11.148  14.492   3.862  1.00  0.00     0.064 A 
ATOM     83  C   UNL     1      10.316  15.232   3.010  1.00  0.00     0.173 A 
ATOM     84  C   UNL     1      12.250  15.145   4.435  1.00  0.00     0.173 A 
ATOM     85  F   UNL     1       9.258  14.649   2.425  1.00  0.00    -0.203 F 
ATOM     86  C   UNL     1      10.589  16.568   2.728  1.00  0.00     0.198 A 
ATOM     87  C   UNL     1      12.503  16.489   4.175  1.00  0.00     0.198 A 
ATOM     88  F   UNL     1      13.073  14.484   5.263  1.00  0.00    -0.203 F 
ATOM     89  F   UNL     1       9.805  17.245   1.877  1.00  0.00    -0.200 F 
ATOM     90  C   UNL     1      11.676  17.198   3.316  1.00  0.00     0.200 A 
ATOM     91  F   UNL     1      13.545  17.099   4.756  1.00  0.00    -0.200 F 
ATOM     92  F   UNL     1      11.930  18.486   3.051  1.00  0.00    -0.200 F 
ENDBRANCH  59  82
ENDBRANCH  33  34
ENDBRANCH  26  28
ENDBRANCH  25  26
ENDBRANCH  24  25
ENDBRANCH   1  24
TORSDOF 16
