REMARK SMILES CC(C)n1ccc(C[C@@H](C(=O)OCCOCCOC(=O)c2ccc(-c3c4nc(c(-c5c(F)c(F)c(F)c(F)c5F)c5ccc([nH]5)c(-c5c(F)c(F)c(F)c(F)c5F)c5nc(c(-c6c(F)c(F)c(F)c(F)c6F)c6ccc3[nH]6)C=C5)C=C4)cc2)c2cccc(Cl)c2)n1
REMARK SMILES IDX 14 1 13 2 12 3 10 4 11 5 9 6 8 7 7 8 4 9 5 10 91 11 6 12
REMARK SMILES IDX 2 13 1 14 3 15 84 16 85 17 90 18 86 19 88 20 87 21 89 22
REMARK SMILES IDX 15 23 16 24 17 25 18 26 19 27 20 28 21 29 22 30 83 31 23 32
REMARK SMILES IDX 82 33 24 34 25 35 26 36 76 37 27 38 81 39 75 40 77 41 28 42
REMARK SMILES IDX 80 43 74 44 73 45 29 47 61 48 41 49 60 50 42 51 45 52 59 53
REMARK SMILES IDX 78 54 43 55 44 56 58 58 79 59 46 60 30 61 31 62 39 63 32 64
REMARK SMILES IDX 33 65 37 66 40 67 34 68 35 69 38 70 36 71 62 72 63 73 71 74
REMARK SMILES IDX 64 75 65 76 69 77 72 78 66 79 67 80 70 81 68 82 47 83 48 84
REMARK SMILES IDX 56 85 49 86 50 87 54 88 57 89 51 90 52 91 55 92 53 93
REMARK H PARENT 77 46 45 57
REMARK Flexibility Score: inf
ROOT
ATOM      1  C   UNL     1      -6.222  -2.334  -1.977  1.00  0.00     0.202 C 
ENDROOT
BRANCH   1   2
ATOM      2  C   UNL     1      -5.685  -1.733  -3.281  1.00  0.00     0.261 C 
BRANCH   2   3
ATOM      3  O   UNL     1      -5.087  -0.456  -2.988  1.00  0.00    -0.463 OA
BRANCH   3   4
ATOM      4  C   UNL     1      -5.435   0.623  -3.720  1.00  0.00     0.313 C 
ATOM      5  O   UNL     1      -6.120   0.558  -4.734  1.00  0.00    -0.252 OA
BRANCH   4   6
ATOM      6  C   UNL     1      -4.973   1.952  -3.088  1.00  0.00     0.135 C 
BRANCH   6   7
ATOM      7  C   UNL     1      -4.117   1.903  -1.789  1.00  0.00     0.078 C 
BRANCH   7   8
ATOM      8  C   UNL     1      -2.904   1.012  -1.729  1.00  0.00     0.064 A 
ATOM      9  N   UNL     1      -0.862   0.425  -1.544  1.00  0.00    -0.270 N 
ATOM     10  C   UNL     1      -1.565  -0.721  -1.329  1.00  0.00     0.109 A 
ATOM     11  N   UNL     1      -1.652   1.494  -1.817  1.00  0.00    -0.178 NA
ATOM     12  C   UNL     1      -2.879  -0.359  -1.389  1.00  0.00     0.045 A 
BRANCH   9  13
ATOM     13  C   UNL     1       0.590   0.550  -1.440  1.00  0.00     0.101 C 
ATOM     14  C   UNL     1       1.079   0.163  -0.039  1.00  0.00     0.033 C 
ATOM     15  C   UNL     1       1.278  -0.311  -2.500  1.00  0.00     0.033 C 
ENDBRANCH   9  13
ENDBRANCH   7   8
ENDBRANCH   6   7
BRANCH   6  16
ATOM     16  C   UNL     1      -6.180   2.893  -2.833  1.00  0.00    -0.032 A 
ATOM     17  C   UNL     1      -5.973   4.278  -2.716  1.00  0.00     0.005 A 
ATOM     18  C   UNL     1      -7.496   2.419  -2.656  1.00  0.00     0.025 A 
ATOM     19  C   UNL     1      -7.032   5.145  -2.413  1.00  0.00     0.002 A 
ATOM     20  C   UNL     1      -8.545   3.285  -2.332  1.00  0.00     0.041 A 
ATOM     21  C   UNL     1      -8.318   4.648  -2.209  1.00  0.00     0.020 A 
ATOM     22  Cl  UNL     1     -10.124   2.653  -2.063  1.00  0.00    -0.084 Cl
ENDBRANCH   6  16
ENDBRANCH   4   6
ENDBRANCH   3   4
ENDBRANCH   2   3
ENDBRANCH   1   2
BRANCH   1  23
ATOM     23  O   UNL     1      -7.385  -1.685  -1.455  1.00  0.00    -0.374 OA
BRANCH  23  24
ATOM     24  C   UNL     1      -7.213  -0.432  -0.801  1.00  0.00     0.202 C 
BRANCH  24  25
ATOM     25  C   UNL     1      -6.879  -0.486   0.677  1.00  0.00     0.261 C 
BRANCH  25  26
ATOM     26  O   UNL     1      -5.545  -0.933   0.851  1.00  0.00    -0.460 OA
BRANCH  26  27
ATOM     27  C   UNL     1      -5.394  -2.239   1.168  1.00  0.00     0.338 C 
ATOM     28  O   UNL     1      -6.228  -3.113   1.158  1.00  0.00    -0.246 OA
BRANCH  27  29
ATOM     29  C   UNL     1      -4.027  -2.381   1.688  1.00  0.00     0.060 A 
ATOM     30  C   UNL     1      -3.712  -3.586   2.313  1.00  0.00     0.016 A 
ATOM     31  C   UNL     1      -3.194  -1.254   1.780  1.00  0.00     0.016 A 
ATOM     32  C   UNL     1      -2.688  -3.580   3.232  1.00  0.00     0.010 A 
ATOM     33  C   UNL     1      -2.157  -1.257   2.666  1.00  0.00     0.010 A 
ATOM     34  C   UNL     1      -2.004  -2.380   3.463  1.00  0.00    -0.014 A 
BRANCH  34  35
ATOM     35  C   UNL     1      -1.037  -2.316   4.528  1.00  0.00     0.031 A 
ATOM     36  C   UNL     1       0.186  -3.063   4.186  1.00  0.00     0.074 A 
ATOM     37  C   UNL     1      -1.237  -1.548   5.617  1.00  0.00     0.049 A 
ATOM     38  N   UNL     1       0.558  -4.202   4.659  1.00  0.00    -0.248 NA
ATOM     39  C   UNL     1       0.950  -2.623   3.006  1.00  0.00     0.031 C 
ATOM     40  C   UNL     1      -2.315  -0.587   5.870  1.00  0.00     0.029 A 
ATOM     41  N   UNL     1      -0.445  -1.409   6.712  1.00  0.00    -0.354 N 
ATOM     42  C   UNL     1       1.748  -4.494   4.005  1.00  0.00     0.074 A 
ATOM     43  C   UNL     1       1.791  -3.645   2.847  1.00  0.00     0.031 C 
ATOM     44  C   UNL     1      -1.989   0.188   6.931  1.00  0.00     0.029 A 
ATOM     45  C   UNL     1      -0.756  -0.310   7.512  1.00  0.00     0.049 A 
ATOM     46  H   UNL     1       0.288  -2.031   6.923  1.00  0.00     0.167 HD
ATOM     47  C   UNL     1       2.737  -5.149   4.668  1.00  0.00     0.037 A 
ATOM     48  C   UNL     1       0.014   0.161   8.527  1.00  0.00     0.037 A 
ATOM     49  C   UNL     1       2.205  -5.818   5.833  1.00  0.00     0.049 A 
ATOM     50  C   UNL     1       0.943  -0.936   8.912  1.00  0.00     0.074 A 
ATOM     51  C   UNL     1       1.260  -6.804   6.040  1.00  0.00     0.029 A 
ATOM     52  N   UNL     1       2.359  -5.182   7.041  1.00  0.00    -0.354 N 
ATOM     53  N   UNL     1       0.550  -2.043   9.479  1.00  0.00    -0.248 NA
ATOM     54  C   UNL     1       2.218  -1.010   8.214  1.00  0.00     0.031 C 
ATOM     55  C   UNL     1       0.576  -6.423   7.233  1.00  0.00     0.029 A 
ATOM     56  C   UNL     1       1.186  -5.276   7.742  1.00  0.00     0.049 A 
ATOM     57  H   UNL     1       3.178  -4.733   7.352  1.00  0.00     0.167 HD
ATOM     58  C   UNL     1       1.279  -3.040   8.846  1.00  0.00     0.074 A 
ATOM     59  C   UNL     1       2.344  -2.338   8.132  1.00  0.00     0.031 C 
ATOM     60  C   UNL     1       0.763  -4.298   8.717  1.00  0.00     0.037 A 
BRANCH  47  61
ATOM     61  C   UNL     1       4.202  -4.800   4.538  1.00  0.00     0.064 A 
ATOM     62  C   UNL     1       5.139  -5.586   5.237  1.00  0.00     0.173 A 
ATOM     63  C   UNL     1       4.700  -3.578   4.030  1.00  0.00     0.173 A 
ATOM     64  F   UNL     1       4.778  -6.763   5.771  1.00  0.00    -0.203 F 
ATOM     65  C   UNL     1       6.436  -5.136   5.493  1.00  0.00     0.198 A 
ATOM     66  C   UNL     1       6.010  -3.156   4.243  1.00  0.00     0.198 A 
ATOM     67  F   UNL     1       3.930  -2.682   3.406  1.00  0.00    -0.203 F 
ATOM     68  F   UNL     1       7.245  -5.858   6.280  1.00  0.00    -0.200 F 
ATOM     69  C   UNL     1       6.867  -3.917   5.005  1.00  0.00     0.200 A 
ATOM     70  F   UNL     1       6.399  -1.962   3.774  1.00  0.00    -0.200 F 
ATOM     71  F   UNL     1       8.086  -3.453   5.305  1.00  0.00    -0.200 F 
ENDBRANCH  47  61
BRANCH  48  72
ATOM     72  C   UNL     1       0.251   1.565   8.944  1.00  0.00     0.064 A 
ATOM     73  C   UNL     1       0.855   1.860  10.179  1.00  0.00     0.173 A 
ATOM     74  C   UNL     1       0.172   2.624   8.019  1.00  0.00     0.173 A 
ATOM     75  F   UNL     1       1.014   0.897  11.098  1.00  0.00    -0.203 F 
ATOM     76  C   UNL     1       1.376   3.129  10.458  1.00  0.00     0.198 A 
ATOM     77  C   UNL     1       0.689   3.890   8.300  1.00  0.00     0.198 A 
ATOM     78  F   UNL     1      -0.315   2.423   6.786  1.00  0.00    -0.203 F 
ATOM     79  F   UNL     1       2.004   3.354  11.621  1.00  0.00    -0.200 F 
ATOM     80  C   UNL     1       1.304   4.139   9.514  1.00  0.00     0.200 A 
ATOM     81  F   UNL     1       0.651   4.846   7.362  1.00  0.00    -0.200 F 
ATOM     82  F   UNL     1       1.863   5.334   9.753  1.00  0.00    -0.200 F 
ENDBRANCH  48  72
BRANCH  60  83
ATOM     83  C   UNL     1      -0.462  -4.628   9.527  1.00  0.00     0.064 A 
ATOM     84  C   UNL     1      -1.713  -4.003   9.373  1.00  0.00     0.173 A 
ATOM     85  C   UNL     1      -0.388  -5.707  10.416  1.00  0.00     0.173 A 
ATOM     86  F   UNL     1      -1.892  -3.029   8.471  1.00  0.00    -0.203 F 
ATOM     87  C   UNL     1      -2.821  -4.411  10.115  1.00  0.00     0.198 A 
ATOM     88  C   UNL     1      -1.504  -6.138  11.126  1.00  0.00     0.198 A 
ATOM     89  F   UNL     1       0.766  -6.376  10.563  1.00  0.00    -0.203 F 
ATOM     90  F   UNL     1      -4.000  -3.787   9.966  1.00  0.00    -0.200 F 
ATOM     91  C   UNL     1      -2.716  -5.482  10.987  1.00  0.00     0.200 A 
ATOM     92  F   UNL     1      -1.408  -7.206  11.929  1.00  0.00    -0.200 F 
ATOM     93  F   UNL     1      -3.788  -5.899  11.675  1.00  0.00    -0.200 F 
ENDBRANCH  60  83
ENDBRANCH  34  35
ENDBRANCH  27  29
ENDBRANCH  26  27
ENDBRANCH  25  26
ENDBRANCH  24  25
ENDBRANCH  23  24
ENDBRANCH   1  23
TORSDOF 18
