REMARK SMILES Cc1cc(/C=C2/C(=O)NC(=S)N=C2OCCOCCOC(=O)c2ccc(-c3c4nc(c(-c5c(F)c(F)c(F)c(F)c5F)c5ccc([nH]5)c(-c5c(F)c(F)c(F)c(F)c5F)c5nc(c(-c6c(F)c(F)c(F)c(F)c6F)c6ccc3[nH]6)C=C5)C=C4)cc2)c(C)n1-c1cccc(C(=O)[O-])c1
REMARK SMILES IDX 17 1 16 2 15 3 14 4 13 5 5 6 6 7 7 8 8 9 9 10 12 11 10 12
REMARK SMILES IDX 11 14 4 15 1 16 2 17 3 18 88 19 86 20 87 21 89 22 90 23
REMARK SMILES IDX 97 24 91 25 93 26 92 27 94 28 95 29 96 30 18 31 19 32 20 33
REMARK SMILES IDX 21 34 22 35 23 36 24 37 85 38 25 39 84 40 26 41 27 42 28 43
REMARK SMILES IDX 78 44 29 45 83 46 77 47 79 48 30 49 82 50 76 51 75 52 31 54
REMARK SMILES IDX 63 55 43 56 62 57 44 58 47 59 61 60 80 61 45 62 46 63 60 65
REMARK SMILES IDX 81 66 48 67 32 68 33 69 41 70 34 71 35 72 39 73 42 74 36 75
REMARK SMILES IDX 37 76 40 77 38 78 64 79 65 80 73 81 66 82 67 83 71 84 74 85
REMARK SMILES IDX 68 86 69 87 72 88 70 89 49 90 50 91 58 92 51 93 52 94 56 95
REMARK SMILES IDX 59 96 53 97 54 98 57 99 55 100
REMARK H PARENT 9 13 79 53 47 64
REMARK Flexibility Score: inf
ROOT
ATOM      1  O   UNL     1       2.480   4.854  -5.309  1.00  0.00    -0.374 OA
ENDROOT
BRANCH   1   2
ATOM      2  C   UNL     1       1.905   5.645  -4.255  1.00  0.00     0.202 C 
BRANCH   2   3
ATOM      3  C   UNL     1       0.362   5.892  -4.259  1.00  0.00     0.260 C 
BRANCH   3   4
ATOM      4  O   UNL     1      -0.429   4.678  -4.153  1.00  0.00    -0.475 OA
BRANCH   4   5
ATOM      5  C   UNL     1      -0.874   4.099  -5.269  1.00  0.00     0.229 C 
ATOM      6  C   UNL     1      -0.837   1.637  -4.263  1.00  0.00     0.029 C 
ATOM      7  C   UNL     1      -1.049   2.617  -5.191  1.00  0.00     0.103 C 
ATOM      8  C   UNL     1      -1.497   2.066  -6.530  1.00  0.00     0.262 C 
ATOM      9  O   UNL     1      -1.698   0.876  -6.759  1.00  0.00    -0.269 OA
ATOM     10  N   UNL     1      -1.648   2.977  -7.541  1.00  0.00    -0.297 N 
ATOM     11  N   UNL     1      -1.080   4.856  -6.287  1.00  0.00    -0.184 NA
ATOM     12  C   UNL     1      -1.463   4.325  -7.470  1.00  0.00     0.203 C 
ATOM     13  H   UNL     1      -1.920   2.618  -8.417  1.00  0.00     0.172 HD
ATOM     14  S   UNL     1      -1.698   5.240  -8.852  1.00  0.00    -0.038 S 
BRANCH   6  15
ATOM     15  C   UNL     1      -0.355   1.463  -2.897  1.00  0.00    -0.003 A 
ATOM     16  C   UNL     1       0.852  -0.718  -0.063  1.00  0.00     0.065 C 
ATOM     17  C   UNL     1       0.401   0.315  -1.030  1.00  0.00     0.020 A 
ATOM     18  C   UNL     1      -0.203   0.173  -2.276  1.00  0.00     0.031 A 
ATOM     19  N   UNL     1       0.483   1.666  -0.781  1.00  0.00    -0.318 N 
ATOM     20  C   UNL     1       0.206   2.321  -1.974  1.00  0.00     0.027 A 
ATOM     21  C   UNL     1       0.709   3.686  -2.109  1.00  0.00     0.065 C 
BRANCH  19  22
ATOM     22  C   UNL     1       1.030   2.374   0.339  1.00  0.00     0.046 A 
ATOM     23  C   UNL     1       0.375   3.564   0.723  1.00  0.00     0.026 A 
ATOM     24  C   UNL     1       2.371   2.170   0.686  1.00  0.00     0.036 A 
ATOM     25  C   UNL     1       1.088   4.605   1.316  1.00  0.00     0.003 A 
ATOM     26  C   UNL     1       3.070   3.210   1.323  1.00  0.00    -0.001 A 
ATOM     27  C   UNL     1       2.441   4.436   1.594  1.00  0.00     0.010 A 
BRANCH  26  28
ATOM     28  C   UNL     1       4.512   3.104   1.653  1.00  0.00     0.072 C 
ATOM     29  O   UNL     1       5.249   4.017   1.943  1.00  0.00    -0.545 OA
ATOM     30  O   UNL     1       4.937   1.826   1.672  1.00  0.00    -0.545 OA
ENDBRANCH  26  28
ENDBRANCH  19  22
ENDBRANCH   6  15
ENDBRANCH   4   5
ENDBRANCH   3   4
ENDBRANCH   2   3
ENDBRANCH   1   2
BRANCH   1  31
ATOM     31  C   UNL     1       2.439   3.408  -5.263  1.00  0.00     0.202 C 
BRANCH  31  32
ATOM     32  C   UNL     1       3.778   2.650  -4.932  1.00  0.00     0.261 C 
BRANCH  32  33
ATOM     33  O   UNL     1       3.780   1.496  -3.966  1.00  0.00    -0.460 OA
BRANCH  33  34
ATOM     34  C   UNL     1       4.799   1.496  -3.032  1.00  0.00     0.338 C 
ATOM     35  O   UNL     1       5.399   2.542  -2.773  1.00  0.00    -0.246 OA
BRANCH  34  36
ATOM     36  C   UNL     1       5.282   0.188  -2.298  1.00  0.00     0.060 A 
ATOM     37  C   UNL     1       6.306   0.382  -1.377  1.00  0.00     0.016 A 
ATOM     38  C   UNL     1       4.957  -1.182  -2.419  1.00  0.00     0.016 A 
ATOM     39  C   UNL     1       6.941  -0.693  -0.656  1.00  0.00     0.010 A 
ATOM     40  C   UNL     1       5.600  -2.300  -1.602  1.00  0.00     0.010 A 
ATOM     41  C   UNL     1       6.623  -2.098  -0.652  1.00  0.00    -0.014 A 
BRANCH  41  42
ATOM     42  C   UNL     1       7.310  -3.069   0.561  1.00  0.00     0.031 A 
ATOM     43  C   UNL     1       7.578  -2.105   1.659  1.00  0.00     0.074 A 
ATOM     44  C   UNL     1       7.878  -4.315   0.933  1.00  0.00     0.049 A 
ATOM     45  N   UNL     1       8.645  -1.385   1.559  1.00  0.00    -0.248 NA
ATOM     46  C   UNL     1       6.601  -1.614   2.627  1.00  0.00     0.031 C 
ATOM     47  C   UNL     1       8.061  -5.540   0.134  1.00  0.00     0.029 A 
ATOM     48  N   UNL     1       8.524  -4.771   2.166  1.00  0.00    -0.354 N 
ATOM     49  C   UNL     1       8.475  -0.282   2.350  1.00  0.00     0.074 A 
ATOM     50  C   UNL     1       7.225  -0.506   3.060  1.00  0.00     0.031 C 
ATOM     51  C   UNL     1       8.593  -6.573   0.865  1.00  0.00     0.029 A 
ATOM     52  C   UNL     1       8.928  -6.168   2.235  1.00  0.00     0.049 A 
ATOM     53  H   UNL     1       8.679  -4.157   2.920  1.00  0.00     0.167 HD
ATOM     54  C   UNL     1       9.612   0.397   2.647  1.00  0.00     0.037 A 
ATOM     55  C   UNL     1       9.572  -6.929   3.231  1.00  0.00     0.037 A 
ATOM     56  C   UNL     1      10.226  -0.255   3.771  1.00  0.00     0.049 A 
ATOM     57  C   UNL     1      10.392  -6.005   4.025  1.00  0.00     0.074 A 
ATOM     58  C   UNL     1       9.671  -0.732   4.943  1.00  0.00     0.029 A 
ATOM     59  N   UNL     1      11.356  -1.007   3.528  1.00  0.00    -0.354 N 
ATOM     60  N   UNL     1      11.540  -5.592   3.585  1.00  0.00    -0.248 NA
ATOM     61  C   UNL     1      10.088  -5.637   5.405  1.00  0.00     0.031 C 
ATOM     62  C   UNL     1      10.118  -2.070   5.002  1.00  0.00     0.029 A 
ATOM     63  C   UNL     1      11.203  -2.227   4.145  1.00  0.00     0.049 A 
ATOM     64  H   UNL     1      12.137  -0.721   3.002  1.00  0.00     0.167 HD
ATOM     65  C   UNL     1      11.789  -4.512   4.361  1.00  0.00     0.074 A 
ATOM     66  C   UNL     1      11.073  -4.755   5.600  1.00  0.00     0.031 C 
ATOM     67  C   UNL     1      11.973  -3.353   3.686  1.00  0.00     0.037 A 
BRANCH  54  68
ATOM     68  C   UNL     1      10.373   0.807   1.392  1.00  0.00     0.064 A 
ATOM     69  C   UNL     1      10.542   2.171   1.134  1.00  0.00     0.173 A 
ATOM     70  C   UNL     1      10.789  -0.081   0.370  1.00  0.00     0.173 A 
ATOM     71  F   UNL     1      10.245   3.072   2.082  1.00  0.00    -0.203 F 
ATOM     72  C   UNL     1      11.010   2.623  -0.104  1.00  0.00     0.198 A 
ATOM     73  C   UNL     1      11.161   0.372  -0.892  1.00  0.00     0.198 A 
ATOM     74  F   UNL     1      10.863  -1.405   0.579  1.00  0.00    -0.203 F 
ATOM     75  F   UNL     1      11.194   3.934  -0.310  1.00  0.00    -0.200 F 
ATOM     76  C   UNL     1      11.268   1.727  -1.131  1.00  0.00     0.200 A 
ATOM     77  F   UNL     1      11.411  -0.510  -1.871  1.00  0.00    -0.200 F 
ATOM     78  F   UNL     1      11.645   2.166  -2.340  1.00  0.00    -0.200 F 
ENDBRANCH  54  68
BRANCH  55  79
ATOM     79  C   UNL     1       9.967  -8.384   3.708  1.00  0.00     0.064 A 
ATOM     80  C   UNL     1      11.237  -8.668   4.341  1.00  0.00     0.173 A 
ATOM     81  C   UNL     1       8.995  -9.355   3.997  1.00  0.00     0.173 A 
ATOM     82  F   UNL     1      12.302  -7.875   4.161  1.00  0.00    -0.203 F 
ATOM     83  C   UNL     1      11.462  -9.730   5.242  1.00  0.00     0.198 A 
ATOM     84  C   UNL     1       9.237 -10.450   4.876  1.00  0.00     0.198 A 
ATOM     85  F   UNL     1       7.753  -9.212   3.518  1.00  0.00    -0.203 F 
ATOM     86  F   UNL     1      12.638  -9.839   5.885  1.00  0.00    -0.200 F 
ATOM     87  C   UNL     1      10.453 -10.617   5.522  1.00  0.00     0.200 A 
ATOM     88  F   UNL     1       8.248 -11.312   5.157  1.00  0.00    -0.200 F 
ATOM     89  F   UNL     1      10.636 -11.595   6.425  1.00  0.00    -0.200 F 
ENDBRANCH  55  79
BRANCH  67  90
ATOM     90  C   UNL     1      12.800  -3.432   2.407  1.00  0.00     0.064 A 
ATOM     91  C   UNL     1      12.632  -4.346   1.333  1.00  0.00     0.173 A 
ATOM     92  C   UNL     1      13.911  -2.585   2.310  1.00  0.00     0.173 A 
ATOM     93  F   UNL     1      11.553  -5.131   1.222  1.00  0.00    -0.203 F 
ATOM     94  C   UNL     1      13.574  -4.467   0.307  1.00  0.00     0.198 A 
ATOM     95  C   UNL     1      14.817  -2.666   1.251  1.00  0.00     0.198 A 
ATOM     96  F   UNL     1      14.120  -1.649   3.248  1.00  0.00    -0.203 F 
ATOM     97  F   UNL     1      13.419  -5.401  -0.644  1.00  0.00    -0.200 F 
ATOM     98  C   UNL     1      14.668  -3.626   0.267  1.00  0.00     0.200 A 
ATOM     99  F   UNL     1      15.842  -1.805   1.193  1.00  0.00    -0.200 F 
ATOM    100  F   UNL     1      15.564  -3.725  -0.724  1.00  0.00    -0.200 F 
ENDBRANCH  67  90
ENDBRANCH  41  42
ENDBRANCH  34  36
ENDBRANCH  33  34
ENDBRANCH  32  33
ENDBRANCH  31  32
ENDBRANCH   1  31
TORSDOF 16
