REMARK SMILES O=C(Cn1cc(NC(=O)N2CC[N@@H+]3CCC[C@@H]3C2)cn1)OCCOCCOC(=O)c1ccc(-c2c3nc(c(-c4c(F)c(F)c(F)c(F)c4F)c4ccc([nH]4)c(-c4c(F)c(F)c(F)c(F)c4F)c4nc(c(-c5c(F)c(F)c(F)c(F)c5F)c5ccc2[nH]5)C=C4)C=C3)cc1
REMARK SMILES IDX 23 1 22 2 21 3 2 4 1 5 3 6 4 7 5 8 20 9 6 10 19 11 7 12 8 13
REMARK SMILES IDX 9 15 10 16 11 17 18 18 12 19 17 20 13 21 16 22 14 23 15 25
REMARK SMILES IDX 24 26 25 27 26 28 27 29 28 30 29 31 30 32 31 33 92 34 32 35
REMARK SMILES IDX 91 36 33 37 34 38 35 39 85 40 36 41 90 42 84 43 86 44 37 45
REMARK SMILES IDX 89 46 83 47 82 48 38 50 70 51 50 52 69 53 51 54 54 55 68 56
REMARK SMILES IDX 87 57 52 58 53 59 67 61 88 62 55 63 39 64 40 65 48 66 41 67
REMARK SMILES IDX 42 68 46 69 49 70 43 71 44 72 47 73 45 74 71 75 72 76 80 77
REMARK SMILES IDX 73 78 74 79 78 80 81 81 75 82 76 83 79 84 77 85 56 86 57 87
REMARK SMILES IDX 65 88 58 89 59 90 63 91 66 92 60 93 61 94 64 95 62 96
REMARK H PARENT 7 14 13 24 86 49 54 60
REMARK Flexibility Score: inf
ROOT
ATOM      1  C   UNL     1       4.583   1.127  -0.138  1.00  0.00     0.202 C 
ENDROOT
BRANCH   1   2
ATOM      2  C   UNL     1       3.925   0.126  -1.086  1.00  0.00     0.261 C 
BRANCH   2   3
ATOM      3  O   UNL     1       2.535  -0.077  -0.828  1.00  0.00    -0.462 OA
BRANCH   3   4
ATOM      4  C   UNL     1       2.047  -1.133  -0.133  1.00  0.00     0.327 C 
ATOM      5  O   UNL     1       0.975  -1.616  -0.501  1.00  0.00    -0.250 OA
BRANCH   4   6
ATOM      6  C   UNL     1       2.645  -1.529   1.193  1.00  0.00     0.266 C 
BRANCH   6   7
ATOM      7  N   UNL     1       3.774  -2.426   1.200  1.00  0.00    -0.259 N 
ATOM      8  C   UNL     1       5.057  -2.242   0.766  1.00  0.00     0.135 A 
ATOM      9  N   UNL     1       3.643  -3.577   1.888  1.00  0.00    -0.179 NA
ATOM     10  C   UNL     1       5.551  -3.513   0.660  1.00  0.00     0.081 A 
ATOM     11  C   UNL     1       4.741  -4.247   1.550  1.00  0.00     0.161 A 
BRANCH  10  12
ATOM     12  N   UNL     1       6.606  -3.897  -0.136  1.00  0.00    -0.305 N 
ATOM     13  C   UNL     1       6.891  -5.191  -0.475  1.00  0.00     0.322 C 
ATOM     14  H   UNL     1       7.196  -3.191  -0.486  1.00  0.00     0.171 HD
ATOM     15  O   UNL     1       8.031  -5.507  -0.808  1.00  0.00    -0.248 OA
BRANCH  13  16
ATOM     16  N   UNL     1       5.859  -6.098  -0.393  1.00  0.00    -0.313 N 
ATOM     17  C   UNL     1       4.601  -5.951  -1.147  1.00  0.00     0.183 C 
ATOM     18  C   UNL     1       6.079  -7.338   0.322  1.00  0.00     0.186 C 
ATOM     19  C   UNL     1       3.604  -7.106  -0.933  1.00  0.00     0.284 C 
ATOM     20  C   UNL     1       5.542  -8.565  -0.411  1.00  0.00     0.204 C 
ATOM     21  N   UNL     1       4.197  -8.445  -1.019  1.00  0.00    -0.330 N 
ATOM     22  C   UNL     1       5.467  -9.763   0.534  1.00  0.00     0.073 C 
ATOM     23  C   UNL     1       3.334  -9.478  -0.439  1.00  0.00     0.262 C 
ATOM     24  H   UNL     1       4.296  -8.593  -2.023  1.00  0.00     0.348 HD
ATOM     25  C   UNL     1       4.300 -10.563  -0.000  1.00  0.00     0.068 C 
ENDBRANCH  13  16
ENDBRANCH  10  12
ENDBRANCH   6   7
ENDBRANCH   4   6
ENDBRANCH   3   4
ENDBRANCH   2   3
ENDBRANCH   1   2
BRANCH   1  26
ATOM     26  O   UNL     1       4.273   1.028   1.253  1.00  0.00    -0.374 OA
BRANCH  26  27
ATOM     27  C   UNL     1       3.031   1.570   1.726  1.00  0.00     0.202 C 
BRANCH  27  28
ATOM     28  C   UNL     1       2.963   3.050   2.012  1.00  0.00     0.261 C 
BRANCH  28  29
ATOM     29  O   UNL     1       3.096   3.749   0.799  1.00  0.00    -0.460 OA
BRANCH  29  30
ATOM     30  C   UNL     1       4.348   4.108   0.474  1.00  0.00     0.338 C 
ATOM     31  O   UNL     1       5.386   3.888   1.095  1.00  0.00    -0.246 OA
BRANCH  30  32
ATOM     32  C   UNL     1       4.235   4.934  -0.725  1.00  0.00     0.060 A 
ATOM     33  C   UNL     1       5.293   5.816  -0.907  1.00  0.00     0.016 A 
ATOM     34  C   UNL     1       2.947   5.163  -1.238  1.00  0.00     0.016 A 
ATOM     35  C   UNL     1       4.969   7.095  -1.267  1.00  0.00     0.010 A 
ATOM     36  C   UNL     1       2.613   6.453  -1.528  1.00  0.00     0.010 A 
ATOM     37  C   UNL     1       3.616   7.412  -1.447  1.00  0.00    -0.014 A 
BRANCH  37  38
ATOM     38  C   UNL     1       3.286   8.771  -1.770  1.00  0.00     0.031 A 
ATOM     39  C   UNL     1       3.517   9.012  -3.202  1.00  0.00     0.074 A 
ATOM     40  C   UNL     1       2.774   9.644  -0.891  1.00  0.00     0.049 A 
ATOM     41  N   UNL     1       4.574   9.535  -3.724  1.00  0.00    -0.248 NA
ATOM     42  C   UNL     1       2.638   8.330  -4.165  1.00  0.00     0.031 C 
ATOM     43  C   UNL     1       2.246   9.406   0.451  1.00  0.00     0.029 A 
ATOM     44  N   UNL     1       2.553  10.968  -1.082  1.00  0.00    -0.354 N 
ATOM     45  C   UNL     1       4.363   9.461  -5.091  1.00  0.00     0.074 A 
ATOM     46  C   UNL     1       3.342   8.471  -5.288  1.00  0.00     0.031 C 
ATOM     47  C   UNL     1       1.569  10.507   0.860  1.00  0.00     0.029 A 
ATOM     48  C   UNL     1       1.732  11.558  -0.132  1.00  0.00     0.049 A 
ATOM     49  H   UNL     1       2.943  11.470  -1.833  1.00  0.00     0.167 HD
ATOM     50  C   UNL     1       4.782  10.473  -5.895  1.00  0.00     0.037 A 
ATOM     51  C   UNL     1       1.182  12.793  -0.249  1.00  0.00     0.037 A 
ATOM     52  C   UNL     1       5.744  11.303  -5.205  1.00  0.00     0.049 A 
ATOM     53  C   UNL     1       1.973  13.530  -1.276  1.00  0.00     0.074 A 
ATOM     54  C   UNL     1       6.982  11.086  -4.632  1.00  0.00     0.029 A 
ATOM     55  N   UNL     1       5.278  12.479  -4.669  1.00  0.00    -0.354 N 
ATOM     56  N   UNL     1       3.207  13.916  -1.099  1.00  0.00    -0.248 NA
ATOM     57  C   UNL     1       1.553  13.418  -2.666  1.00  0.00     0.031 C 
ATOM     58  C   UNL     1       7.008  11.909  -3.467  1.00  0.00     0.029 A 
ATOM     59  C   UNL     1       5.819  12.638  -3.421  1.00  0.00     0.049 A 
ATOM     60  H   UNL     1       4.659  13.105  -5.110  1.00  0.00     0.167 HD
ATOM     61  C   UNL     1       3.834  13.668  -2.312  1.00  0.00     0.074 A 
ATOM     62  C   UNL     1       2.748  13.449  -3.264  1.00  0.00     0.031 C 
ATOM     63  C   UNL     1       5.165  13.365  -2.355  1.00  0.00     0.037 A 
BRANCH  50  64
ATOM     64  C   UNL     1       3.999  10.969  -7.088  1.00  0.00     0.064 A 
ATOM     65  C   UNL     1       4.577  11.971  -7.888  1.00  0.00     0.173 A 
ATOM     66  C   UNL     1       2.621  10.737  -7.309  1.00  0.00     0.173 A 
ATOM     67  F   UNL     1       5.874  12.285  -7.757  1.00  0.00    -0.203 F 
ATOM     68  C   UNL     1       3.814  12.743  -8.768  1.00  0.00     0.198 A 
ATOM     69  C   UNL     1       1.877  11.471  -8.228  1.00  0.00     0.198 A 
ATOM     70  F   UNL     1       1.897   9.883  -6.580  1.00  0.00    -0.203 F 
ATOM     71  F   UNL     1       4.382  13.776  -9.403  1.00  0.00    -0.200 F 
ATOM     72  C   UNL     1       2.464  12.497  -8.931  1.00  0.00     0.200 A 
ATOM     73  F   UNL     1       0.565  11.225  -8.354  1.00  0.00    -0.200 F 
ATOM     74  F   UNL     1       1.718  13.277  -9.723  1.00  0.00    -0.200 F 
ENDBRANCH  50  64
BRANCH  51  75
ATOM     75  C   UNL     1      -0.152  13.262   0.195  1.00  0.00     0.064 A 
ATOM     76  C   UNL     1      -0.463  14.633   0.207  1.00  0.00     0.173 A 
ATOM     77  C   UNL     1      -1.237  12.375   0.332  1.00  0.00     0.173 A 
ATOM     78  F   UNL     1       0.506  15.545   0.038  1.00  0.00    -0.203 F 
ATOM     79  C   UNL     1      -1.781  15.087   0.313  1.00  0.00     0.198 A 
ATOM     80  C   UNL     1      -2.552  12.830   0.445  1.00  0.00     0.198 A 
ATOM     81  F   UNL     1      -1.056  11.049   0.258  1.00  0.00    -0.203 F 
ATOM     82  F   UNL     1      -2.043  16.400   0.249  1.00  0.00    -0.200 F 
ATOM     83  C   UNL     1      -2.826  14.185   0.420  1.00  0.00     0.200 A 
ATOM     84  F   UNL     1      -3.557  11.945   0.510  1.00  0.00    -0.200 F 
ATOM     85  F   UNL     1      -4.094  14.616   0.454  1.00  0.00    -0.200 F 
ENDBRANCH  51  75
BRANCH  63  86
ATOM     86  C   UNL     1       5.978  13.626  -1.117  1.00  0.00     0.064 A 
ATOM     87  C   UNL     1       5.774  12.990   0.120  1.00  0.00     0.173 A 
ATOM     88  C   UNL     1       7.093  14.468  -1.233  1.00  0.00     0.173 A 
ATOM     89  F   UNL     1       4.791  12.094   0.282  1.00  0.00    -0.203 F 
ATOM     90  C   UNL     1       6.623  13.226   1.201  1.00  0.00     0.198 A 
ATOM     91  C   UNL     1       7.962  14.669  -0.166  1.00  0.00     0.198 A 
ATOM     92  F   UNL     1       7.367  15.061  -2.406  1.00  0.00    -0.203 F 
ATOM     93  F   UNL     1       6.399  12.622   2.377  1.00  0.00    -0.200 F 
ATOM     94  C   UNL     1       7.720  14.060   1.054  1.00  0.00     0.200 A 
ATOM     95  F   UNL     1       9.049  15.435  -0.329  1.00  0.00    -0.200 F 
ATOM     96  F   UNL     1       8.560  14.255   2.081  1.00  0.00    -0.200 F 
ENDBRANCH  63  86
ENDBRANCH  37  38
ENDBRANCH  30  32
ENDBRANCH  29  30
ENDBRANCH  28  29
ENDBRANCH  27  28
ENDBRANCH  26  27
ENDBRANCH   1  26
TORSDOF 17
