REMARK SMILES Cc1ccccc1C(=O)Nc1cc(NC(=O)c2ccccc2C)cc(C(=O)OCCOCCOC(=O)c2ccc(-c3c4nc(c(-c5c(F)c(F)c(F)c(F)c5F)c5ccc([nH]5)c(-c5c(F)c(F)c(F)c(F)c5F)c5nc(c(-c6c(F)c(F)c(F)c(F)c6F)c6ccc3[nH]6)C=C5)C=C4)cc2)c1
REMARK SMILES IDX 31 1 30 2 29 3 28 4 26 5 27 6 25 7 11 8 12 9 100 10 13 11
REMARK SMILES IDX 24 12 10 13 8 14 9 15 7 17 1 18 2 19 3 20 4 21 6 22 5 23
REMARK SMILES IDX 14 24 15 25 16 27 17 28 18 29 22 30 19 31 21 32 23 33 20 34
REMARK SMILES IDX 32 35 33 36 34 37 35 38 36 39 37 40 38 41 99 42 39 43 98 44
REMARK SMILES IDX 40 45 41 46 42 47 92 48 43 49 97 50 91 51 93 52 44 53 96 54
REMARK SMILES IDX 90 55 89 56 45 58 77 59 57 60 76 61 58 62 61 63 75 64 94 65
REMARK SMILES IDX 59 66 60 67 74 69 95 70 62 71 46 72 47 73 55 74 48 75 49 76
REMARK SMILES IDX 53 77 56 78 50 79 51 80 54 81 52 82 78 83 79 84 87 85 80 86
REMARK SMILES IDX 81 87 85 88 88 89 82 90 83 91 86 92 84 93 63 94 64 95 72 96
REMARK SMILES IDX 65 97 66 98 70 99 73 100 67 101 68 102 71 103 69 104
REMARK H PARENT 10 16 14 26 93 57 61 68
REMARK Flexibility Score: inf
ROOT
ATOM      1  O   UNL     1       8.215   0.492   0.554  1.00  0.00    -0.374 OA
ENDROOT
BRANCH   1   2
ATOM      2  C   UNL     1       8.175  -0.669  -0.255  1.00  0.00     0.202 C 
BRANCH   2   3
ATOM      3  C   UNL     1       7.596  -1.788   0.589  1.00  0.00     0.261 C 
BRANCH   3   4
ATOM      4  O   UNL     1       6.218  -1.604   0.965  1.00  0.00    -0.460 OA
BRANCH   4   5
ATOM      5  C   UNL     1       5.744  -0.373   1.281  1.00  0.00     0.338 C 
ATOM      6  O   UNL     1       6.061   0.333   2.218  1.00  0.00    -0.246 OA
BRANCH   5   7
ATOM      7  C   UNL     1       4.646  -0.065   0.352  1.00  0.00     0.064 A 
ATOM      8  C   UNL     1       2.803   1.330  -0.260  1.00  0.00     0.044 A 
ATOM      9  C   UNL     1       2.417   0.396  -1.234  1.00  0.00     0.052 A 
ATOM     10  C   UNL     1       3.982   1.152   0.460  1.00  0.00     0.042 A 
ATOM     11  C   UNL     1       3.145  -0.784  -1.396  1.00  0.00     0.044 A 
ATOM     12  C   UNL     1       4.222  -1.029  -0.564  1.00  0.00     0.042 A 
BRANCH   8  13
ATOM     13  N   UNL     1       1.981   2.380   0.168  1.00  0.00    -0.322 N 
ATOM     14  C   UNL     1       0.624   2.373   0.421  1.00  0.00     0.255 C 
ATOM     15  O   UNL     1       0.077   3.424   0.755  1.00  0.00    -0.269 OA
ATOM     16  H   UNL     1       2.434   3.243   0.307  1.00  0.00     0.170 HD
BRANCH  14  17
ATOM     17  C   UNL     1      -0.197   1.132   0.339  1.00  0.00     0.043 A 
ATOM     18  C   UNL     1       1.258  -0.350   1.884  1.00  0.00     0.045 C 
ATOM     19  C   UNL     1       0.123  -0.111   0.928  1.00  0.00    -0.038 A 
ATOM     20  C   UNL     1      -0.696  -1.220   0.642  1.00  0.00     0.004 A 
ATOM     21  C   UNL     1      -1.866  -1.077  -0.101  1.00  0.00     0.000 A 
ATOM     22  C   UNL     1      -1.407   1.272  -0.362  1.00  0.00     0.014 A 
ATOM     23  C   UNL     1      -2.243   0.176  -0.569  1.00  0.00     0.001 A 
ENDBRANCH  14  17
ENDBRANCH   8  13
BRANCH  11  24
ATOM     24  N   UNL     1       2.862  -1.808  -2.307  1.00  0.00    -0.322 N 
ATOM     25  C   UNL     1       2.284  -1.771  -3.547  1.00  0.00     0.255 C 
ATOM     26  H   UNL     1       3.123  -2.708  -2.005  1.00  0.00     0.170 HD
ATOM     27  O   UNL     1       1.986  -2.817  -4.118  1.00  0.00    -0.269 OA
BRANCH  25  28
ATOM     28  C   UNL     1       2.081  -0.482  -4.233  1.00  0.00     0.043 A 
ATOM     29  C   UNL     1       0.768  -0.223  -4.646  1.00  0.00     0.014 A 
ATOM     30  C   UNL     1       3.114   0.449  -4.467  1.00  0.00    -0.038 A 
ATOM     31  C   UNL     1       0.454   0.999  -5.231  1.00  0.00     0.001 A 
ATOM     32  C   UNL     1       2.767   1.685  -5.032  1.00  0.00     0.004 A 
ATOM     33  C   UNL     1       4.560   0.213  -4.124  1.00  0.00     0.045 C 
ATOM     34  C   UNL     1       1.449   1.958  -5.405  1.00  0.00     0.000 A 
ENDBRANCH  25  28
ENDBRANCH  11  24
ENDBRANCH   5   7
ENDBRANCH   4   5
ENDBRANCH   3   4
ENDBRANCH   2   3
ENDBRANCH   1   2
BRANCH   1  35
ATOM     35  C   UNL     1       8.756   1.655  -0.049  1.00  0.00     0.202 C 
BRANCH  35  36
ATOM     36  C   UNL     1      10.278   1.563  -0.206  1.00  0.00     0.261 C 
BRANCH  36  37
ATOM     37  O   UNL     1      10.886   1.405   1.093  1.00  0.00    -0.460 OA
BRANCH  37  38
ATOM     38  C   UNL     1      11.168   0.122   1.452  1.00  0.00     0.338 C 
ATOM     39  O   UNL     1      11.754  -0.693   0.754  1.00  0.00    -0.246 OA
BRANCH  38  40
ATOM     40  C   UNL     1      10.422  -0.236   2.693  1.00  0.00     0.060 A 
ATOM     41  C   UNL     1      10.365  -1.578   3.119  1.00  0.00     0.016 A 
ATOM     42  C   UNL     1       9.536   0.693   3.227  1.00  0.00     0.016 A 
ATOM     43  C   UNL     1       9.325  -2.013   3.961  1.00  0.00     0.010 A 
ATOM     44  C   UNL     1       8.468   0.241   3.975  1.00  0.00     0.010 A 
ATOM     45  C   UNL     1       8.329  -1.111   4.332  1.00  0.00    -0.014 A 
BRANCH  45  46
ATOM     46  C   UNL     1       7.048  -1.441   4.976  1.00  0.00     0.031 A 
ATOM     47  C   UNL     1       6.645  -0.759   6.235  1.00  0.00     0.074 A 
ATOM     48  C   UNL     1       6.081  -2.097   4.290  1.00  0.00     0.049 A 
ATOM     49  N   UNL     1       5.624  -1.101   6.951  1.00  0.00    -0.248 NA
ATOM     50  C   UNL     1       7.386   0.347   6.824  1.00  0.00     0.031 C 
ATOM     51  C   UNL     1       4.636  -1.908   4.445  1.00  0.00     0.029 A 
ATOM     52  N   UNL     1       6.181  -3.047   3.268  1.00  0.00    -0.354 N 
ATOM     53  C   UNL     1       5.365  -0.077   7.836  1.00  0.00     0.074 A 
ATOM     54  C   UNL     1       6.565   0.722   7.808  1.00  0.00     0.031 C 
ATOM     55  C   UNL     1       3.979  -2.838   3.740  1.00  0.00     0.029 A 
ATOM     56  C   UNL     1       4.965  -3.760   3.219  1.00  0.00     0.049 A 
ATOM     57  H   UNL     1       6.962  -3.192   2.685  1.00  0.00     0.167 HD
ATOM     58  C   UNL     1       4.108   0.036   8.363  1.00  0.00     0.037 A 
ATOM     59  C   UNL     1       4.915  -5.118   3.318  1.00  0.00     0.037 A 
ATOM     60  C   UNL     1       3.244  -1.066   7.902  1.00  0.00     0.049 A 
ATOM     61  C   UNL     1       4.161  -5.555   4.540  1.00  0.00     0.074 A 
ATOM     62  C   UNL     1       2.180  -1.120   7.015  1.00  0.00     0.029 A 
ATOM     63  N   UNL     1       3.588  -2.391   8.176  1.00  0.00    -0.354 N 
ATOM     64  N   UNL     1       3.894  -4.731   5.513  1.00  0.00    -0.248 NA
ATOM     65  C   UNL     1       3.647  -6.896   4.794  1.00  0.00     0.031 C 
ATOM     66  C   UNL     1       1.888  -2.483   6.756  1.00  0.00     0.029 A 
ATOM     67  C   UNL     1       2.765  -3.265   7.492  1.00  0.00     0.049 A 
ATOM     68  H   UNL     1       4.319  -2.666   8.776  1.00  0.00     0.167 HD
ATOM     69  C   UNL     1       3.225  -5.378   6.503  1.00  0.00     0.074 A 
ATOM     70  C   UNL     1       3.090  -6.736   6.011  1.00  0.00     0.031 C 
ATOM     71  C   UNL     1       2.878  -4.715   7.643  1.00  0.00     0.037 A 
BRANCH  58  72
ATOM     72  C   UNL     1       3.533   1.252   9.095  1.00  0.00     0.064 A 
ATOM     73  C   UNL     1       2.143   1.339   9.358  1.00  0.00     0.173 A 
ATOM     74  C   UNL     1       4.255   2.383   9.528  1.00  0.00     0.173 A 
ATOM     75  F   UNL     1       1.315   0.316   9.107  1.00  0.00    -0.203 F 
ATOM     76  C   UNL     1       1.535   2.477   9.907  1.00  0.00     0.198 A 
ATOM     77  C   UNL     1       3.648   3.527  10.064  1.00  0.00     0.198 A 
ATOM     78  F   UNL     1       5.584   2.435   9.511  1.00  0.00    -0.203 F 
ATOM     79  F   UNL     1       0.210   2.492  10.107  1.00  0.00    -0.200 F 
ATOM     80  C   UNL     1       2.287   3.580  10.243  1.00  0.00     0.200 A 
ATOM     81  F   UNL     1       4.411   4.574  10.415  1.00  0.00    -0.200 F 
ATOM     82  F   UNL     1       1.711   4.673  10.760  1.00  0.00    -0.200 F 
ENDBRANCH  58  72
BRANCH  59  83
ATOM     83  C   UNL     1       6.084  -5.769   2.679  1.00  0.00     0.064 A 
ATOM     84  C   UNL     1       6.103  -5.761   1.270  1.00  0.00     0.173 A 
ATOM     85  C   UNL     1       7.314  -5.854   3.347  1.00  0.00     0.173 A 
ATOM     86  F   UNL     1       4.952  -5.659   0.585  1.00  0.00    -0.203 F 
ATOM     87  C   UNL     1       7.301  -5.683   0.566  1.00  0.00     0.198 A 
ATOM     88  C   UNL     1       8.513  -5.761   2.636  1.00  0.00     0.198 A 
ATOM     89  F   UNL     1       7.356  -5.853   4.687  1.00  0.00    -0.203 F 
ATOM     90  F   UNL     1       7.284  -5.518  -0.765  1.00  0.00    -0.200 F 
ATOM     91  C   UNL     1       8.503  -5.639   1.253  1.00  0.00     0.200 A 
ATOM     92  F   UNL     1       9.677  -5.676   3.296  1.00  0.00    -0.200 F 
ATOM     93  F   UNL     1       9.644  -5.410   0.586  1.00  0.00    -0.200 F 
ENDBRANCH  59  83
BRANCH  71  94
ATOM     94  C   UNL     1       2.517  -5.363   8.952  1.00  0.00     0.064 A 
ATOM     95  C   UNL     1       2.913  -6.662   9.313  1.00  0.00     0.173 A 
ATOM     96  C   UNL     1       1.885  -4.614   9.974  1.00  0.00     0.173 A 
ATOM     97  F   UNL     1       3.627  -7.434   8.483  1.00  0.00    -0.203 F 
ATOM     98  C   UNL     1       2.643  -7.194  10.575  1.00  0.00     0.198 A 
ATOM     99  C   UNL     1       1.672  -5.127  11.251  1.00  0.00     0.198 A 
ATOM    100  F   UNL     1       1.487  -3.349   9.776  1.00  0.00    -0.203 F 
ATOM    101  F   UNL     1       3.008  -8.454  10.853  1.00  0.00    -0.200 F 
ATOM    102  C   UNL     1       2.035  -6.424  11.547  1.00  0.00     0.200 A 
ATOM    103  F   UNL     1       1.135  -4.347  12.200  1.00  0.00    -0.200 F 
ATOM    104  F   UNL     1       1.822  -6.922  12.772  1.00  0.00    -0.200 F 
ENDBRANCH  71  94
ENDBRANCH  45  46
ENDBRANCH  38  40
ENDBRANCH  37  38
ENDBRANCH  36  37
ENDBRANCH  35  36
ENDBRANCH   1  35
TORSDOF 18
