REMARK SMILES O=C(CCCN1C(=O)/C(=C/c2ccccc2Cl)SC1=S)Nc1cccc(C(=O)OCCOCCOC(=O)c2ccc(-c3c4nc(c(-c5c(F)c(F)c(F)c(F)c5F)c5ccc([nH]5)c(-c5c(F)c(F)c(F)c(F)c5F)c5nc(c(-c6c(F)c(F)c(F)c(F)c6F)c6ccc3[nH]6)C=C5)C=C4)cc2)c1
REMARK SMILES IDX 30 1 29 2 27 3 28 4 26 5 22 6 23 7 101 8 24 9 25 10 21 11
REMARK SMILES IDX 1 12 2 13 3 15 4 16 5 17 6 18 7 19 19 20 8 21 9 22 18 23
REMARK SMILES IDX 20 24 10 25 11 26 12 27 16 28 13 29 15 30 17 31 14 32 31 33
REMARK SMILES IDX 32 34 33 35 34 36 35 37 36 38 37 39 38 40 39 41 100 42 40 43
REMARK SMILES IDX 99 44 41 45 42 46 43 47 93 48 44 49 98 50 92 51 94 52 45 53
REMARK SMILES IDX 97 54 91 55 90 56 46 58 78 59 58 60 77 61 59 62 62 63 76 64
REMARK SMILES IDX 95 65 60 66 61 67 75 69 96 70 63 71 47 72 48 73 56 74 49 75
REMARK SMILES IDX 50 76 54 77 57 78 51 79 52 80 55 81 53 82 79 83 80 84 88 85
REMARK SMILES IDX 81 86 82 87 86 88 89 89 83 90 84 91 87 92 85 93 64 94 65 95
REMARK SMILES IDX 73 96 66 97 67 98 71 99 74 100 68 101 69 102 72 103 70 104
REMARK H PARENT 21 14 94 57 62 68
REMARK Flexibility Score: inf
ROOT
ATOM      1  C   UNL     1      -2.629  -4.580  -0.982  1.00  0.00     0.261 C 
ENDROOT
BRANCH   1   2
ATOM      2  O   UNL     1      -1.593  -3.832  -0.329  1.00  0.00    -0.460 OA
BRANCH   2   3
ATOM      3  C   UNL     1      -1.480  -4.035   1.006  1.00  0.00     0.338 C 
ATOM      4  O   UNL     1      -2.246  -4.660   1.721  1.00  0.00    -0.246 OA
BRANCH   3   5
ATOM      5  C   UNL     1      -0.154  -3.559   1.462  1.00  0.00     0.062 A 
ATOM      6  C   UNL     1       1.772  -2.106   1.288  1.00  0.00     0.042 A 
ATOM      7  C   UNL     1       2.414  -2.882   2.263  1.00  0.00     0.026 A 
ATOM      8  C   UNL     1       0.480  -2.449   0.885  1.00  0.00     0.041 A 
ATOM      9  C   UNL     1       1.780  -3.979   2.845  1.00  0.00     0.003 A 
ATOM     10  C   UNL     1       0.493  -4.316   2.446  1.00  0.00     0.016 A 
BRANCH   6  11
ATOM     11  N   UNL     1       2.506  -1.038   0.734  1.00  0.00    -0.326 N 
ATOM     12  O   UNL     1       0.822   0.241  -0.218  1.00  0.00    -0.275 OA
ATOM     13  C   UNL     1       2.010   0.016  -0.004  1.00  0.00     0.224 C 
ATOM     14  H   UNL     1       3.478  -1.045   0.891  1.00  0.00     0.169 HD
BRANCH  13  15
ATOM     15  C   UNL     1       3.081   0.920  -0.593  1.00  0.00     0.102 C 
BRANCH  15  16
ATOM     16  C   UNL     1       3.924   1.690   0.427  1.00  0.00     0.032 C 
BRANCH  16  17
ATOM     17  C   UNL     1       5.192   0.988   0.946  1.00  0.00     0.128 C 
BRANCH  17  18
ATOM     18  N   UNL     1       6.008   0.358  -0.097  1.00  0.00    -0.293 N 
ATOM     19  C   UNL     1       6.599   1.163  -1.060  1.00  0.00     0.266 C 
ATOM     20  C   UNL     1       6.320  -0.986  -0.161  1.00  0.00     0.148 C 
ATOM     21  O   UNL     1       6.557   2.384  -1.102  1.00  0.00    -0.268 OA
ATOM     22  C   UNL     1       7.320   0.330  -2.055  1.00  0.00     0.081 C 
ATOM     23  S   UNL     1       7.267  -1.322  -1.595  1.00  0.00    -0.054 SA
ATOM     24  S   UNL     1       5.911  -2.197   0.905  1.00  0.00    -0.052 S 
ATOM     25  C   UNL     1       7.897   0.844  -3.151  1.00  0.00     0.031 C 
BRANCH  25  26
ATOM     26  C   UNL     1       8.569   0.018  -4.163  1.00  0.00    -0.006 A 
ATOM     27  C   UNL     1       9.961  -0.125  -4.081  1.00  0.00     0.010 A 
ATOM     28  C   UNL     1       7.866  -0.694  -5.152  1.00  0.00     0.048 A 
ATOM     29  C   UNL     1      10.636  -0.978  -4.956  1.00  0.00     0.001 A 
ATOM     30  C   UNL     1       8.546  -1.548  -6.023  1.00  0.00     0.021 A 
ATOM     31  Cl  UNL     1       6.148  -0.564  -5.322  1.00  0.00    -0.084 Cl
ATOM     32  C   UNL     1       9.930  -1.694  -5.921  1.00  0.00     0.002 A 
ENDBRANCH  25  26
ENDBRANCH  17  18
ENDBRANCH  16  17
ENDBRANCH  15  16
ENDBRANCH  13  15
ENDBRANCH   6  11
ENDBRANCH   3   5
ENDBRANCH   2   3
ENDBRANCH   1   2
BRANCH   1  33
ATOM     33  C   UNL     1      -2.029  -5.668  -1.877  1.00  0.00     0.202 C 
BRANCH  33  34
ATOM     34  O   UNL     1      -1.310  -6.702  -1.205  1.00  0.00    -0.374 OA
BRANCH  34  35
ATOM     35  C   UNL     1       0.063  -6.437  -0.910  1.00  0.00     0.202 C 
BRANCH  35  36
ATOM     36  C   UNL     1       1.051  -6.656  -2.063  1.00  0.00     0.261 C 
BRANCH  36  37
ATOM     37  O   UNL     1       0.893  -5.667  -3.098  1.00  0.00    -0.460 OA
BRANCH  37  38
ATOM     38  C   UNL     1       0.336  -6.116  -4.248  1.00  0.00     0.338 C 
ATOM     39  O   UNL     1       0.035  -7.261  -4.533  1.00  0.00    -0.246 OA
BRANCH  38  40
ATOM     40  C   UNL     1      -0.039  -4.962  -5.086  1.00  0.00     0.060 A 
ATOM     41  C   UNL     1      -1.380  -4.843  -5.476  1.00  0.00     0.016 A 
ATOM     42  C   UNL     1       0.910  -4.034  -5.516  1.00  0.00     0.016 A 
ATOM     43  C   UNL     1      -1.774  -3.800  -6.313  1.00  0.00     0.010 A 
ATOM     44  C   UNL     1       0.515  -2.997  -6.367  1.00  0.00     0.010 A 
ATOM     45  C   UNL     1      -0.824  -2.884  -6.783  1.00  0.00    -0.014 A 
BRANCH  45  46
ATOM     46  C   UNL     1      -1.202  -1.852  -7.779  1.00  0.00     0.031 A 
ATOM     47  C   UNL     1      -0.851  -2.064  -9.224  1.00  0.00     0.074 A 
ATOM     48  C   UNL     1      -1.841  -0.733  -7.394  1.00  0.00     0.049 A 
ATOM     49  N   UNL     1      -0.959  -1.240 -10.235  1.00  0.00    -0.248 NA
ATOM     50  C   UNL     1      -0.304  -3.384  -9.578  1.00  0.00     0.031 C 
ATOM     51  C   UNL     1      -2.283  -0.439  -6.032  1.00  0.00     0.029 A 
ATOM     52  N   UNL     1      -2.210   0.376  -8.115  1.00  0.00    -0.354 N 
ATOM     53  C   UNL     1      -0.495  -1.939 -11.342  1.00  0.00     0.074 A 
ATOM     54  C   UNL     1      -0.077  -3.244 -10.877  1.00  0.00     0.031 C 
ATOM     55  C   UNL     1      -2.842   0.783  -6.009  1.00  0.00     0.029 A 
ATOM     56  C   UNL     1      -2.754   1.374  -7.343  1.00  0.00     0.049 A 
ATOM     57  H   UNL     1      -2.096   0.449  -9.090  1.00  0.00     0.167 HD
ATOM     58  C   UNL     1      -0.435  -1.528 -12.631  1.00  0.00     0.037 A 
ATOM     59  C   UNL     1      -3.098   2.635  -7.671  1.00  0.00     0.037 A 
ATOM     60  C   UNL     1      -0.844  -0.226 -13.088  1.00  0.00     0.049 A 
ATOM     61  C   UNL     1      -2.906   3.104  -9.092  1.00  0.00     0.074 A 
ATOM     62  C   UNL     1      -0.814   0.288 -14.373  1.00  0.00     0.029 A 
ATOM     63  N   UNL     1      -1.356   0.771 -12.271  1.00  0.00    -0.354 N 
ATOM     64  N   UNL     1      -2.475   2.439 -10.136  1.00  0.00    -0.248 NA
ATOM     65  C   UNL     1      -3.241   4.508  -9.377  1.00  0.00     0.031 C 
ATOM     66  C   UNL     1      -1.262   1.611 -14.326  1.00  0.00     0.029 A 
ATOM     67  C   UNL     1      -1.621   1.906 -13.021  1.00  0.00     0.049 A 
ATOM     68  H   UNL     1      -1.508   0.686 -11.302  1.00  0.00     0.167 HD
ATOM     69  C   UNL     1      -2.517   3.329 -11.202  1.00  0.00     0.074 A 
ATOM     70  C   UNL     1      -3.035   4.577 -10.684  1.00  0.00     0.031 C 
ATOM     71  C   UNL     1      -2.154   3.135 -12.493  1.00  0.00     0.037 A 
BRANCH  58  72
ATOM     72  C   UNL     1       0.103  -2.491 -13.649  1.00  0.00     0.064 A 
ATOM     73  C   UNL     1      -0.643  -3.602 -14.070  1.00  0.00     0.173 A 
ATOM     74  C   UNL     1       1.342  -2.259 -14.264  1.00  0.00     0.173 A 
ATOM     75  F   UNL     1      -1.828  -3.873 -13.504  1.00  0.00    -0.203 F 
ATOM     76  C   UNL     1      -0.162  -4.450 -15.064  1.00  0.00     0.198 A 
ATOM     77  C   UNL     1       1.807  -3.095 -15.276  1.00  0.00     0.198 A 
ATOM     78  F   UNL     1       2.092  -1.207 -13.901  1.00  0.00    -0.203 F 
ATOM     79  F   UNL     1      -0.879  -5.522 -15.431  1.00  0.00    -0.200 F 
ATOM     80  C   UNL     1       1.056  -4.191 -15.673  1.00  0.00     0.200 A 
ATOM     81  F   UNL     1       2.978  -2.834 -15.874  1.00  0.00    -0.200 F 
ATOM     82  F   UNL     1       1.508  -4.998 -16.643  1.00  0.00    -0.200 F 
ENDBRANCH  58  72
BRANCH  59  83
ATOM     83  C   UNL     1      -3.615   3.572  -6.636  1.00  0.00     0.064 A 
ATOM     84  C   UNL     1      -4.918   4.085  -6.712  1.00  0.00     0.173 A 
ATOM     85  C   UNL     1      -2.796   4.028  -5.592  1.00  0.00     0.173 A 
ATOM     86  F   UNL     1      -5.730   3.704  -7.709  1.00  0.00    -0.203 F 
ATOM     87  C   UNL     1      -5.368   5.044  -5.806  1.00  0.00     0.198 A 
ATOM     88  C   UNL     1      -3.259   4.960  -4.666  1.00  0.00     0.198 A 
ATOM     89  F   UNL     1      -1.538   3.578  -5.478  1.00  0.00    -0.203 F 
ATOM     90  F   UNL     1      -6.591   5.572  -5.948  1.00  0.00    -0.200 F 
ATOM     91  C   UNL     1      -4.540   5.478  -4.782  1.00  0.00     0.200 A 
ATOM     92  F   UNL     1      -2.458   5.373  -3.675  1.00  0.00    -0.200 F 
ATOM     93  F   UNL     1      -4.969   6.410  -3.921  1.00  0.00    -0.200 F 
ENDBRANCH  59  83
BRANCH  71  94
ATOM     94  C   UNL     1      -2.339   4.282 -13.445  1.00  0.00     0.064 A 
ATOM     95  C   UNL     1      -1.520   5.419 -13.394  1.00  0.00     0.173 A 
ATOM     96  C   UNL     1      -3.318   4.222 -14.448  1.00  0.00     0.173 A 
ATOM     97  F   UNL     1      -0.579   5.531 -12.444  1.00  0.00    -0.203 F 
ATOM     98  C   UNL     1      -1.690   6.464 -14.298  1.00  0.00     0.198 A 
ATOM     99  C   UNL     1      -3.464   5.254 -15.370  1.00  0.00     0.198 A 
ATOM    100  F   UNL     1      -4.123   3.153 -14.546  1.00  0.00    -0.203 F 
ATOM    101  F   UNL     1      -0.926   7.561 -14.201  1.00  0.00    -0.200 F 
ATOM    102  C   UNL     1      -2.655   6.377 -15.290  1.00  0.00     0.200 A 
ATOM    103  F   UNL     1      -4.386   5.162 -16.338  1.00  0.00    -0.200 F 
ATOM    104  F   UNL     1      -2.809   7.380 -16.166  1.00  0.00    -0.200 F 
ENDBRANCH  71  94
ENDBRANCH  45  46
ENDBRANCH  38  40
ENDBRANCH  37  38
ENDBRANCH  36  37
ENDBRANCH  35  36
ENDBRANCH  34  35
ENDBRANCH  33  34
ENDBRANCH   1  33
TORSDOF 20
