REMARK SMILES C[C@@H](NC(=O)[C@H]1CC=CC[C@@H]1C(=O)OCCOCCOC(=O)c1ccc(-c2c3nc(c(-c4c(F)c(F)c(F)c(F)c4F)c4ccc([nH]4)c(-c4c(F)c(F)c(F)c(F)c4F)c4nc(c(-c5c(F)c(F)c(F)c(F)c5F)c5ccc2[nH]5)C=C4)C=C3)cc1)c1ccc(-n2ccnc2)cc1
REMARK SMILES IDX 16 1 15 2 14 3 12 4 13 5 11 6 6 7 7 8 8 9 10 10 9 11 4 12
REMARK SMILES IDX 3 13 5 15 2 16 1 17 86 18 87 19 96 20 88 21 95 22 89 23
REMARK SMILES IDX 90 24 91 25 94 26 92 27 93 28 17 29 18 30 19 31 20 32 21 33
REMARK SMILES IDX 22 34 23 35 24 36 85 37 25 38 84 39 26 40 27 41 28 42 78 43
REMARK SMILES IDX 29 44 83 45 77 46 79 47 30 48 82 49 76 50 75 51 31 53 63 54
REMARK SMILES IDX 43 55 62 56 44 57 47 58 61 59 80 60 45 61 46 62 60 64 81 65
REMARK SMILES IDX 48 66 32 67 33 68 41 69 34 70 35 71 39 72 42 73 36 74 37 75
REMARK SMILES IDX 40 76 38 77 64 78 65 79 73 80 66 81 67 82 71 83 74 84 68 85
REMARK SMILES IDX 69 86 72 87 70 88 49 89 50 90 58 91 51 92 52 93 56 94 59 95
REMARK SMILES IDX 53 96 54 97 57 98 55 99
REMARK H PARENT 3 14 79 52 47 63
REMARK Flexibility Score: inf
ROOT
ATOM      1  C   UNL     1      -6.261   4.880  -0.024  1.00  0.00     0.202 C 
ENDROOT
BRANCH   1   2
ATOM      2  C   UNL     1      -5.322   3.816  -0.600  1.00  0.00     0.261 C 
BRANCH   2   3
ATOM      3  O   UNL     1      -3.952   3.998  -0.185  1.00  0.00    -0.463 OA
BRANCH   3   4
ATOM      4  C   UNL     1      -3.026   4.083  -1.180  1.00  0.00     0.310 C 
ATOM      5  O   UNL     1      -3.286   4.028  -2.377  1.00  0.00    -0.252 OA
BRANCH   4   6
ATOM      6  C   UNL     1      -1.607   4.293  -0.670  1.00  0.00     0.115 C 
ATOM      7  C   UNL     1      -1.261   3.371   0.512  1.00  0.00     0.097 C 
ATOM      8  C   UNL     1      -1.686   3.942   1.882  1.00  0.00     0.041 C 
ATOM      9  C   UNL     1      -1.607   5.434   2.006  1.00  0.00    -0.030 C 
ATOM     10  C   UNL     1      -1.304   5.782  -0.452  1.00  0.00     0.043 C 
ATOM     11  C   UNL     1      -1.422   6.254   0.966  1.00  0.00    -0.030 C 
BRANCH   7  12
ATOM     12  C   UNL     1       0.235   3.070   0.554  1.00  0.00     0.224 C 
ATOM     13  N   UNL     1       0.722   1.975   1.207  1.00  0.00    -0.349 N 
ATOM     14  H   UNL     1       1.461   2.180   1.824  1.00  0.00     0.164 HD
ATOM     15  O   UNL     1       1.068   3.878   0.136  1.00  0.00    -0.275 OA
BRANCH  13  16
ATOM     16  C   UNL     1       0.361   0.547   1.172  1.00  0.00     0.109 C 
ATOM     17  C   UNL     1       1.113  -0.116   0.009  1.00  0.00     0.036 C 
BRANCH  16  18
ATOM     18  C   UNL     1      -1.120   0.229   1.233  1.00  0.00    -0.026 A 
ATOM     19  C   UNL     1      -1.871   0.613   2.356  1.00  0.00     0.008 A 
ATOM     20  C   UNL     1      -1.791  -0.413   0.178  1.00  0.00     0.008 A 
ATOM     21  C   UNL     1      -3.264   0.477   2.367  1.00  0.00     0.027 A 
ATOM     22  C   UNL     1      -3.179  -0.549   0.180  1.00  0.00     0.027 A 
ATOM     23  C   UNL     1      -3.922  -0.062   1.254  1.00  0.00     0.046 A 
BRANCH  23  24
ATOM     24  N   UNL     1      -5.335  -0.057   1.182  1.00  0.00    -0.306 N 
ATOM     25  C   UNL     1      -6.212   0.022   2.235  1.00  0.00     0.113 A 
ATOM     26  C   UNL     1      -6.117  -0.062   0.049  1.00  0.00     0.204 A 
ATOM     27  C   UNL     1      -7.466   0.123   1.686  1.00  0.00     0.131 A 
ATOM     28  N   UNL     1      -7.396   0.077   0.323  1.00  0.00    -0.245 NA
ENDBRANCH  23  24
ENDBRANCH  16  18
ENDBRANCH  13  16
ENDBRANCH   7  12
ENDBRANCH   4   6
ENDBRANCH   3   4
ENDBRANCH   2   3
ENDBRANCH   1   2
BRANCH   1  29
ATOM     29  O   UNL     1      -6.084   6.204  -0.526  1.00  0.00    -0.374 OA
BRANCH  29  30
ATOM     30  C   UNL     1      -4.946   6.922  -0.052  1.00  0.00     0.202 C 
BRANCH  30  31
ATOM     31  C   UNL     1      -5.083   7.532   1.347  1.00  0.00     0.261 C 
BRANCH  31  32
ATOM     32  O   UNL     1      -5.199   6.526   2.372  1.00  0.00    -0.460 OA
BRANCH  32  33
ATOM     33  C   UNL     1      -6.360   6.568   3.067  1.00  0.00     0.338 C 
ATOM     34  O   UNL     1      -7.251   7.395   2.975  1.00  0.00    -0.246 OA
BRANCH  33  35
ATOM     35  C   UNL     1      -6.504   5.379   3.929  1.00  0.00     0.060 A 
ATOM     36  C   UNL     1      -7.689   4.643   3.808  1.00  0.00     0.016 A 
ATOM     37  C   UNL     1      -5.590   5.090   4.944  1.00  0.00     0.016 A 
ATOM     38  C   UNL     1      -8.004   3.669   4.753  1.00  0.00     0.010 A 
ATOM     39  C   UNL     1      -5.910   4.111   5.895  1.00  0.00     0.010 A 
ATOM     40  C   UNL     1      -7.142   3.434   5.833  1.00  0.00    -0.014 A 
BRANCH  40  41
ATOM     41  C   UNL     1      -7.610   2.592   6.965  1.00  0.00     0.031 A 
ATOM     42  C   UNL     1      -8.159   3.251   8.195  1.00  0.00     0.074 A 
ATOM     43  C   UNL     1      -7.604   1.250   6.881  1.00  0.00     0.049 A 
ATOM     44  N   UNL     1      -8.626   2.703   9.287  1.00  0.00    -0.248 NA
ATOM     45  C   UNL     1      -8.191   4.721   8.193  1.00  0.00     0.031 C 
ATOM     46  C   UNL     1      -7.141   0.508   5.720  1.00  0.00     0.029 A 
ATOM     47  N   UNL     1      -7.994   0.279   7.766  1.00  0.00    -0.354 N 
ATOM     48  C   UNL     1      -9.008   3.758  10.101  1.00  0.00     0.074 A 
ATOM     49  C   UNL     1      -8.689   4.980   9.393  1.00  0.00     0.031 C 
ATOM     50  C   UNL     1      -7.265  -0.809   5.954  1.00  0.00     0.029 A 
ATOM     51  C   UNL     1      -7.797  -0.999   7.301  1.00  0.00     0.049 A 
ATOM     52  H   UNL     1      -8.380   0.477   8.650  1.00  0.00     0.167 HD
ATOM     53  C   UNL     1      -9.585   3.709  11.325  1.00  0.00     0.037 A 
ATOM     54  C   UNL     1      -8.009  -2.187   7.899  1.00  0.00     0.037 A 
ATOM     55  C   UNL     1      -9.906   2.495  12.026  1.00  0.00     0.049 A 
ATOM     56  C   UNL     1      -8.588  -2.211   9.288  1.00  0.00     0.074 A 
ATOM     57  C   UNL     1     -10.501   2.346  13.266  1.00  0.00     0.029 A 
ATOM     58  N   UNL     1      -9.653   1.217  11.548  1.00  0.00    -0.354 N 
ATOM     59  N   UNL     1      -8.958  -1.207  10.044  1.00  0.00    -0.248 NA
ATOM     60  C   UNL     1      -8.781  -3.531   9.906  1.00  0.00     0.031 C 
ATOM     61  C   UNL     1     -10.572   0.979  13.557  1.00  0.00     0.029 A 
ATOM     62  C   UNL     1     -10.060   0.275  12.479  1.00  0.00     0.049 A 
ATOM     63  H   UNL     1      -9.246   1.010  10.676  1.00  0.00     0.167 HD
ATOM     64  C   UNL     1      -9.449  -1.770  11.214  1.00  0.00     0.074 A 
ATOM     65  C   UNL     1      -9.340  -3.207  11.063  1.00  0.00     0.031 C 
ATOM     66  C   UNL     1      -9.946  -1.152  12.312  1.00  0.00     0.037 A 
BRANCH  53  67
ATOM     67  C   UNL     1      -9.884   5.017  11.992  1.00  0.00     0.064 A 
ATOM     68  C   UNL     1     -10.941   5.835  11.564  1.00  0.00     0.173 A 
ATOM     69  C   UNL     1      -9.118   5.447  13.084  1.00  0.00     0.173 A 
ATOM     70  F   UNL     1     -11.690   5.474  10.511  1.00  0.00    -0.203 F 
ATOM     71  C   UNL     1     -11.205   7.047  12.195  1.00  0.00     0.198 A 
ATOM     72  C   UNL     1      -9.400   6.648  13.728  1.00  0.00     0.198 A 
ATOM     73  F   UNL     1      -8.096   4.700  13.529  1.00  0.00    -0.203 F 
ATOM     74  F   UNL     1     -12.193   7.834  11.745  1.00  0.00    -0.200 F 
ATOM     75  C   UNL     1     -10.440   7.450  13.279  1.00  0.00     0.200 A 
ATOM     76  F   UNL     1      -8.664   7.032  14.780  1.00  0.00    -0.200 F 
ATOM     77  F   UNL     1     -10.698   8.615  13.888  1.00  0.00    -0.200 F 
ENDBRANCH  53  67
BRANCH  54  78
ATOM     78  C   UNL     1      -7.666  -3.449   7.195  1.00  0.00     0.064 A 
ATOM     79  C   UNL     1      -8.663  -4.332   6.758  1.00  0.00     0.173 A 
ATOM     80  C   UNL     1      -6.330  -3.805   6.957  1.00  0.00     0.173 A 
ATOM     81  F   UNL     1      -9.953  -4.048   6.984  1.00  0.00    -0.203 F 
ATOM     82  C   UNL     1      -8.336  -5.530   6.124  1.00  0.00     0.198 A 
ATOM     83  C   UNL     1      -6.005  -4.991   6.302  1.00  0.00     0.198 A 
ATOM     84  F   UNL     1      -5.338  -2.995   7.356  1.00  0.00    -0.203 F 
ATOM     85  F   UNL     1      -9.307  -6.376   5.754  1.00  0.00    -0.200 F 
ATOM     86  C   UNL     1      -7.008  -5.856   5.892  1.00  0.00     0.200 A 
ATOM     87  F   UNL     1      -4.721  -5.296   6.071  1.00  0.00    -0.200 F 
ATOM     88  F   UNL     1      -6.695  -7.006   5.281  1.00  0.00    -0.200 F 
ENDBRANCH  54  78
BRANCH  66  89
ATOM     89  C   UNL     1     -10.433  -2.026  13.429  1.00  0.00     0.064 A 
ATOM     90  C   UNL     1      -9.541  -2.708  14.268  1.00  0.00     0.173 A 
ATOM     91  C   UNL     1     -11.807  -2.152  13.684  1.00  0.00     0.173 A 
ATOM     92  F   UNL     1      -8.219  -2.632  14.053  1.00  0.00    -0.203 F 
ATOM     93  C   UNL     1     -10.008  -3.502  15.313  1.00  0.00     0.198 A 
ATOM     94  C   UNL     1     -12.269  -2.926  14.745  1.00  0.00     0.198 A 
ATOM     95  F   UNL     1     -12.700  -1.516  12.912  1.00  0.00    -0.203 F 
ATOM     96  F   UNL     1      -9.140  -4.178  16.078  1.00  0.00    -0.200 F 
ATOM     97  C   UNL     1     -11.370  -3.605  15.554  1.00  0.00     0.200 A 
ATOM     98  F   UNL     1     -13.585  -3.017  14.983  1.00  0.00    -0.200 F 
ATOM     99  F   UNL     1     -11.817  -4.365  16.563  1.00  0.00    -0.200 F 
ENDBRANCH  66  89
ENDBRANCH  40  41
ENDBRANCH  33  35
ENDBRANCH  32  33
ENDBRANCH  31  32
ENDBRANCH  30  31
ENDBRANCH  29  30
ENDBRANCH   1  29
TORSDOF 18
