REMARK SMILES O=C(OCCOCCOC(=O)c1sccc1S(=O)(=O)Nc1ccccc1N1CCCCC1)c1ccc(-c2c3nc(c(-c4c(F)c(F)c(F)c(F)c4F)c4ccc([nH]4)c(-c4c(F)c(F)c(F)c(F)c4F)c4nc(c(-c5c(F)c(F)c(F)c(F)c5F)c5ccc2[nH]5)C=C4)C=C3)cc1
REMARK SMILES IDX 7 1 6 2 5 3 4 4 3 5 2 6 1 7 33 8 34 9 95 10 35 11 94 12
REMARK SMILES IDX 36 13 37 14 38 15 88 16 39 17 93 18 87 19 89 20 40 21 92 22
REMARK SMILES IDX 86 23 85 24 41 26 73 27 53 28 72 29 54 30 57 31 71 32 90 33
REMARK SMILES IDX 55 34 56 35 70 37 91 38 58 39 42 40 43 41 51 42 44 43 45 44
REMARK SMILES IDX 49 45 52 46 46 47 47 48 50 49 48 50 74 51 75 52 83 53 76 54
REMARK SMILES IDX 77 55 81 56 84 57 78 58 79 59 82 60 80 61 59 62 60 63 68 64
REMARK SMILES IDX 61 65 62 66 66 67 69 68 63 69 64 70 67 71 65 72 8 73 9 74
REMARK SMILES IDX 10 75 11 76 12 77 13 78 16 79 14 80 15 81 17 82 18 83 19 84
REMARK SMILES IDX 20 85 21 87 22 88 26 89 23 90 25 91 24 92 27 93 28 94 32 95
REMARK SMILES IDX 29 96 31 97 30 98
REMARK H PARENT 89 25 57 36 20 86
REMARK Flexibility Score: inf
ROOT
ATOM      1  C   UNL     1       2.926  -1.480   0.804  1.00  0.00     0.202 C 
ENDROOT
BRANCH   1   2
ATOM      2  O   UNL     1       3.869  -1.101  -0.221  1.00  0.00    -0.374 OA
BRANCH   2   3
ATOM      3  C   UNL     1       3.988   0.238  -0.744  1.00  0.00     0.202 C 
BRANCH   3   4
ATOM      4  C   UNL     1       2.891   1.040  -1.496  1.00  0.00     0.261 C 
BRANCH   4   5
ATOM      5  O   UNL     1       1.554   0.520  -1.583  1.00  0.00    -0.460 OA
BRANCH   5   6
ATOM      6  C   UNL     1       1.112   0.189  -2.843  1.00  0.00     0.338 C 
ATOM      7  O   UNL     1       0.155   0.706  -3.391  1.00  0.00    -0.246 OA
BRANCH   6   8
ATOM      8  C   UNL     1       1.870  -0.948  -3.417  1.00  0.00     0.060 A 
ATOM      9  C   UNL     1       2.482  -1.767  -2.498  1.00  0.00     0.016 A 
ATOM     10  C   UNL     1       2.050  -1.213  -4.768  1.00  0.00     0.016 A 
ATOM     11  C   UNL     1       3.551  -2.548  -2.841  1.00  0.00     0.010 A 
ATOM     12  C   UNL     1       2.927  -2.251  -5.136  1.00  0.00     0.010 A 
ATOM     13  C   UNL     1       3.715  -2.900  -4.162  1.00  0.00    -0.014 A 
BRANCH  13  14
ATOM     14  C   UNL     1       4.710  -3.951  -4.458  1.00  0.00     0.031 A 
ATOM     15  C   UNL     1       5.789  -3.645  -5.436  1.00  0.00     0.074 A 
ATOM     16  C   UNL     1       4.705  -5.126  -3.789  1.00  0.00     0.049 A 
ATOM     17  N   UNL     1       6.500  -4.461  -6.157  1.00  0.00    -0.248 NA
ATOM     18  C   UNL     1       6.110  -2.220  -5.630  1.00  0.00     0.031 C 
ATOM     19  C   UNL     1       3.863  -5.464  -2.632  1.00  0.00     0.029 A 
ATOM     20  N   UNL     1       5.446  -6.265  -3.980  1.00  0.00    -0.354 N 
ATOM     21  C   UNL     1       7.265  -3.651  -6.980  1.00  0.00     0.074 A 
ATOM     22  C   UNL     1       7.001  -2.279  -6.609  1.00  0.00     0.031 C 
ATOM     23  C   UNL     1       4.156  -6.698  -2.204  1.00  0.00     0.029 A 
ATOM     24  C   UNL     1       5.057  -7.304  -3.165  1.00  0.00     0.049 A 
ATOM     25  H   UNL     1       6.181  -6.332  -4.632  1.00  0.00     0.167 HD
ATOM     26  C   UNL     1       8.054  -4.056  -8.000  1.00  0.00     0.037 A 
ATOM     27  C   UNL     1       5.296  -8.624  -3.270  1.00  0.00     0.037 A 
ATOM     28  C   UNL     1       8.290  -5.445  -8.282  1.00  0.00     0.049 A 
ATOM     29  C   UNL     1       6.084  -9.070  -4.472  1.00  0.00     0.074 A 
ATOM     30  C   UNL     1       8.983  -6.022  -9.326  1.00  0.00     0.029 A 
ATOM     31  N   UNL     1       7.829  -6.483  -7.478  1.00  0.00    -0.354 N 
ATOM     32  N   UNL     1       6.673  -8.339  -5.390  1.00  0.00    -0.248 NA
ATOM     33  C   UNL     1       6.190 -10.516  -4.693  1.00  0.00     0.031 C 
ATOM     34  C   UNL     1       8.899  -7.412  -9.179  1.00  0.00     0.029 A 
ATOM     35  C   UNL     1       8.197  -7.699  -8.016  1.00  0.00     0.049 A 
ATOM     36  H   UNL     1       7.315  -6.367  -6.646  1.00  0.00     0.167 HD
ATOM     37  C   UNL     1       7.216  -9.232  -6.299  1.00  0.00     0.074 A 
ATOM     38  C   UNL     1       6.917 -10.561  -5.800  1.00  0.00     0.031 C 
ATOM     39  C   UNL     1       7.881  -8.989  -7.455  1.00  0.00     0.037 A 
BRANCH  26  40
ATOM     40  C   UNL     1       8.550  -3.002  -8.939  1.00  0.00     0.064 A 
ATOM     41  C   UNL     1       9.570  -2.103  -8.605  1.00  0.00     0.173 A 
ATOM     42  C   UNL     1       7.934  -2.860 -10.194  1.00  0.00     0.173 A 
ATOM     43  F   UNL     1      10.164  -2.171  -7.404  1.00  0.00    -0.203 F 
ATOM     44  C   UNL     1       9.940  -1.085  -9.484  1.00  0.00     0.198 A 
ATOM     45  C   UNL     1       8.320  -1.858 -11.077  1.00  0.00     0.198 A 
ATOM     46  F   UNL     1       6.938  -3.684 -10.554  1.00  0.00    -0.203 F 
ATOM     47  F   UNL     1      10.878  -0.198  -9.122  1.00  0.00    -0.200 F 
ATOM     48  C   UNL     1       9.318  -0.965 -10.718  1.00  0.00     0.200 A 
ATOM     49  F   UNL     1       7.712  -1.743 -12.266  1.00  0.00    -0.200 F 
ATOM     50  F   UNL     1       9.665   0.023 -11.554  1.00  0.00    -0.200 F 
ENDBRANCH  26  40
BRANCH  27  51
ATOM     51  C   UNL     1       4.658  -9.607  -2.345  1.00  0.00     0.064 A 
ATOM     52  C   UNL     1       5.434 -10.483  -1.574  1.00  0.00     0.173 A 
ATOM     53  C   UNL     1       3.260  -9.735  -2.248  1.00  0.00     0.173 A 
ATOM     54  F   UNL     1       6.772 -10.425  -1.641  1.00  0.00    -0.203 F 
ATOM     55  C   UNL     1       4.843 -11.463  -0.774  1.00  0.00     0.198 A 
ATOM     56  C   UNL     1       2.671 -10.685  -1.416  1.00  0.00     0.198 A 
ATOM     57  F   UNL     1       2.456  -8.935  -2.964  1.00  0.00    -0.203 F 
ATOM     58  F   UNL     1       5.614 -12.331  -0.106  1.00  0.00    -0.200 F 
ATOM     59  C   UNL     1       3.463 -11.560  -0.692  1.00  0.00     0.200 A 
ATOM     60  F   UNL     1       1.335 -10.760  -1.327  1.00  0.00    -0.200 F 
ATOM     61  F   UNL     1       2.897 -12.506   0.070  1.00  0.00    -0.200 F 
ENDBRANCH  27  51
BRANCH  39  62
ATOM     62  C   UNL     1       8.338 -10.184  -8.227  1.00  0.00     0.064 A 
ATOM     63  C   UNL     1       7.439 -10.951  -8.980  1.00  0.00     0.173 A 
ATOM     64  C   UNL     1       9.700 -10.509  -8.277  1.00  0.00     0.173 A 
ATOM     65  F   UNL     1       6.125 -10.684  -8.940  1.00  0.00    -0.203 F 
ATOM     66  C   UNL     1       7.891 -12.010  -9.758  1.00  0.00     0.198 A 
ATOM     67  C   UNL     1      10.151 -11.550  -9.079  1.00  0.00     0.198 A 
ATOM     68  F   UNL     1      10.592  -9.797  -7.572  1.00  0.00    -0.203 F 
ATOM     69  F   UNL     1       7.015 -12.752 -10.450  1.00  0.00    -0.200 F 
ATOM     70  C   UNL     1       9.247 -12.300  -9.817  1.00  0.00     0.200 A 
ATOM     71  F   UNL     1      11.462 -11.820  -9.147  1.00  0.00    -0.200 F 
ATOM     72  F   UNL     1       9.683 -13.306 -10.586  1.00  0.00    -0.200 F 
ENDBRANCH  39  62
ENDBRANCH  13  14
ENDBRANCH   6   8
ENDBRANCH   5   6
ENDBRANCH   4   5
ENDBRANCH   3   4
ENDBRANCH   2   3
ENDBRANCH   1   2
BRANCH   1  73
ATOM     73  C   UNL     1       3.438  -1.743   2.427  1.00  0.00     0.261 C 
BRANCH  73  74
ATOM     74  O   UNL     1       4.144  -0.358   3.719  1.00  0.00    -0.459 OA
BRANCH  74  75
ATOM     75  C   UNL     1       4.819   0.833   4.141  1.00  0.00     0.349 C 
ATOM     76  O   UNL     1       5.497   1.532   3.380  1.00  0.00    -0.245 OA
BRANCH  75  77
ATOM     77  C   UNL     1       4.663   1.205   5.543  1.00  0.00     0.133 A 
ATOM     78  S   UNL     1       5.707   2.571   5.929  1.00  0.00    -0.136 S 
ATOM     79  C   UNL     1       3.920   0.857   6.665  1.00  0.00     0.113 A 
ATOM     80  C   UNL     1       5.250   2.601   7.545  1.00  0.00     0.067 A 
ATOM     81  C   UNL     1       4.318   1.638   7.818  1.00  0.00     0.035 A 
BRANCH  79  82
ATOM     82  S   UNL     1       2.518  -0.155   6.849  1.00  0.00     0.263 S 
ATOM     83  O   UNL     1       2.569  -0.572   8.237  1.00  0.00    -0.201 OA
ATOM     84  O   UNL     1       1.445   0.713   6.405  1.00  0.00    -0.201 OA
BRANCH  82  85
ATOM     85  N   UNL     1       2.369  -1.569   5.960  1.00  0.00    -0.277 N 
ATOM     86  H   UNL     1       1.945  -2.387   6.308  1.00  0.00     0.180 HD
BRANCH  85  87
ATOM     87  C   UNL     1       2.913  -1.467   4.663  1.00  0.00     0.072 A 
ATOM     88  C   UNL     1       2.236  -0.216   3.546  1.00  0.00     0.029 A 
ATOM     89  C   UNL     1       4.584  -2.103   4.445  1.00  0.00     0.061 A 
ATOM     90  C   UNL     1       3.273   0.417   2.213  1.00  0.00     0.002 A 
ATOM     91  C   UNL     1       5.582  -1.541   3.070  1.00  0.00     0.028 A 
ATOM     92  C   UNL     1       4.949  -0.303   1.956  1.00  0.00     0.002 A 
BRANCH  89  93
ATOM     93  N   UNL     1       5.318  -2.475   5.582  1.00  0.00    -0.370 N 
ATOM     94  C   UNL     1       6.481  -1.662   5.921  1.00  0.00     0.116 C 
ATOM     95  C   UNL     1       5.113  -3.691   6.348  1.00  0.00     0.116 C 
ATOM     96  C   UNL     1       7.743  -2.480   5.720  1.00  0.00     0.021 C 
ATOM     97  C   UNL     1       6.397  -4.541   6.275  1.00  0.00     0.021 C 
ATOM     98  C   UNL     1       7.672  -3.736   6.576  1.00  0.00     0.004 C 
ENDBRANCH  89  93
ENDBRANCH  85  87
ENDBRANCH  82  85
ENDBRANCH  79  82
ENDBRANCH  75  77
ENDBRANCH  74  75
ENDBRANCH  73  74
ENDBRANCH   1  73
TORSDOF 18
