REMARK SMILES C[C@H]1[C@@H](C(=O)OCCOCCOC(=O)c2ccc(-c3c4nc(c(-c5c(F)c(F)c(F)c(F)c5F)c5ccc([nH]5)c(-c5c(F)c(F)c(F)c(F)c5F)c5nc(c(-c6c(F)c(F)c(F)c(F)c6F)c6ccc3[nH]6)C=C5)C=C4)cc2)CCN1C(=O)/C=C/c1cccc(F)c1
REMARK SMILES IDX 8 1 7 2 6 3 4 4 5 5 3 6 1 7 2 8 80 9 78 10 79 11 81 12 82 13
REMARK SMILES IDX 83 14 84 15 85 16 86 17 91 18 87 19 89 20 88 21 90 22 9 23
REMARK SMILES IDX 10 24 11 25 12 26 13 27 14 28 15 29 16 30 77 31 17 32 76 33
REMARK SMILES IDX 18 34 19 35 20 36 70 37 21 38 75 39 69 40 71 41 22 42 74 43
REMARK SMILES IDX 68 44 67 45 23 47 55 48 35 49 54 50 36 51 39 52 53 53 72 54
REMARK SMILES IDX 37 55 38 56 52 58 73 59 40 60 24 61 25 62 33 63 26 64 27 65
REMARK SMILES IDX 31 66 34 67 28 68 29 69 32 70 30 71 56 72 57 73 65 74 58 75
REMARK SMILES IDX 59 76 63 77 66 78 60 79 61 80 64 81 62 82 41 83 42 84 50 85
REMARK SMILES IDX 43 86 44 87 48 88 51 89 45 90 46 91 49 92 47 93
REMARK H PARENT 71 46 39 57
REMARK Flexibility Score: inf
ROOT
ATOM      1  C   UNL     1       1.357   2.477  -3.607  1.00  0.00     0.202 C 
ENDROOT
BRANCH   1   2
ATOM      2  C   UNL     1       1.455   3.375  -2.369  1.00  0.00     0.261 C 
BRANCH   2   3
ATOM      3  O   UNL     1       1.352   2.560  -1.185  1.00  0.00    -0.463 OA
BRANCH   3   4
ATOM      4  C   UNL     1       0.216   2.650  -0.465  1.00  0.00     0.311 C 
ATOM      5  O   UNL     1      -0.620   3.535  -0.609  1.00  0.00    -0.252 OA
BRANCH   4   6
ATOM      6  C   UNL     1       0.033   1.518   0.536  1.00  0.00     0.123 C 
ATOM      7  C   UNL     1       2.038   0.088  -0.460  1.00  0.00     0.032 C 
ATOM      8  C   UNL     1       0.963   0.275   0.610  1.00  0.00     0.096 C 
ATOM      9  N   UNL     1       0.053  -0.885   0.666  1.00  0.00    -0.336 N 
ATOM     10  C   UNL     1      -1.399   0.960   0.406  1.00  0.00     0.039 C 
ATOM     11  C   UNL     1      -1.273  -0.535   0.217  1.00  0.00     0.121 C 
BRANCH   9  12
ATOM     12  C   UNL     1       0.313  -2.208   0.968  1.00  0.00     0.246 C 
ATOM     13  O   UNL     1      -0.532  -3.096   0.856  1.00  0.00    -0.270 OA
BRANCH  12  14
ATOM     14  C   UNL     1       1.696  -2.611   1.315  1.00  0.00     0.072 C 
ATOM     15  C   UNL     1       2.412  -2.041   2.294  1.00  0.00     0.014 C 
BRANCH  15  16
ATOM     16  C   UNL     1       3.830  -2.313   2.588  1.00  0.00    -0.023 A 
ATOM     17  C   UNL     1       4.500  -1.442   3.465  1.00  0.00     0.008 A 
ATOM     18  C   UNL     1       4.553  -3.372   2.025  1.00  0.00     0.047 A 
ATOM     19  C   UNL     1       5.853  -1.619   3.768  1.00  0.00     0.004 A 
ATOM     20  C   UNL     1       5.902  -3.539   2.332  1.00  0.00     0.123 A 
ATOM     21  C   UNL     1       6.558  -2.674   3.197  1.00  0.00     0.039 A 
ATOM     22  F   UNL     1       6.580  -4.553   1.777  1.00  0.00    -0.207 F 
ENDBRANCH  15  16
ENDBRANCH  12  14
ENDBRANCH   9  12
ENDBRANCH   4   6
ENDBRANCH   3   4
ENDBRANCH   2   3
ENDBRANCH   1   2
BRANCH   1  23
ATOM     23  O   UNL     1       0.018   2.129  -3.975  1.00  0.00    -0.374 OA
BRANCH  23  24
ATOM     24  C   UNL     1      -0.564   1.020  -3.293  1.00  0.00     0.202 C 
BRANCH  24  25
ATOM     25  C   UNL     1      -0.342  -0.340  -3.960  1.00  0.00     0.261 C 
BRANCH  25  26
ATOM     26  O   UNL     1       1.052  -0.690  -3.963  1.00  0.00    -0.460 OA
BRANCH  26  27
ATOM     27  C   UNL     1       1.677  -0.461  -5.138  1.00  0.00     0.338 C 
ATOM     28  O   UNL     1       1.160  -0.113  -6.193  1.00  0.00    -0.246 OA
BRANCH  27  29
ATOM     29  C   UNL     1       3.140  -0.540  -4.974  1.00  0.00     0.060 A 
ATOM     30  C   UNL     1       3.903   0.389  -5.690  1.00  0.00     0.016 A 
ATOM     31  C   UNL     1       3.767  -1.532  -4.211  1.00  0.00     0.016 A 
ATOM     32  C   UNL     1       5.287   0.271  -5.730  1.00  0.00     0.010 A 
ATOM     33  C   UNL     1       5.162  -1.645  -4.245  1.00  0.00     0.010 A 
ATOM     34  C   UNL     1       5.921  -0.780  -5.054  1.00  0.00    -0.014 A 
BRANCH  34  35
ATOM     35  C   UNL     1       7.342  -1.060  -5.372  1.00  0.00     0.031 A 
ATOM     36  C   UNL     1       7.664  -2.162  -6.347  1.00  0.00     0.074 A 
ATOM     37  C   UNL     1       8.321  -0.276  -4.890  1.00  0.00     0.049 A 
ATOM     38  N   UNL     1       8.818  -2.512  -6.856  1.00  0.00    -0.248 NA
ATOM     39  C   UNL     1       6.531  -2.977  -6.815  1.00  0.00     0.031 C 
ATOM     40  C   UNL     1       8.130   0.839  -3.966  1.00  0.00     0.029 A 
ATOM     41  N   UNL     1       9.672  -0.288  -5.130  1.00  0.00    -0.354 N 
ATOM     42  C   UNL     1       8.549  -3.580  -7.703  1.00  0.00     0.074 A 
ATOM     43  C   UNL     1       7.132  -3.852  -7.607  1.00  0.00     0.031 C 
ATOM     44  C   UNL     1       9.320   1.414  -3.724  1.00  0.00     0.029 A 
ATOM     45  C   UNL     1      10.358   0.696  -4.462  1.00  0.00     0.049 A 
ATOM     46  H   UNL     1      10.108  -0.940  -5.725  1.00  0.00     0.167 HD
ATOM     47  C   UNL     1       9.402  -4.261  -8.505  1.00  0.00     0.037 A 
ATOM     48  C   UNL     1      11.674   0.982  -4.452  1.00  0.00     0.037 A 
ATOM     49  C   UNL     1      10.811  -3.987  -8.605  1.00  0.00     0.049 A 
ATOM     50  C   UNL     1      12.610   0.178  -5.317  1.00  0.00     0.074 A 
ATOM     51  C   UNL     1      11.759  -4.609  -9.397  1.00  0.00     0.029 A 
ATOM     52  N   UNL     1      11.476  -3.008  -7.881  1.00  0.00    -0.354 N 
ATOM     53  N   UNL     1      12.340  -0.805  -6.142  1.00  0.00    -0.248 NA
ATOM     54  C   UNL     1      14.034   0.535  -5.258  1.00  0.00     0.031 C 
ATOM     55  C   UNL     1      13.006  -4.041  -9.116  1.00  0.00     0.029 A 
ATOM     56  C   UNL     1      12.826  -3.025  -8.191  1.00  0.00     0.049 A 
ATOM     57  H   UNL     1      11.051  -2.392  -7.241  1.00  0.00     0.167 HD
ATOM     58  C   UNL     1      13.551  -1.162  -6.722  1.00  0.00     0.074 A 
ATOM     59  C   UNL     1      14.554  -0.278  -6.167  1.00  0.00     0.031 C 
ATOM     60  C   UNL     1      13.811  -2.133  -7.632  1.00  0.00     0.037 A 
BRANCH  47  61
ATOM     61  C   UNL     1       8.834  -5.384  -9.324  1.00  0.00     0.064 A 
ATOM     62  C   UNL     1       7.987  -5.146 -10.418  1.00  0.00     0.173 A 
ATOM     63  C   UNL     1       9.162  -6.716  -9.026  1.00  0.00     0.173 A 
ATOM     64  F   UNL     1       7.631  -3.893 -10.735  1.00  0.00    -0.203 F 
ATOM     65  C   UNL     1       7.469  -6.201 -11.165  1.00  0.00     0.198 A 
ATOM     66  C   UNL     1       8.665  -7.766  -9.794  1.00  0.00     0.198 A 
ATOM     67  F   UNL     1       9.969  -6.999  -7.993  1.00  0.00    -0.203 F 
ATOM     68  F   UNL     1       6.623  -5.952 -12.175  1.00  0.00    -0.200 F 
ATOM     69  C   UNL     1       7.813  -7.508 -10.858  1.00  0.00     0.200 A 
ATOM     70  F   UNL     1       9.009  -9.028  -9.502  1.00  0.00    -0.200 F 
ATOM     71  F   UNL     1       7.318  -8.522 -11.582  1.00  0.00    -0.200 F 
ENDBRANCH  47  61
BRANCH  48  72
ATOM     72  C   UNL     1      12.186   2.088  -3.601  1.00  0.00     0.064 A 
ATOM     73  C   UNL     1      12.712   3.257  -4.168  1.00  0.00     0.173 A 
ATOM     74  C   UNL     1      12.178   1.988  -2.202  1.00  0.00     0.173 A 
ATOM     75  F   UNL     1      12.764   3.391  -5.501  1.00  0.00    -0.203 F 
ATOM     76  C   UNL     1      13.229   4.275  -3.368  1.00  0.00     0.198 A 
ATOM     77  C   UNL     1      12.668   3.019  -1.403  1.00  0.00     0.198 A 
ATOM     78  F   UNL     1      11.685   0.890  -1.610  1.00  0.00    -0.203 F 
ATOM     79  F   UNL     1      13.771   5.361  -3.937  1.00  0.00    -0.200 F 
ATOM     80  C   UNL     1      13.201   4.157  -1.987  1.00  0.00     0.200 A 
ATOM     81  F   UNL     1      12.626   2.906  -0.069  1.00  0.00    -0.200 F 
ATOM     82  F   UNL     1      13.696   5.137  -1.218  1.00  0.00    -0.200 F 
ENDBRANCH  48  72
BRANCH  60  83
ATOM     83  C   UNL     1      15.228  -2.265  -8.111  1.00  0.00     0.064 A 
ATOM     84  C   UNL     1      16.247  -2.754  -7.280  1.00  0.00     0.173 A 
ATOM     85  C   UNL     1      15.567  -1.919  -9.429  1.00  0.00     0.173 A 
ATOM     86  F   UNL     1      15.979  -3.087  -6.008  1.00  0.00    -0.203 F 
ATOM     87  C   UNL     1      17.558  -2.856  -7.737  1.00  0.00     0.198 A 
ATOM     88  C   UNL     1      16.872  -2.054  -9.893  1.00  0.00     0.198 A 
ATOM     89  F   UNL     1      14.629  -1.456 -10.269  1.00  0.00    -0.203 F 
ATOM     90  F   UNL     1      18.525  -3.269  -6.907  1.00  0.00    -0.200 F 
ATOM     91  C   UNL     1      17.868  -2.511  -9.045  1.00  0.00     0.200 A 
ATOM     92  F   UNL     1      17.167  -1.735 -11.161  1.00  0.00    -0.200 F 
ATOM     93  F   UNL     1      19.131  -2.611  -9.483  1.00  0.00    -0.200 F 
ENDBRANCH  60  83
ENDBRANCH  34  35
ENDBRANCH  27  29
ENDBRANCH  26  27
ENDBRANCH  25  26
ENDBRANCH  24  25
ENDBRANCH  23  24
ENDBRANCH   1  23
TORSDOF 17
