REMARK SMILES Cc1ccc(S(=O)(=O)n2cc(C(=O)C(=O)N[C@@H](Cc3cnc[nH]3)C(=O)OCCOCCOC(=O)c3ccc(-c4c5nc(c(-c6c(F)c(F)c(F)c(F)c6F)c6ccc([nH]6)c(-c6c(F)c(F)c(F)c(F)c6F)c6nc(c(-c7c(F)c(F)c(F)c(F)c7F)c7ccc4[nH]7)C=C6)C=C5)cc3)c3ccccc32)cc1
REMARK SMILES IDX 27 1 26 2 24 3 25 4 17 5 16 6 14 7 15 8 12 10 13 11 11 12
REMARK SMILES IDX 9 13 10 14 103 15 98 16 102 17 99 18 101 19 100 20 6 21 7 22
REMARK SMILES IDX 8 23 5 24 1 25 2 26 3 27 105 28 4 29 104 30 18 31 19 32
REMARK SMILES IDX 20 33 23 34 21 35 22 36 28 38 29 39 30 40 31 41 32 42 33 43
REMARK SMILES IDX 34 44 35 45 36 46 97 47 37 48 96 49 38 50 39 51 40 52 90 53
REMARK SMILES IDX 41 54 95 55 89 56 91 57 42 58 94 59 88 60 87 61 43 63 75 64
REMARK SMILES IDX 55 65 74 66 56 67 59 68 73 69 92 70 57 71 58 72 72 74 93 75
REMARK SMILES IDX 60 76 44 77 45 78 53 79 46 80 47 81 51 82 54 83 48 84 49 85
REMARK SMILES IDX 52 86 50 87 76 88 77 89 85 90 78 91 79 92 83 93 86 94 80 95
REMARK SMILES IDX 81 96 84 97 82 98 61 99 62 100 70 101 63 102 64 103 68 104
REMARK SMILES IDX 71 105 65 106 66 107 69 108 67 109
REMARK H PARENT 16 9 23 37 91 62 59 73
REMARK Flexibility Score: inf
ROOT
ATOM      1  C   UNL     1      -6.957   7.017   4.922  1.00  0.00     0.261 C 
ENDROOT
BRANCH   1   2
ATOM      2  O   UNL     1      -7.996   6.456   4.130  1.00  0.00    -0.462 OA
BRANCH   2   3
ATOM      3  C   UNL     1      -7.982   6.891   2.828  1.00  0.00     0.329 C 
ATOM      4  O   UNL     1      -7.906   8.062   2.485  1.00  0.00    -0.250 OA
BRANCH   3   5
ATOM      5  C   UNL     1      -8.260   5.719   1.896  1.00  0.00     0.198 C 
BRANCH   5   6
ATOM      6  N   UNL     1      -7.749   4.492   2.538  1.00  0.00    -0.335 N 
ATOM      7  C   UNL     1      -6.509   3.925   2.420  1.00  0.00     0.293 C 
ATOM      8  O   UNL     1      -6.119   3.083   3.219  1.00  0.00    -0.265 OA
ATOM      9  H   UNL     1      -8.381   4.021   3.128  1.00  0.00     0.164 HD
BRANCH   7  10
ATOM     10  C   UNL     1      -5.608   4.371   1.274  1.00  0.00     0.252 C 
ATOM     11  O   UNL     1      -5.446   5.577   1.113  1.00  0.00    -0.283 OA
BRANCH  10  12
ATOM     12  C   UNL     1      -4.983   3.377   0.414  1.00  0.00     0.054 A 
ATOM     13  N   UNL     1      -4.109   1.474  -0.336  1.00  0.00    -0.240 N 
ATOM     14  C   UNL     1      -4.823   2.033   0.690  1.00  0.00     0.117 A 
ATOM     15  C   UNL     1      -3.834   2.405  -1.316  1.00  0.00     0.065 A 
ATOM     16  C   UNL     1      -4.384   3.612  -0.864  1.00  0.00     0.012 A 
ATOM     17  C   UNL     1      -3.123   2.331  -2.526  1.00  0.00     0.028 A 
ATOM     18  C   UNL     1      -4.250   4.766  -1.664  1.00  0.00     0.011 A 
ATOM     19  C   UNL     1      -2.979   3.499  -3.281  1.00  0.00     0.002 A 
ATOM     20  C   UNL     1      -3.543   4.699  -2.864  1.00  0.00     0.001 A 
BRANCH  13  21
ATOM     21  S   UNL     1      -3.507  -0.117  -0.295  1.00  0.00     0.268 S 
ATOM     22  O   UNL     1      -3.769  -0.659  -1.608  1.00  0.00    -0.201 OA
ATOM     23  O   UNL     1      -4.061  -0.715   0.913  1.00  0.00    -0.201 OA
BRANCH  21  24
ATOM     24  C   UNL     1      -1.751  -0.024  -0.075  1.00  0.00     0.088 A 
ATOM     25  C   UNL     1       2.546  -0.035   0.038  1.00  0.00     0.044 C 
ATOM     26  C   UNL     1       1.046  -0.026   0.039  1.00  0.00    -0.051 A 
ATOM     27  C   UNL     1       0.343  -1.234  -0.046  1.00  0.00     0.005 A 
ATOM     28  C   UNL     1       0.335   1.177   0.114  1.00  0.00     0.005 A 
ATOM     29  C   UNL     1      -1.051  -1.235  -0.108  1.00  0.00     0.022 A 
ATOM     30  C   UNL     1      -1.062   1.182   0.071  1.00  0.00     0.022 A 
ENDBRANCH  21  24
ENDBRANCH  13  21
ENDBRANCH  10  12
ENDBRANCH   7  10
ENDBRANCH   5   6
BRANCH   5  31
ATOM     31  C   UNL     1      -9.770   5.654   1.627  1.00  0.00     0.092 C 
BRANCH  31  32
ATOM     32  C   UNL     1     -10.513   4.897   2.677  1.00  0.00     0.037 A 
ATOM     33  C   UNL     1     -10.799   3.552   2.784  1.00  0.00     0.134 A 
ATOM     34  N   UNL     1     -10.997   5.450   3.835  1.00  0.00    -0.348 N 
ATOM     35  N   UNL     1     -11.443   3.284   3.956  1.00  0.00    -0.245 NA
ATOM     36  C   UNL     1     -11.579   4.444   4.548  1.00  0.00     0.196 A 
ATOM     37  H   UNL     1     -10.935   6.396   4.101  1.00  0.00     0.167 HD
ENDBRANCH  31  32
ENDBRANCH   5  31
ENDBRANCH   3   5
ENDBRANCH   2   3
ENDBRANCH   1   2
BRANCH   1  38
ATOM     38  C   UNL     1      -5.821   6.068   5.087  1.00  0.00     0.202 C 
BRANCH  38  39
ATOM     39  O   UNL     1      -4.788   6.514   4.234  1.00  0.00    -0.374 OA
BRANCH  39  40
ATOM     40  C   UNL     1      -3.599   5.744   4.353  1.00  0.00     0.202 C 
BRANCH  40  41
ATOM     41  C   UNL     1      -3.095   5.558   5.800  1.00  0.00     0.261 C 
BRANCH  41  42
ATOM     42  O   UNL     1      -2.845   6.851   6.392  1.00  0.00    -0.460 OA
BRANCH  42  43
ATOM     43  C   UNL     1      -3.527   7.159   7.533  1.00  0.00     0.338 C 
ATOM     44  O   UNL     1      -3.751   6.397   8.457  1.00  0.00    -0.246 OA
BRANCH  43  45
ATOM     45  C   UNL     1      -4.262   8.444   7.323  1.00  0.00     0.060 A 
ATOM     46  C   UNL     1      -5.292   8.822   8.204  1.00  0.00     0.016 A 
ATOM     47  C   UNL     1      -4.199   9.017   6.060  1.00  0.00     0.016 A 
ATOM     48  C   UNL     1      -6.377   9.584   7.741  1.00  0.00     0.010 A 
ATOM     49  C   UNL     1      -5.321   9.655   5.583  1.00  0.00     0.010 A 
ATOM     50  C   UNL     1      -6.447   9.889   6.390  1.00  0.00    -0.014 A 
BRANCH  50  51
ATOM     51  C   UNL     1      -7.624  10.401   5.673  1.00  0.00     0.031 A 
ATOM     52  C   UNL     1      -7.473  11.729   5.032  1.00  0.00     0.074 A 
ATOM     53  C   UNL     1      -8.724   9.643   5.401  1.00  0.00     0.049 A 
ATOM     54  N   UNL     1      -8.462  12.481   4.704  1.00  0.00    -0.248 NA
ATOM     55  C   UNL     1      -6.184  12.355   4.746  1.00  0.00     0.031 C 
ATOM     56  C   UNL     1      -9.752   9.869   4.379  1.00  0.00     0.029 A 
ATOM     57  N   UNL     1      -9.180   8.453   6.004  1.00  0.00    -0.354 N 
ATOM     58  C   UNL     1      -7.973  13.473   3.883  1.00  0.00     0.074 A 
ATOM     59  C   UNL     1      -6.549  13.436   4.061  1.00  0.00     0.031 C 
ATOM     60  C   UNL     1     -10.822   9.092   4.639  1.00  0.00     0.029 A 
ATOM     61  C   UNL     1     -10.579   8.429   5.912  1.00  0.00     0.049 A 
ATOM     62  H   UNL     1      -8.615   7.760   6.416  1.00  0.00     0.167 HD
ATOM     63  C   UNL     1      -8.833  14.093   3.025  1.00  0.00     0.037 A 
ATOM     64  C   UNL     1     -11.330   8.419   7.047  1.00  0.00     0.037 A 
ATOM     65  C   UNL     1     -10.185  13.509   3.155  1.00  0.00     0.049 A 
ATOM     66  C   UNL     1     -12.088   9.708   7.121  1.00  0.00     0.074 A 
ATOM     67  C   UNL     1     -10.956  12.667   2.369  1.00  0.00     0.029 A 
ATOM     68  N   UNL     1     -10.793  13.491   4.406  1.00  0.00    -0.354 N 
ATOM     69  N   UNL     1     -11.873  10.676   6.274  1.00  0.00    -0.248 NA
ATOM     70  C   UNL     1     -13.106  10.044   8.098  1.00  0.00     0.031 C 
ATOM     71  C   UNL     1     -12.054  12.193   3.156  1.00  0.00     0.029 A 
ATOM     72  C   UNL     1     -11.960  12.752   4.420  1.00  0.00     0.049 A 
ATOM     73  H   UNL     1     -10.431  13.954   5.196  1.00  0.00     0.167 HD
ATOM     74  C   UNL     1     -12.727  11.698   6.488  1.00  0.00     0.074 A 
ATOM     75  C   UNL     1     -13.418  11.297   7.710  1.00  0.00     0.031 C 
ATOM     76  C   UNL     1     -12.787  12.759   5.627  1.00  0.00     0.037 A 
BRANCH  63  77
ATOM     77  C   UNL     1      -8.415  15.040   1.906  1.00  0.00     0.064 A 
ATOM     78  C   UNL     1      -9.311  15.347   0.860  1.00  0.00     0.173 A 
ATOM     79  C   UNL     1      -7.163  15.688   1.788  1.00  0.00     0.173 A 
ATOM     80  F   UNL     1     -10.573  14.899   0.869  1.00  0.00    -0.203 F 
ATOM     81  C   UNL     1      -8.959  16.150  -0.234  1.00  0.00     0.198 A 
ATOM     82  C   UNL     1      -6.791  16.446   0.670  1.00  0.00     0.198 A 
ATOM     83  F   UNL     1      -6.270  15.702   2.779  1.00  0.00    -0.203 F 
ATOM     84  F   UNL     1      -9.868  16.411  -1.183  1.00  0.00    -0.200 F 
ATOM     85  C   UNL     1      -7.690  16.678  -0.343  1.00  0.00     0.200 A 
ATOM     86  F   UNL     1      -5.558  16.970   0.604  1.00  0.00    -0.200 F 
ATOM     87  F   UNL     1      -7.351  17.437  -1.393  1.00  0.00    -0.200 F 
ENDBRANCH  63  77
BRANCH  64  88
ATOM     88  C   UNL     1     -10.684   7.608   8.133  1.00  0.00     0.064 A 
ATOM     89  C   UNL     1     -10.601   6.223   7.884  1.00  0.00     0.173 A 
ATOM     90  C   UNL     1      -9.685   8.151   8.947  1.00  0.00     0.173 A 
ATOM     91  F   UNL     1     -11.611   5.616   7.254  1.00  0.00    -0.203 F 
ATOM     92  C   UNL     1      -9.435   5.498   8.138  1.00  0.00     0.198 A 
ATOM     93  C   UNL     1      -8.553   7.396   9.283  1.00  0.00     0.198 A 
ATOM     94  F   UNL     1      -9.719   9.450   9.274  1.00  0.00    -0.203 F 
ATOM     95  F   UNL     1      -9.297   4.254   7.659  1.00  0.00    -0.200 F 
ATOM     96  C   UNL     1      -8.385   6.109   8.793  1.00  0.00     0.200 A 
ATOM     97  F   UNL     1      -7.570   7.956  10.002  1.00  0.00    -0.200 F 
ATOM     98  F   UNL     1      -7.207   5.480   8.911  1.00  0.00    -0.200 F 
ENDBRANCH  64  88
BRANCH  76  99
ATOM     99  C   UNL     1     -13.616  13.965   5.923  1.00  0.00     0.064 A 
ATOM    100  C   UNL     1     -14.858  13.887   6.559  1.00  0.00     0.173 A 
ATOM    101  C   UNL     1     -13.159  15.262   5.605  1.00  0.00     0.173 A 
ATOM    102  F   UNL     1     -15.491  12.712   6.698  1.00  0.00    -0.203 F 
ATOM    103  C   UNL     1     -15.478  15.024   7.065  1.00  0.00     0.198 A 
ATOM    104  C   UNL     1     -13.815  16.398   6.049  1.00  0.00     0.198 A 
ATOM    105  F   UNL     1     -12.052  15.482   4.888  1.00  0.00    -0.203 F 
ATOM    106  F   UNL     1     -16.585  14.895   7.806  1.00  0.00    -0.200 F 
ATOM    107  C   UNL     1     -14.942  16.277   6.831  1.00  0.00     0.200 A 
ATOM    108  F   UNL     1     -13.319  17.605   5.744  1.00  0.00    -0.200 F 
ATOM    109  F   UNL     1     -15.515  17.369   7.351  1.00  0.00    -0.200 F 
ENDBRANCH  76  99
ENDBRANCH  50  51
ENDBRANCH  43  45
ENDBRANCH  42  43
ENDBRANCH  41  42
ENDBRANCH  40  41
ENDBRANCH  39  40
ENDBRANCH  38  39
ENDBRANCH   1  38
TORSDOF 21
