REMARK SMILES C[C@H](NC(=O)c1c(C(=O)OCCOCCOC(=O)c2ccc(-c3c4nc(c(-c5c(F)c(F)c(F)c(F)c5F)c5ccc([nH]5)c(-c5c(F)c(F)c(F)c(F)c5F)c5nc(c(-c6c(F)c(F)c(F)c(F)c6F)c6ccc3[nH]6)C=C5)C=C4)cc2)cnn1C)[C@]12C[C@H]3C[C@H](C[C@H](C3)C1)C2
REMARK SMILES IDX 12 1 11 2 10 3 8 4 9 5 7 6 6 7 84 8 82 9 83 10 85 11 4 12
REMARK SMILES IDX 3 13 5 15 2 16 1 17 86 18 87 19 94 20 95 21 88 22 92 23
REMARK SMILES IDX 90 24 89 25 93 26 91 27 13 28 14 29 15 30 16 31 17 32 18 33
REMARK SMILES IDX 19 34 20 35 81 36 21 37 80 38 22 39 23 40 24 41 74 42 25 43
REMARK SMILES IDX 79 44 73 45 75 46 26 47 78 48 72 49 71 50 27 52 59 53 39 54
REMARK SMILES IDX 58 55 40 56 43 57 57 58 76 59 41 60 42 61 56 63 77 64 44 65
REMARK SMILES IDX 28 66 29 67 37 68 30 69 31 70 35 71 38 72 32 73 33 74 36 75
REMARK SMILES IDX 34 76 60 77 61 78 69 79 62 80 63 81 67 82 70 83 64 84 65 85
REMARK SMILES IDX 68 86 66 87 45 88 46 89 54 90 47 91 48 92 52 93 55 94 49 95
REMARK SMILES IDX 50 96 53 97 51 98
REMARK H PARENT 3 14 75 51 43 62
REMARK Flexibility Score: inf
ROOT
ATOM      1  C   UNL     1       6.065  -2.038   1.986  1.00  0.00     0.202 C 
ENDROOT
BRANCH   1   2
ATOM      2  C   UNL     1       6.284  -1.342   0.643  1.00  0.00     0.261 C 
BRANCH   2   3
ATOM      3  O   UNL     1       5.096  -1.430  -0.165  1.00  0.00    -0.460 OA
BRANCH   3   4
ATOM      4  C   UNL     1       5.167  -2.332  -1.181  1.00  0.00     0.342 C 
ATOM      5  O   UNL     1       6.180  -2.952  -1.486  1.00  0.00    -0.246 OA
BRANCH   4   6
ATOM      6  C   UNL     1       3.906  -2.586  -1.847  1.00  0.00     0.111 A 
ATOM      7  C   UNL     1       2.701  -1.883  -1.877  1.00  0.00     0.140 A 
ATOM      8  N   UNL     1       1.964  -2.525  -2.847  1.00  0.00    -0.262 N 
ATOM      9  C   UNL     1       3.669  -3.725  -2.651  1.00  0.00     0.151 A 
ATOM     10  N   UNL     1       2.462  -3.720  -3.208  1.00  0.00    -0.180 NA
ATOM     11  C   UNL     1       0.852  -2.007  -3.608  1.00  0.00     0.174 C 
BRANCH   7  12
ATOM     12  C   UNL     1       2.311  -0.644  -1.261  1.00  0.00     0.270 C 
ATOM     13  N   UNL     1       1.102  -0.583  -0.597  1.00  0.00    -0.348 N 
ATOM     14  H   UNL     1       0.678   0.305  -0.563  1.00  0.00     0.164 HD
ATOM     15  O   UNL     1       2.982   0.382  -1.339  1.00  0.00    -0.267 OA
BRANCH  13  16
ATOM     16  C   UNL     1       0.362  -1.671   0.066  1.00  0.00     0.085 C 
ATOM     17  C   UNL     1       0.952  -1.820   1.474  1.00  0.00     0.031 C 
BRANCH  16  18
ATOM     18  C   UNL     1      -1.207  -1.475   0.056  1.00  0.00    -0.009 C 
ATOM     19  C   UNL     1      -1.897  -2.348   1.149  1.00  0.00     0.012 C 
ATOM     20  C   UNL     1      -1.779  -1.921  -1.319  1.00  0.00     0.012 C 
ATOM     21  C   UNL     1      -1.653  -0.003   0.284  1.00  0.00     0.012 C 
ATOM     22  C   UNL     1      -3.428  -2.218   1.103  1.00  0.00    -0.010 C 
ATOM     23  C   UNL     1      -3.312  -1.805  -1.369  1.00  0.00    -0.010 C 
ATOM     24  C   UNL     1      -3.191   0.129   0.234  1.00  0.00    -0.010 C 
ATOM     25  C   UNL     1      -3.817  -0.749   1.327  1.00  0.00     0.007 C 
ATOM     26  C   UNL     1      -3.930  -2.680  -0.270  1.00  0.00     0.007 C 
ATOM     27  C   UNL     1      -3.707  -0.340  -1.137  1.00  0.00     0.007 C 
ENDBRANCH  16  18
ENDBRANCH  13  16
ENDBRANCH   7  12
ENDBRANCH   4   6
ENDBRANCH   3   4
ENDBRANCH   2   3
ENDBRANCH   1   2
BRANCH   1  28
ATOM     28  O   UNL     1       5.830  -3.442   1.880  1.00  0.00    -0.374 OA
BRANCH  28  29
ATOM     29  C   UNL     1       4.458  -3.837   1.784  1.00  0.00     0.202 C 
BRANCH  29  30
ATOM     30  C   UNL     1       3.751  -3.954   3.139  1.00  0.00     0.261 C 
BRANCH  30  31
ATOM     31  O   UNL     1       3.465  -2.643   3.668  1.00  0.00    -0.460 OA
BRANCH  31  32
ATOM     32  C   UNL     1       4.167  -2.295   4.772  1.00  0.00     0.338 C 
ATOM     33  O   UNL     1       4.878  -3.015   5.452  1.00  0.00    -0.246 OA
BRANCH  32  34
ATOM     34  C   UNL     1       4.104  -0.829   4.959  1.00  0.00     0.060 A 
ATOM     35  C   UNL     1       5.296  -0.175   5.295  1.00  0.00     0.016 A 
ATOM     36  C   UNL     1       2.914  -0.105   4.837  1.00  0.00     0.016 A 
ATOM     37  C   UNL     1       5.294   1.192   5.564  1.00  0.00     0.010 A 
ATOM     38  C   UNL     1       2.911   1.268   5.114  1.00  0.00     0.010 A 
ATOM     39  C   UNL     1       4.095   1.915   5.514  1.00  0.00    -0.014 A 
BRANCH  39  40
ATOM     40  C   UNL     1       4.064   3.302   6.037  1.00  0.00     0.031 A 
ATOM     41  C   UNL     1       3.618   3.533   7.455  1.00  0.00     0.074 A 
ATOM     42  C   UNL     1       4.480   4.337   5.286  1.00  0.00     0.049 A 
ATOM     43  N   UNL     1       3.526   4.653   8.127  1.00  0.00    -0.248 NA
ATOM     44  C   UNL     1       3.227   2.338   8.220  1.00  0.00     0.031 C 
ATOM     45  C   UNL     1       4.976   4.242   3.916  1.00  0.00     0.029 A 
ATOM     46  N   UNL     1       4.555   5.676   5.581  1.00  0.00    -0.354 N 
ATOM     47  C   UNL     1       3.073   4.298   9.390  1.00  0.00     0.074 A 
ATOM     48  C   UNL     1       2.877   2.865   9.385  1.00  0.00     0.031 C 
ATOM     49  C   UNL     1       5.308   5.472   3.487  1.00  0.00     0.029 A 
ATOM     50  C   UNL     1       5.025   6.442   4.544  1.00  0.00     0.049 A 
ATOM     51  H   UNL     1       4.296   6.051   6.454  1.00  0.00     0.167 HD
ATOM     52  C   UNL     1       2.853   5.093  10.464  1.00  0.00     0.037 A 
ATOM     53  C   UNL     1       5.197   7.776   4.457  1.00  0.00     0.037 A 
ATOM     54  C   UNL     1       3.047   6.518  10.476  1.00  0.00     0.049 A 
ATOM     55  C   UNL     1       4.872   8.647   5.642  1.00  0.00     0.074 A 
ATOM     56  C   UNL     1       2.853   7.407  11.519  1.00  0.00     0.029 A 
ATOM     57  N   UNL     1       3.478   7.263   9.390  1.00  0.00    -0.354 N 
ATOM     58  N   UNL     1       4.456   8.302   6.836  1.00  0.00    -0.248 NA
ATOM     59  C   UNL     1       5.042  10.098   5.465  1.00  0.00     0.031 C 
ATOM     60  C   UNL     1       3.130   8.696  11.053  1.00  0.00     0.029 A 
ATOM     61  C   UNL     1       3.536   8.605   9.731  1.00  0.00     0.049 A 
ATOM     62  H   UNL     1       3.708   6.894   8.507  1.00  0.00     0.167 HD
ATOM     63  C   UNL     1       4.341   9.483   7.558  1.00  0.00     0.074 A 
ATOM     64  C   UNL     1       4.739  10.556   6.672  1.00  0.00     0.031 C 
ATOM     65  C   UNL     1       3.943   9.661   8.841  1.00  0.00     0.037 A 
BRANCH  52  66
ATOM     66  C   UNL     1       2.359   4.437  11.717  1.00  0.00     0.064 A 
ATOM     67  C   UNL     1       3.208   3.666  12.524  1.00  0.00     0.173 A 
ATOM     68  C   UNL     1       1.031   4.611  12.134  1.00  0.00     0.173 A 
ATOM     69  F   UNL     1       4.481   3.457  12.158  1.00  0.00    -0.203 F 
ATOM     70  C   UNL     1       2.740   3.078  13.696  1.00  0.00     0.198 A 
ATOM     71  C   UNL     1       0.573   4.041  13.318  1.00  0.00     0.198 A 
ATOM     72  F   UNL     1       0.181   5.341  11.396  1.00  0.00    -0.203 F 
ATOM     73  F   UNL     1       3.558   2.314  14.434  1.00  0.00    -0.200 F 
ATOM     74  C   UNL     1       1.426   3.271  14.096  1.00  0.00     0.200 A 
ATOM     75  F   UNL     1      -0.695   4.235  13.707  1.00  0.00    -0.200 F 
ATOM     76  F   UNL     1       0.978   2.710  15.227  1.00  0.00    -0.200 F 
ENDBRANCH  52  66
BRANCH  53  77
ATOM     77  C   UNL     1       5.705   8.378   3.198  1.00  0.00     0.064 A 
ATOM     78  C   UNL     1       6.988   8.938   3.132  1.00  0.00     0.173 A 
ATOM     79  C   UNL     1       4.910   8.427   2.044  1.00  0.00     0.173 A 
ATOM     80  F   UNL     1       7.773   8.942   4.220  1.00  0.00    -0.203 F 
ATOM     81  C   UNL     1       7.452   9.537   1.963  1.00  0.00     0.198 A 
ATOM     82  C   UNL     1       5.383   9.005   0.869  1.00  0.00     0.198 A 
ATOM     83  F   UNL     1       3.672   7.912   2.060  1.00  0.00    -0.203 F 
ATOM     84  F   UNL     1       8.665  10.104   1.939  1.00  0.00    -0.200 F 
ATOM     85  C   UNL     1       6.651   9.565   0.830  1.00  0.00     0.200 A 
ATOM     86  F   UNL     1       4.608   9.027  -0.224  1.00  0.00    -0.200 F 
ATOM     87  F   UNL     1       7.097  10.143  -0.293  1.00  0.00    -0.200 F 
ENDBRANCH  53  77
BRANCH  65  88
ATOM     88  C   UNL     1       3.948  11.062   9.379  1.00  0.00     0.064 A 
ATOM     89  C   UNL     1       2.973  11.996   9.002  1.00  0.00     0.173 A 
ATOM     90  C   UNL     1       4.911  11.457  10.320  1.00  0.00     0.173 A 
ATOM     91  F   UNL     1       2.039  11.669   8.096  1.00  0.00    -0.203 F 
ATOM     92  C   UNL     1       2.973  13.283   9.534  1.00  0.00     0.198 A 
ATOM     93  C   UNL     1       4.893  12.737  10.868  1.00  0.00     0.198 A 
ATOM     94  F   UNL     1       5.860  10.598  10.718  1.00  0.00    -0.203 F 
ATOM     95  F   UNL     1       2.054  14.172   9.132  1.00  0.00    -0.200 F 
ATOM     96  C   UNL     1       3.928  13.650  10.470  1.00  0.00     0.200 A 
ATOM     97  F   UNL     1       5.810  13.086  11.781  1.00  0.00    -0.200 F 
ATOM     98  F   UNL     1       3.922  14.887  10.986  1.00  0.00    -0.200 F 
ENDBRANCH  65  88
ENDBRANCH  39  40
ENDBRANCH  32  34
ENDBRANCH  31  32
ENDBRANCH  30  31
ENDBRANCH  29  30
ENDBRANCH  28  29
ENDBRANCH   1  28
TORSDOF 17
