REMARK SMILES Cc1cc2c(c(C)c1Cl)C=C(C(=O)OCCOCCOC(=O)c1ccc(-c3c4nc(c(-c5c(F)c(F)c(F)c(F)c5F)c5ccc([nH]5)c(-c5c(F)c(F)c(F)c(F)c5F)c5nc(c(-c6c(F)c(F)c(F)c(F)c6F)c6ccc3[nH]6)C=C5)C=C4)cc1)[C@H](C(F)(F)F)O2
REMARK SMILES IDX 18 1 17 2 16 3 15 4 14 5 12 6 13 7 11 8 1 9 2 10 3 11 8 12
REMARK SMILES IDX 4 13 6 14 9 15 5 16 91 17 7 18 10 19 86 20 87 21 88 22 89 23
REMARK SMILES IDX 90 24 19 25 20 26 21 27 22 28 23 29 24 30 85 31 25 32 84 33
REMARK SMILES IDX 26 34 27 35 28 36 78 37 29 38 83 39 77 40 79 41 30 42 82 43
REMARK SMILES IDX 76 44 75 45 31 47 63 48 43 49 62 50 44 51 47 52 61 53 80 54
REMARK SMILES IDX 45 55 46 56 60 58 81 59 48 60 32 61 33 62 41 63 34 64 35 65
REMARK SMILES IDX 39 66 42 67 36 68 37 69 40 70 38 71 64 72 65 73 73 74 66 75
REMARK SMILES IDX 67 76 71 77 74 78 68 79 69 80 72 81 70 82 49 83 50 84 58 85
REMARK SMILES IDX 51 86 52 87 56 88 59 89 53 90 54 91 57 92 55 93
REMARK H PARENT 79 46 47 57
REMARK Flexibility Score: inf
ROOT
ATOM      1  C   UNL     1      -1.470   8.144   2.944  1.00  0.00     0.202 C 
ENDROOT
BRANCH   1   2
ATOM      2  O   UNL     1      -2.066   9.299   2.349  1.00  0.00    -0.374 OA
BRANCH   2   3
ATOM      3  C   UNL     1      -3.490   9.311   2.247  1.00  0.00     0.202 C 
BRANCH   3   4
ATOM      4  C   UNL     1      -4.074   8.694   0.974  1.00  0.00     0.261 C 
BRANCH   4   5
ATOM      5  O   UNL     1      -3.812   7.280   0.945  1.00  0.00    -0.460 OA
BRANCH   5   6
ATOM      6  C   UNL     1      -2.822   6.916   0.106  1.00  0.00     0.338 C 
ATOM      7  O   UNL     1      -2.343   7.609  -0.778  1.00  0.00    -0.246 OA
BRANCH   6   8
ATOM      8  C   UNL     1      -2.297   5.584   0.467  1.00  0.00     0.087 C 
ATOM      9  C   UNL     1       0.855  -0.056   0.070  1.00  0.00     0.046 C 
ATOM     10  C   UNL     1       0.465   1.393   0.190  1.00  0.00    -0.028 A 
ATOM     11  C   UNL     1      -0.868   1.688   0.518  1.00  0.00     0.052 A 
ATOM     12  C   UNL     1       1.348   2.451  -0.110  1.00  0.00     0.047 A 
ATOM     13  C   UNL     1      -1.324   3.002   0.538  1.00  0.00     0.128 A 
ATOM     14  C   UNL     1       0.913   3.795  -0.058  1.00  0.00    -0.021 A 
ATOM     15  Cl  UNL     1       2.972   2.078  -0.603  1.00  0.00    -0.084 Cl
ATOM     16  C   UNL     1      -0.447   4.054   0.246  1.00  0.00     0.022 A 
ATOM     17  O   UNL     1      -2.669   3.165   0.762  1.00  0.00    -0.475 OA
ATOM     18  C   UNL     1       1.842   4.950  -0.359  1.00  0.00     0.047 C 
ATOM     19  C   UNL     1      -1.017   5.389   0.126  1.00  0.00     0.027 C 
ATOM     20  C   UNL     1      -3.155   4.507   1.065  1.00  0.00     0.316 C 
BRANCH  20  21
ATOM     21  C   UNL     1      -3.386   4.607   2.588  1.00  0.00     0.430 C 
ATOM     22  F   UNL     1      -2.256   4.373   3.296  1.00  0.00    -0.167 F 
ATOM     23  F   UNL     1      -3.853   5.813   2.978  1.00  0.00    -0.167 F 
ATOM     24  F   UNL     1      -4.310   3.698   2.992  1.00  0.00    -0.167 F 
ENDBRANCH  20  21
ENDBRANCH   6   8
ENDBRANCH   5   6
ENDBRANCH   4   5
ENDBRANCH   3   4
ENDBRANCH   2   3
ENDBRANCH   1   2
BRANCH   1  25
ATOM     25  C   UNL     1      -1.504   8.061   4.476  1.00  0.00     0.261 C 
BRANCH  25  26
ATOM     26  O   UNL     1      -2.840   7.845   4.966  1.00  0.00    -0.460 OA
BRANCH  26  27
ATOM     27  C   UNL     1      -3.429   8.929   5.522  1.00  0.00     0.338 C 
ATOM     28  O   UNL     1      -2.913  10.012   5.757  1.00  0.00    -0.246 OA
BRANCH  27  29
ATOM     29  C   UNL     1      -4.886   8.709   5.619  1.00  0.00     0.060 A 
ATOM     30  C   UNL     1      -5.722   9.715   5.115  1.00  0.00     0.016 A 
ATOM     31  C   UNL     1      -5.431   7.569   6.214  1.00  0.00     0.016 A 
ATOM     32  C   UNL     1      -7.103   9.613   5.255  1.00  0.00     0.010 A 
ATOM     33  C   UNL     1      -6.820   7.473   6.364  1.00  0.00     0.010 A 
ATOM     34  C   UNL     1      -7.659   8.512   5.920  1.00  0.00    -0.014 A 
BRANCH  34  35
ATOM     35  C   UNL     1      -9.094   8.543   6.298  1.00  0.00     0.031 A 
ATOM     36  C   UNL     1      -9.462   8.927   7.706  1.00  0.00     0.074 A 
ATOM     37  C   UNL     1     -10.057   8.301   5.391  1.00  0.00     0.049 A 
ATOM     38  N   UNL     1     -10.644   9.014   8.261  1.00  0.00    -0.248 NA
ATOM     39  C   UNL     1      -8.348   9.264   8.609  1.00  0.00     0.031 C 
ATOM     40  C   UNL     1      -9.831   7.979   3.985  1.00  0.00     0.029 A 
ATOM     41  N   UNL     1     -11.425   8.296   5.522  1.00  0.00    -0.354 N 
ATOM     42  C   UNL     1     -10.416   9.420   9.570  1.00  0.00     0.074 A 
ATOM     43  C   UNL     1      -8.984   9.523   9.742  1.00  0.00     0.031 C 
ATOM     44  C   UNL     1     -11.020   7.812   3.379  1.00  0.00     0.029 A 
ATOM     45  C   UNL     1     -12.089   7.980   4.362  1.00  0.00     0.049 A 
ATOM     46  H   UNL     1     -11.886   8.500   6.368  1.00  0.00     0.167 HD
ATOM     47  C   UNL     1     -11.321   9.703  10.535  1.00  0.00     0.037 A 
ATOM     48  C   UNL     1     -13.408   7.830   4.128  1.00  0.00     0.037 A 
ATOM     49  C   UNL     1     -12.746   9.607  10.363  1.00  0.00     0.049 A 
ATOM     50  C   UNL     1     -14.390   8.048   5.253  1.00  0.00     0.074 A 
ATOM     51  C   UNL     1     -13.743   9.869  11.287  1.00  0.00     0.029 A 
ATOM     52  N   UNL     1     -13.378   9.220   9.191  1.00  0.00    -0.354 N 
ATOM     53  N   UNL     1     -14.167   8.440   6.484  1.00  0.00    -0.248 NA
ATOM     54  C   UNL     1     -15.809   7.801   4.955  1.00  0.00     0.031 C 
ATOM     55  C   UNL     1     -14.975   9.591  10.691  1.00  0.00     0.029 A 
ATOM     56  C   UNL     1     -14.751   9.213   9.378  1.00  0.00     0.049 A 
ATOM     57  H   UNL     1     -12.919   8.986   8.352  1.00  0.00     0.167 HD
ATOM     58  C   UNL     1     -15.413   8.518   7.094  1.00  0.00     0.074 A 
ATOM     59  C   UNL     1     -16.392   8.147   6.095  1.00  0.00     0.031 C 
ATOM     60  C   UNL     1     -15.717   8.861   8.370  1.00  0.00     0.037 A 
BRANCH  47  61
ATOM     61  C   UNL     1     -10.810  10.148  11.873  1.00  0.00     0.064 A 
ATOM     62  C   UNL     1     -10.267  11.428  12.058  1.00  0.00     0.173 A 
ATOM     63  C   UNL     1     -10.956   9.325  13.000  1.00  0.00     0.173 A 
ATOM     64  F   UNL     1     -10.095  12.246  11.009  1.00  0.00    -0.203 F 
ATOM     65  C   UNL     1      -9.886  11.867  13.323  1.00  0.00     0.198 A 
ATOM     66  C   UNL     1     -10.601   9.778  14.268  1.00  0.00     0.198 A 
ATOM     67  F   UNL     1     -11.474   8.094  12.877  1.00  0.00    -0.203 F 
ATOM     68  F   UNL     1      -9.350  13.085  13.474  1.00  0.00    -0.200 F 
ATOM     69  C   UNL     1     -10.066  11.048  14.428  1.00  0.00     0.200 A 
ATOM     70  F   UNL     1     -10.791   8.992  15.336  1.00  0.00    -0.200 F 
ATOM     71  F   UNL     1      -9.726  11.483  15.649  1.00  0.00    -0.200 F 
ENDBRANCH  47  61
BRANCH  48  72
ATOM     72  C   UNL     1     -13.889   7.450   2.772  1.00  0.00     0.064 A 
ATOM     73  C   UNL     1     -14.664   8.334   2.007  1.00  0.00     0.173 A 
ATOM     74  C   UNL     1     -13.608   6.190   2.223  1.00  0.00     0.173 A 
ATOM     75  F   UNL     1     -14.984   9.540   2.499  1.00  0.00    -0.203 F 
ATOM     76  C   UNL     1     -15.155   7.965   0.756  1.00  0.00     0.198 A 
ATOM     77  C   UNL     1     -14.072   5.835   0.958  1.00  0.00     0.198 A 
ATOM     78  F   UNL     1     -12.876   5.303   2.913  1.00  0.00    -0.203 F 
ATOM     79  F   UNL     1     -15.936   8.811   0.070  1.00  0.00    -0.200 F 
ATOM     80  C   UNL     1     -14.853   6.719   0.229  1.00  0.00     0.200 A 
ATOM     81  F   UNL     1     -13.767   4.634   0.447  1.00  0.00    -0.200 F 
ATOM     82  F   UNL     1     -15.321   6.367  -0.976  1.00  0.00    -0.200 F 
ENDBRANCH  48  72
BRANCH  60  83
ATOM     83  C   UNL     1     -17.166   8.887   8.765  1.00  0.00     0.064 A 
ATOM     84  C   UNL     1     -17.906   7.706   8.924  1.00  0.00     0.173 A 
ATOM     85  C   UNL     1     -17.797  10.103   9.075  1.00  0.00     0.173 A 
ATOM     86  F   UNL     1     -17.353   6.519   8.632  1.00  0.00    -0.203 F 
ATOM     87  C   UNL     1     -19.227   7.742   9.363  1.00  0.00     0.198 A 
ATOM     88  C   UNL     1     -19.107  10.132   9.545  1.00  0.00     0.198 A 
ATOM     89  F   UNL     1     -17.131  11.261   8.952  1.00  0.00    -0.203 F 
ATOM     90  F   UNL     1     -19.925   6.604   9.472  1.00  0.00    -0.200 F 
ATOM     91  C   UNL     1     -19.822   8.953   9.684  1.00  0.00     0.200 A 
ATOM     92  F   UNL     1     -19.673  11.302   9.875  1.00  0.00    -0.200 F 
ATOM     93  F   UNL     1     -21.087   8.983  10.127  1.00  0.00    -0.200 F 
ENDBRANCH  60  83
ENDBRANCH  34  35
ENDBRANCH  27  29
ENDBRANCH  26  27
ENDBRANCH  25  26
ENDBRANCH   1  25
TORSDOF 15
