REMARK SMILES O=C(Nc1cccc(F)c1C(=O)OCCOCCOC(=O)c1ccc(-c2c3nc(c(-c4c(F)c(F)c(F)c(F)c4F)c4ccc([nH]4)c(-c4c(F)c(F)c(F)c(F)c4F)c4nc(c(-c5c(F)c(F)c(F)c(F)c5F)c5ccc2[nH]5)C=C4)C=C3)cc1)c1ccc(Cl)nc1
REMARK SMILES IDX 16 1 15 2 14 3 13 4 11 5 12 6 10 7 4 8 5 9 6 10 8 11 7 12
REMARK SMILES IDX 9 13 3 14 1 15 2 16 85 18 86 19 91 20 87 21 90 22 88 23
REMARK SMILES IDX 89 24 17 25 18 26 19 27 20 28 21 29 22 30 23 31 84 32 24 33
REMARK SMILES IDX 83 34 25 35 26 36 27 37 77 38 28 39 82 40 76 41 78 42 29 43
REMARK SMILES IDX 81 44 75 45 74 46 30 48 62 49 42 50 61 51 43 52 46 53 60 54
REMARK SMILES IDX 79 55 44 56 45 57 59 59 80 60 47 61 31 62 32 63 40 64 33 65
REMARK SMILES IDX 34 66 38 67 41 68 35 69 36 70 39 71 37 72 63 73 64 74 72 75
REMARK SMILES IDX 65 76 66 77 70 78 73 79 67 80 68 81 71 82 69 83 48 84 49 85
REMARK SMILES IDX 57 86 50 87 51 88 55 89 58 90 52 91 53 92 56 93 54 94
REMARK H PARENT 3 17 78 47 46 58
REMARK Flexibility Score: inf
ROOT
ATOM      1  O   UNL     1       2.570   1.552   5.177  1.00  0.00    -0.374 OA
ENDROOT
BRANCH   1   2
ATOM      2  C   UNL     1       3.379   0.787   6.072  1.00  0.00     0.202 C 
BRANCH   2   3
ATOM      3  C   UNL     1       3.970  -0.496   5.487  1.00  0.00     0.261 C 
BRANCH   3   4
ATOM      4  O   UNL     1       4.916  -0.172   4.454  1.00  0.00    -0.460 OA
BRANCH   4   5
ATOM      5  C   UNL     1       4.698  -0.773   3.267  1.00  0.00     0.343 C 
ATOM      6  O   UNL     1       3.903  -1.675   3.032  1.00  0.00    -0.246 OA
BRANCH   5   7
ATOM      7  C   UNL     1       5.386  -0.034   2.201  1.00  0.00     0.119 A 
ATOM      8  C   UNL     1       4.675   0.352   1.050  1.00  0.00     0.059 A 
ATOM      9  C   UNL     1       5.366   0.980   0.004  1.00  0.00     0.027 A 
ATOM     10  C   UNL     1       6.743   1.202   0.094  1.00  0.00     0.005 A 
ATOM     11  C   UNL     1       6.758   0.193   2.283  1.00  0.00     0.139 A 
ATOM     12  C   UNL     1       7.439   0.808   1.235  1.00  0.00     0.040 A 
ATOM     13  F   UNL     1       7.458  -0.202   3.356  1.00  0.00    -0.206 F 
BRANCH   8  14
ATOM     14  N   UNL     1       3.275   0.162   0.972  1.00  0.00    -0.321 N 
ATOM     15  O   UNL     1       1.304   0.110  -0.155  1.00  0.00    -0.269 OA
ATOM     16  C   UNL     1       2.508  -0.129  -0.134  1.00  0.00     0.257 C 
ATOM     17  H   UNL     1       2.785   0.249   1.821  1.00  0.00     0.170 HD
BRANCH  16  18
ATOM     18  C   UNL     1       3.119  -0.856  -1.265  1.00  0.00     0.058 A 
ATOM     19  C   UNL     1       2.741  -0.573  -2.577  1.00  0.00     0.018 A 
ATOM     20  C   UNL     1       4.035  -1.881  -1.049  1.00  0.00     0.126 A 
ATOM     21  C   UNL     1       3.348  -1.273  -3.619  1.00  0.00     0.042 A 
ATOM     22  N   UNL     1       4.653  -2.563  -2.041  1.00  0.00    -0.244 NA
ATOM     23  C   UNL     1       4.295  -2.235  -3.298  1.00  0.00     0.129 A 
ATOM     24  Cl  UNL     1       5.121  -3.103  -4.522  1.00  0.00    -0.062 Cl
ENDBRANCH  16  18
ENDBRANCH   8  14
ENDBRANCH   5   7
ENDBRANCH   4   5
ENDBRANCH   3   4
ENDBRANCH   2   3
ENDBRANCH   1   2
BRANCH   1  25
ATOM     25  C   UNL     1       3.240   2.376   4.222  1.00  0.00     0.202 C 
BRANCH  25  26
ATOM     26  C   UNL     1       3.815   3.699   4.743  1.00  0.00     0.261 C 
BRANCH  26  27
ATOM     27  O   UNL     1       4.913   3.487   5.649  1.00  0.00    -0.460 OA
BRANCH  27  28
ATOM     28  C   UNL     1       4.663   3.829   6.932  1.00  0.00     0.338 C 
ATOM     29  O   UNL     1       3.658   4.367   7.376  1.00  0.00    -0.246 OA
BRANCH  28  30
ATOM     30  C   UNL     1       5.722   3.302   7.813  1.00  0.00     0.060 A 
ATOM     31  C   UNL     1       5.320   2.555   8.928  1.00  0.00     0.016 A 
ATOM     32  C   UNL     1       7.072   3.590   7.599  1.00  0.00     0.016 A 
ATOM     33  C   UNL     1       6.262   2.137   9.863  1.00  0.00     0.010 A 
ATOM     34  C   UNL     1       8.016   3.178   8.546  1.00  0.00     0.010 A 
ATOM     35  C   UNL     1       7.610   2.482   9.698  1.00  0.00    -0.014 A 
BRANCH  35  36
ATOM     36  C   UNL     1       8.562   2.239  10.807  1.00  0.00     0.031 A 
ATOM     37  C   UNL     1       8.879   3.361  11.754  1.00  0.00     0.074 A 
ATOM     38  C   UNL     1       9.098   1.022  10.997  1.00  0.00     0.049 A 
ATOM     39  N   UNL     1       9.684   3.376  12.786  1.00  0.00    -0.248 NA
ATOM     40  C   UNL     1       8.192   4.639  11.508  1.00  0.00     0.031 C 
ATOM     41  C   UNL     1       8.824  -0.155  10.177  1.00  0.00     0.029 A 
ATOM     42  N   UNL     1       9.981   0.576  11.948  1.00  0.00    -0.354 N 
ATOM     43  C   UNL     1       9.595   4.656  13.314  1.00  0.00     0.074 A 
ATOM     44  C   UNL     1       8.688   5.403  12.470  1.00  0.00     0.031 C 
ATOM     45  C   UNL     1       9.524  -1.194  10.662  1.00  0.00     0.029 A 
ATOM     46  C   UNL     1      10.317  -0.747  11.807  1.00  0.00     0.049 A 
ATOM     47  H   UNL     1      10.340   1.151  12.662  1.00  0.00     0.167 HD
ATOM     48  C   UNL     1      10.206   5.158  14.413  1.00  0.00     0.037 A 
ATOM     49  C   UNL     1      11.175  -1.505  12.516  1.00  0.00     0.037 A 
ATOM     50  C   UNL     1      11.114   4.416  15.247  1.00  0.00     0.049 A 
ATOM     51  C   UNL     1      11.914  -0.900  13.679  1.00  0.00     0.074 A 
ATOM     52  C   UNL     1      11.787   4.840  16.379  1.00  0.00     0.029 A 
ATOM     53  N   UNL     1      11.479   3.095  15.033  1.00  0.00    -0.354 N 
ATOM     54  N   UNL     1      11.829   0.312  14.170  1.00  0.00    -0.248 NA
ATOM     55  C   UNL     1      12.870  -1.767  14.384  1.00  0.00     0.031 C 
ATOM     56  C   UNL     1      12.595   3.789  16.825  1.00  0.00     0.029 A 
ATOM     57  C   UNL     1      12.387   2.695  16.000  1.00  0.00     0.049 A 
ATOM     58  H   UNL     1      11.143   2.527  14.303  1.00  0.00     0.167 HD
ATOM     59  C   UNL     1      12.701   0.350  15.250  1.00  0.00     0.074 A 
ATOM     60  C   UNL     1      13.301  -0.965  15.349  1.00  0.00     0.031 C 
ATOM     61  C   UNL     1      12.976   1.382  16.085  1.00  0.00     0.037 A 
BRANCH  48  62
ATOM     62  C   UNL     1       9.922   6.587  14.769  1.00  0.00     0.064 A 
ATOM     63  C   UNL     1      10.909   7.571  14.611  1.00  0.00     0.173 A 
ATOM     64  C   UNL     1       8.685   6.977  15.304  1.00  0.00     0.173 A 
ATOM     65  F   UNL     1      12.110   7.249  14.107  1.00  0.00    -0.203 F 
ATOM     66  C   UNL     1      10.671   8.891  14.982  1.00  0.00     0.198 A 
ATOM     67  C   UNL     1       8.441   8.304  15.650  1.00  0.00     0.198 A 
ATOM     68  F   UNL     1       7.703   6.076  15.461  1.00  0.00    -0.203 F 
ATOM     69  F   UNL     1      11.636   9.810  14.842  1.00  0.00    -0.200 F 
ATOM     70  C   UNL     1       9.436   9.258  15.495  1.00  0.00     0.200 A 
ATOM     71  F   UNL     1       7.239   8.661  16.122  1.00  0.00    -0.200 F 
ATOM     72  F   UNL     1       9.202  10.533  15.836  1.00  0.00    -0.200 F 
ENDBRANCH  48  62
BRANCH  49  73
ATOM     73  C   UNL     1      11.368  -2.929  12.141  1.00  0.00     0.064 A 
ATOM     74  C   UNL     1      12.032  -3.287  10.959  1.00  0.00     0.173 A 
ATOM     75  C   UNL     1      10.857  -3.958  12.942  1.00  0.00     0.173 A 
ATOM     76  F   UNL     1      12.541  -2.336  10.161  1.00  0.00    -0.203 F 
ATOM     77  C   UNL     1      12.155  -4.621  10.579  1.00  0.00     0.198 A 
ATOM     78  C   UNL     1      10.999  -5.294  12.572  1.00  0.00     0.198 A 
ATOM     79  F   UNL     1      10.236  -3.665  14.094  1.00  0.00    -0.203 F 
ATOM     80  F   UNL     1      12.764  -4.934   9.427  1.00  0.00    -0.200 F 
ATOM     81  C   UNL     1      11.639  -5.624  11.386  1.00  0.00     0.200 A 
ATOM     82  F   UNL     1      10.519  -6.261  13.365  1.00  0.00    -0.200 F 
ATOM     83  F   UNL     1      11.760  -6.908  11.022  1.00  0.00    -0.200 F 
ENDBRANCH  49  73
BRANCH  61  84
ATOM     84  C   UNL     1      13.957   1.140  17.195  1.00  0.00     0.064 A 
ATOM     85  C   UNL     1      13.521   1.077  18.527  1.00  0.00     0.173 A 
ATOM     86  C   UNL     1      15.335   1.056  16.948  1.00  0.00     0.173 A 
ATOM     87  F   UNL     1      12.214   1.161  18.815  1.00  0.00    -0.203 F 
ATOM     88  C   UNL     1      14.431   0.956  19.574  1.00  0.00     0.198 A 
ATOM     89  C   UNL     1      16.240   0.909  17.996  1.00  0.00     0.198 A 
ATOM     90  F   UNL     1      15.799   1.099  15.691  1.00  0.00    -0.203 F 
ATOM     91  F   UNL     1      13.994   0.933  20.840  1.00  0.00    -0.200 F 
ATOM     92  C   UNL     1      15.789   0.870  19.307  1.00  0.00     0.200 A 
ATOM     93  F   UNL     1      17.551   0.805  17.737  1.00  0.00    -0.200 F 
ATOM     94  F   UNL     1      16.664   0.747  20.315  1.00  0.00    -0.200 F 
ENDBRANCH  61  84
ENDBRANCH  35  36
ENDBRANCH  28  30
ENDBRANCH  27  28
ENDBRANCH  26  27
ENDBRANCH  25  26
ENDBRANCH   1  25
TORSDOF 16
