REMARK SMILES C[C@@H](C(=O)OCCOCCOC(=O)c1ccc(-c2c3nc(c(-c4c(F)c(F)c(F)c(F)c4F)c4ccc([nH]4)c(-c4c(F)c(F)c(F)c(F)c4F)c4nc(c(-c5c(F)c(F)c(F)c(F)c5F)c5ccc2[nH]5)C=C4)C=C3)cc1)c1ccc(C[SiH](C)C)cc1
REMARK SMILES IDX 7 1 6 2 5 3 3 4 4 5 2 6 1 7 77 8 78 9 86 10 79 11 85 12
REMARK SMILES IDX 80 13 81 14 82 15 83 16 84 17 8 19 9 20 10 21 11 22 12 23
REMARK SMILES IDX 13 24 14 25 15 26 76 27 16 28 75 29 17 30 18 31 19 32 69 33
REMARK SMILES IDX 20 34 74 35 68 36 70 37 21 38 73 39 67 40 66 41 22 43 54 44
REMARK SMILES IDX 34 45 53 46 35 47 38 48 52 49 71 50 36 51 37 52 51 54 72 55
REMARK SMILES IDX 39 56 23 57 24 58 32 59 25 60 26 61 30 62 33 63 27 64 28 65
REMARK SMILES IDX 31 66 29 67 55 68 56 69 64 70 57 71 58 72 62 73 65 74 59 75
REMARK SMILES IDX 60 76 63 77 61 78 40 79 41 80 49 81 42 82 43 83 47 84 50 85
REMARK SMILES IDX 44 86 45 87 48 88 46 89
REMARK H PARENT 82 18 70 42 38 53
REMARK Flexibility Score: inf
ROOT
ATOM      1  C   UNL     1       2.295   2.411   3.882  1.00  0.00     0.202 C 
ENDROOT
BRANCH   1   2
ATOM      2  C   UNL     1       2.121   0.904   4.086  1.00  0.00     0.261 C 
BRANCH   2   3
ATOM      3  O   UNL     1       1.843   0.265   2.825  1.00  0.00    -0.463 OA
BRANCH   3   4
ATOM      4  C   UNL     1       0.885  -0.702   2.854  1.00  0.00     0.313 C 
ATOM      5  O   UNL     1       0.424  -1.176   3.886  1.00  0.00    -0.252 OA
BRANCH   4   6
ATOM      6  C   UNL     1       0.428  -1.126   1.450  1.00  0.00     0.126 C 
ATOM      7  C   UNL     1       1.187  -0.465   0.294  1.00  0.00     0.025 C 
BRANCH   6   8
ATOM      8  C   UNL     1      -1.088  -0.992   1.332  1.00  0.00    -0.034 A 
ATOM      9  C   UNL     1      -1.718   0.210   0.977  1.00  0.00     0.005 A 
ATOM     10  C   UNL     1      -1.898  -2.078   1.695  1.00  0.00     0.005 A 
ATOM     11  C   UNL     1      -3.110   0.334   1.027  1.00  0.00     0.004 A 
ATOM     12  C   UNL     1      -3.290  -1.956   1.743  1.00  0.00     0.004 A 
ATOM     13  C   UNL     1      -3.909  -0.741   1.431  1.00  0.00    -0.051 A 
BRANCH  13  14
ATOM     14  C   UNL     1      -5.407  -0.586   1.561  1.00  0.00     0.021 C 
BRANCH  14  15
ATOM     15  Si  UNL     1      -6.025   0.214   3.163  1.00  0.00     0.035 Si
ATOM     16  C   UNL     1      -5.412   1.967   3.324  1.00  0.00    -0.013 C 
ATOM     17  C   UNL     1      -7.892   0.195   3.188  1.00  0.00    -0.013 C 
ATOM     18  H   UNL     1      -5.518  -0.533   4.259  1.00  0.00     0.014 H 
ENDBRANCH  14  15
ENDBRANCH  13  14
ENDBRANCH   6   8
ENDBRANCH   4   6
ENDBRANCH   3   4
ENDBRANCH   2   3
ENDBRANCH   1   2
BRANCH   1  19
ATOM     19  O   UNL     1       1.100   3.145   3.600  1.00  0.00    -0.374 OA
BRANCH  19  20
ATOM     20  C   UNL     1       0.497   2.937   2.325  1.00  0.00     0.202 C 
BRANCH  20  21
ATOM     21  C   UNL     1       1.090   3.738   1.159  1.00  0.00     0.261 C 
BRANCH  21  22
ATOM     22  O   UNL     1       2.494   3.484   0.980  1.00  0.00    -0.460 OA
BRANCH  22  23
ATOM     23  C   UNL     1       3.296   4.508   1.352  1.00  0.00     0.338 C 
ATOM     24  O   UNL     1       2.957   5.633   1.698  1.00  0.00    -0.246 OA
BRANCH  23  25
ATOM     25  C   UNL     1       4.692   4.050   1.456  1.00  0.00     0.060 A 
ATOM     26  C   UNL     1       5.360   4.302   2.661  1.00  0.00     0.016 A 
ATOM     27  C   UNL     1       5.360   3.455   0.383  1.00  0.00     0.016 A 
ATOM     28  C   UNL     1       6.716   4.011   2.781  1.00  0.00     0.010 A 
ATOM     29  C   UNL     1       6.726   3.171   0.502  1.00  0.00     0.010 A 
ATOM     30  C   UNL     1       7.416   3.483   1.688  1.00  0.00    -0.014 A 
BRANCH  30  31
ATOM     31  C   UNL     1       8.896   3.413   1.745  1.00  0.00     0.031 A 
ATOM     32  C   UNL     1       9.699   4.520   1.120  1.00  0.00     0.074 A 
ATOM     33  C   UNL     1       9.514   2.408   2.388  1.00  0.00     0.049 A 
ATOM     34  N   UNL     1      10.998   4.670   1.053  1.00  0.00    -0.248 NA
ATOM     35  C   UNL     1       8.934   5.606   0.485  1.00  0.00     0.031 C 
ATOM     36  C   UNL     1       8.842   1.303   3.069  1.00  0.00     0.029 A 
ATOM     37  N   UNL     1      10.850   2.157   2.572  1.00  0.00    -0.354 N 
ATOM     38  C   UNL     1      11.204   5.861   0.368  1.00  0.00     0.074 A 
ATOM     39  C   UNL     1       9.901   6.380   0.015  1.00  0.00     0.031 C 
ATOM     40  C   UNL     1       9.772   0.487   3.595  1.00  0.00     0.029 A 
ATOM     41  C   UNL     1      11.102   0.998   3.263  1.00  0.00     0.049 A 
ATOM     42  H   UNL     1      11.561   2.751   2.240  1.00  0.00     0.167 HD
ATOM     43  C   UNL     1      12.376   6.470   0.071  1.00  0.00     0.037 A 
ATOM     44  C   UNL     1      12.273   0.411   3.577  1.00  0.00     0.037 A 
ATOM     45  C   UNL     1      13.671   5.956   0.429  1.00  0.00     0.049 A 
ATOM     46  C   UNL     1      13.564   1.076   3.172  1.00  0.00     0.074 A 
ATOM     47  C   UNL     1      14.916   6.513   0.194  1.00  0.00     0.029 A 
ATOM     48  N   UNL     1      13.887   4.758   1.093  1.00  0.00    -0.354 N 
ATOM     49  N   UNL     1      13.751   2.216   2.552  1.00  0.00    -0.248 NA
ATOM     50  C   UNL     1      14.808   0.371   3.515  1.00  0.00     0.031 C 
ATOM     51  C   UNL     1      15.888   5.627   0.672  1.00  0.00     0.029 A 
ATOM     52  C   UNL     1      15.247   4.543   1.250  1.00  0.00     0.049 A 
ATOM     53  H   UNL     1      13.179   4.149   1.405  1.00  0.00     0.167 HD
ATOM     54  C   UNL     1      15.127   2.379   2.457  1.00  0.00     0.074 A 
ATOM     55  C   UNL     1      15.729   1.226   3.092  1.00  0.00     0.031 C 
ATOM     56  C   UNL     1      15.829   3.393   1.894  1.00  0.00     0.037 A 
BRANCH  43  57
ATOM     57  C   UNL     1      12.312   7.753  -0.705  1.00  0.00     0.064 A 
ATOM     58  C   UNL     1      11.867   8.948  -0.120  1.00  0.00     0.173 A 
ATOM     59  C   UNL     1      12.736   7.793  -2.042  1.00  0.00     0.173 A 
ATOM     60  F   UNL     1      11.437   8.958   1.150  1.00  0.00    -0.203 F 
ATOM     61  C   UNL     1      11.827  10.131  -0.853  1.00  0.00     0.198 A 
ATOM     62  C   UNL     1      12.720   8.984  -2.763  1.00  0.00     0.198 A 
ATOM     63  F   UNL     1      13.174   6.679  -2.646  1.00  0.00    -0.203 F 
ATOM     64  F   UNL     1      11.358  11.252  -0.287  1.00  0.00    -0.200 F 
ATOM     65  C   UNL     1      12.260  10.150  -2.171  1.00  0.00     0.200 A 
ATOM     66  F   UNL     1      13.149   9.002  -4.033  1.00  0.00    -0.200 F 
ATOM     67  F   UNL     1      12.228  11.291  -2.872  1.00  0.00    -0.200 F 
ENDBRANCH  43  57
BRANCH  44  68
ATOM     68  C   UNL     1      12.285  -0.883   4.308  1.00  0.00     0.064 A 
ATOM     69  C   UNL     1      12.756  -0.966   5.625  1.00  0.00     0.173 A 
ATOM     70  C   UNL     1      11.845  -2.066   3.696  1.00  0.00     0.173 A 
ATOM     71  F   UNL     1      13.212   0.133   6.244  1.00  0.00    -0.203 F 
ATOM     72  C   UNL     1      12.803  -2.186   6.296  1.00  0.00     0.198 A 
ATOM     73  C   UNL     1      11.868  -3.281   4.377  1.00  0.00     0.198 A 
ATOM     74  F   UNL     1      11.389  -2.041   2.435  1.00  0.00    -0.203 F 
ATOM     75  F   UNL     1      13.302  -2.246   7.539  1.00  0.00    -0.200 F 
ATOM     76  C   UNL     1      12.354  -3.341   5.674  1.00  0.00     0.200 A 
ATOM     77  F   UNL     1      11.424  -4.392   3.775  1.00  0.00    -0.200 F 
ATOM     78  F   UNL     1      12.399  -4.514   6.321  1.00  0.00    -0.200 F 
ENDBRANCH  44  68
BRANCH  56  79
ATOM     79  C   UNL     1      17.326   3.323   1.972  1.00  0.00     0.064 A 
ATOM     80  C   UNL     1      18.062   2.417   1.194  1.00  0.00     0.173 A 
ATOM     81  C   UNL     1      18.036   4.203   2.803  1.00  0.00     0.173 A 
ATOM     82  F   UNL     1      17.429   1.545   0.395  1.00  0.00    -0.203 F 
ATOM     83  C   UNL     1      19.452   2.380   1.263  1.00  0.00     0.198 A 
ATOM     84  C   UNL     1      19.427   4.183   2.848  1.00  0.00     0.198 A 
ATOM     85  F   UNL     1      17.379   5.094   3.562  1.00  0.00    -0.203 F 
ATOM     86  F   UNL     1      20.133   1.476   0.544  1.00  0.00    -0.200 F 
ATOM     87  C   UNL     1      20.133   3.267   2.084  1.00  0.00     0.200 A 
ATOM     88  F   UNL     1      20.084   5.050   3.631  1.00  0.00    -0.200 F 
ATOM     89  F   UNL     1      21.472   3.234   2.143  1.00  0.00    -0.200 F 
ENDBRANCH  56  79
ENDBRANCH  30  31
ENDBRANCH  23  25
ENDBRANCH  22  23
ENDBRANCH  21  22
ENDBRANCH  20  21
ENDBRANCH  19  20
ENDBRANCH   1  19
TORSDOF 17
