REMARK SMILES Cc1nc([C@]2(C)CCCO2)nc(C)c1C(=O)OCCOCCOC(=O)c1ccc(-c2c3nc(c(-c4c(F)c(F)c(F)c(F)c4F)c4ccc([nH]4)c(-c4c(F)c(F)c(F)c(F)c4F)c4nc(c(-c5c(F)c(F)c(F)c(F)c5F)c5ccc2[nH]5)C=C4)C=C3)cc1
REMARK SMILES IDX 21 1 20 2 19 3 18 4 17 5 15 6 16 7 14 8 1 9 2 10 3 11 4 12
REMARK SMILES IDX 12 13 11 14 13 15 5 16 7 17 10 18 6 19 8 20 9 21 22 22 23 23
REMARK SMILES IDX 24 24 25 25 26 26 27 27 88 28 28 29 87 30 29 31 30 32 31 33
REMARK SMILES IDX 81 34 32 35 86 36 80 37 82 38 33 39 85 40 79 41 78 42 34 44
REMARK SMILES IDX 66 45 46 46 65 47 47 48 50 49 64 50 83 51 48 52 49 53 63 55
REMARK SMILES IDX 84 56 51 57 35 58 36 59 44 60 37 61 38 62 42 63 45 64 39 65
REMARK SMILES IDX 40 66 43 67 41 68 67 69 68 70 76 71 69 72 70 73 74 74 77 75
REMARK SMILES IDX 71 76 72 77 75 78 73 79 52 80 53 81 61 82 54 83 55 84 59 85
REMARK SMILES IDX 62 86 56 87 57 88 60 89 58 90
REMARK H PARENT 82 43 50 54
REMARK Flexibility Score: inf
ROOT
ATOM      1  C   UNL     1      -5.157  -2.274   4.688  1.00  0.00     0.202 C 
ENDROOT
BRANCH   1   2
ATOM      2  O   UNL     1      -6.577  -2.123   4.639  1.00  0.00    -0.374 OA
BRANCH   2   3
ATOM      3  C   UNL     1      -7.343  -3.205   4.109  1.00  0.00     0.202 C 
BRANCH   3   4
ATOM      4  C   UNL     1      -7.323  -3.356   2.588  1.00  0.00     0.261 C 
BRANCH   4   5
ATOM      5  O   UNL     1      -5.988  -3.640   2.138  1.00  0.00    -0.460 OA
BRANCH   5   6
ATOM      6  C   UNL     1      -5.527  -2.829   1.162  1.00  0.00     0.341 C 
ATOM      7  O   UNL     1      -6.186  -2.028   0.514  1.00  0.00    -0.246 OA
BRANCH   6   8
ATOM      8  C   UNL     1      -4.068  -2.945   1.030  1.00  0.00     0.102 A 
ATOM      9  C   UNL     1      -4.076  -5.485   1.024  1.00  0.00     0.068 C 
ATOM     10  C   UNL     1      -3.406  -4.152   0.866  1.00  0.00     0.056 A 
ATOM     11  N   UNL     1      -2.081  -4.207   0.586  1.00  0.00    -0.234 NA
ATOM     12  C   UNL     1      -1.398  -3.047   0.480  1.00  0.00     0.160 A 
ATOM     13  C   UNL     1      -3.279  -1.801   1.004  1.00  0.00     0.056 A 
ATOM     14  N   UNL     1      -1.957  -1.845   0.718  1.00  0.00    -0.234 NA
ATOM     15  C   UNL     1      -3.790  -0.448   1.411  1.00  0.00     0.068 C 
BRANCH  12  16
ATOM     16  C   UNL     1       0.062  -3.095  -0.001  1.00  0.00     0.125 C 
ATOM     17  C   UNL     1       0.164  -3.659  -1.421  1.00  0.00     0.046 C 
ATOM     18  O   UNL     1       0.835  -4.002   0.819  1.00  0.00    -0.367 OA
ATOM     19  C   UNL     1       0.730  -1.717   0.077  1.00  0.00     0.051 C 
ATOM     20  C   UNL     1       0.262  -5.150  -1.204  1.00  0.00     0.032 C 
ATOM     21  C   UNL     1       0.917  -5.272   0.157  1.00  0.00     0.161 C 
ENDBRANCH  12  16
ENDBRANCH   6   8
ENDBRANCH   5   6
ENDBRANCH   4   5
ENDBRANCH   3   4
ENDBRANCH   2   3
ENDBRANCH   1   2
BRANCH   1  22
ATOM     22  C   UNL     1      -4.589  -3.161   5.801  1.00  0.00     0.261 C 
BRANCH  22  23
ATOM     23  O   UNL     1      -4.993  -4.535   5.670  1.00  0.00    -0.460 OA
BRANCH  23  24
ATOM     24  C   UNL     1      -5.871  -4.956   6.609  1.00  0.00     0.338 C 
ATOM     25  O   UNL     1      -6.297  -4.326   7.566  1.00  0.00    -0.246 OA
BRANCH  24  26
ATOM     26  C   UNL     1      -6.419  -6.270   6.231  1.00  0.00     0.060 A 
ATOM     27  C   UNL     1      -7.813  -6.394   6.159  1.00  0.00     0.016 A 
ATOM     28  C   UNL     1      -5.595  -7.378   6.026  1.00  0.00     0.016 A 
ATOM     29  C   UNL     1      -8.392  -7.638   5.929  1.00  0.00     0.010 A 
ATOM     30  C   UNL     1      -6.178  -8.630   5.806  1.00  0.00     0.010 A 
ATOM     31  C   UNL     1      -7.578  -8.770   5.792  1.00  0.00    -0.014 A 
BRANCH  31  32
ATOM     32  C   UNL     1      -8.198 -10.116   5.783  1.00  0.00     0.031 A 
ATOM     33  C   UNL     1      -8.226 -10.912   7.058  1.00  0.00     0.074 A 
ATOM     34  C   UNL     1      -8.758 -10.607   4.664  1.00  0.00     0.049 A 
ATOM     35  N   UNL     1      -8.683 -12.119   7.276  1.00  0.00    -0.248 NA
ATOM     36  C   UNL     1      -7.664 -10.257   8.251  1.00  0.00     0.031 C 
ATOM     37  C   UNL     1      -8.828  -9.912   3.381  1.00  0.00     0.029 A 
ATOM     38  N   UNL     1      -9.368 -11.814   4.429  1.00  0.00    -0.354 N 
ATOM     39  C   UNL     1      -8.461 -12.368   8.624  1.00  0.00     0.074 A 
ATOM     40  C   UNL     1      -7.802 -11.201   9.169  1.00  0.00     0.031 C 
ATOM     41  C   UNL     1      -9.434 -10.710   2.486  1.00  0.00     0.029 A 
ATOM     42  C   UNL     1      -9.766 -11.982   3.126  1.00  0.00     0.049 A 
ATOM     43  H   UNL     1      -9.507 -12.493   5.128  1.00  0.00     0.167 HD
ATOM     44  C   UNL     1      -8.789 -13.467   9.343  1.00  0.00     0.037 A 
ATOM     45  C   UNL     1     -10.313 -13.052   2.518  1.00  0.00     0.037 A 
ATOM     46  C   UNL     1      -9.444 -14.627   8.797  1.00  0.00     0.049 A 
ATOM     47  C   UNL     1     -10.604 -14.291   3.326  1.00  0.00     0.074 A 
ATOM     48  C   UNL     1      -9.825 -15.789   9.444  1.00  0.00     0.029 A 
ATOM     49  N   UNL     1      -9.809 -14.771   7.466  1.00  0.00    -0.354 N 
ATOM     50  N   UNL     1     -10.410 -14.511   4.604  1.00  0.00    -0.248 NA
ATOM     51  C   UNL     1     -11.194 -15.429   2.606  1.00  0.00     0.031 C 
ATOM     52  C   UNL     1     -10.379 -16.655   8.496  1.00  0.00     0.029 A 
ATOM     53  C   UNL     1     -10.391 -16.013   7.269  1.00  0.00     0.049 A 
ATOM     54  H   UNL     1      -9.674 -14.092   6.766  1.00  0.00     0.167 HD
ATOM     55  C   UNL     1     -10.879 -15.796   4.846  1.00  0.00     0.074 A 
ATOM     56  C   UNL     1     -11.379 -16.302   3.586  1.00  0.00     0.031 C 
ATOM     57  C   UNL     1     -10.894 -16.495   6.008  1.00  0.00     0.037 A 
BRANCH  44  58
ATOM     58  C   UNL     1      -8.427 -13.477  10.799  1.00  0.00     0.064 A 
ATOM     59  C   UNL     1      -9.109 -12.683  11.732  1.00  0.00     0.173 A 
ATOM     60  C   UNL     1      -7.413 -14.323  11.273  1.00  0.00     0.173 A 
ATOM     61  F   UNL     1     -10.077 -11.847  11.328  1.00  0.00    -0.203 F 
ATOM     62  C   UNL     1      -8.776 -12.720  13.084  1.00  0.00     0.198 A 
ATOM     63  C   UNL     1      -7.101 -14.378  12.629  1.00  0.00     0.198 A 
ATOM     64  F   UNL     1      -6.732 -15.105  10.422  1.00  0.00    -0.203 F 
ATOM     65  F   UNL     1      -9.413 -11.923  13.952  1.00  0.00    -0.200 F 
ATOM     66  C   UNL     1      -7.778 -13.573  13.532  1.00  0.00     0.200 A 
ATOM     67  F   UNL     1      -6.144 -15.211  13.061  1.00  0.00    -0.200 F 
ATOM     68  F   UNL     1      -7.465 -13.615  14.834  1.00  0.00    -0.200 F 
ENDBRANCH  44  58
BRANCH  45  69
ATOM     69  C   UNL     1     -10.607 -13.010   1.062  1.00  0.00     0.064 A 
ATOM     70  C   UNL     1     -11.926 -13.029   0.586  1.00  0.00     0.173 A 
ATOM     71  C   UNL     1      -9.573 -12.977   0.114  1.00  0.00     0.173 A 
ATOM     72  F   UNL     1     -12.948 -13.087   1.452  1.00  0.00    -0.203 F 
ATOM     73  C   UNL     1     -12.198 -13.039  -0.781  1.00  0.00     0.198 A 
ATOM     74  C   UNL     1      -9.847 -12.956  -1.251  1.00  0.00     0.198 A 
ATOM     75  F   UNL     1      -8.294 -12.959   0.516  1.00  0.00    -0.203 F 
ATOM     76  F   UNL     1     -13.466 -13.109  -1.208  1.00  0.00    -0.200 F 
ATOM     77  C   UNL     1     -11.159 -12.997  -1.698  1.00  0.00     0.200 A 
ATOM     78  F   UNL     1      -8.840 -12.904  -2.134  1.00  0.00    -0.200 F 
ATOM     79  F   UNL     1     -11.421 -13.005  -3.012  1.00  0.00    -0.200 F 
ENDBRANCH  45  69
BRANCH  57  80
ATOM     80  C   UNL     1     -11.504 -17.867   5.981  1.00  0.00     0.064 A 
ATOM     81  C   UNL     1     -10.860 -18.947   5.360  1.00  0.00     0.173 A 
ATOM     82  C   UNL     1     -12.728 -18.111   6.622  1.00  0.00     0.173 A 
ATOM     83  F   UNL     1      -9.695 -18.762   4.721  1.00  0.00    -0.203 F 
ATOM     84  C   UNL     1     -11.432 -20.217   5.360  1.00  0.00     0.198 A 
ATOM     85  C   UNL     1     -13.282 -19.388   6.646  1.00  0.00     0.198 A 
ATOM     86  F   UNL     1     -13.380 -17.113   7.237  1.00  0.00    -0.203 F 
ATOM     87  F   UNL     1     -10.823 -21.224   4.721  1.00  0.00    -0.200 F 
ATOM     88  C   UNL     1     -12.638 -20.438   6.009  1.00  0.00     0.200 A 
ATOM     89  F   UNL     1     -14.440 -19.602   7.286  1.00  0.00    -0.200 F 
ATOM     90  F   UNL     1     -13.183 -21.662   6.015  1.00  0.00    -0.200 F 
ENDBRANCH  57  80
ENDBRANCH  31  32
ENDBRANCH  24  26
ENDBRANCH  23  24
ENDBRANCH  22  23
ENDBRANCH   1  22
TORSDOF 15
