REMARK SMILES O=C(OCCOCCOC(=O)c1cc(Br)n(Cc2ccn(C3CCCC3)n2)c1)c1ccc(-c2c3nc(c(-c4c(F)c(F)c(F)c(F)c4F)c4ccc([nH]4)c(-c4c(F)c(F)c(F)c(F)c4F)c4nc(c(-c5c(F)c(F)c(F)c(F)c5F)c5ccc2[nH]5)C=C4)C=C3)cc1
REMARK SMILES IDX 7 1 6 2 5 3 4 4 3 5 2 6 1 7 29 8 30 9 91 10 31 11 90 12
REMARK SMILES IDX 32 13 33 14 34 15 84 16 35 17 89 18 83 19 85 20 36 21 88 22
REMARK SMILES IDX 82 23 81 24 37 26 69 27 49 28 68 29 50 30 53 31 67 32 86 33
REMARK SMILES IDX 51 34 52 35 66 37 87 38 54 39 38 40 39 41 47 42 40 43 41 44
REMARK SMILES IDX 45 45 48 46 42 47 43 48 46 49 44 50 70 51 71 52 79 53 72 54
REMARK SMILES IDX 73 55 77 56 80 57 74 58 75 59 78 60 76 61 55 62 56 63 64 64
REMARK SMILES IDX 57 65 58 66 62 67 65 68 59 69 60 70 63 71 61 72 8 73 9 74
REMARK SMILES IDX 10 75 11 76 12 77 13 78 28 79 14 80 16 81 15 82 17 83 18 84
REMARK SMILES IDX 19 85 27 86 20 87 21 88 22 89 23 90 26 91 24 92 25 93
REMARK H PARENT 85 25 53 36
REMARK Flexibility Score: inf
ROOT
ATOM      1  C   UNL     1       3.061  -1.240  -1.524  1.00  0.00     0.202 C 
ENDROOT
BRANCH   1   2
ATOM      2  O   UNL     1       4.251  -0.555  -1.107  1.00  0.00    -0.374 OA
BRANCH   2   3
ATOM      3  C   UNL     1       4.777  -0.897   0.172  1.00  0.00     0.202 C 
BRANCH   3   4
ATOM      4  C   UNL     1       4.573   0.097   1.311  1.00  0.00     0.261 C 
BRANCH   4   5
ATOM      5  O   UNL     1       3.209   0.207   1.759  1.00  0.00    -0.460 OA
BRANCH   5   6
ATOM      6  C   UNL     1       2.163   0.482   0.950  1.00  0.00     0.338 C 
ATOM      7  O   UNL     1       1.137  -0.191   0.990  1.00  0.00    -0.246 OA
BRANCH   6   8
ATOM      8  C   UNL     1       2.146   1.802   0.272  1.00  0.00     0.060 A 
ATOM      9  C   UNL     1       3.278   2.563  -0.012  1.00  0.00     0.016 A 
ATOM     10  C   UNL     1       0.873   2.351   0.057  1.00  0.00     0.016 A 
ATOM     11  C   UNL     1       3.153   3.923  -0.195  1.00  0.00     0.010 A 
ATOM     12  C   UNL     1       0.737   3.700  -0.196  1.00  0.00     0.010 A 
ATOM     13  C   UNL     1       1.880   4.489  -0.206  1.00  0.00    -0.014 A 
BRANCH  13  14
ATOM     14  C   UNL     1       1.786   5.924  -0.374  1.00  0.00     0.031 A 
ATOM     15  C   UNL     1       2.317   6.380  -1.680  1.00  0.00     0.074 A 
ATOM     16  C   UNL     1       1.212   6.721   0.547  1.00  0.00     0.049 A 
ATOM     17  N   UNL     1       3.372   7.094  -1.891  1.00  0.00    -0.248 NA
ATOM     18  C   UNL     1       1.722   5.814  -2.902  1.00  0.00     0.031 C 
ATOM     19  C   UNL     1       0.470   6.334   1.749  1.00  0.00     0.029 A 
ATOM     20  N   UNL     1       1.100   8.076   0.548  1.00  0.00    -0.354 N 
ATOM     21  C   UNL     1       3.458   7.241  -3.271  1.00  0.00     0.074 A 
ATOM     22  C   UNL     1       2.540   6.292  -3.841  1.00  0.00     0.031 C 
ATOM     23  C   UNL     1      -0.210   7.405   2.221  1.00  0.00     0.029 A 
ATOM     24  C   UNL     1       0.159   8.574   1.444  1.00  0.00     0.049 A 
ATOM     25  H   UNL     1       1.641   8.657  -0.035  1.00  0.00     0.167 HD
ATOM     26  C   UNL     1       4.084   8.321  -3.811  1.00  0.00     0.037 A 
ATOM     27  C   UNL     1      -0.318   9.845   1.466  1.00  0.00     0.037 A 
ATOM     28  C   UNL     1       4.956   8.945  -2.849  1.00  0.00     0.049 A 
ATOM     29  C   UNL     1       0.664  10.695   0.741  1.00  0.00     0.074 A 
ATOM     30  C   UNL     1       6.080   8.542  -2.155  1.00  0.00     0.029 A 
ATOM     31  N   UNL     1       4.480  10.050  -2.188  1.00  0.00    -0.354 N 
ATOM     32  N   UNL     1       1.863  10.947   1.190  1.00  0.00    -0.248 NA
ATOM     33  C   UNL     1       0.490  10.844  -0.697  1.00  0.00     0.031 C 
ATOM     34  C   UNL     1       5.943   9.126  -0.861  1.00  0.00     0.029 A 
ATOM     35  C   UNL     1       4.793   9.915  -0.861  1.00  0.00     0.049 A 
ATOM     36  H   UNL     1       3.999  10.806  -2.595  1.00  0.00     0.167 HD
ATOM     37  C   UNL     1       2.682  10.844   0.076  1.00  0.00     0.074 A 
ATOM     38  C   UNL     1       1.774  10.845  -1.069  1.00  0.00     0.031 C 
ATOM     39  C   UNL     1       3.987  10.465   0.202  1.00  0.00     0.037 A 
BRANCH  26  40
ATOM     40  C   UNL     1       3.588   9.053  -5.034  1.00  0.00     0.064 A 
ATOM     41  C   UNL     1       4.362  10.111  -5.552  1.00  0.00     0.173 A 
ATOM     42  C   UNL     1       2.260   8.980  -5.510  1.00  0.00     0.173 A 
ATOM     43  F   UNL     1       5.632  10.285  -5.157  1.00  0.00    -0.203 F 
ATOM     44  C   UNL     1       3.816  11.073  -6.404  1.00  0.00     0.198 A 
ATOM     45  C   UNL     1       1.736   9.913  -6.402  1.00  0.00     0.198 A 
ATOM     46  F   UNL     1       1.379   8.086  -5.049  1.00  0.00    -0.203 F 
ATOM     47  F   UNL     1       4.549  12.137  -6.760  1.00  0.00    -0.200 F 
ATOM     48  C   UNL     1       2.502  10.978  -6.821  1.00  0.00     0.200 A 
ATOM     49  F   UNL     1       0.453   9.814  -6.776  1.00  0.00    -0.200 F 
ATOM     50  F   UNL     1       1.956  11.936  -7.582  1.00  0.00    -0.200 F 
ENDBRANCH  26  40
BRANCH  27  51
ATOM     51  C   UNL     1      -1.706  10.301   1.735  1.00  0.00     0.064 A 
ATOM     52  C   UNL     1      -1.991  11.658   1.969  1.00  0.00     0.173 A 
ATOM     53  C   UNL     1      -2.812   9.468   1.480  1.00  0.00     0.173 A 
ATOM     54  F   UNL     1      -0.994  12.531   2.171  1.00  0.00    -0.203 F 
ATOM     55  C   UNL     1      -3.300  12.153   1.923  1.00  0.00     0.198 A 
ATOM     56  C   UNL     1      -4.117   9.962   1.440  1.00  0.00     0.198 A 
ATOM     57  F   UNL     1      -2.642   8.176   1.165  1.00  0.00    -0.203 F 
ATOM     58  F   UNL     1      -3.526  13.464   2.088  1.00  0.00    -0.200 F 
ATOM     59  C   UNL     1      -4.361  11.306   1.648  1.00  0.00     0.200 A 
ATOM     60  F   UNL     1      -5.130   9.139   1.131  1.00  0.00    -0.200 F 
ATOM     61  F   UNL     1      -5.606  11.790   1.540  1.00  0.00    -0.200 F 
ENDBRANCH  27  51
BRANCH  39  62
ATOM     62  C   UNL     1       4.574  10.421   1.586  1.00  0.00     0.064 A 
ATOM     63  C   UNL     1       4.136   9.557   2.606  1.00  0.00     0.173 A 
ATOM     64  C   UNL     1       5.720  11.185   1.836  1.00  0.00     0.173 A 
ATOM     65  F   UNL     1       3.109   8.720   2.409  1.00  0.00    -0.203 F 
ATOM     66  C   UNL     1       4.796   9.498   3.833  1.00  0.00     0.198 A 
ATOM     67  C   UNL     1       6.399  11.096   3.047  1.00  0.00     0.198 A 
ATOM     68  F   UNL     1       6.215  11.985   0.878  1.00  0.00    -0.203 F 
ATOM     69  F   UNL     1       4.356   8.674   4.796  1.00  0.00    -0.200 F 
ATOM     70  C   UNL     1       5.931  10.262   4.049  1.00  0.00     0.200 A 
ATOM     71  F   UNL     1       7.525  11.799   3.230  1.00  0.00    -0.200 F 
ATOM     72  F   UNL     1       6.591  10.175   5.212  1.00  0.00    -0.200 F 
ENDBRANCH  39  62
ENDBRANCH  13  14
ENDBRANCH   6   8
ENDBRANCH   5   6
ENDBRANCH   4   5
ENDBRANCH   3   4
ENDBRANCH   2   3
ENDBRANCH   1   2
BRANCH   1  73
ATOM     73  C   UNL     1       3.098  -2.748  -1.831  1.00  0.00     0.261 C 
BRANCH  73  74
ATOM     74  O   UNL     1       3.417  -3.564  -0.693  1.00  0.00    -0.460 OA
BRANCH  74  75
ATOM     75  C   UNL     1       4.745  -3.859  -0.564  1.00  0.00     0.339 C 
ATOM     76  O   UNL     1       5.602  -3.581  -1.385  1.00  0.00    -0.246 OA
BRANCH  75  77
ATOM     77  C   UNL     1       5.064  -4.403   0.749  1.00  0.00     0.078 A 
ATOM     78  C   UNL     1       4.500  -5.525   1.399  1.00  0.00     0.051 A 
ATOM     79  C   UNL     1       6.071  -3.933   1.581  1.00  0.00     0.102 A 
ATOM     80  C   UNL     1       5.344  -5.840   2.443  1.00  0.00     0.086 A 
ATOM     81  N   UNL     1       6.173  -4.769   2.680  1.00  0.00    -0.335 N 
ATOM     82  Br  UNL     1       5.370  -7.558   3.173  1.00  0.00    -0.031 Br
BRANCH  81  83
ATOM     83  C   UNL     1       7.224  -4.617   3.698  1.00  0.00     0.180 C 
BRANCH  83  84
ATOM     84  C   UNL     1       6.743  -4.532   5.121  1.00  0.00     0.082 A 
ATOM     85  C   UNL     1       6.150  -5.556   5.899  1.00  0.00     0.047 A 
ATOM     86  N   UNL     1       6.985  -3.445   5.885  1.00  0.00    -0.176 NA
ATOM     87  C   UNL     1       5.991  -5.037   7.154  1.00  0.00     0.109 A 
ATOM     88  N   UNL     1       6.526  -3.785   7.114  1.00  0.00    -0.269 N 
BRANCH  88  89
ATOM     89  C   UNL     1       6.665  -2.929   8.270  1.00  0.00     0.107 C 
ATOM     90  C   UNL     1       8.100  -2.611   8.681  1.00  0.00     0.027 C 
ATOM     91  C   UNL     1       6.024  -1.551   8.156  1.00  0.00     0.027 C 
ATOM     92  C   UNL     1       7.915  -1.509   9.719  1.00  0.00     0.002 C 
ATOM     93  C   UNL     1       6.646  -0.757   9.306  1.00  0.00     0.002 C 
ENDBRANCH  88  89
ENDBRANCH  83  84
ENDBRANCH  81  83
ENDBRANCH  75  77
ENDBRANCH  74  75
ENDBRANCH  73  74
ENDBRANCH   1  73
TORSDOF 17
