REMARK SMILES COc1ccc(-n2c(=S)[nH]cc(CC(=O)OCCOCCOC(=O)c3ccc(-c4c5nc(c(-c6c(F)c(F)c(F)c(F)c6F)c6ccc([nH]6)c(-c6c(F)c(F)c(F)c(F)c6F)c6nc(c(-c7c(F)c(F)c(F)c(F)c7F)c7ccc4[nH]7)C=C6)C=C5)cc3)c2=O)cc1Cl
REMARK SMILES IDX 18 1 17 2 16 3 14 4 15 5 13 6 12 7 7 8 8 9 88 10 9 11 10 12
REMARK SMILES IDX 89 13 11 14 6 16 3 17 4 18 91 19 5 20 90 21 92 22 2 23 1 24
REMARK SMILES IDX 19 25 20 26 21 27 22 28 23 29 24 30 25 31 26 32 87 33 27 34
REMARK SMILES IDX 86 35 28 36 29 37 30 38 80 39 31 40 85 41 79 42 81 43 32 44
REMARK SMILES IDX 84 45 78 46 77 47 33 49 65 50 45 51 64 52 46 53 49 54 63 55
REMARK SMILES IDX 82 56 47 57 48 58 62 60 83 61 50 62 34 63 35 64 43 65 36 66
REMARK SMILES IDX 37 67 41 68 44 69 38 70 39 71 42 72 40 73 66 74 67 75 75 76
REMARK SMILES IDX 68 77 69 78 73 79 76 80 70 81 71 82 74 83 72 84 51 85 52 86
REMARK SMILES IDX 60 87 53 88 54 89 58 90 61 91 55 92 56 93 59 94 57 95
REMARK H PARENT 10 15 81 48 49 59
REMARK Flexibility Score: inf
ROOT
ATOM      1  C   UNL     1       4.134  10.864   4.392  1.00  0.00     0.202 C 
ENDROOT
BRANCH   1   2
ATOM      2  C   UNL     1       3.014   9.915   4.838  1.00  0.00     0.261 C 
BRANCH   2   3
ATOM      3  O   UNL     1       2.368   9.240   3.740  1.00  0.00    -0.463 OA
BRANCH   3   4
ATOM      4  C   UNL     1       1.035   9.484   3.613  1.00  0.00     0.310 C 
ATOM      5  O   UNL     1       0.380  10.177   4.387  1.00  0.00    -0.252 OA
BRANCH   4   6
ATOM      6  C   UNL     1       0.392   8.876   2.376  1.00  0.00     0.165 C 
BRANCH   6   7
ATOM      7  C   UNL     1       1.280   8.209   1.364  1.00  0.00     0.045 A 
ATOM      8  N   UNL     1       1.995   6.122   0.267  1.00  0.00    -0.253 N 
ATOM      9  C   UNL     1       2.772   6.853  -0.645  1.00  0.00     0.184 A 
ATOM     10  C   UNL     1       1.324   6.721   1.344  1.00  0.00     0.262 A 
ATOM     11  S   UNL     1       3.716   6.300  -1.919  1.00  0.00    -0.040 S 
ATOM     12  N   UNL     1       2.687   8.219  -0.526  1.00  0.00    -0.338 N 
ATOM     13  O   UNL     1       0.763   6.104   2.251  1.00  0.00    -0.269 OA
ATOM     14  C   UNL     1       1.923   8.864   0.394  1.00  0.00     0.095 A 
ATOM     15  H   UNL     1       3.215   8.768  -1.149  1.00  0.00     0.168 HD
BRANCH   8  16
ATOM     16  C   UNL     1       1.735   4.730   0.053  1.00  0.00     0.053 A 
ATOM     17  C   UNL     1       1.163   2.062  -0.590  1.00  0.00     0.137 A 
ATOM     18  C   UNL     1       0.139   3.009  -0.574  1.00  0.00     0.050 A 
ATOM     19  C   UNL     1       2.475   2.446  -0.289  1.00  0.00     0.085 A 
ATOM     20  C   UNL     1       0.420   4.333  -0.237  1.00  0.00     0.031 A 
ATOM     21  C   UNL     1       2.758   3.776   0.043  1.00  0.00     0.051 A 
ATOM     22  Cl  UNL     1       3.799   1.342  -0.371  1.00  0.00    -0.080 Cl
BRANCH  17  23
ATOM     23  O   UNL     1       0.817   0.806  -1.014  1.00  0.00    -0.495 OA
ATOM     24  C   UNL     1       0.826  -0.139   0.056  1.00  0.00     0.278 C 
ENDBRANCH  17  23
ENDBRANCH   8  16
ENDBRANCH   6   7
ENDBRANCH   4   6
ENDBRANCH   3   4
ENDBRANCH   2   3
ENDBRANCH   1   2
BRANCH   1  25
ATOM     25  O   UNL     1       3.794  11.905   3.480  1.00  0.00    -0.374 OA
BRANCH  25  26
ATOM     26  C   UNL     1       3.526  11.537   2.131  1.00  0.00     0.202 C 
BRANCH  26  27
ATOM     27  C   UNL     1       4.713  11.066   1.278  1.00  0.00     0.261 C 
BRANCH  27  28
ATOM     28  O   UNL     1       5.269   9.824   1.750  1.00  0.00    -0.460 OA
BRANCH  28  29
ATOM     29  C   UNL     1       6.563   9.902   2.147  1.00  0.00     0.338 C 
ATOM     30  O   UNL     1       7.313  10.861   2.035  1.00  0.00    -0.246 OA
BRANCH  29  31
ATOM     31  C   UNL     1       6.925   8.716   2.947  1.00  0.00     0.060 A 
ATOM     32  C   UNL     1       6.805   7.420   2.447  1.00  0.00     0.016 A 
ATOM     33  C   UNL     1       7.472   8.940   4.219  1.00  0.00     0.016 A 
ATOM     34  C   UNL     1       7.287   6.349   3.209  1.00  0.00     0.010 A 
ATOM     35  C   UNL     1       7.954   7.872   4.975  1.00  0.00     0.010 A 
ATOM     36  C   UNL     1       7.897   6.571   4.462  1.00  0.00    -0.014 A 
BRANCH  36  37
ATOM     37  C   UNL     1       8.630   5.474   5.146  1.00  0.00     0.031 A 
ATOM     38  C   UNL     1       8.121   4.842   6.406  1.00  0.00     0.074 A 
ATOM     39  C   UNL     1       9.809   5.081   4.627  1.00  0.00     0.049 A 
ATOM     40  N   UNL     1       8.611   3.823   7.068  1.00  0.00    -0.248 NA
ATOM     41  C   UNL     1       6.920   5.432   7.013  1.00  0.00     0.031 C 
ATOM     42  C   UNL     1      10.442   5.676   3.449  1.00  0.00     0.029 A 
ATOM     43  N   UNL     1      10.681   4.092   5.009  1.00  0.00    -0.354 N 
ATOM     44  C   UNL     1       7.766   3.631   8.152  1.00  0.00     0.074 A 
ATOM     45  C   UNL     1       6.766   4.678   8.094  1.00  0.00     0.031 C 
ATOM     46  C   UNL     1      11.575   5.012   3.176  1.00  0.00     0.029 A 
ATOM     47  C   UNL     1      11.765   3.963   4.173  1.00  0.00     0.049 A 
ATOM     48  H   UNL     1      10.544   3.530   5.805  1.00  0.00     0.167 HD
ATOM     49  C   UNL     1       7.810   2.653   9.089  1.00  0.00     0.037 A 
ATOM     50  C   UNL     1      12.790   3.090   4.197  1.00  0.00     0.037 A 
ATOM     51  C   UNL     1       8.820   1.625   9.146  1.00  0.00     0.049 A 
ATOM     52  C   UNL     1      12.829   2.031   5.264  1.00  0.00     0.074 A 
ATOM     53  C   UNL     1       8.921   0.566  10.032  1.00  0.00     0.029 A 
ATOM     54  N   UNL     1       9.911   1.536   8.292  1.00  0.00    -0.354 N 
ATOM     55  N   UNL     1      11.967   1.795   6.223  1.00  0.00    -0.248 NA
ATOM     56  C   UNL     1      13.975   1.112   5.250  1.00  0.00     0.031 C 
ATOM     57  C   UNL     1      10.101  -0.129   9.753  1.00  0.00     0.029 A 
ATOM     58  C   UNL     1      10.704   0.456   8.651  1.00  0.00     0.049 A 
ATOM     59  H   UNL     1      10.095   2.147   7.543  1.00  0.00     0.167 HD
ATOM     60  C   UNL     1      12.448   0.687   6.905  1.00  0.00     0.074 A 
ATOM     61  C   UNL     1      13.675   0.289   6.246  1.00  0.00     0.031 C 
ATOM     62  C   UNL     1      11.917   0.058   7.981  1.00  0.00     0.037 A 
BRANCH  49  63
ATOM     63  C   UNL     1       6.723   2.617  10.126  1.00  0.00     0.064 A 
ATOM     64  C   UNL     1       5.411   2.252   9.789  1.00  0.00     0.173 A 
ATOM     65  C   UNL     1       7.013   2.842  11.480  1.00  0.00     0.173 A 
ATOM     66  F   UNL     1       5.080   2.027   8.508  1.00  0.00    -0.203 F 
ATOM     67  C   UNL     1       4.428   2.126  10.767  1.00  0.00     0.198 A 
ATOM     68  C   UNL     1       6.034   2.686  12.459  1.00  0.00     0.198 A 
ATOM     69  F   UNL     1       8.255   3.180  11.860  1.00  0.00    -0.203 F 
ATOM     70  F   UNL     1       3.175   1.801  10.417  1.00  0.00    -0.200 F 
ATOM     71  C   UNL     1       4.742   2.332  12.101  1.00  0.00     0.200 A 
ATOM     72  F   UNL     1       6.345   2.866  13.751  1.00  0.00    -0.200 F 
ATOM     73  F   UNL     1       3.800   2.187  13.043  1.00  0.00    -0.200 F 
ENDBRANCH  49  63
BRANCH  50  74
ATOM     74  C   UNL     1      13.826   3.150   3.134  1.00  0.00     0.064 A 
ATOM     75  C   UNL     1      13.915   2.143   2.162  1.00  0.00     0.173 A 
ATOM     76  C   UNL     1      14.719   4.227   3.041  1.00  0.00     0.173 A 
ATOM     77  F   UNL     1      13.093   1.085   2.218  1.00  0.00    -0.203 F 
ATOM     78  C   UNL     1      14.864   2.207   1.144  1.00  0.00     0.198 A 
ATOM     79  C   UNL     1      15.647   4.305   2.005  1.00  0.00     0.198 A 
ATOM     80  F   UNL     1      14.670   5.220   3.941  1.00  0.00    -0.203 F 
ATOM     81  F   UNL     1      14.949   1.215   0.248  1.00  0.00    -0.200 F 
ATOM     82  C   UNL     1      15.723   3.292   1.060  1.00  0.00     0.200 A 
ATOM     83  F   UNL     1      16.463   5.364   1.917  1.00  0.00    -0.200 F 
ATOM     84  F   UNL     1      16.624   3.361   0.072  1.00  0.00    -0.200 F 
ENDBRANCH  50  74
BRANCH  62  85
ATOM     85  C   UNL     1      12.631  -1.150   8.516  1.00  0.00     0.064 A 
ATOM     86  C   UNL     1      13.835  -1.037   9.226  1.00  0.00     0.173 A 
ATOM     87  C   UNL     1      12.049  -2.423   8.407  1.00  0.00     0.173 A 
ATOM     88  F   UNL     1      14.439   0.155   9.346  1.00  0.00    -0.203 F 
ATOM     89  C   UNL     1      14.431  -2.155   9.805  1.00  0.00     0.198 A 
ATOM     90  C   UNL     1      12.631  -3.532   9.013  1.00  0.00     0.198 A 
ATOM     91  F   UNL     1      10.894  -2.583   7.744  1.00  0.00    -0.203 F 
ATOM     92  F   UNL     1      15.593  -2.028  10.460  1.00  0.00    -0.200 F 
ATOM     93  C   UNL     1      13.822  -3.397   9.711  1.00  0.00     0.200 A 
ATOM     94  F   UNL     1      12.031  -4.728   8.937  1.00  0.00    -0.200 F 
ATOM     95  F   UNL     1      14.382  -4.466  10.295  1.00  0.00    -0.200 F 
ENDBRANCH  62  85
ENDBRANCH  36  37
ENDBRANCH  29  31
ENDBRANCH  28  29
ENDBRANCH  27  28
ENDBRANCH  26  27
ENDBRANCH  25  26
ENDBRANCH   1  25
TORSDOF 17
