REMARK SMILES C[NH2+][C@H]1CC[C@@H](Nc2ccc(C(=O)OCCOCCOC(=O)c3ccc(-c4c5nc(c(-c6c(F)c(F)c(F)c(F)c6F)c6ccc([nH]6)c(-c6c(F)c(F)c(F)c(F)c6F)c6nc(c(-c7c(F)c(F)c(F)c(F)c7F)c7ccc4[nH]7)C=C6)C=C5)cc3)c(F)c2F)CC1
REMARK SMILES IDX 16 1 15 2 14 3 12 4 13 5 11 6 8 7 9 8 88 9 10 10 86 11 89 12
REMARK SMILES IDX 87 13 7 14 6 16 3 17 91 18 4 19 90 20 5 21 2 22 1 23 17 26
REMARK SMILES IDX 18 27 19 28 20 29 21 30 22 31 23 32 24 33 85 34 25 35 84 36
REMARK SMILES IDX 26 37 27 38 28 39 78 40 29 41 83 42 77 43 79 44 30 45 82 46
REMARK SMILES IDX 76 47 75 48 31 50 63 51 43 52 62 53 44 54 47 55 61 56 80 57
REMARK SMILES IDX 45 58 46 59 60 61 81 62 48 63 32 64 33 65 41 66 34 67 35 68
REMARK SMILES IDX 39 69 42 70 36 71 37 72 40 73 38 74 64 75 65 76 73 77 66 78
REMARK SMILES IDX 67 79 71 80 74 81 68 82 69 83 72 84 70 85 49 86 50 87 58 88
REMARK SMILES IDX 51 89 52 90 56 91 59 92 53 93 54 94 57 95 55 96
REMARK H PARENT 7 15 2 24 2 25 79 49 47 60
REMARK Flexibility Score: inf
ROOT
ATOM      1  C   UNL     1      -8.651   1.404   7.735  1.00  0.00     0.202 C 
ENDROOT
BRANCH   1   2
ATOM      2  C   UNL     1      -7.267   0.909   8.165  1.00  0.00     0.261 C 
BRANCH   2   3
ATOM      3  O   UNL     1      -6.312   1.083   7.106  1.00  0.00    -0.460 OA
BRANCH   3   4
ATOM      4  C   UNL     1      -5.759  -0.052   6.625  1.00  0.00     0.341 C 
ATOM      5  O   UNL     1      -5.898  -1.186   7.067  1.00  0.00    -0.246 OA
BRANCH   4   6
ATOM      6  C   UNL     1      -5.089   0.208   5.344  1.00  0.00     0.099 A 
ATOM      7  C   UNL     1      -3.761   0.540   2.881  1.00  0.00     0.074 A 
ATOM      8  C   UNL     1      -4.656  -0.514   3.061  1.00  0.00     0.030 A 
ATOM      9  C   UNL     1      -3.593   1.450   3.945  1.00  0.00     0.182 A 
ATOM     10  C   UNL     1      -5.297  -0.697   4.292  1.00  0.00     0.021 A 
ATOM     11  C   UNL     1      -4.255   1.300   5.158  1.00  0.00     0.175 A 
ATOM     12  F   UNL     1      -2.766   2.497   3.776  1.00  0.00    -0.201 F 
ATOM     13  F   UNL     1      -4.050   2.197   6.134  1.00  0.00    -0.203 F 
BRANCH   7  14
ATOM     14  N   UNL     1      -3.047   0.740   1.714  1.00  0.00    -0.380 N 
ATOM     15  H   UNL     1      -2.122   1.064   1.806  1.00  0.00     0.160 HD
BRANCH  14  16
ATOM     16  C   UNL     1      -3.537   0.516   0.358  1.00  0.00     0.079 C 
ATOM     17  C   UNL     1      -0.984   0.305  -1.186  1.00  0.00     0.182 C 
ATOM     18  C   UNL     1      -1.531  -0.875  -0.365  1.00  0.00     0.067 C 
ATOM     19  C   UNL     1      -1.510   1.666  -0.699  1.00  0.00     0.067 C 
ATOM     20  C   UNL     1      -3.051  -0.820  -0.209  1.00  0.00     0.031 C 
ATOM     21  C   UNL     1      -3.035   1.670  -0.526  1.00  0.00     0.031 C 
BRANCH  17  22
ATOM     22  N   UNL     1       0.481   0.309  -1.315  1.00  0.00    -0.346 N 
ATOM     23  C   UNL     1       1.218   0.137  -0.069  1.00  0.00     0.331 C 
ATOM     24  H   UNL     1       0.744  -0.450  -1.943  1.00  0.00     0.346 HD
ATOM     25  H   UNL     1       0.731   1.234  -1.663  1.00  0.00     0.346 HD
ENDBRANCH  17  22
ENDBRANCH  14  16
ENDBRANCH   7  14
ENDBRANCH   4   6
ENDBRANCH   3   4
ENDBRANCH   2   3
ENDBRANCH   1   2
BRANCH   1  26
ATOM     26  O   UNL     1      -9.272   0.664   6.682  1.00  0.00    -0.374 OA
BRANCH  26  27
ATOM     27  C   UNL     1      -8.848   0.955   5.349  1.00  0.00     0.202 C 
BRANCH  27  28
ATOM     28  C   UNL     1      -9.484   2.188   4.697  1.00  0.00     0.261 C 
BRANCH  28  29
ATOM     29  O   UNL     1      -9.113   3.402   5.372  1.00  0.00    -0.460 OA
BRANCH  29  30
ATOM     30  C   UNL     1     -10.117   3.992   6.059  1.00  0.00     0.338 C 
ATOM     31  O   UNL     1     -11.296   3.664   6.077  1.00  0.00    -0.246 OA
BRANCH  30  32
ATOM     32  C   UNL     1      -9.587   5.038   6.952  1.00  0.00     0.060 A 
ATOM     33  C   UNL     1     -10.012   5.013   8.286  1.00  0.00     0.016 A 
ATOM     34  C   UNL     1      -8.770   6.072   6.487  1.00  0.00     0.016 A 
ATOM     35  C   UNL     1      -9.679   6.057   9.143  1.00  0.00     0.010 A 
ATOM     36  C   UNL     1      -8.439   7.124   7.350  1.00  0.00     0.010 A 
ATOM     37  C   UNL     1      -8.930   7.142   8.668  1.00  0.00    -0.014 A 
BRANCH  37  38
ATOM     38  C   UNL     1      -8.804   8.352   9.515  1.00  0.00     0.031 A 
ATOM     39  C   UNL     1      -9.729   9.512   9.274  1.00  0.00     0.074 A 
ATOM     40  C   UNL     1      -7.926   8.390  10.532  1.00  0.00     0.049 A 
ATOM     41  N   UNL     1      -9.825  10.647   9.920  1.00  0.00    -0.248 NA
ATOM     42  C   UNL     1     -10.677   9.376   8.156  1.00  0.00     0.031 C 
ATOM     43  C   UNL     1      -7.005   7.313  10.887  1.00  0.00     0.029 A 
ATOM     44  N   UNL     1      -7.674   9.371  11.458  1.00  0.00    -0.354 N 
ATOM     45  C   UNL     1     -10.840  11.354   9.292  1.00  0.00     0.074 A 
ATOM     46  C   UNL     1     -11.308  10.541   8.191  1.00  0.00     0.031 C 
ATOM     47  C   UNL     1      -6.290   7.690  11.961  1.00  0.00     0.029 A 
ATOM     48  C   UNL     1      -6.686   9.043  12.352  1.00  0.00     0.049 A 
ATOM     49  H   UNL     1      -8.156  10.229  11.479  1.00  0.00     0.167 HD
ATOM     50  C   UNL     1     -11.348  12.567   9.615  1.00  0.00     0.037 A 
ATOM     51  C   UNL     1      -6.158   9.755  13.367  1.00  0.00     0.037 A 
ATOM     52  C   UNL     1     -10.889  13.371  10.716  1.00  0.00     0.049 A 
ATOM     53  C   UNL     1      -6.696  11.129  13.668  1.00  0.00     0.074 A 
ATOM     54  C   UNL     1     -11.359  14.602  11.138  1.00  0.00     0.029 A 
ATOM     55  N   UNL     1      -9.849  13.026  11.567  1.00  0.00    -0.354 N 
ATOM     56  N   UNL     1      -7.673  11.779  13.086  1.00  0.00    -0.248 NA
ATOM     57  C   UNL     1      -6.059  11.867  14.769  1.00  0.00     0.031 C 
ATOM     58  C   UNL     1     -10.572  15.025  12.212  1.00  0.00     0.029 A 
ATOM     59  C   UNL     1      -9.644  14.035  12.493  1.00  0.00     0.049 A 
ATOM     60  H   UNL     1      -9.334  12.188  11.519  1.00  0.00     0.167 HD
ATOM     61  C   UNL     1      -7.783  12.990  13.757  1.00  0.00     0.074 A 
ATOM     62  C   UNL     1      -6.779  12.982  14.800  1.00  0.00     0.031 C 
ATOM     63  C   UNL     1      -8.640  14.014  13.527  1.00  0.00     0.037 A 
BRANCH  50  64
ATOM     64  C   UNL     1     -12.454  13.111   8.761  1.00  0.00     0.064 A 
ATOM     65  C   UNL     1     -12.225  14.207   7.917  1.00  0.00     0.173 A 
ATOM     66  C   UNL     1     -13.754  12.588   8.823  1.00  0.00     0.173 A 
ATOM     67  F   UNL     1     -11.001  14.746   7.825  1.00  0.00    -0.203 F 
ATOM     68  C   UNL     1     -13.261  14.767   7.173  1.00  0.00     0.198 A 
ATOM     69  C   UNL     1     -14.782  13.134   8.058  1.00  0.00     0.198 A 
ATOM     70  F   UNL     1     -14.021  11.532   9.607  1.00  0.00    -0.203 F 
ATOM     71  F   UNL     1     -13.025  15.832   6.394  1.00  0.00    -0.200 F 
ATOM     72  C   UNL     1     -14.537  14.228   7.242  1.00  0.00     0.200 A 
ATOM     73  F   UNL     1     -16.009  12.598   8.108  1.00  0.00    -0.200 F 
ATOM     74  F   UNL     1     -15.530  14.761   6.517  1.00  0.00    -0.200 F 
ENDBRANCH  50  64
BRANCH  51  75
ATOM     75  C   UNL     1      -5.063   9.165  14.177  1.00  0.00     0.064 A 
ATOM     76  C   UNL     1      -3.784   8.970  13.635  1.00  0.00     0.173 A 
ATOM     77  C   UNL     1      -5.283   8.752  15.498  1.00  0.00     0.173 A 
ATOM     78  F   UNL     1      -3.523   9.351  12.376  1.00  0.00    -0.203 F 
ATOM     79  C   UNL     1      -2.773   8.361  14.376  1.00  0.00     0.198 A 
ATOM     80  C   UNL     1      -4.264   8.164  16.246  1.00  0.00     0.198 A 
ATOM     81  F   UNL     1      -6.482   8.940  16.067  1.00  0.00    -0.203 F 
ATOM     82  F   UNL     1      -1.571   8.155  13.822  1.00  0.00    -0.200 F 
ATOM     83  C   UNL     1      -3.014   7.960  15.681  1.00  0.00     0.200 A 
ATOM     84  F   UNL     1      -4.493   7.798  17.514  1.00  0.00    -0.200 F 
ATOM     85  F   UNL     1      -2.040   7.379  16.395  1.00  0.00    -0.200 F 
ENDBRANCH  51  75
BRANCH  63  86
ATOM     86  C   UNL     1      -8.551  15.217  14.420  1.00  0.00     0.064 A 
ATOM     87  C   UNL     1      -9.571  15.496  15.343  1.00  0.00     0.173 A 
ATOM     88  C   UNL     1      -7.507  16.144  14.294  1.00  0.00     0.173 A 
ATOM     89  F   UNL     1     -10.597  14.645  15.494  1.00  0.00    -0.203 F 
ATOM     90  C   UNL     1      -9.559  16.669  16.092  1.00  0.00     0.198 A 
ATOM     91  C   UNL     1      -7.485  17.304  15.064  1.00  0.00     0.198 A 
ATOM     92  F   UNL     1      -6.503  15.918  13.433  1.00  0.00    -0.203 F 
ATOM     93  F   UNL     1     -10.564  16.933  16.938  1.00  0.00    -0.200 F 
ATOM     94  C   UNL     1      -8.515  17.571  15.953  1.00  0.00     0.200 A 
ATOM     95  F   UNL     1      -6.465  18.166  14.943  1.00  0.00    -0.200 F 
ATOM     96  F   UNL     1      -8.503  18.699  16.677  1.00  0.00    -0.200 F 
ENDBRANCH  63  86
ENDBRANCH  37  38
ENDBRANCH  30  32
ENDBRANCH  29  30
ENDBRANCH  28  29
ENDBRANCH  27  28
ENDBRANCH  26  27
ENDBRANCH   1  26
TORSDOF 17
