REMARK SMILES CSc1ncccc1C(=O)N1CSC[C@H]1C(=O)OCCOCCOC(=O)c1ccc(-c2c3nc(c(-c4c(F)c(F)c(F)c(F)c4F)c4ccc([nH]4)c(-c4c(F)c(F)c(F)c(F)c4F)c4nc(c(-c5c(F)c(F)c(F)c(F)c5F)c5ccc2[nH]5)C=C4)C=C3)cc1
REMARK SMILES IDX 20 1 19 2 18 3 16 4 17 5 15 6 11 7 12 8 13 9 14 10 9 11
REMARK SMILES IDX 10 12 8 13 3 14 4 15 5 16 7 17 6 18 2 19 1 20 21 21 22 22
REMARK SMILES IDX 23 23 24 24 25 25 26 26 27 27 28 28 89 29 29 30 88 31 30 32
REMARK SMILES IDX 31 33 32 34 82 35 33 36 87 37 81 38 83 39 34 40 86 41 80 42
REMARK SMILES IDX 79 43 35 45 67 46 47 47 66 48 48 49 51 50 65 51 84 52 49 53
REMARK SMILES IDX 50 54 64 56 85 57 52 58 36 59 37 60 45 61 38 62 39 63 43 64
REMARK SMILES IDX 46 65 40 66 41 67 44 68 42 69 68 70 69 71 77 72 70 73 71 74
REMARK SMILES IDX 75 75 78 76 72 77 73 78 76 79 74 80 53 81 54 82 62 83 55 84
REMARK SMILES IDX 56 85 60 86 63 87 57 88 58 89 61 90 59 91
REMARK H PARENT 83 44 51 55
REMARK Flexibility Score: inf
ROOT
ATOM      1  C   UNL     1       5.221  -2.947   2.288  1.00  0.00     0.202 C 
ENDROOT
BRANCH   1   2
ATOM      2  C   UNL     1       5.828  -1.691   2.930  1.00  0.00     0.261 C 
BRANCH   2   3
ATOM      3  O   UNL     1       5.206  -0.446   2.545  1.00  0.00    -0.462 OA
BRANCH   3   4
ATOM      4  C   UNL     1       6.056   0.455   1.977  1.00  0.00     0.329 C 
ATOM      5  O   UNL     1       7.261   0.266   1.826  1.00  0.00    -0.250 OA
BRANCH   4   6
ATOM      6  C   UNL     1       5.426   1.802   1.611  1.00  0.00     0.206 C 
ATOM      7  N   UNL     1       3.976   2.040   1.591  1.00  0.00    -0.315 N 
ATOM      8  C   UNL     1       3.428   2.377   2.885  1.00  0.00     0.191 C 
ATOM      9  S   UNL     1       4.725   3.291   3.745  1.00  0.00    -0.138 SA
ATOM     10  C   UNL     1       6.031   2.848   2.554  1.00  0.00     0.108 C 
BRANCH   7  11
ATOM     11  C   UNL     1       3.324   2.120   0.362  1.00  0.00     0.258 C 
ATOM     12  O   UNL     1       3.700   1.444  -0.591  1.00  0.00    -0.269 OA
BRANCH  11  13
ATOM     13  C   UNL     1       2.286   3.175   0.160  1.00  0.00     0.072 A 
ATOM     14  C   UNL     1       1.139   3.023  -0.627  1.00  0.00     0.108 A 
ATOM     15  N   UNL     1       0.259   4.049  -0.820  1.00  0.00    -0.249 NA
ATOM     16  C   UNL     1       0.554   5.264  -0.312  1.00  0.00     0.112 A 
ATOM     17  C   UNL     1       2.573   4.467   0.642  1.00  0.00     0.018 A 
ATOM     18  C   UNL     1       1.701   5.525   0.407  1.00  0.00     0.021 A 
BRANCH  14  19
ATOM     19  S   UNL     1       0.731   1.597  -1.613  1.00  0.00    -0.109 SA
ATOM     20  C   UNL     1       0.234   0.414  -0.349  1.00  0.00     0.092 C 
ENDBRANCH  14  19
ENDBRANCH  11  13
ENDBRANCH   7  11
ENDBRANCH   4   6
ENDBRANCH   3   4
ENDBRANCH   2   3
ENDBRANCH   1   2
BRANCH   1  21
ATOM     21  O   UNL     1       5.082  -2.987   0.873  1.00  0.00    -0.374 OA
BRANCH  21  22
ATOM     22  C   UNL     1       4.327  -1.957   0.249  1.00  0.00     0.202 C 
BRANCH  22  23
ATOM     23  C   UNL     1       2.856  -1.790   0.652  1.00  0.00     0.261 C 
BRANCH  23  24
ATOM     24  O   UNL     1       2.589  -1.853   2.064  1.00  0.00    -0.460 OA
BRANCH  24  25
ATOM     25  C   UNL     1       1.633  -2.744   2.421  1.00  0.00     0.338 C 
ATOM     26  O   UNL     1       0.920  -3.412   1.693  1.00  0.00    -0.246 OA
BRANCH  25  27
ATOM     27  C   UNL     1       1.591  -2.884   3.886  1.00  0.00     0.060 A 
ATOM     28  C   UNL     1       2.109  -4.051   4.459  1.00  0.00     0.016 A 
ATOM     29  C   UNL     1       0.903  -1.951   4.665  1.00  0.00     0.016 A 
ATOM     30  C   UNL     1       1.904  -4.306   5.815  1.00  0.00     0.010 A 
ATOM     31  C   UNL     1       0.700  -2.209   6.025  1.00  0.00     0.010 A 
ATOM     32  C   UNL     1       1.165  -3.406   6.598  1.00  0.00    -0.014 A 
BRANCH  32  33
ATOM     33  C   UNL     1       0.771  -3.797   7.974  1.00  0.00     0.031 A 
ATOM     34  C   UNL     1      -0.609  -4.343   8.220  1.00  0.00     0.074 A 
ATOM     35  C   UNL     1       1.654  -3.713   8.985  1.00  0.00     0.049 A 
ATOM     36  N   UNL     1      -1.140  -4.794   9.328  1.00  0.00    -0.248 NA
ATOM     37  C   UNL     1      -1.513  -4.387   7.059  1.00  0.00     0.031 C 
ATOM     38  C   UNL     1       3.022  -3.213   8.868  1.00  0.00     0.029 A 
ATOM     39  N   UNL     1       1.532  -4.055  10.309  1.00  0.00    -0.354 N 
ATOM     40  C   UNL     1      -2.434  -5.178   8.999  1.00  0.00     0.074 A 
ATOM     41  C   UNL     1      -2.623  -4.872   7.597  1.00  0.00     0.031 C 
ATOM     42  C   UNL     1       3.617  -3.285  10.071  1.00  0.00     0.029 A 
ATOM     43  C   UNL     1       2.666  -3.820  11.044  1.00  0.00     0.049 A 
ATOM     44  H   UNL     1       0.708  -4.433  10.694  1.00  0.00     0.167 HD
ATOM     45  C   UNL     1      -3.375  -5.748   9.790  1.00  0.00     0.037 A 
ATOM     46  C   UNL     1       2.908  -4.015  12.355  1.00  0.00     0.037 A 
ATOM     47  C   UNL     1      -3.186  -6.053  11.185  1.00  0.00     0.049 A 
ATOM     48  C   UNL     1       1.835  -4.623  13.220  1.00  0.00     0.074 A 
ATOM     49  C   UNL     1      -4.072  -6.643  12.070  1.00  0.00     0.029 A 
ATOM     50  N   UNL     1      -2.026  -5.787  11.898  1.00  0.00    -0.354 N 
ATOM     51  N   UNL     1       0.629  -5.018  12.890  1.00  0.00    -0.248 NA
ATOM     52  C   UNL     1       2.164  -4.825  14.638  1.00  0.00     0.031 C 
ATOM     53  C   UNL     1      -3.463  -6.696  13.329  1.00  0.00     0.029 A 
ATOM     54  C   UNL     1      -2.180  -6.184  13.217  1.00  0.00     0.049 A 
ATOM     55  H   UNL     1      -1.214  -5.376  11.523  1.00  0.00     0.167 HD
ATOM     56  C   UNL     1       0.067  -5.539  14.047  1.00  0.00     0.074 A 
ATOM     57  C   UNL     1       1.070  -5.424  15.086  1.00  0.00     0.031 C 
ATOM     58  C   UNL     1      -1.168  -6.066  14.235  1.00  0.00     0.037 A 
BRANCH  45  59
ATOM     59  C   UNL     1      -4.703  -6.066   9.167  1.00  0.00     0.064 A 
ATOM     60  C   UNL     1      -4.853  -7.121   8.254  1.00  0.00     0.173 A 
ATOM     61  C   UNL     1      -5.845  -5.328   9.511  1.00  0.00     0.173 A 
ATOM     62  F   UNL     1      -3.789  -7.849   7.883  1.00  0.00    -0.203 F 
ATOM     63  C   UNL     1      -6.093  -7.409   7.690  1.00  0.00     0.198 A 
ATOM     64  C   UNL     1      -7.089  -5.635   8.964  1.00  0.00     0.198 A 
ATOM     65  F   UNL     1      -5.757  -4.311  10.381  1.00  0.00    -0.203 F 
ATOM     66  F   UNL     1      -6.205  -8.394   6.787  1.00  0.00    -0.200 F 
ATOM     67  C   UNL     1      -7.211  -6.671   8.050  1.00  0.00     0.200 A 
ATOM     68  F   UNL     1      -8.169  -4.927   9.320  1.00  0.00    -0.200 F 
ATOM     69  F   UNL     1      -8.405  -6.952   7.510  1.00  0.00    -0.200 F 
ENDBRANCH  45  59
BRANCH  46  70
ATOM     70  C   UNL     1       4.229  -3.646  12.927  1.00  0.00     0.064 A 
ATOM     71  C   UNL     1       5.129  -4.627  13.364  1.00  0.00     0.173 A 
ATOM     72  C   UNL     1       4.612  -2.304  13.058  1.00  0.00     0.173 A 
ATOM     73  F   UNL     1       4.798  -5.924  13.282  1.00  0.00    -0.203 F 
ATOM     74  C   UNL     1       6.356  -4.279  13.927  1.00  0.00     0.198 A 
ATOM     75  C   UNL     1       5.850  -1.957  13.595  1.00  0.00     0.198 A 
ATOM     76  F   UNL     1       3.787  -1.327  12.654  1.00  0.00    -0.203 F 
ATOM     77  F   UNL     1       7.180  -5.235  14.377  1.00  0.00    -0.200 F 
ATOM     78  C   UNL     1       6.718  -2.945  14.036  1.00  0.00     0.200 A 
ATOM     79  F   UNL     1       6.201  -0.667  13.687  1.00  0.00    -0.200 F 
ATOM     80  F   UNL     1       7.899  -2.611  14.573  1.00  0.00    -0.200 F 
ENDBRANCH  46  70
BRANCH  58  81
ATOM     81  C   UNL     1      -1.488  -6.589  15.605  1.00  0.00     0.064 A 
ATOM     82  C   UNL     1      -1.706  -5.728  16.690  1.00  0.00     0.173 A 
ATOM     83  C   UNL     1      -1.603  -7.970  15.828  1.00  0.00     0.173 A 
ATOM     84  F   UNL     1      -1.593  -4.400  16.531  1.00  0.00    -0.203 F 
ATOM     85  C   UNL     1      -1.994  -6.231  17.956  1.00  0.00     0.198 A 
ATOM     86  C   UNL     1      -1.920  -8.468  17.089  1.00  0.00     0.198 A 
ATOM     87  F   UNL     1      -1.413  -8.836  14.822  1.00  0.00    -0.203 F 
ATOM     88  F   UNL     1      -2.146  -5.391  18.990  1.00  0.00    -0.200 F 
ATOM     89  C   UNL     1      -2.106  -7.599  18.153  1.00  0.00     0.200 A 
ATOM     90  F   UNL     1      -2.040  -9.790  17.275  1.00  0.00    -0.200 F 
ATOM     91  F   UNL     1      -2.385  -8.081  19.372  1.00  0.00    -0.200 F 
ENDBRANCH  58  81
ENDBRANCH  32  33
ENDBRANCH  25  27
ENDBRANCH  24  25
ENDBRANCH  23  24
ENDBRANCH  22  23
ENDBRANCH  21  22
ENDBRANCH   1  21
TORSDOF 17
