REMARK SMILES O=C(OCCOCCOC(=O)[C@H]1CC2(CC[NH+](C(=O)c3cccc(O)c3)CC2)CN1C(=O)C1CC1)c1ccc(-c2c3nc(c(-c4c(F)c(F)c(F)c(F)c4F)c4ccc([nH]4)c(-c4c(F)c(F)c(F)c(F)c4F)c4nc(c(-c5c(F)c(F)c(F)c(F)c5F)c5ccc2[nH]5)C=C4)C=C3)cc1
REMARK SMILES IDX 7 1 6 2 5 3 4 4 3 5 2 6 1 7 36 8 37 9 98 10 38 11 97 12
REMARK SMILES IDX 39 13 40 14 41 15 91 16 42 17 96 18 90 19 92 20 43 21 95 22
REMARK SMILES IDX 89 23 88 24 44 26 76 27 56 28 75 29 57 30 60 31 74 32 93 33
REMARK SMILES IDX 58 34 59 35 73 37 94 38 61 39 45 40 46 41 54 42 47 43 48 44
REMARK SMILES IDX 52 45 55 46 49 47 50 48 53 49 51 50 77 51 78 52 86 53 79 54
REMARK SMILES IDX 80 55 84 56 87 57 81 58 82 59 85 60 83 61 62 62 63 63 71 64
REMARK SMILES IDX 64 65 65 66 69 67 72 68 66 69 67 70 70 71 68 72 8 73 9 74
REMARK SMILES IDX 10 75 11 76 12 77 13 78 30 79 14 80 29 81 15 82 28 83 16 84
REMARK SMILES IDX 27 85 17 86 31 88 32 89 33 90 34 91 35 92 18 93 19 94 20 95
REMARK SMILES IDX 21 96 26 97 22 98 24 99 23 100 25 101
REMARK H PARENT 92 25 60 36 17 87 25 102
REMARK Flexibility Score: inf
ROOT
ATOM      1  C   UNL     1       8.214  -1.109   3.246  1.00  0.00     0.202 C 
ENDROOT
BRANCH   1   2
ATOM      2  O   UNL     1       7.265  -0.377   2.461  1.00  0.00    -0.374 OA
BRANCH   2   3
ATOM      3  C   UNL     1       6.306  -1.137   1.719  1.00  0.00     0.202 C 
BRANCH   3   4
ATOM      4  C   UNL     1       6.674  -1.384   0.258  1.00  0.00     0.261 C 
BRANCH   4   5
ATOM      5  O   UNL     1       7.825  -2.227   0.183  1.00  0.00    -0.460 OA
BRANCH   5   6
ATOM      6  C   UNL     1       9.116  -1.835   0.164  1.00  0.00     0.338 C 
ATOM      7  O   UNL     1       9.989  -2.667   0.401  1.00  0.00    -0.246 OA
BRANCH   6   8
ATOM      8  C   UNL     1       9.555  -0.451  -0.179  1.00  0.00     0.060 A 
ATOM      9  C   UNL     1       8.930   0.732   0.230  1.00  0.00     0.016 A 
ATOM     10  C   UNL     1      10.787  -0.355  -0.844  1.00  0.00     0.016 A 
ATOM     11  C   UNL     1       9.512   1.973   0.012  1.00  0.00     0.010 A 
ATOM     12  C   UNL     1      11.391   0.884  -1.048  1.00  0.00     0.010 A 
ATOM     13  C   UNL     1      10.758   2.048  -0.601  1.00  0.00    -0.014 A 
BRANCH  13  14
ATOM     14  C   UNL     1      11.378   3.365  -0.797  1.00  0.00     0.031 A 
ATOM     15  C   UNL     1      11.342   3.966  -2.162  1.00  0.00     0.074 A 
ATOM     16  C   UNL     1      11.931   3.995   0.254  1.00  0.00     0.049 A 
ATOM     17  N   UNL     1      11.947   5.030  -2.610  1.00  0.00    -0.248 NA
ATOM     18  C   UNL     1      10.507   3.275  -3.159  1.00  0.00     0.031 C 
ATOM     19  C   UNL     1      11.912   3.507   1.636  1.00  0.00     0.029 A 
ATOM     20  N   UNL     1      12.622   5.175   0.327  1.00  0.00    -0.354 N 
ATOM     21  C   UNL     1      11.600   5.115  -3.949  1.00  0.00     0.074 A 
ATOM     22  C   UNL     1      10.721   4.006  -4.242  1.00  0.00     0.031 C 
ATOM     23  C   UNL     1      12.577   4.374   2.417  1.00  0.00     0.029 A 
ATOM     24  C   UNL     1      13.128   5.432   1.579  1.00  0.00     0.049 A 
ATOM     25  H   UNL     1      12.745   5.779  -0.441  1.00  0.00     0.167 HD
ATOM     26  C   UNL     1      12.008   6.038  -4.846  1.00  0.00     0.037 A 
ATOM     27  C   UNL     1      13.993   6.386   1.974  1.00  0.00     0.037 A 
ATOM     28  C   UNL     1      12.878   7.131  -4.507  1.00  0.00     0.049 A 
ATOM     29  C   UNL     1      14.497   7.348   0.928  1.00  0.00     0.074 A 
ATOM     30  C   UNL     1      13.358   8.137  -5.322  1.00  0.00     0.029 A 
ATOM     31  N   UNL     1      13.404   7.347  -3.240  1.00  0.00    -0.354 N 
ATOM     32  N   UNL     1      14.175   7.432  -0.342  1.00  0.00    -0.248 NA
ATOM     33  C   UNL     1      15.498   8.332   1.357  1.00  0.00     0.031 C 
ATOM     34  C   UNL     1      14.227   8.925  -4.562  1.00  0.00     0.029 A 
ATOM     35  C   UNL     1      14.242   8.446  -3.260  1.00  0.00     0.049 A 
ATOM     36  H   UNL     1      13.209   6.799  -2.445  1.00  0.00     0.167 HD
ATOM     37  C   UNL     1      14.921   8.480  -0.860  1.00  0.00     0.074 A 
ATOM     38  C   UNL     1      15.691   9.023   0.242  1.00  0.00     0.031 C 
ATOM     39  C   UNL     1      14.981   8.951  -2.130  1.00  0.00     0.037 A 
BRANCH  26  40
ATOM     40  C   UNL     1      11.586   5.862  -6.272  1.00  0.00     0.064 A 
ATOM     41  C   UNL     1      10.271   6.090  -6.698  1.00  0.00     0.173 A 
ATOM     42  C   UNL     1      12.531   5.472  -7.234  1.00  0.00     0.173 A 
ATOM     43  F   UNL     1       9.324   6.436  -5.813  1.00  0.00    -0.203 F 
ATOM     44  C   UNL     1       9.914   5.925  -8.035  1.00  0.00     0.198 A 
ATOM     45  C   UNL     1      12.177   5.333  -8.573  1.00  0.00     0.198 A 
ATOM     46  F   UNL     1      13.800   5.229  -6.875  1.00  0.00    -0.203 F 
ATOM     47  F   UNL     1       8.642   6.109  -8.415  1.00  0.00    -0.200 F 
ATOM     48  C   UNL     1      10.868   5.556  -8.972  1.00  0.00     0.200 A 
ATOM     49  F   UNL     1      13.102   4.980  -9.475  1.00  0.00    -0.200 F 
ATOM     50  F   UNL     1      10.525   5.405 -10.258  1.00  0.00    -0.200 F 
ENDBRANCH  26  40
BRANCH  27  51
ATOM     51  C   UNL     1      14.502   6.427   3.373  1.00  0.00     0.064 A 
ATOM     52  C   UNL     1      14.274   7.535   4.200  1.00  0.00     0.173 A 
ATOM     53  C   UNL     1      15.276   5.379   3.898  1.00  0.00     0.173 A 
ATOM     54  F   UNL     1      13.560   8.575   3.745  1.00  0.00    -0.203 F 
ATOM     55  C   UNL     1      14.829   7.610   5.479  1.00  0.00     0.198 A 
ATOM     56  C   UNL     1      15.798   5.437   5.189  1.00  0.00     0.198 A 
ATOM     57  F   UNL     1      15.531   4.292   3.154  1.00  0.00    -0.203 F 
ATOM     58  F   UNL     1      14.653   8.713   6.219  1.00  0.00    -0.200 F 
ATOM     59  C   UNL     1      15.587   6.560   5.973  1.00  0.00     0.200 A 
ATOM     60  F   UNL     1      16.517   4.412   5.665  1.00  0.00    -0.200 F 
ATOM     61  F   UNL     1      16.127   6.636   7.197  1.00  0.00    -0.200 F 
ENDBRANCH  27  51
BRANCH  39  62
ATOM     62  C   UNL     1      15.895  10.111  -2.382  1.00  0.00     0.064 A 
ATOM     63  C   UNL     1      17.288   9.950  -2.401  1.00  0.00     0.173 A 
ATOM     64  C   UNL     1      15.369  11.375  -2.685  1.00  0.00     0.173 A 
ATOM     65  F   UNL     1      17.835   8.763  -2.101  1.00  0.00    -0.203 F 
ATOM     66  C   UNL     1      18.123  11.021  -2.702  1.00  0.00     0.198 A 
ATOM     67  C   UNL     1      16.206  12.434  -3.019  1.00  0.00     0.198 A 
ATOM     68  F   UNL     1      14.042  11.573  -2.687  1.00  0.00    -0.203 F 
ATOM     69  F   UNL     1      19.453  10.857  -2.678  1.00  0.00    -0.200 F 
ATOM     70  C   UNL     1      17.581  12.257  -3.023  1.00  0.00     0.200 A 
ATOM     71  F   UNL     1      15.681  13.622  -3.348  1.00  0.00    -0.200 F 
ATOM     72  F   UNL     1      18.387  13.281  -3.335  1.00  0.00    -0.200 F 
ENDBRANCH  39  62
ENDBRANCH  13  14
ENDBRANCH   6   8
ENDBRANCH   5   6
ENDBRANCH   4   5
ENDBRANCH   3   4
ENDBRANCH   2   3
ENDBRANCH   1   2
BRANCH   1  73
ATOM     73  C   UNL     1       8.384  -0.413   4.606  1.00  0.00     0.261 C 
BRANCH  73  74
ATOM     74  O   UNL     1       7.092  -0.330   5.225  1.00  0.00    -0.462 OA
BRANCH  74  75
ATOM     75  C   UNL     1       6.414   0.859   5.085  1.00  0.00     0.328 C 
ATOM     76  O   UNL     1       6.931   1.962   5.185  1.00  0.00    -0.250 OA
BRANCH  75  77
ATOM     77  C   UNL     1       4.997   0.539   4.560  1.00  0.00     0.195 C 
ATOM     78  C   UNL     1       4.483  -0.704   5.306  1.00  0.00     0.046 C 
ATOM     79  N   UNL     1       3.874   1.465   4.527  1.00  0.00    -0.328 N 
ATOM     80  C   UNL     1       3.020  -0.459   5.691  1.00  0.00     0.001 C 
ATOM     81  C   UNL     1       2.639   0.797   4.911  1.00  0.00     0.128 C 
ATOM     82  C   UNL     1       2.879  -0.218   7.209  1.00  0.00     0.071 C 
ATOM     83  C   UNL     1       2.150  -1.673   5.292  1.00  0.00     0.071 C 
ATOM     84  C   UNL     1       3.204  -1.476   8.012  1.00  0.00     0.271 C 
ATOM     85  C   UNL     1       2.454  -2.909   6.143  1.00  0.00     0.271 C 
ATOM     86  N   UNL     1       2.373  -2.594   7.565  1.00  0.00    -0.267 N 
ATOM     87  H   UNL     1       2.941  -3.316   7.920  1.00  0.00     0.357 HD
BRANCH  79  88
ATOM     88  C   UNL     1       3.720   2.585   3.712  1.00  0.00     0.226 C 
ATOM     89  O   UNL     1       2.602   3.054   3.499  1.00  0.00    -0.275 OA
BRANCH  88  90
ATOM     90  C   UNL     1       4.856   3.306   3.078  1.00  0.00     0.079 C 
ATOM     91  C   UNL     1       6.149   2.827   2.490  1.00  0.00     0.014 C 
ATOM     92  C   UNL     1       5.012   3.109   1.571  1.00  0.00     0.014 C 
ENDBRANCH  88  90
ENDBRANCH  79  88
BRANCH  86  93
ATOM     93  C   UNL     1       1.678  -3.457   8.408  1.00  0.00     0.344 C 
ATOM     94  O   UNL     1       1.167  -4.511   8.041  1.00  0.00    -0.226 OA
BRANCH  93  95
ATOM     95  C   UNL     1       1.558  -3.086   9.832  1.00  0.00     0.083 A 
ATOM     96  C   UNL     1       0.937  -1.884  10.198  1.00  0.00     0.018 A 
ATOM     97  C   UNL     1       2.104  -3.931  10.797  1.00  0.00     0.064 A 
ATOM     98  C   UNL     1       0.930  -1.493  11.536  1.00  0.00     0.005 A 
ATOM     99  C   UNL     1       2.075  -3.534  12.128  1.00  0.00     0.116 A 
ATOM    100  C   UNL     1       1.507  -2.317  12.504  1.00  0.00     0.046 A 
BRANCH  99 101
ATOM    101  O   UNL     1       2.636  -4.368  13.049  1.00  0.00    -0.508 OA
ATOM    102  H   UNL     1       2.634  -4.133  13.956  1.00  0.00     0.293 HD
ENDBRANCH  99 101
ENDBRANCH  93  95
ENDBRANCH  86  93
ENDBRANCH  75  77
ENDBRANCH  74  75
ENDBRANCH  73  74
ENDBRANCH   1  73
TORSDOF 19
