REMARK SMILES NC(=O)[C@@H]1CCC[N@@H+]1[C@@H](C(=O)OCCOCCOC(=O)c1ccc(-c2c3nc(c(-c4c(F)c(F)c(F)c(F)c4F)c4ccc([nH]4)c(-c4c(F)c(F)c(F)c(F)c4F)c4nc(c(-c5c(F)c(F)c(F)c(F)c5F)c5ccc2[nH]5)C=C4)C=C3)cc1)c1c[nH]c2cc(OCc3ccccc3)ccc12
REMARK SMILES IDX 14 1 13 2 12 3 10 4 11 5 9 6 8 7 4 8 5 9 6 10 7 11 2 13 1 14
REMARK SMILES IDX 3 17 84 18 85 19 100 20 86 21 87 22 99 23 88 25 98 26 89 27
REMARK SMILES IDX 90 28 91 29 92 30 93 31 97 32 94 33 96 34 95 35 15 36 16 37
REMARK SMILES IDX 17 38 18 39 19 40 20 41 21 42 22 43 83 44 23 45 82 46 24 47
REMARK SMILES IDX 25 48 26 49 76 50 27 51 81 52 75 53 77 54 28 55 80 56 74 57
REMARK SMILES IDX 73 58 29 60 61 61 41 62 60 63 42 64 45 65 59 66 78 67 43 68
REMARK SMILES IDX 44 69 58 71 79 72 46 73 30 74 31 75 39 76 32 77 33 78 37 79
REMARK SMILES IDX 40 80 34 81 35 82 38 83 36 84 62 85 63 86 71 87 64 88 65 89
REMARK SMILES IDX 69 90 72 91 66 92 67 93 70 94 68 95 47 96 48 97 56 98 49 99
REMARK SMILES IDX 50 100 54 101 57 102 51 103 52 104 55 105 53 106
REMARK H PARENT 8 12 1 15 1 16 86 24 77 59 45 70
REMARK Flexibility Score: inf
ROOT
ATOM      1  C   UNL     1      -3.120  -4.058   2.411  1.00  0.00     0.202 C 
ENDROOT
BRANCH   1   2
ATOM      2  C   UNL     1      -3.094  -2.530   2.316  1.00  0.00     0.261 C 
BRANCH   2   3
ATOM      3  O   UNL     1      -1.919  -1.974   2.943  1.00  0.00    -0.459 OA
BRANCH   3   4
ATOM      4  C   UNL     1      -2.136  -0.998   3.879  1.00  0.00     0.370 C 
ATOM      5  O   UNL     1      -3.257  -0.672   4.267  1.00  0.00    -0.245 OA
BRANCH   4   6
ATOM      6  C   UNL     1      -0.854  -0.331   4.394  1.00  0.00     0.329 C 
BRANCH   6   7
ATOM      7  N   UNL     1       0.441  -0.767   3.790  1.00  0.00    -0.309 N 
ATOM      8  C   UNL     1       0.846  -0.621   2.391  1.00  0.00     0.275 C 
ATOM      9  C   UNL     1       1.211  -2.048   1.986  1.00  0.00     0.081 C 
ATOM     10  C   UNL     1       1.916  -2.566   3.221  1.00  0.00     0.068 C 
ATOM     11  C   UNL     1       1.217  -1.854   4.371  1.00  0.00     0.264 C 
ATOM     12  H   UNL     1       0.588   0.160   4.188  1.00  0.00     0.349 HD
BRANCH   8  13
ATOM     13  C   UNL     1      -0.065   0.057   1.377  1.00  0.00     0.275 C 
ATOM     14  N   UNL     1       0.522   0.227   0.145  1.00  0.00    -0.365 N 
ATOM     15  H   UNL     1       0.019   0.656  -0.585  1.00  0.00     0.159 HD
ATOM     16  H   UNL     1       1.445  -0.081  -0.007  1.00  0.00     0.159 HD
ATOM     17  O   UNL     1      -1.196   0.480   1.579  1.00  0.00    -0.268 OA
ENDBRANCH   8  13
ENDBRANCH   6   7
BRANCH   6  18
ATOM     18  C   UNL     1      -0.707  -0.344   5.939  1.00  0.00     0.046 A 
ATOM     19  C   UNL     1      -0.061   0.661   6.647  1.00  0.00     0.094 A 
ATOM     20  C   UNL     1      -0.743  -1.414   6.905  1.00  0.00     0.009 A 
ATOM     21  N   UNL     1       0.902  -0.020   7.357  1.00  0.00    -0.361 N 
ATOM     22  C   UNL     1       0.517  -1.329   7.497  1.00  0.00     0.050 A 
ATOM     23  C   UNL     1      -1.530  -2.529   7.254  1.00  0.00     0.015 A 
ATOM     24  H   UNL     1       1.735   0.371   7.708  1.00  0.00     0.166 HD
ATOM     25  C   UNL     1       1.165  -2.437   8.043  1.00  0.00     0.073 A 
ATOM     26  C   UNL     1      -0.954  -3.597   7.981  1.00  0.00     0.047 A 
ATOM     27  C   UNL     1       0.410  -3.595   8.256  1.00  0.00     0.121 A 
BRANCH  27  28
ATOM     28  O   UNL     1       1.154  -4.668   8.665  1.00  0.00    -0.489 OA
BRANCH  28  29
ATOM     29  C   UNL     1       0.605  -5.568   9.629  1.00  0.00     0.265 C 
BRANCH  29  30
ATOM     30  C   UNL     1       0.805  -5.111  11.059  1.00  0.00    -0.011 A 
ATOM     31  C   UNL     1       0.335  -5.915  12.107  1.00  0.00     0.007 A 
ATOM     32  C   UNL     1       1.458  -3.912  11.384  1.00  0.00     0.007 A 
ATOM     33  C   UNL     1       0.479  -5.509  13.435  1.00  0.00     0.000 A 
ATOM     34  C   UNL     1       1.588  -3.498  12.708  1.00  0.00     0.000 A 
ATOM     35  C   UNL     1       1.093  -4.294  13.734  1.00  0.00     0.000 A 
ENDBRANCH  29  30
ENDBRANCH  28  29
ENDBRANCH  27  28
ENDBRANCH   6  18
ENDBRANCH   4   6
ENDBRANCH   3   4
ENDBRANCH   2   3
ENDBRANCH   1   2
BRANCH   1  36
ATOM     36  O   UNL     1      -3.384  -4.651   3.684  1.00  0.00    -0.374 OA
BRANCH  36  37
ATOM     37  C   UNL     1      -2.529  -4.287   4.757  1.00  0.00     0.202 C 
BRANCH  37  38
ATOM     38  C   UNL     1      -1.136  -4.925   4.815  1.00  0.00     0.261 C 
BRANCH  38  39
ATOM     39  O   UNL     1      -0.513  -5.061   3.540  1.00  0.00    -0.460 OA
BRANCH  39  40
ATOM     40  C   UNL     1      -0.541  -6.327   3.066  1.00  0.00     0.338 C 
ATOM     41  O   UNL     1      -0.918  -7.337   3.627  1.00  0.00    -0.246 OA
BRANCH  40  42
ATOM     42  C   UNL     1      -0.183  -6.290   1.644  1.00  0.00     0.060 A 
ATOM     43  C   UNL     1      -1.160  -6.705   0.735  1.00  0.00     0.016 A 
ATOM     44  C   UNL     1       1.090  -5.907   1.220  1.00  0.00     0.016 A 
ATOM     45  C   UNL     1      -0.849  -6.783  -0.615  1.00  0.00     0.010 A 
ATOM     46  C   UNL     1       1.403  -5.989  -0.136  1.00  0.00     0.010 A 
ATOM     47  C   UNL     1       0.445  -6.463  -1.050  1.00  0.00    -0.014 A 
BRANCH  47  48
ATOM     48  C   UNL     1       0.830  -6.793  -2.438  1.00  0.00     0.031 A 
ATOM     49  C   UNL     1       1.573  -8.071  -2.694  1.00  0.00     0.074 A 
ATOM     50  C   UNL     1       0.462  -5.997  -3.455  1.00  0.00     0.049 A 
ATOM     51  N   UNL     1       1.988  -8.579  -3.826  1.00  0.00    -0.248 NA
ATOM     52  C   UNL     1       1.888  -8.892  -1.513  1.00  0.00     0.031 C 
ATOM     53  C   UNL     1      -0.310  -4.763  -3.323  1.00  0.00     0.029 A 
ATOM     54  N   UNL     1       0.680  -6.119  -4.802  1.00  0.00    -0.354 N 
ATOM     55  C   UNL     1       2.603  -9.778  -3.495  1.00  0.00     0.074 A 
ATOM     56  C   UNL     1       2.550  -9.903  -2.055  1.00  0.00     0.031 C 
ATOM     57  C   UNL     1      -0.510  -4.244  -4.546  1.00  0.00     0.029 A 
ATOM     58  C   UNL     1       0.148  -5.091  -5.539  1.00  0.00     0.049 A 
ATOM     59  H   UNL     1       1.171  -6.872  -5.203  1.00  0.00     0.167 HD
ATOM     60  C   UNL     1       3.149 -10.700  -4.323  1.00  0.00     0.037 A 
ATOM     61  C   UNL     1       0.202  -4.861  -6.865  1.00  0.00     0.037 A 
ATOM     62  C   UNL     1       3.205 -10.565  -5.754  1.00  0.00     0.049 A 
ATOM     63  C   UNL     1       0.916  -5.847  -7.752  1.00  0.00     0.074 A 
ATOM     64  C   UNL     1       3.730 -11.443  -6.685  1.00  0.00     0.029 A 
ATOM     65  N   UNL     1       2.727  -9.470  -6.460  1.00  0.00    -0.354 N 
ATOM     66  N   UNL     1       1.476  -6.991  -7.438  1.00  0.00    -0.248 NA
ATOM     67  C   UNL     1       1.009  -5.507  -9.179  1.00  0.00     0.031 C 
ATOM     68  C   UNL     1       3.622 -10.853  -7.949  1.00  0.00     0.029 A 
ATOM     69  C   UNL     1       2.979  -9.632  -7.812  1.00  0.00     0.049 A 
ATOM     70  H   UNL     1       2.276  -8.692  -6.059  1.00  0.00     0.167 HD
ATOM     71  C   UNL     1       1.961  -7.519  -8.627  1.00  0.00     0.074 A 
ATOM     72  C   UNL     1       1.620  -6.575  -9.672  1.00  0.00     0.031 C 
ATOM     73  C   UNL     1       2.628  -8.682  -8.837  1.00  0.00     0.037 A 
BRANCH  60  74
ATOM     74  C   UNL     1       3.755 -11.919  -3.690  1.00  0.00     0.064 A 
ATOM     75  C   UNL     1       2.964 -12.904  -3.079  1.00  0.00     0.173 A 
ATOM     76  C   UNL     1       5.145 -12.107  -3.700  1.00  0.00     0.173 A 
ATOM     77  F   UNL     1       1.631 -12.765  -3.028  1.00  0.00    -0.203 F 
ATOM     78  C   UNL     1       3.546 -14.015  -2.472  1.00  0.00     0.198 A 
ATOM     79  C   UNL     1       5.721 -13.233  -3.120  1.00  0.00     0.198 A 
ATOM     80  F   UNL     1       5.947 -11.196  -4.273  1.00  0.00    -0.203 F 
ATOM     81  F   UNL     1       2.775 -14.914  -1.845  1.00  0.00    -0.200 F 
ATOM     82  C   UNL     1       4.922 -14.181  -2.498  1.00  0.00     0.200 A 
ATOM     83  F   UNL     1       7.050 -13.398  -3.155  1.00  0.00    -0.200 F 
ATOM     84  F   UNL     1       5.481 -15.250  -1.914  1.00  0.00    -0.200 F 
ENDBRANCH  60  74
BRANCH  61  85
ATOM     85  C   UNL     1      -0.435  -3.645  -7.433  1.00  0.00     0.064 A 
ATOM     86  C   UNL     1      -1.553  -3.741  -8.272  1.00  0.00     0.173 A 
ATOM     87  C   UNL     1       0.068  -2.364  -7.160  1.00  0.00     0.173 A 
ATOM     88  F   UNL     1      -2.056  -4.945  -8.583  1.00  0.00    -0.203 F 
ATOM     89  C   UNL     1      -2.136  -2.603  -8.828  1.00  0.00     0.198 A 
ATOM     90  C   UNL     1      -0.532  -1.226  -7.694  1.00  0.00     0.198 A 
ATOM     91  F   UNL     1       1.138  -2.218  -6.364  1.00  0.00    -0.203 F 
ATOM     92  F   UNL     1      -3.178  -2.726  -9.662  1.00  0.00    -0.200 F 
ATOM     93  C   UNL     1      -1.629  -1.347  -8.533  1.00  0.00     0.200 A 
ATOM     94  F   UNL     1      -0.045  -0.014  -7.396  1.00  0.00    -0.200 F 
ATOM     95  F   UNL     1      -2.191  -0.253  -9.065  1.00  0.00    -0.200 F 
ENDBRANCH  61  85
BRANCH  73  96
ATOM     96  C   UNL     1       3.011  -9.014 -10.251  1.00  0.00     0.064 A 
ATOM     97  C   UNL     1       4.040  -8.329 -10.914  1.00  0.00     0.173 A 
ATOM     98  C   UNL     1       2.379 -10.068 -10.929  1.00  0.00     0.173 A 
ATOM     99  F   UNL     1       4.664  -7.304 -10.314  1.00  0.00    -0.203 F 
ATOM    100  C   UNL     1       4.410  -8.676 -12.210  1.00  0.00     0.198 A 
ATOM    101  C   UNL     1       2.772 -10.431 -12.214  1.00  0.00     0.198 A 
ATOM    102  F   UNL     1       1.393 -10.758 -10.337  1.00  0.00    -0.203 F 
ATOM    103  F   UNL     1       5.368  -7.982 -12.840  1.00  0.00    -0.200 F 
ATOM    104  C   UNL     1       3.782  -9.732 -12.855  1.00  0.00     0.200 A 
ATOM    105  F   UNL     1       2.175 -11.461 -12.829  1.00  0.00    -0.200 F 
ATOM    106  F   UNL     1       4.149 -10.073 -14.098  1.00  0.00    -0.200 F 
ENDBRANCH  73  96
ENDBRANCH  47  48
ENDBRANCH  40  42
ENDBRANCH  39  40
ENDBRANCH  38  39
ENDBRANCH  37  38
ENDBRANCH  36  37
ENDBRANCH   1  36
TORSDOF 20
