REMARK SMILES CCN(CC)S(=O)(=O)c1ccc(F)c(C(=O)N2CCC[C@H]2C(=O)OCCOCCOC(=O)c2ccc(-c3c4nc(c(-c5c(F)c(F)c(F)c(F)c5F)c5ccc([nH]5)c(-c5c(F)c(F)c(F)c(F)c5F)c5nc(c(-c6c(F)c(F)c(F)c(F)c6F)c6ccc3[nH]6)C=C5)C=C4)cc2)c1
REMARK SMILES IDX 25 1 24 2 22 3 23 4 21 5 17 6 18 7 19 8 20 9 15 10 16 11
REMARK SMILES IDX 14 12 9 13 10 14 96 15 11 16 12 17 13 18 6 19 7 20 8 21 3 22
REMARK SMILES IDX 2 23 1 24 4 25 5 26 26 27 27 28 28 29 29 30 30 31 31 32
REMARK SMILES IDX 32 33 33 34 34 35 95 36 35 37 94 38 36 39 37 40 38 41 88 42
REMARK SMILES IDX 39 43 93 44 87 45 89 46 40 47 92 48 86 49 85 50 41 52 73 53
REMARK SMILES IDX 53 54 72 55 54 56 57 57 71 58 90 59 55 60 56 61 70 63 91 64
REMARK SMILES IDX 58 65 42 66 43 67 51 68 44 69 45 70 49 71 52 72 46 73 47 74
REMARK SMILES IDX 50 75 48 76 74 77 75 78 83 79 76 80 77 81 81 82 84 83 78 84
REMARK SMILES IDX 79 85 82 86 80 87 59 88 60 89 68 90 61 91 62 92 66 93 69 94
REMARK SMILES IDX 63 95 64 96 67 97 65 98
REMARK H PARENT 89 51 57 62
REMARK Flexibility Score: inf
ROOT
ATOM      1  C   UNL     1       3.557 -12.357   0.947  1.00  0.00     0.261 C 
ENDROOT
BRANCH   1   2
ATOM      2  O   UNL     1       3.918 -11.520   2.061  1.00  0.00    -0.462 OA
BRANCH   2   3
ATOM      3  C   UNL     1       4.715 -10.451   1.778  1.00  0.00     0.328 C 
ATOM      4  O   UNL     1       5.237 -10.254   0.688  1.00  0.00    -0.250 OA
BRANCH   3   5
ATOM      5  C   UNL     1       4.838  -9.490   2.979  1.00  0.00     0.195 C 
ATOM      6  N   UNL     1       3.848  -8.403   3.104  1.00  0.00    -0.325 N 
ATOM      7  C   UNL     1       3.236  -8.410   4.426  1.00  0.00     0.121 C 
ATOM      8  C   UNL     1       4.258  -9.126   5.293  1.00  0.00     0.024 C 
ATOM      9  C   UNL     1       4.801 -10.193   4.347  1.00  0.00     0.039 C 
BRANCH   6  10
ATOM     10  C   UNL     1       3.806  -7.409   2.144  1.00  0.00     0.257 C 
ATOM     11  O   UNL     1       3.853  -7.690   0.949  1.00  0.00    -0.269 OA
BRANCH  10  12
ATOM     12  C   UNL     1       3.750  -5.965   2.501  1.00  0.00     0.077 A 
ATOM     13  C   UNL     1       3.346  -3.675   1.755  1.00  0.00     0.083 A 
ATOM     14  C   UNL     1       3.849  -3.185   2.965  1.00  0.00     0.025 A 
ATOM     15  C   UNL     1       3.305  -5.057   1.520  1.00  0.00     0.038 A 
ATOM     16  C   UNL     1       4.336  -4.077   3.919  1.00  0.00     0.041 A 
ATOM     17  C   UNL     1       4.310  -5.449   3.672  1.00  0.00     0.136 A 
ATOM     18  F   UNL     1       4.915  -6.241   4.567  1.00  0.00    -0.206 F 
BRANCH  13  19
ATOM     19  S   UNL     1       3.019  -2.524   0.424  1.00  0.00     0.243 S 
ATOM     20  O   UNL     1       3.516  -3.115  -0.797  1.00  0.00    -0.207 OA
ATOM     21  O   UNL     1       3.529  -1.242   0.867  1.00  0.00    -0.207 OA
BRANCH  19  22
ATOM     22  N   UNL     1       1.311  -2.410   0.330  1.00  0.00    -0.198 NA
BRANCH  22  23
ATOM     23  C   UNL     1       0.809  -1.295  -0.542  1.00  0.00     0.099 C 
ATOM     24  C   UNL     1       0.984   0.074   0.091  1.00  0.00     0.022 C 
ENDBRANCH  22  23
BRANCH  22  25
ATOM     25  C   UNL     1       0.539  -3.669   0.086  1.00  0.00     0.099 C 
ATOM     26  C   UNL     1       0.746  -4.280  -1.291  1.00  0.00     0.022 C 
ENDBRANCH  22  25
ENDBRANCH  19  22
ENDBRANCH  13  19
ENDBRANCH  10  12
ENDBRANCH   6  10
ENDBRANCH   3   5
ENDBRANCH   2   3
ENDBRANCH   1   2
BRANCH   1  27
ATOM     27  C   UNL     1       2.055 -12.643   0.990  1.00  0.00     0.202 C 
BRANCH  27  28
ATOM     28  O   UNL     1       1.213 -11.564   0.577  1.00  0.00    -0.374 OA
BRANCH  28  29
ATOM     29  C   UNL     1       1.134 -10.432   1.442  1.00  0.00     0.202 C 
BRANCH  29  30
ATOM     30  C   UNL     1       0.117 -10.557   2.581  1.00  0.00     0.261 C 
BRANCH  30  31
ATOM     31  O   UNL     1       0.418 -11.656   3.462  1.00  0.00    -0.460 OA
BRANCH  31  32
ATOM     32  C   UNL     1      -0.428 -12.707   3.340  1.00  0.00     0.338 C 
ATOM     33  O   UNL     1      -1.444 -12.765   2.667  1.00  0.00    -0.246 OA
BRANCH  32  34
ATOM     34  C   UNL     1       0.096 -13.891   4.047  1.00  0.00     0.060 A 
ATOM     35  C   UNL     1       0.100 -15.100   3.339  1.00  0.00     0.016 A 
ATOM     36  C   UNL     1       0.447 -13.860   5.399  1.00  0.00     0.016 A 
ATOM     37  C   UNL     1       0.366 -16.294   4.001  1.00  0.00     0.010 A 
ATOM     38  C   UNL     1       0.713 -15.064   6.064  1.00  0.00     0.010 A 
ATOM     39  C   UNL     1       0.617 -16.289   5.379  1.00  0.00    -0.014 A 
BRANCH  39  40
ATOM     40  C   UNL     1       0.560 -17.577   6.116  1.00  0.00     0.031 A 
ATOM     41  C   UNL     1      -0.717 -17.952   6.820  1.00  0.00     0.074 A 
ATOM     42  C   UNL     1       1.586 -18.446   6.077  1.00  0.00     0.049 A 
ATOM     43  N   UNL     1      -1.015 -19.041   7.482  1.00  0.00    -0.248 NA
ATOM     44  C   UNL     1      -1.810 -16.967   6.763  1.00  0.00     0.031 C 
ATOM     45  C   UNL     1       2.848 -18.227   5.377  1.00  0.00     0.029 A 
ATOM     46  N   UNL     1       1.714 -19.698   6.625  1.00  0.00    -0.354 N 
ATOM     47  C   UNL     1      -2.325 -18.875   7.912  1.00  0.00     0.074 A 
ATOM     48  C   UNL     1      -2.754 -17.565   7.475  1.00  0.00     0.031 C 
ATOM     49  C   UNL     1       3.621 -19.317   5.524  1.00  0.00     0.029 A 
ATOM     50  C   UNL     1       2.917 -20.298   6.349  1.00  0.00     0.049 A 
ATOM     51  H   UNL     1       1.010 -20.125   7.164  1.00  0.00     0.167 HD
ATOM     52  C   UNL     1      -3.109 -19.744   8.593  1.00  0.00     0.037 A 
ATOM     53  C   UNL     1       3.395 -21.503   6.721  1.00  0.00     0.037 A 
ATOM     54  C   UNL     1      -2.687 -21.049   9.026  1.00  0.00     0.049 A 
ATOM     55  C   UNL     1       2.532 -22.422   7.546  1.00  0.00     0.074 A 
ATOM     56  C   UNL     1      -3.401 -21.993   9.743  1.00  0.00     0.029 A 
ATOM     57  N   UNL     1      -1.437 -21.596   8.777  1.00  0.00    -0.354 N 
ATOM     58  N   UNL     1       1.300 -22.250   7.960  1.00  0.00    -0.248 NA
ATOM     59  C   UNL     1       3.125 -23.705   7.950  1.00  0.00     0.031 C 
ATOM     60  C   UNL     1      -2.570 -23.095   9.963  1.00  0.00     0.029 A 
ATOM     61  C   UNL     1      -1.356 -22.860   9.337  1.00  0.00     0.049 A 
ATOM     62  H   UNL     1      -0.715 -21.152   8.277  1.00  0.00     0.167 HD
ATOM     63  C   UNL     1       0.960 -23.411   8.642  1.00  0.00     0.074 A 
ATOM     64  C   UNL     1       2.114 -24.284   8.585  1.00  0.00     0.031 C 
ATOM     65  C   UNL     1      -0.207 -23.726   9.256  1.00  0.00     0.037 A 
BRANCH  52  66
ATOM     66  C   UNL     1      -4.505 -19.307   8.924  1.00  0.00     0.064 A 
ATOM     67  C   UNL     1      -4.867 -19.019  10.248  1.00  0.00     0.173 A 
ATOM     68  C   UNL     1      -5.499 -19.221   7.938  1.00  0.00     0.173 A 
ATOM     69  F   UNL     1      -3.954 -19.089  11.229  1.00  0.00    -0.203 F 
ATOM     70  C   UNL     1      -6.174 -18.670  10.574  1.00  0.00     0.198 A 
ATOM     71  C   UNL     1      -6.800 -18.845   8.263  1.00  0.00     0.198 A 
ATOM     72  F   UNL     1      -5.200 -19.471   6.654  1.00  0.00    -0.203 F 
ATOM     73  F   UNL     1      -6.502 -18.424  11.850  1.00  0.00    -0.200 F 
ATOM     74  C   UNL     1      -7.138 -18.578   9.582  1.00  0.00     0.200 A 
ATOM     75  F   UNL     1      -7.724 -18.731   7.300  1.00  0.00    -0.200 F 
ATOM     76  F   UNL     1      -8.393 -18.228   9.895  1.00  0.00    -0.200 F 
ENDBRANCH  52  66
BRANCH  53  77
ATOM     77  C   UNL     1       4.755 -21.918   6.290  1.00  0.00     0.064 A 
ATOM     78  C   UNL     1       5.902 -21.299   6.807  1.00  0.00     0.173 A 
ATOM     79  C   UNL     1       4.931 -22.931   5.339  1.00  0.00     0.173 A 
ATOM     80  F   UNL     1       5.786 -20.326   7.723  1.00  0.00    -0.203 F 
ATOM     81  C   UNL     1       7.174 -21.665   6.373  1.00  0.00     0.198 A 
ATOM     82  C   UNL     1       6.206 -23.313   4.923  1.00  0.00     0.198 A 
ATOM     83  F   UNL     1       3.865 -23.569   4.834  1.00  0.00    -0.203 F 
ATOM     84  F   UNL     1       8.253 -21.037   6.862  1.00  0.00    -0.200 F 
ATOM     85  C   UNL     1       7.325 -22.674   5.434  1.00  0.00     0.200 A 
ATOM     86  F   UNL     1       6.349 -24.306   4.034  1.00  0.00    -0.200 F 
ATOM     87  F   UNL     1       8.550 -23.033   5.025  1.00  0.00    -0.200 F 
ENDBRANCH  53  77
BRANCH  65  88
ATOM     88  C   UNL     1      -0.326 -25.084   9.884  1.00  0.00     0.064 A 
ATOM     89  C   UNL     1      -1.174 -26.051   9.320  1.00  0.00     0.173 A 
ATOM     90  C   UNL     1       0.327 -25.401  11.083  1.00  0.00     0.173 A 
ATOM     91  F   UNL     1      -1.830 -25.792   8.179  1.00  0.00    -0.203 F 
ATOM     92  C   UNL     1      -1.374 -27.279   9.943  1.00  0.00     0.198 A 
ATOM     93  C   UNL     1       0.145 -26.642  11.689  1.00  0.00     0.198 A 
ATOM     94  F   UNL     1       1.154 -24.515  11.656  1.00  0.00    -0.203 F 
ATOM     95  F   UNL     1      -2.215 -28.173   9.404  1.00  0.00    -0.200 F 
ATOM     96  C   UNL     1      -0.712 -27.575  11.124  1.00  0.00     0.200 A 
ATOM     97  F   UNL     1       0.801 -26.935  12.820  1.00  0.00    -0.200 F 
ATOM     98  F   UNL     1      -0.899 -28.762  11.719  1.00  0.00    -0.200 F 
ENDBRANCH  65  88
ENDBRANCH  39  40
ENDBRANCH  32  34
ENDBRANCH  31  32
ENDBRANCH  30  31
ENDBRANCH  29  30
ENDBRANCH  28  29
ENDBRANCH  27  28
ENDBRANCH   1  27
TORSDOF 20
