REMARK SMILES CC[C@]1(C(=O)OCCOCCOC(=O)c2ccc(-c3c4nc(c(-c5c(F)c(F)c(F)c(F)c5F)c5ccc([nH]5)c(-c5c(F)c(F)c(F)c(F)c5F)c5nc(c(-c6c(F)c(F)c(F)c(F)c6F)c6ccc3[nH]6)C=C5)C=C4)cc2)CC[N@@H+](Cc2ccc(CC(C)C)cc2)C1
REMARK SMILES IDX 8 1 7 2 6 3 4 4 5 5 3 6 78 7 92 8 79 9 80 10 2 12 1 13 81 14
REMARK SMILES IDX 82 15 83 16 91 17 84 18 90 19 85 20 86 21 87 22 88 23 89 24
REMARK SMILES IDX 9 25 10 26 11 27 12 28 13 29 14 30 15 31 16 32 77 33 17 34
REMARK SMILES IDX 76 35 18 36 19 37 20 38 70 39 21 40 75 41 69 42 71 43 22 44
REMARK SMILES IDX 74 45 68 46 67 47 23 49 55 50 35 51 54 52 36 53 39 54 53 55
REMARK SMILES IDX 72 56 37 57 38 58 52 60 73 61 40 62 24 63 25 64 33 65 26 66
REMARK SMILES IDX 27 67 31 68 34 69 28 70 29 71 32 72 30 73 56 74 57 75 65 76
REMARK SMILES IDX 58 77 59 78 63 79 66 80 60 81 61 82 64 83 62 84 41 85 42 86
REMARK SMILES IDX 50 87 43 88 44 89 48 90 51 91 45 92 46 93 49 94 47 95
REMARK H PARENT 80 11 71 48 39 59
REMARK Flexibility Score: inf
ROOT
ATOM      1  C   UNL     1       3.462   1.090  -4.676  1.00  0.00     0.202 C 
ENDROOT
BRANCH   1   2
ATOM      2  C   UNL     1       3.801   0.253  -3.442  1.00  0.00     0.261 C 
BRANCH   2   3
ATOM      3  O   UNL     1       2.674  -0.565  -3.096  1.00  0.00    -0.463 OA
BRANCH   3   4
ATOM      4  C   UNL     1       2.478  -0.774  -1.772  1.00  0.00     0.318 C 
ATOM      5  O   UNL     1       3.308  -0.496  -0.913  1.00  0.00    -0.251 OA
BRANCH   4   6
ATOM      6  C   UNL     1       1.081  -1.314  -1.450  1.00  0.00     0.122 C 
ATOM      7  C   UNL     1       0.293  -1.891  -2.638  1.00  0.00     0.086 C 
ATOM      8  C   UNL     1       1.266  -2.540  -0.530  1.00  0.00     0.281 C 
ATOM      9  C   UNL     1      -0.477  -3.055  -2.028  1.00  0.00     0.263 C 
ATOM     10  N   UNL     1       0.402  -3.633  -1.010  1.00  0.00    -0.330 N 
ATOM     11  H   UNL     1      -0.171  -4.003  -0.252  1.00  0.00     0.348 HD
BRANCH   6  12
ATOM     12  C   UNL     1       0.232  -0.148  -0.869  1.00  0.00     0.021 C 
ATOM     13  C   UNL     1       0.560   0.297   0.547  1.00  0.00     0.005 C 
ENDBRANCH   6  12
BRANCH  10  14
ATOM     14  C   UNL     1       1.139  -4.859  -1.409  1.00  0.00     0.299 C 
BRANCH  14  15
ATOM     15  C   UNL     1       1.846  -4.775  -2.748  1.00  0.00     0.006 A 
ATOM     16  C   UNL     1       1.119  -5.089  -3.901  1.00  0.00     0.010 A 
ATOM     17  C   UNL     1       3.094  -4.148  -2.873  1.00  0.00     0.010 A 
ATOM     18  C   UNL     1       1.461  -4.488  -5.099  1.00  0.00     0.004 A 
ATOM     19  C   UNL     1       3.466  -3.584  -4.092  1.00  0.00     0.004 A 
ATOM     20  C   UNL     1       2.573  -3.635  -5.167  1.00  0.00    -0.048 A 
BRANCH  20  21
ATOM     21  C   UNL     1       2.637  -2.617  -6.296  1.00  0.00     0.038 C 
BRANCH  21  22
ATOM     22  C   UNL     1       3.634  -2.881  -7.699  1.00  0.00    -0.013 C 
ATOM     23  C   UNL     1       3.264  -4.623  -7.706  1.00  0.00     0.008 C 
ATOM     24  C   UNL     1       4.006  -1.584  -9.416  1.00  0.00     0.008 C 
ENDBRANCH  21  22
ENDBRANCH  20  21
ENDBRANCH  14  15
ENDBRANCH  10  14
ENDBRANCH   4   6
ENDBRANCH   3   4
ENDBRANCH   2   3
ENDBRANCH   1   2
BRANCH   1  25
ATOM     25  O   UNL     1       2.367   1.994  -4.536  1.00  0.00    -0.374 OA
BRANCH  25  26
ATOM     26  C   UNL     1       1.054   1.431  -4.558  1.00  0.00     0.202 C 
BRANCH  26  27
ATOM     27  C   UNL     1       0.470   1.076  -5.933  1.00  0.00     0.261 C 
BRANCH  27  28
ATOM     28  O   UNL     1       1.150  -0.021  -6.566  1.00  0.00    -0.460 OA
BRANCH  28  29
ATOM     29  C   UNL     1       1.991   0.306  -7.572  1.00  0.00     0.338 C 
ATOM     30  O   UNL     1       2.214   1.407  -8.040  1.00  0.00    -0.246 OA
BRANCH  29  31
ATOM     31  C   UNL     1       2.778  -0.884  -7.930  1.00  0.00     0.060 A 
ATOM     32  C   UNL     1       4.542  -0.906  -7.521  1.00  0.00     0.016 A 
ATOM     33  C   UNL     1       2.067  -2.170  -8.962  1.00  0.00     0.016 A 
ATOM     34  C   UNL     1       5.627  -2.140  -8.236  1.00  0.00     0.010 A 
ATOM     35  C   UNL     1       3.155  -3.413  -9.696  1.00  0.00     0.010 A 
ATOM     36  C   UNL     1       4.938  -3.432  -9.290  1.00  0.00    -0.014 A 
BRANCH  36  37
ATOM     37  C   UNL     1       5.804  -4.511  -9.821  1.00  0.00     0.031 A 
ATOM     38  C   UNL     1       5.690  -4.854 -11.272  1.00  0.00     0.074 A 
ATOM     39  C   UNL     1       6.526  -5.263  -8.964  1.00  0.00     0.049 A 
ATOM     40  N   UNL     1       6.113  -5.910 -11.912  1.00  0.00    -0.248 NA
ATOM     41  C   UNL     1       4.946  -3.904 -12.116  1.00  0.00     0.031 C 
ATOM     42  C   UNL     1       6.640  -5.058  -7.516  1.00  0.00     0.029 A 
ATOM     43  N   UNL     1       7.248  -6.412  -9.174  1.00  0.00    -0.354 N 
ATOM     44  C   UNL     1       5.661  -5.757 -13.216  1.00  0.00     0.074 A 
ATOM     45  C   UNL     1       4.842  -4.570 -13.253  1.00  0.00     0.031 C 
ATOM     46  C   UNL     1       7.342  -6.058  -6.966  1.00  0.00     0.029 A 
ATOM     47  C   UNL     1       7.724  -6.985  -8.015  1.00  0.00     0.049 A 
ATOM     48  H   UNL     1       7.410  -6.790 -10.068  1.00  0.00     0.167 HD
ATOM     49  C   UNL     1       5.960  -6.508 -14.300  1.00  0.00     0.037 A 
ATOM     50  C   UNL     1       8.382  -8.142  -7.823  1.00  0.00     0.037 A 
ATOM     51  C   UNL     1       6.828  -7.650 -14.235  1.00  0.00     0.049 A 
ATOM     52  C   UNL     1       8.714  -8.957  -9.039  1.00  0.00     0.074 A 
ATOM     53  C   UNL     1       7.288  -8.449 -15.263  1.00  0.00     0.029 A 
ATOM     54  N   UNL     1       7.378  -8.143 -13.058  1.00  0.00    -0.354 N 
ATOM     55  N   UNL     1       8.361  -8.754 -10.286  1.00  0.00    -0.248 NA
ATOM     56  C   UNL     1       9.558 -10.139  -8.834  1.00  0.00     0.031 C 
ATOM     57  C   UNL     1       8.092  -9.447 -14.702  1.00  0.00     0.029 A 
ATOM     58  C   UNL     1       8.167  -9.244 -13.331  1.00  0.00     0.049 A 
ATOM     59  H   UNL     1       7.228  -7.764 -12.162  1.00  0.00     0.167 HD
ATOM     60  C   UNL     1       8.965  -9.759 -11.022  1.00  0.00     0.074 A 
ATOM     61  C   UNL     1       9.723 -10.561 -10.079  1.00  0.00     0.031 C 
ATOM     62  C   UNL     1       8.905 -10.004 -12.354  1.00  0.00     0.037 A 
BRANCH  49  63
ATOM     63  C   UNL     1       5.381  -6.083 -15.620  1.00  0.00     0.064 A 
ATOM     64  C   UNL     1       5.745  -4.867 -16.223  1.00  0.00     0.173 A 
ATOM     65  C   UNL     1       4.445  -6.885 -16.287  1.00  0.00     0.173 A 
ATOM     66  F   UNL     1       6.624  -4.050 -15.622  1.00  0.00    -0.203 F 
ATOM     67  C   UNL     1       5.159  -4.450 -17.416  1.00  0.00     0.198 A 
ATOM     68  C   UNL     1       3.889  -6.482 -17.500  1.00  0.00     0.198 A 
ATOM     69  F   UNL     1       4.058  -8.057 -15.760  1.00  0.00    -0.203 F 
ATOM     70  F   UNL     1       5.469  -3.251 -17.928  1.00  0.00    -0.200 F 
ATOM     71  C   UNL     1       4.237  -5.261 -18.057  1.00  0.00     0.200 A 
ATOM     72  F   UNL     1       3.004  -7.272 -18.125  1.00  0.00    -0.200 F 
ATOM     73  F   UNL     1       3.674  -4.859 -19.205  1.00  0.00    -0.200 F 
ENDBRANCH  49  63
BRANCH  50  74
ATOM     74  C   UNL     1       8.819  -8.548  -6.458  1.00  0.00     0.064 A 
ATOM     75  C   UNL     1      10.176  -8.518  -6.104  1.00  0.00     0.173 A 
ATOM     76  C   UNL     1       7.904  -8.953  -5.474  1.00  0.00     0.173 A 
ATOM     77  F   UNL     1      11.094  -8.145  -7.007  1.00  0.00    -0.203 F 
ATOM     78  C   UNL     1      10.603  -8.904  -4.834  1.00  0.00     0.198 A 
ATOM     79  C   UNL     1       8.329  -9.312  -4.194  1.00  0.00     0.198 A 
ATOM     80  F   UNL     1       6.592  -8.985  -5.749  1.00  0.00    -0.203 F 
ATOM     81  F   UNL     1      11.911  -8.906  -4.542  1.00  0.00    -0.200 F 
ATOM     82  C   UNL     1       9.679  -9.296  -3.878  1.00  0.00     0.200 A 
ATOM     83  F   UNL     1       7.432  -9.674  -3.267  1.00  0.00    -0.200 F 
ATOM     84  F   UNL     1      10.090  -9.663  -2.656  1.00  0.00    -0.200 F 
ENDBRANCH  50  74
BRANCH  62  85
ATOM     85  C   UNL     1       9.696 -11.171 -12.855  1.00  0.00     0.064 A 
ATOM     86  C   UNL     1       9.292 -12.488 -12.601  1.00  0.00     0.173 A 
ATOM     87  C   UNL     1      10.841 -10.964 -13.637  1.00  0.00     0.173 A 
ATOM     88  F   UNL     1       8.212 -12.729 -11.842  1.00  0.00    -0.203 F 
ATOM     89  C   UNL     1      10.022 -13.562 -13.096  1.00  0.00     0.198 A 
ATOM     90  C   UNL     1      11.549 -12.040 -14.159  1.00  0.00     0.198 A 
ATOM     91  F   UNL     1      11.260  -9.719 -13.910  1.00  0.00    -0.203 F 
ATOM     92  F   UNL     1       9.648 -14.814 -12.802  1.00  0.00    -0.200 F 
ATOM     93  C   UNL     1      11.143 -13.337 -13.883  1.00  0.00     0.200 A 
ATOM     94  F   UNL     1      12.621 -11.822 -14.933  1.00  0.00    -0.200 F 
ATOM     95  F   UNL     1      11.837 -14.374 -14.370  1.00  0.00    -0.200 F 
ENDBRANCH  62  85
ENDBRANCH  36  37
ENDBRANCH  29  31
ENDBRANCH  28  29
ENDBRANCH  27  28
ENDBRANCH  26  27
ENDBRANCH  25  26
ENDBRANCH   1  25
TORSDOF 19
