REMARK SMILES Cc1ccc(-c2cc3cccnc3n2CCC(=O)OCCOCCOC(=O)c2ccc(-c3c4nc(c(-c5c(F)c(F)c(F)c(F)c5F)c5ccc([nH]5)c(-c5c(F)c(F)c(F)c(F)c5F)c5nc(c(-c6c(F)c(F)c(F)c(F)c6F)c6ccc3[nH]6)C=C5)C=C4)cc2)cn1
REMARK SMILES IDX 21 1 20 2 19 3 17 4 18 5 16 6 15 7 14 8 6 9 7 10 8 11 13 12
REMARK SMILES IDX 9 13 12 14 10 15 11 16 5 17 1 18 2 19 3 20 92 21 4 22 91 23
REMARK SMILES IDX 22 24 23 25 24 26 25 27 26 28 27 29 28 30 29 31 90 32 30 33
REMARK SMILES IDX 89 34 31 35 32 36 33 37 83 38 34 39 88 40 82 41 84 42 35 43
REMARK SMILES IDX 87 44 81 45 80 46 36 48 68 49 48 50 67 51 49 52 52 53 66 54
REMARK SMILES IDX 85 55 50 56 51 57 65 59 86 60 53 61 37 62 38 63 46 64 39 65
REMARK SMILES IDX 40 66 44 67 47 68 41 69 42 70 45 71 43 72 69 73 70 74 78 75
REMARK SMILES IDX 71 76 72 77 76 78 79 79 73 80 74 81 77 82 75 83 54 84 55 85
REMARK SMILES IDX 63 86 56 87 57 88 61 89 64 90 58 91 59 92 62 93 60 94
REMARK H PARENT 84 47 52 58
REMARK Flexibility Score: inf
ROOT
ATOM      1  C   UNL     1       0.015  -0.078   0.108  1.00  0.00     0.202 C 
ENDROOT
BRANCH   1   2
ATOM      2  C   UNL     1      -0.764  -1.621  -1.222  1.00  0.00     0.261 C 
BRANCH   2   3
ATOM      3  O   UNL     1      -2.319  -2.337  -1.082  1.00  0.00    -0.463 OA
BRANCH   3   4
ATOM      4  C   UNL     1      -2.623  -3.396  -0.281  1.00  0.00     0.307 C 
ATOM      5  O   UNL     1      -1.971  -4.435  -0.289  1.00  0.00    -0.252 OA
BRANCH   4   6
ATOM      6  C   UNL     1      -3.799  -3.184   0.725  1.00  0.00     0.144 C 
BRANCH   6   7
ATOM      7  C   UNL     1      -4.096  -1.868   1.486  1.00  0.00     0.136 C 
BRANCH   7   8
ATOM      8  N   UNL     1      -4.407  -0.735   0.650  1.00  0.00    -0.325 N 
ATOM      9  C   UNL     1      -3.483  -0.058  -0.103  1.00  0.00     0.052 A 
ATOM     10  C   UNL     1      -4.213   0.737  -0.980  1.00  0.00     0.039 A 
ATOM     11  C   UNL     1      -5.579   0.647  -0.646  1.00  0.00     0.020 A 
ATOM     12  C   UNL     1      -5.664  -0.216   0.439  1.00  0.00     0.140 A 
ATOM     13  C   UNL     1      -6.763   1.191  -1.165  1.00  0.00     0.013 A 
ATOM     14  N   UNL     1      -6.785  -0.538   1.115  1.00  0.00    -0.238 NA
ATOM     15  C   UNL     1      -7.947   0.885  -0.503  1.00  0.00     0.021 A 
ATOM     16  C   UNL     1      -7.895   0.060   0.614  1.00  0.00     0.113 A 
BRANCH   9  17
ATOM     17  C   UNL     1      -2.048  -0.354  -0.159  1.00  0.00     0.017 A 
ATOM     18  C   UNL     1       2.795  -1.016  -1.117  1.00  0.00     0.066 C 
ATOM     19  C   UNL     1       1.304  -1.220  -1.070  1.00  0.00     0.037 A 
ATOM     20  C   UNL     1       0.573  -2.083   0.304  1.00  0.00     0.024 A 
ATOM     21  N   UNL     1       0.410  -0.029  -1.973  1.00  0.00    -0.261 NA
ATOM     22  C   UNL     1      -1.115  -1.621   0.786  1.00  0.00     0.014 A 
ATOM     23  C   UNL     1      -1.208   0.405  -1.524  1.00  0.00     0.121 A 
ENDBRANCH   9  17
ENDBRANCH   7   8
ENDBRANCH   6   7
ENDBRANCH   4   6
ENDBRANCH   3   4
ENDBRANCH   2   3
ENDBRANCH   1   2
BRANCH   1  24
ATOM     24  O   UNL     1       0.779  -0.229   1.538  1.00  0.00    -0.374 OA
BRANCH  24  25
ATOM     25  C   UNL     1       0.055  -0.099   2.782  1.00  0.00     0.202 C 
BRANCH  25  26
ATOM     26  C   UNL     1      -0.104   1.297   3.364  1.00  0.00     0.261 C 
BRANCH  26  27
ATOM     27  O   UNL     1      -0.699   2.137   2.403  1.00  0.00    -0.460 OA
BRANCH  27  28
ATOM     28  C   UNL     1       0.166   2.650   1.495  1.00  0.00     0.338 C 
ATOM     29  O   UNL     1       1.379   2.685   1.556  1.00  0.00    -0.246 OA
BRANCH  28  30
ATOM     30  C   UNL     1      -0.667   3.249   0.431  1.00  0.00     0.060 A 
ATOM     31  C   UNL     1      -0.044   4.286  -0.243  1.00  0.00     0.016 A 
ATOM     32  C   UNL     1      -2.062   3.179   0.594  1.00  0.00     0.016 A 
ATOM     33  C   UNL     1      -0.727   5.469  -0.243  1.00  0.00     0.010 A 
ATOM     34  C   UNL     1      -2.742   4.354   0.607  1.00  0.00     0.010 A 
ATOM     35  C   UNL     1      -2.000   5.491   0.348  1.00  0.00    -0.014 A 
BRANCH  35  36
ATOM     36  C   UNL     1      -2.573   6.762   0.679  1.00  0.00     0.031 A 
ATOM     37  C   UNL     1      -3.150   7.377  -0.517  1.00  0.00     0.074 A 
ATOM     38  C   UNL     1      -2.535   7.269   1.925  1.00  0.00     0.049 A 
ATOM     39  N   UNL     1      -2.574   8.261  -1.254  1.00  0.00    -0.248 NA
ATOM     40  C   UNL     1      -4.331   6.747  -1.123  1.00  0.00     0.031 C 
ATOM     41  C   UNL     1      -2.174   6.631   3.193  1.00  0.00     0.029 A 
ATOM     42  N   UNL     1      -2.865   8.532   2.303  1.00  0.00    -0.354 N 
ATOM     43  C   UNL     1      -3.449   8.477  -2.303  1.00  0.00     0.074 A 
ATOM     44  C   UNL     1      -4.368   7.371  -2.302  1.00  0.00     0.031 C 
ATOM     45  C   UNL     1      -2.515   7.448   4.221  1.00  0.00     0.029 A 
ATOM     46  C   UNL     1      -2.967   8.717   3.680  1.00  0.00     0.049 A 
ATOM     47  H   UNL     1      -3.019   9.258   1.656  1.00  0.00     0.167 HD
ATOM     48  C   UNL     1      -3.521   9.713  -2.860  1.00  0.00     0.037 A 
ATOM     49  C   UNL     1      -3.456   9.840   4.269  1.00  0.00     0.037 A 
ATOM     50  C   UNL     1      -2.335  10.481  -2.556  1.00  0.00     0.049 A 
ATOM     51  C   UNL     1      -3.313  10.938   3.269  1.00  0.00     0.074 A 
ATOM     52  C   UNL     1      -0.990  10.320  -2.833  1.00  0.00     0.029 A 
ATOM     53  N   UNL     1      -2.399  11.357  -1.499  1.00  0.00    -0.354 N 
ATOM     54  N   UNL     1      -2.155  11.397   2.874  1.00  0.00    -0.248 NA
ATOM     55  C   UNL     1      -4.417  11.145   2.341  1.00  0.00     0.031 C 
ATOM     56  C   UNL     1      -0.310  10.741  -1.653  1.00  0.00     0.029 A 
ATOM     57  C   UNL     1      -1.260  11.213  -0.746  1.00  0.00     0.049 A 
ATOM     58  H   UNL     1      -3.136  11.982  -1.313  1.00  0.00     0.167 HD
ATOM     59  C   UNL     1      -2.286  11.556   1.502  1.00  0.00     0.074 A 
ATOM     60  C   UNL     1      -3.719  11.428   1.238  1.00  0.00     0.031 C 
ATOM     61  C   UNL     1      -1.202  11.467   0.676  1.00  0.00     0.037 A 
BRANCH  48  62
ATOM     62  C   UNL     1      -4.822  10.341  -3.279  1.00  0.00     0.064 A 
ATOM     63  C   UNL     1      -4.787  11.583  -3.936  1.00  0.00     0.173 A 
ATOM     64  C   UNL     1      -6.095   9.931  -2.817  1.00  0.00     0.173 A 
ATOM     65  F   UNL     1      -3.627  12.081  -4.391  1.00  0.00    -0.203 F 
ATOM     66  C   UNL     1      -5.924  12.382  -4.057  1.00  0.00     0.198 A 
ATOM     67  C   UNL     1      -7.236  10.706  -2.989  1.00  0.00     0.198 A 
ATOM     68  F   UNL     1      -6.280   8.829  -2.083  1.00  0.00    -0.203 F 
ATOM     69  F   UNL     1      -5.817  13.611  -4.578  1.00  0.00    -0.200 F 
ATOM     70  C   UNL     1      -7.147  11.945  -3.580  1.00  0.00     0.200 A 
ATOM     71  F   UNL     1      -8.405  10.270  -2.497  1.00  0.00    -0.200 F 
ATOM     72  F   UNL     1      -8.226  12.734  -3.644  1.00  0.00    -0.200 F 
ENDBRANCH  48  62
BRANCH  49  73
ATOM     73  C   UNL     1      -4.410   9.936   5.405  1.00  0.00     0.064 A 
ATOM     74  C   UNL     1      -4.697  11.179   5.998  1.00  0.00     0.173 A 
ATOM     75  C   UNL     1      -5.285   8.880   5.722  1.00  0.00     0.173 A 
ATOM     76  F   UNL     1      -3.940  12.250   5.719  1.00  0.00    -0.203 F 
ATOM     77  C   UNL     1      -5.815  11.363   6.822  1.00  0.00     0.198 A 
ATOM     78  C   UNL     1      -6.399   9.064   6.544  1.00  0.00     0.198 A 
ATOM     79  F   UNL     1      -5.138   7.672   5.160  1.00  0.00    -0.203 F 
ATOM     80  F   UNL     1      -6.095  12.580   7.310  1.00  0.00    -0.200 F 
ATOM     81  C   UNL     1      -6.674  10.309   7.081  1.00  0.00     0.200 A 
ATOM     82  F   UNL     1      -7.244   8.045   6.756  1.00  0.00    -0.200 F 
ATOM     83  F   UNL     1      -7.784  10.499   7.808  1.00  0.00    -0.200 F 
ENDBRANCH  49  73
BRANCH  61  84
ATOM     84  C   UNL     1       0.163  11.431   1.311  1.00  0.00     0.064 A 
ATOM     85  C   UNL     1       0.632  10.379   2.120  1.00  0.00     0.173 A 
ATOM     86  C   UNL     1       1.085  12.419   0.944  1.00  0.00     0.173 A 
ATOM     87  F   UNL     1      -0.163   9.352   2.443  1.00  0.00    -0.203 F 
ATOM     88  C   UNL     1       1.958  10.338   2.556  1.00  0.00     0.198 A 
ATOM     89  C   UNL     1       2.414  12.358   1.351  1.00  0.00     0.198 A 
ATOM     90  F   UNL     1       0.705  13.420   0.134  1.00  0.00    -0.203 F 
ATOM     91  F   UNL     1       2.384   9.325   3.326  1.00  0.00    -0.200 F 
ATOM     92  C   UNL     1       2.850  11.322   2.161  1.00  0.00     0.200 A 
ATOM     93  F   UNL     1       3.282  13.286   0.926  1.00  0.00    -0.200 F 
ATOM     94  F   UNL     1       4.135  11.259   2.537  1.00  0.00    -0.200 F 
ENDBRANCH  61  84
ENDBRANCH  35  36
ENDBRANCH  28  30
ENDBRANCH  27  28
ENDBRANCH  26  27
ENDBRANCH  25  26
ENDBRANCH  24  25
ENDBRANCH   1  24
TORSDOF 17
