REMARK SMILES CCC(CC)NC(=O)NC[C@H]1CC[C@H](C(=O)OCCOCCOC(=O)c2ccc(-c3c4nc(c(-c5c(F)c(F)c(F)c(F)c5F)c5ccc([nH]5)c(-c5c(F)c(F)c(F)c(F)c5F)c5nc(c(-c6c(F)c(F)c(F)c(F)c6F)c6ccc3[nH]6)C=C5)C=C4)cc2)O1
REMARK SMILES IDX 19 1 18 2 17 3 15 4 16 5 14 6 11 7 12 8 89 9 13 10 10 11
REMARK SMILES IDX 9 12 6 13 7 14 8 16 3 18 2 19 1 20 4 21 5 22 20 23 21 24
REMARK SMILES IDX 22 25 23 26 24 27 25 28 26 29 27 30 88 31 28 32 87 33 29 34
REMARK SMILES IDX 30 35 31 36 81 37 32 38 86 39 80 40 82 41 33 42 85 43 79 44
REMARK SMILES IDX 78 45 34 47 66 48 46 49 65 50 47 51 50 52 64 53 83 54 48 55
REMARK SMILES IDX 49 56 63 58 84 59 51 60 35 61 36 62 44 63 37 64 38 65 42 66
REMARK SMILES IDX 45 67 39 68 40 69 43 70 41 71 67 72 68 73 76 74 69 75 70 76
REMARK SMILES IDX 74 77 77 78 71 79 72 80 75 81 73 82 52 83 53 84 61 85 54 86
REMARK SMILES IDX 55 87 59 88 62 89 56 90 57 91 60 92 58 93
REMARK H PARENT 6 15 9 17 82 46 50 57
REMARK Flexibility Score: inf
ROOT
ATOM      1  C   UNL     1       2.606   4.233  -1.745  1.00  0.00     0.202 C 
ENDROOT
BRANCH   1   2
ATOM      2  C   UNL     1       3.001   2.851  -1.221  1.00  0.00     0.261 C 
BRANCH   2   3
ATOM      3  O   UNL     1       3.466   2.962   0.136  1.00  0.00    -0.461 OA
BRANCH   3   4
ATOM      4  C   UNL     1       4.624   2.311   0.434  1.00  0.00     0.335 C 
ATOM      5  O   UNL     1       5.196   1.530  -0.318  1.00  0.00    -0.249 OA
BRANCH   4   6
ATOM      6  C   UNL     1       5.162   2.693   1.824  1.00  0.00     0.228 C 
ATOM      7  C   UNL     1       4.120   1.921   3.782  1.00  0.00     0.138 C 
ATOM      8  C   UNL     1       3.422   3.197   3.337  1.00  0.00     0.037 C 
ATOM      9  O   UNL     1       5.056   1.591   2.734  1.00  0.00    -0.361 OA
ATOM     10  C   UNL     1       4.492   3.872   2.515  1.00  0.00     0.047 C 
BRANCH   7  11
ATOM     11  C   UNL     1       4.883   2.104   5.112  1.00  0.00     0.149 C 
BRANCH  11  12
ATOM     12  N   UNL     1       4.256   1.381   6.202  1.00  0.00    -0.336 N 
ATOM     13  N   UNL     1       5.027  -0.849   6.040  1.00  0.00    -0.335 N 
ATOM     14  C   UNL     1       4.267   0.102   6.591  1.00  0.00     0.315 C 
ATOM     15  H   UNL     1       4.809  -1.750   6.374  1.00  0.00     0.165 HD
ATOM     16  O   UNL     1       3.520  -0.218   7.519  1.00  0.00    -0.249 OA
ATOM     17  H   UNL     1       3.704   1.956   6.780  1.00  0.00     0.165 HD
BRANCH  13  18
ATOM     18  C   UNL     1       6.107  -0.861   5.054  1.00  0.00     0.083 C 
BRANCH  18  19
ATOM     19  C   UNL     1       7.453  -0.619   5.759  1.00  0.00     0.021 C 
ATOM     20  C   UNL     1       8.604  -0.371   4.796  1.00  0.00     0.006 C 
ENDBRANCH  18  19
BRANCH  18  21
ATOM     21  C   UNL     1       6.044  -2.140   4.198  1.00  0.00     0.021 C 
ATOM     22  C   UNL     1       6.355  -3.438   4.930  1.00  0.00     0.006 C 
ENDBRANCH  18  21
ENDBRANCH  13  18
ENDBRANCH  11  12
ENDBRANCH   7  11
ENDBRANCH   4   6
ENDBRANCH   3   4
ENDBRANCH   2   3
ENDBRANCH   1   2
BRANCH   1  23
ATOM     23  O   UNL     1       3.691   5.119  -2.030  1.00  0.00    -0.374 OA
BRANCH  23  24
ATOM     24  C   UNL     1       4.408   5.666  -0.926  1.00  0.00     0.202 C 
BRANCH  24  25
ATOM     25  C   UNL     1       3.727   6.830  -0.192  1.00  0.00     0.261 C 
BRANCH  25  26
ATOM     26  O   UNL     1       2.470   6.454   0.402  1.00  0.00    -0.460 OA
BRANCH  26  27
ATOM     27  C   UNL     1       1.390   7.079  -0.124  1.00  0.00     0.338 C 
ATOM     28  O   UNL     1       1.384   7.969  -0.964  1.00  0.00    -0.246 OA
BRANCH  27  29
ATOM     29  C   UNL     1       0.142   6.445   0.336  1.00  0.00     0.060 A 
ATOM     30  C   UNL     1      -0.740   5.977  -0.646  1.00  0.00     0.016 A 
ATOM     31  C   UNL     1      -0.218   6.413   1.685  1.00  0.00     0.016 A 
ATOM     32  C   UNL     1      -2.007   5.522  -0.288  1.00  0.00     0.010 A 
ATOM     33  C   UNL     1      -1.496   5.961   2.042  1.00  0.00     0.010 A 
ATOM     34  C   UNL     1      -2.409   5.549   1.054  1.00  0.00    -0.014 A 
BRANCH  34  35
ATOM     35  C   UNL     1      -3.830   5.282   1.390  1.00  0.00     0.031 A 
ATOM     36  C   UNL     1      -4.764   6.441   1.611  1.00  0.00     0.074 A 
ATOM     37  C   UNL     1      -4.299   4.023   1.451  1.00  0.00     0.049 A 
ATOM     38  N   UNL     1      -6.038   6.436   1.913  1.00  0.00    -0.248 NA
ATOM     39  C   UNL     1      -4.184   7.786   1.472  1.00  0.00     0.031 C 
ATOM     40  C   UNL     1      -3.508   2.817   1.222  1.00  0.00     0.029 A 
ATOM     41  N   UNL     1      -5.560   3.554   1.727  1.00  0.00    -0.354 N 
ATOM     42  C   UNL     1      -6.410   7.771   2.003  1.00  0.00     0.074 A 
ATOM     43  C   UNL     1      -5.223   8.560   1.751  1.00  0.00     0.031 C 
ATOM     44  C   UNL     1      -4.299   1.742   1.376  1.00  0.00     0.029 A 
ATOM     45  C   UNL     1      -5.645   2.184   1.740  1.00  0.00     0.049 A 
ATOM     46  H   UNL     1      -6.329   4.143   1.900  1.00  0.00     0.167 HD
ATOM     47  C   UNL     1      -7.633   8.293   2.263  1.00  0.00     0.037 A 
ATOM     48  C   UNL     1      -6.686   1.379   2.029  1.00  0.00     0.037 A 
ATOM     49  C   UNL     1      -8.818   7.513   2.504  1.00  0.00     0.049 A 
ATOM     50  C   UNL     1      -8.023   1.984   2.369  1.00  0.00     0.074 A 
ATOM     51  C   UNL     1     -10.107   7.955   2.748  1.00  0.00     0.029 A 
ATOM     52  N   UNL     1      -8.857   6.127   2.538  1.00  0.00    -0.354 N 
ATOM     53  N   UNL     1      -8.371   3.246   2.424  1.00  0.00    -0.248 NA
ATOM     54  C   UNL     1      -9.114   1.049   2.684  1.00  0.00     0.031 C 
ATOM     55  C   UNL     1     -10.918   6.838   2.976  1.00  0.00     0.029 A 
ATOM     56  C   UNL     1     -10.144   5.698   2.825  1.00  0.00     0.049 A 
ATOM     57  H   UNL     1      -8.086   5.536   2.382  1.00  0.00     0.167 HD
ATOM     58  C   UNL     1      -9.720   3.258   2.753  1.00  0.00     0.074 A 
ATOM     59  C   UNL     1     -10.133   1.876   2.875  1.00  0.00     0.031 C 
ATOM     60  C   UNL     1     -10.543   4.319   2.938  1.00  0.00     0.037 A 
BRANCH  47  61
ATOM     61  C   UNL     1      -7.752   9.787   2.321  1.00  0.00     0.064 A 
ATOM     62  C   UNL     1      -7.705  10.575   1.161  1.00  0.00     0.173 A 
ATOM     63  C   UNL     1      -7.962  10.434   3.548  1.00  0.00     0.173 A 
ATOM     64  F   UNL     1      -7.493  10.005  -0.034  1.00  0.00    -0.203 F 
ATOM     65  C   UNL     1      -7.845  11.959   1.232  1.00  0.00     0.198 A 
ATOM     66  C   UNL     1      -8.127  11.814   3.611  1.00  0.00     0.198 A 
ATOM     67  F   UNL     1      -8.018   9.724   4.685  1.00  0.00    -0.203 F 
ATOM     68  F   UNL     1      -7.761  12.697   0.116  1.00  0.00    -0.200 F 
ATOM     69  C   UNL     1      -8.063  12.576   2.454  1.00  0.00     0.200 A 
ATOM     70  F   UNL     1      -8.348  12.408   4.793  1.00  0.00    -0.200 F 
ATOM     71  F   UNL     1      -8.207  13.907   2.519  1.00  0.00    -0.200 F 
ENDBRANCH  47  61
BRANCH  48  72
ATOM     72  C   UNL     1      -6.503  -0.096   2.023  1.00  0.00     0.064 A 
ATOM     73  C   UNL     1      -7.104  -0.898   1.045  1.00  0.00     0.173 A 
ATOM     74  C   UNL     1      -5.733  -0.732   3.009  1.00  0.00     0.173 A 
ATOM     75  F   UNL     1      -7.872  -0.338   0.099  1.00  0.00    -0.203 F 
ATOM     76  C   UNL     1      -6.954  -2.283   1.060  1.00  0.00     0.198 A 
ATOM     77  C   UNL     1      -5.562  -2.114   3.007  1.00  0.00     0.198 A 
ATOM     78  F   UNL     1      -5.140  -0.007   3.969  1.00  0.00    -0.203 F 
ATOM     79  F   UNL     1      -7.574  -3.032   0.138  1.00  0.00    -0.200 F 
ATOM     80  C   UNL     1      -6.178  -2.889   2.037  1.00  0.00     0.200 A 
ATOM     81  F   UNL     1      -4.804  -2.694   3.947  1.00  0.00    -0.200 F 
ATOM     82  F   UNL     1      -6.031  -4.221   2.048  1.00  0.00    -0.200 F 
ENDBRANCH  48  72
BRANCH  60  83
ATOM     83  C   UNL     1     -11.981   4.033   3.263  1.00  0.00     0.064 A 
ATOM     84  C   UNL     1     -12.369   3.555   4.523  1.00  0.00     0.173 A 
ATOM     85  C   UNL     1     -12.987   4.285   2.317  1.00  0.00     0.173 A 
ATOM     86  F   UNL     1     -11.444   3.285   5.457  1.00  0.00    -0.203 F 
ATOM     87  C   UNL     1     -13.710   3.320   4.817  1.00  0.00     0.198 A 
ATOM     88  C   UNL     1     -14.328   4.075   2.624  1.00  0.00     0.198 A 
ATOM     89  F   UNL     1     -12.669   4.751   1.100  1.00  0.00    -0.203 F 
ATOM     90  F   UNL     1     -14.054   2.824   6.013  1.00  0.00    -0.200 F 
ATOM     91  C   UNL     1     -14.688   3.587   3.870  1.00  0.00     0.200 A 
ATOM     92  F   UNL     1     -15.273   4.346   1.712  1.00  0.00    -0.200 F 
ATOM     93  F   UNL     1     -15.979   3.367   4.158  1.00  0.00    -0.200 F 
ENDBRANCH  60  83
ENDBRANCH  34  35
ENDBRANCH  27  29
ENDBRANCH  26  27
ENDBRANCH  25  26
ENDBRANCH  24  25
ENDBRANCH  23  24
ENDBRANCH   1  23
TORSDOF 19
