REMARK SMILES CSCC[NH2+]CC(C)(C)C(=O)OCCOCCOC(=O)c1ccc(-c2c3nc(c(-c4c(F)c(F)c(F)c(F)c4F)c4ccc([nH]4)c(-c4c(F)c(F)c(F)c(F)c4F)c4nc(c(-c5c(F)c(F)c(F)c(F)c5F)c5ccc2[nH]5)C=C4)C=C3)cc1
REMARK SMILES IDX 13 1 12 2 10 3 11 4 7 5 8 6 9 7 6 8 5 9 4 12 3 13 2 14 1 15
REMARK SMILES IDX 14 16 15 17 16 18 17 19 18 20 19 21 20 22 21 23 22 24 83 25
REMARK SMILES IDX 23 26 82 27 24 28 25 29 26 30 76 31 27 32 81 33 75 34 77 35
REMARK SMILES IDX 28 36 80 37 74 38 73 39 29 41 61 42 41 43 60 44 42 45 45 46
REMARK SMILES IDX 59 47 78 48 43 49 44 50 58 52 79 53 46 54 30 55 31 56 39 57
REMARK SMILES IDX 32 58 33 59 37 60 40 61 34 62 35 63 38 64 36 65 62 66 63 67
REMARK SMILES IDX 71 68 64 69 65 70 69 71 72 72 66 73 67 74 70 75 68 76 47 77
REMARK SMILES IDX 48 78 56 79 49 80 50 81 54 82 57 83 51 84 52 85 55 86 53 87
REMARK H PARENT 5 10 5 11 77 40 45 51
REMARK Flexibility Score: inf
ROOT
ATOM      1  C   UNL     1      -3.375  -3.746   3.124  1.00  0.00     0.261 C 
ENDROOT
BRANCH   1   2
ATOM      2  O   UNL     1      -2.791  -4.066   1.855  1.00  0.00    -0.463 OA
BRANCH   2   3
ATOM      3  C   UNL     1      -1.846  -3.167   1.462  1.00  0.00     0.317 C 
ATOM      4  O   UNL     1      -1.641  -2.141   2.096  1.00  0.00    -0.251 OA
BRANCH   3   5
ATOM      5  C   UNL     1      -1.131  -3.534   0.144  1.00  0.00     0.111 C 
ATOM      6  C   UNL     1      -1.477  -2.428  -0.860  1.00  0.00     0.029 C 
ATOM      7  C   UNL     1      -1.673  -4.869  -0.430  1.00  0.00     0.029 C 
BRANCH   5   8
ATOM      8  C   UNL     1       0.421  -3.706   0.304  1.00  0.00     0.278 C 
BRANCH   8   9
ATOM      9  N   UNL     1       1.339  -2.568   0.500  1.00  0.00    -0.345 N 
ATOM     10  H   UNL     1       2.296  -2.922   0.512  1.00  0.00     0.346 HD
ATOM     11  H   UNL     1       1.179  -1.916  -0.268  1.00  0.00     0.346 HD
BRANCH   9  12
ATOM     12  C   UNL     1       1.099  -1.835   1.749  1.00  0.00     0.271 C 
BRANCH  12  13
ATOM     13  C   UNL     1       2.164  -0.813   2.167  1.00  0.00     0.130 C 
BRANCH  13  14
ATOM     14  S   UNL     1       1.784   0.921   1.691  1.00  0.00    -0.160 SA
ATOM     15  C   UNL     1       1.508   0.724  -0.082  1.00  0.00     0.085 C 
ENDBRANCH  13  14
ENDBRANCH  12  13
ENDBRANCH   9  12
ENDBRANCH   8   9
ENDBRANCH   5   8
ENDBRANCH   3   5
ENDBRANCH   2   3
ENDBRANCH   1   2
BRANCH   1  16
ATOM     16  C   UNL     1      -2.702  -4.440   4.320  1.00  0.00     0.202 C 
BRANCH  16  17
ATOM     17  O   UNL     1      -1.336  -4.821   4.242  1.00  0.00    -0.374 OA
BRANCH  17  18
ATOM     18  C   UNL     1      -0.927  -5.790   3.282  1.00  0.00     0.202 C 
BRANCH  18  19
ATOM     19  C   UNL     1      -1.638  -7.145   3.191  1.00  0.00     0.261 C 
BRANCH  19  20
ATOM     20  O   UNL     1      -3.035  -7.021   2.881  1.00  0.00    -0.460 OA
BRANCH  20  21
ATOM     21  C   UNL     1      -3.863  -7.528   3.826  1.00  0.00     0.338 C 
ATOM     22  O   UNL     1      -3.557  -8.120   4.844  1.00  0.00    -0.246 OA
BRANCH  21  23
ATOM     23  C   UNL     1      -5.239  -7.072   3.571  1.00  0.00     0.060 A 
ATOM     24  C   UNL     1      -5.858  -6.301   4.564  1.00  0.00     0.016 A 
ATOM     25  C   UNL     1      -5.937  -7.471   2.432  1.00  0.00     0.016 A 
ATOM     26  C   UNL     1      -7.199  -5.960   4.443  1.00  0.00     0.010 A 
ATOM     27  C   UNL     1      -7.291  -7.147   2.322  1.00  0.00     0.010 A 
ATOM     28  C   UNL     1      -7.933  -6.425   3.347  1.00  0.00    -0.014 A 
BRANCH  28  29
ATOM     29  C   UNL     1      -9.407  -6.320   3.380  1.00  0.00     0.031 A 
ATOM     30  C   UNL     1     -10.202  -7.519   3.811  1.00  0.00     0.074 A 
ATOM     31  C   UNL     1     -10.019  -5.162   3.081  1.00  0.00     0.049 A 
ATOM     32  N   UNL     1     -11.499  -7.678   3.880  1.00  0.00    -0.248 NA
ATOM     33  C   UNL     1      -9.428  -8.703   4.220  1.00  0.00     0.031 C 
ATOM     34  C   UNL     1      -9.341  -3.922   2.709  1.00  0.00     0.029 A 
ATOM     35  N   UNL     1     -11.352  -4.846   3.041  1.00  0.00    -0.354 N 
ATOM     36  C   UNL     1     -11.694  -8.976   4.331  1.00  0.00     0.074 A 
ATOM     37  C   UNL     1     -10.387  -9.575   4.488  1.00  0.00     0.031 C 
ATOM     38  C   UNL     1     -10.266  -2.980   2.461  1.00  0.00     0.029 A 
ATOM     39  C   UNL     1     -11.597  -3.563   2.622  1.00  0.00     0.049 A 
ATOM     40  H   UNL     1     -12.065  -5.479   3.289  1.00  0.00     0.167 HD
ATOM     41  C   UNL     1     -12.863  -9.606   4.598  1.00  0.00     0.037 A 
ATOM     42  C   UNL     1     -12.767  -2.945   2.371  1.00  0.00     0.037 A 
ATOM     43  C   UNL     1     -14.157  -9.000   4.436  1.00  0.00     0.049 A 
ATOM     44  C   UNL     1     -14.054  -3.695   2.597  1.00  0.00     0.074 A 
ATOM     45  C   UNL     1     -15.404  -9.545   4.684  1.00  0.00     0.029 A 
ATOM     46  N   UNL     1     -14.370  -7.708   3.974  1.00  0.00    -0.354 N 
ATOM     47  N   UNL     1     -14.236  -4.918   3.035  1.00  0.00    -0.248 NA
ATOM     48  C   UNL     1     -15.300  -2.976   2.298  1.00  0.00     0.031 C 
ATOM     49  C   UNL     1     -16.372  -8.605   4.316  1.00  0.00     0.029 A 
ATOM     50  C   UNL     1     -15.729  -7.449   3.902  1.00  0.00     0.049 A 
ATOM     51  H   UNL     1     -13.660  -7.071   3.733  1.00  0.00     0.167 HD
ATOM     52  C   UNL     1     -15.611  -5.104   3.093  1.00  0.00     0.074 A 
ATOM     53  C   UNL     1     -16.217  -3.862   2.659  1.00  0.00     0.031 C 
ATOM     54  C   UNL     1     -16.311  -6.202   3.473  1.00  0.00     0.037 A 
BRANCH  41  55
ATOM     55  C   UNL     1     -12.791 -11.034   5.060  1.00  0.00     0.064 A 
ATOM     56  C   UNL     1     -12.291 -11.380   6.324  1.00  0.00     0.173 A 
ATOM     57  C   UNL     1     -13.253 -12.069   4.232  1.00  0.00     0.173 A 
ATOM     58  F   UNL     1     -11.822 -10.431   7.148  1.00  0.00    -0.203 F 
ATOM     59  C   UNL     1     -12.231 -12.711   6.732  1.00  0.00     0.198 A 
ATOM     60  C   UNL     1     -13.221 -13.395   4.656  1.00  0.00     0.198 A 
ATOM     61  F   UNL     1     -13.742 -11.794   3.014  1.00  0.00    -0.203 F 
ATOM     62  F   UNL     1     -11.700 -13.022   7.923  1.00  0.00    -0.200 F 
ATOM     63  C   UNL     1     -12.703 -13.716   5.901  1.00  0.00     0.200 A 
ATOM     64  F   UNL     1     -13.690 -14.363   3.856  1.00  0.00    -0.200 F 
ATOM     65  F   UNL     1     -12.650 -14.995   6.297  1.00  0.00    -0.200 F 
ENDBRANCH  41  55
BRANCH  42  66
ATOM     66  C   UNL     1     -12.772  -1.549   1.859  1.00  0.00     0.064 A 
ATOM     67  C   UNL     1     -13.274  -0.493   2.631  1.00  0.00     0.173 A 
ATOM     68  C   UNL     1     -12.287  -1.246   0.577  1.00  0.00     0.173 A 
ATOM     69  F   UNL     1     -13.771  -0.736   3.853  1.00  0.00    -0.203 F 
ATOM     70  C   UNL     1     -13.310   0.808   2.134  1.00  0.00     0.198 A 
ATOM     71  C   UNL     1     -12.293   0.060   0.094  1.00  0.00     0.198 A 
ATOM     72  F   UNL     1     -11.796  -2.220  -0.204  1.00  0.00    -0.203 F 
ATOM     73  F   UNL     1     -13.841   1.790   2.875  1.00  0.00    -0.200 F 
ATOM     74  C   UNL     1     -12.813   1.085   0.869  1.00  0.00     0.200 A 
ATOM     75  F   UNL     1     -11.799   0.325  -1.123  1.00  0.00    -0.200 F 
ATOM     76  F   UNL     1     -12.844   2.338   0.394  1.00  0.00    -0.200 F 
ENDBRANCH  42  66
BRANCH  54  77
ATOM     77  C   UNL     1     -17.810  -6.098   3.476  1.00  0.00     0.064 A 
ATOM     78  C   UNL     1     -18.550  -6.029   2.286  1.00  0.00     0.173 A 
ATOM     79  C   UNL     1     -18.518  -6.111   4.689  1.00  0.00     0.173 A 
ATOM     80  F   UNL     1     -17.922  -6.001   1.101  1.00  0.00    -0.203 F 
ATOM     81  C   UNL     1     -19.940  -5.947   2.312  1.00  0.00     0.198 A 
ATOM     82  C   UNL     1     -19.908  -6.064   4.709  1.00  0.00     0.198 A 
ATOM     83  F   UNL     1     -17.859  -6.185   5.855  1.00  0.00    -0.203 F 
ATOM     84  F   UNL     1     -20.623  -5.828   1.165  1.00  0.00    -0.200 F 
ATOM     85  C   UNL     1     -20.618  -5.972   3.521  1.00  0.00     0.200 A 
ATOM     86  F   UNL     1     -20.562  -6.107   5.878  1.00  0.00    -0.200 F 
ATOM     87  F   UNL     1     -21.956  -5.902   3.543  1.00  0.00    -0.200 F 
ENDBRANCH  54  77
ENDBRANCH  28  29
ENDBRANCH  21  23
ENDBRANCH  20  21
ENDBRANCH  19  20
ENDBRANCH  18  19
ENDBRANCH  17  18
ENDBRANCH  16  17
ENDBRANCH   1  16
TORSDOF 19
