REMARK SMILES Cc1cc2nc(NC3=[NH+][C@H](CC(=O)OCCOCCOC(=O)c4ccc(-c5c6nc(c(-c7c(F)c(F)c(F)c(F)c7F)c7ccc([nH]7)c(-c7c(F)c(F)c(F)c(F)c7F)c7nc(c(-c8c(F)c(F)c(F)c(F)c8F)c8ccc5[nH]8)C=C7)C=C6)cc4)C(=O)N3)nc(C)c2cc1C
REMARK SMILES IDX 17 1 16 2 15 3 14 4 12 5 13 6 11 7 10 8 7 9 8 10 9 12 88 13
REMARK SMILES IDX 86 15 87 17 6 18 1 19 2 20 3 21 94 22 4 23 93 24 95 25 5 26
REMARK SMILES IDX 92 27 90 28 89 29 91 30 18 31 19 32 20 33 21 34 22 35 23 36
REMARK SMILES IDX 24 37 85 38 25 39 84 40 26 41 27 42 28 43 78 44 29 45 83 46
REMARK SMILES IDX 77 47 79 48 30 49 82 50 76 51 75 52 31 54 63 55 43 56 62 57
REMARK SMILES IDX 44 58 47 59 61 60 80 61 45 62 46 63 60 65 81 66 48 67 32 68
REMARK SMILES IDX 33 69 41 70 34 71 35 72 39 73 42 74 36 75 37 76 40 77 38 78
REMARK SMILES IDX 64 79 65 80 73 81 66 82 67 83 71 84 74 85 68 86 69 87 72 88
REMARK SMILES IDX 70 89 49 90 50 91 58 92 51 93 52 94 56 95 59 96 53 97 54 98
REMARK SMILES IDX 57 99 55 100
REMARK H PARENT 7 11 9 14 88 16 79 53 47 64
REMARK Flexibility Score: inf
ROOT
ATOM      1  O   UNL     1       5.012  -6.504   0.053  1.00  0.00    -0.374 OA
ENDROOT
BRANCH   1   2
ATOM      2  C   UNL     1       4.877  -5.169   0.537  1.00  0.00     0.202 C 
BRANCH   2   3
ATOM      3  C   UNL     1       3.561  -4.449   0.233  1.00  0.00     0.261 C 
BRANCH   3   4
ATOM      4  O   UNL     1       2.458  -5.073   0.910  1.00  0.00    -0.463 OA
BRANCH   4   5
ATOM      5  C   UNL     1       1.490  -5.621   0.136  1.00  0.00     0.310 C 
ATOM      6  O   UNL     1       1.449  -5.531  -1.087  1.00  0.00    -0.252 OA
BRANCH   5   7
ATOM      7  C   UNL     1       0.410  -6.332   0.918  1.00  0.00     0.175 C 
BRANCH   7   8
ATOM      8  C   UNL     1       0.810  -6.947   2.255  1.00  0.00     0.262 C 
ATOM      9  N   UNL     1      -0.073  -4.933   5.034  1.00  0.00    -0.212 N 
ATOM     10  C   UNL     1       0.142  -5.884   4.095  1.00  0.00     0.358 C 
ATOM     11  H   UNL     1      -0.284  -5.200   5.957  1.00  0.00     0.270 HD
ATOM     12  N   UNL     1       1.102  -5.874   3.226  1.00  0.00    -0.263 N 
ATOM     13  N   UNL     1      -0.690  -6.938   3.996  1.00  0.00    -0.211 N 
ATOM     14  H   UNL     1       1.877  -5.267   3.214  1.00  0.00     0.261 HD
ATOM     15  C   UNL     1      -0.377  -7.647   2.882  1.00  0.00     0.320 C 
ATOM     16  H   UNL     1      -1.410  -7.159   4.630  1.00  0.00     0.270 HD
ATOM     17  O   UNL     1      -0.978  -8.616   2.454  1.00  0.00    -0.252 OA
BRANCH   9  18
ATOM     18  C   UNL     1      -0.001  -3.580   4.710  1.00  0.00     0.291 A 
ATOM     19  C   UNL     1       0.836  -0.072  -0.132  1.00  0.00     0.044 C 
ATOM     20  C   UNL     1       0.490  -0.305   1.313  1.00  0.00    -0.046 A 
ATOM     21  C   UNL     1       0.448  -1.628   1.776  1.00  0.00     0.033 A 
ATOM     22  C   UNL     1       0.281   0.736   2.230  1.00  0.00    -0.047 A 
ATOM     23  C   UNL     1       0.208  -1.944   3.103  1.00  0.00     0.078 A 
ATOM     24  C   UNL     1       0.033   0.417   3.579  1.00  0.00     0.016 A 
ATOM     25  C   UNL     1       0.343   2.176   1.806  1.00  0.00     0.044 C 
ATOM     26  N   UNL     1       0.197  -3.228   3.435  1.00  0.00    -0.198 NA
ATOM     27  C   UNL     1      -0.003  -0.928   4.027  1.00  0.00     0.022 A 
ATOM     28  C   UNL     1      -0.228  -1.381   5.340  1.00  0.00     0.052 A 
ATOM     29  N   UNL     1      -0.243  -2.695   5.681  1.00  0.00    -0.203 NA
ATOM     30  C   UNL     1      -0.467  -0.421   6.469  1.00  0.00     0.067 C 
ENDBRANCH   9  18
ENDBRANCH   7   8
ENDBRANCH   5   7
ENDBRANCH   4   5
ENDBRANCH   3   4
ENDBRANCH   2   3
ENDBRANCH   1   2
BRANCH   1  31
ATOM     31  C   UNL     1       4.290  -7.528   0.734  1.00  0.00     0.202 C 
BRANCH  31  32
ATOM     32  C   UNL     1       4.854  -8.010   2.077  1.00  0.00     0.261 C 
BRANCH  32  33
ATOM     33  O   UNL     1       4.841  -6.989   3.088  1.00  0.00    -0.460 OA
BRANCH  33  34
ATOM     34  C   UNL     1       6.053  -6.463   3.387  1.00  0.00     0.338 C 
ATOM     35  O   UNL     1       7.138  -6.813   2.946  1.00  0.00    -0.246 OA
BRANCH  34  36
ATOM     36  C   UNL     1       5.891  -5.252   4.217  1.00  0.00     0.060 A 
ATOM     37  C   UNL     1       5.061  -5.232   5.338  1.00  0.00     0.016 A 
ATOM     38  C   UNL     1       6.644  -4.121   3.874  1.00  0.00     0.016 A 
ATOM     39  C   UNL     1       5.027  -4.090   6.144  1.00  0.00     0.010 A 
ATOM     40  C   UNL     1       6.614  -2.984   4.682  1.00  0.00     0.010 A 
ATOM     41  C   UNL     1       5.827  -2.971   5.841  1.00  0.00    -0.014 A 
BRANCH  41  42
ATOM     42  C   UNL     1       5.950  -1.860   6.818  1.00  0.00     0.031 A 
ATOM     43  C   UNL     1       5.351  -0.511   6.566  1.00  0.00     0.074 A 
ATOM     44  C   UNL     1       6.650  -2.083   7.948  1.00  0.00     0.049 A 
ATOM     45  N   UNL     1       5.307   0.527   7.365  1.00  0.00    -0.248 NA
ATOM     46  C   UNL     1       4.739  -0.285   5.250  1.00  0.00     0.031 C 
ATOM     47  C   UNL     1       7.339  -3.333   8.268  1.00  0.00     0.029 A 
ATOM     48  N   UNL     1       6.893  -1.280   9.034  1.00  0.00    -0.354 N 
ATOM     49  C   UNL     1       4.659   1.526   6.654  1.00  0.00     0.074 A 
ATOM     50  C   UNL     1       4.364   0.985   5.343  1.00  0.00     0.031 C 
ATOM     51  C   UNL     1       7.889  -3.231   9.486  1.00  0.00     0.029 A 
ATOM     52  C   UNL     1       7.619  -1.899  10.021  1.00  0.00     0.049 A 
ATOM     53  H   UNL     1       6.577  -0.350   9.099  1.00  0.00     0.167 HD
ATOM     54  C   UNL     1       4.327   2.771   7.073  1.00  0.00     0.037 A 
ATOM     55  C   UNL     1       8.017  -1.453  11.229  1.00  0.00     0.037 A 
ATOM     56  C   UNL     1       4.613   3.297   8.384  1.00  0.00     0.049 A 
ATOM     57  C   UNL     1       7.624  -0.072  11.671  1.00  0.00     0.074 A 
ATOM     58  C   UNL     1       4.234   4.515   8.922  1.00  0.00     0.029 A 
ATOM     59  N   UNL     1       5.362   2.648   9.357  1.00  0.00    -0.354 N 
ATOM     60  N   UNL     1       6.911   0.825  11.035  1.00  0.00    -0.248 NA
ATOM     61  C   UNL     1       8.081   0.357  13.000  1.00  0.00     0.031 C 
ATOM     62  C   UNL     1       4.803   4.630  10.193  1.00  0.00     0.029 A 
ATOM     63  C   UNL     1       5.487   3.458  10.476  1.00  0.00     0.049 A 
ATOM     64  H   UNL     1       5.747   1.747   9.265  1.00  0.00     0.167 HD
ATOM     65  C   UNL     1       6.822   1.918  11.886  1.00  0.00     0.074 A 
ATOM     66  C   UNL     1       7.535   1.563  13.096  1.00  0.00     0.031 C 
ATOM     67  C   UNL     1       6.206   3.107  11.676  1.00  0.00     0.037 A 
BRANCH  54  68
ATOM     68  C   UNL     1       3.594   3.663   6.114  1.00  0.00     0.064 A 
ATOM     69  C   UNL     1       2.250   3.433   5.791  1.00  0.00     0.173 A 
ATOM     70  C   UNL     1       4.207   4.814   5.595  1.00  0.00     0.173 A 
ATOM     71  F   UNL     1       1.616   2.349   6.260  1.00  0.00    -0.203 F 
ATOM     72  C   UNL     1       1.550   4.314   4.972  1.00  0.00     0.198 A 
ATOM     73  C   UNL     1       3.499   5.702   4.789  1.00  0.00     0.198 A 
ATOM     74  F   UNL     1       5.485   5.092   5.893  1.00  0.00    -0.203 F 
ATOM     75  F   UNL     1       0.268   4.066   4.672  1.00  0.00    -0.200 F 
ATOM     76  C   UNL     1       2.172   5.448   4.474  1.00  0.00     0.200 A 
ATOM     77  F   UNL     1       4.095   6.810   4.329  1.00  0.00    -0.200 F 
ATOM     78  F   UNL     1       1.492   6.297   3.692  1.00  0.00    -0.200 F 
ENDBRANCH  54  68
BRANCH  55  79
ATOM     79  C   UNL     1       8.793  -2.360  12.112  1.00  0.00     0.064 A 
ATOM     80  C   UNL     1       8.213  -2.921  13.257  1.00  0.00     0.173 A 
ATOM     81  C   UNL     1      10.105  -2.740  11.791  1.00  0.00     0.173 A 
ATOM     82  F   UNL     1       6.968  -2.574  13.615  1.00  0.00    -0.203 F 
ATOM     83  C   UNL     1       8.914  -3.830  14.046  1.00  0.00     0.198 A 
ATOM     84  C   UNL     1      10.794  -3.671  12.564  1.00  0.00     0.198 A 
ATOM     85  F   UNL     1      10.702  -2.235  10.701  1.00  0.00    -0.203 F 
ATOM     86  F   UNL     1       8.343  -4.338  15.148  1.00  0.00    -0.200 F 
ATOM     87  C   UNL     1      10.199  -4.215  13.692  1.00  0.00     0.200 A 
ATOM     88  F   UNL     1      12.028  -4.054  12.207  1.00  0.00    -0.200 F 
ATOM     89  F   UNL     1      10.862  -5.110  14.437  1.00  0.00    -0.200 F 
ENDBRANCH  55  79
BRANCH  67  90
ATOM     90  C   UNL     1       6.269   4.131  12.774  1.00  0.00     0.064 A 
ATOM     91  C   UNL     1       7.460   4.806  13.079  1.00  0.00     0.173 A 
ATOM     92  C   UNL     1       5.108   4.505  13.470  1.00  0.00     0.173 A 
ATOM     93  F   UNL     1       8.600   4.480  12.452  1.00  0.00    -0.203 F 
ATOM     94  C   UNL     1       7.489   5.808  14.047  1.00  0.00     0.198 A 
ATOM     95  C   UNL     1       5.134   5.528  14.414  1.00  0.00     0.198 A 
ATOM     96  F   UNL     1       3.940   3.897  13.212  1.00  0.00    -0.203 F 
ATOM     97  F   UNL     1       8.646   6.416  14.344  1.00  0.00    -0.200 F 
ATOM     98  C   UNL     1       6.325   6.176  14.704  1.00  0.00     0.200 A 
ATOM     99  F   UNL     1       4.004   5.896  15.033  1.00  0.00    -0.200 F 
ATOM    100  F   UNL     1       6.350   7.156  15.617  1.00  0.00    -0.200 F 
ENDBRANCH  67  90
ENDBRANCH  41  42
ENDBRANCH  34  36
ENDBRANCH  33  34
ENDBRANCH  32  33
ENDBRANCH  31  32
ENDBRANCH   1  31
TORSDOF 16
