REMARK SMILES O=C(OCCOCCOC(=O)c1ccccc1/C=C1\SC(=S)N(Cc2ccccc2)C1=O)c1ccc(-c2c3nc(c(-c4c(F)c(F)c(F)c(F)c4F)c4ccc([nH]4)c(-c4c(F)c(F)c(F)c(F)c4F)c4nc(c(-c5c(F)c(F)c(F)c(F)c5F)c5ccc2[nH]5)C=C4)C=C3)cc1
REMARK SMILES IDX 7 1 6 2 5 3 4 4 3 5 2 6 1 7 33 8 34 9 95 10 35 11 94 12
REMARK SMILES IDX 36 13 37 14 38 15 88 16 39 17 93 18 87 19 89 20 40 21 92 22
REMARK SMILES IDX 86 23 85 24 41 26 73 27 53 28 72 29 54 30 57 31 71 32 90 33
REMARK SMILES IDX 55 34 56 35 70 37 91 38 58 39 42 40 43 41 51 42 44 43 45 44
REMARK SMILES IDX 49 45 52 46 46 47 47 48 50 49 48 50 74 51 75 52 83 53 76 54
REMARK SMILES IDX 77 55 81 56 84 57 78 58 79 59 82 60 80 61 59 62 60 63 68 64
REMARK SMILES IDX 61 65 62 66 66 67 69 68 63 69 64 70 67 71 65 72 8 73 9 74
REMARK SMILES IDX 10 75 11 76 12 77 13 78 17 79 14 80 16 81 15 82 18 83 19 84
REMARK SMILES IDX 20 85 31 86 21 87 23 88 32 89 22 90 24 91 25 92 26 93 30 94
REMARK SMILES IDX 27 95 29 96 28 97
REMARK H PARENT 89 25 57 36
REMARK Flexibility Score: inf
ROOT
ATOM      1  C   UNL     1       2.792   1.646   0.876  1.00  0.00     0.202 C 
ENDROOT
BRANCH   1   2
ATOM      2  O   UNL     1       4.084   1.250   0.415  1.00  0.00    -0.374 OA
BRANCH   2   3
ATOM      3  C   UNL     1       4.275   1.276  -0.999  1.00  0.00     0.202 C 
BRANCH   3   4
ATOM      4  C   UNL     1       3.962  -0.071  -1.658  1.00  0.00     0.261 C 
BRANCH   4   5
ATOM      5  O   UNL     1       2.612  -0.478  -1.369  1.00  0.00    -0.460 OA
BRANCH   5   6
ATOM      6  C   UNL     1       2.164  -1.313  -0.402  1.00  0.00     0.338 C 
ATOM      7  O   UNL     1       0.955  -1.530  -0.333  1.00  0.00    -0.246 OA
BRANCH   6   8
ATOM      8  C   UNL     1       3.043  -1.994   0.601  1.00  0.00     0.060 A 
ATOM      9  C   UNL     1       4.305  -1.550   0.988  1.00  0.00     0.016 A 
ATOM     10  C   UNL     1       2.519  -3.117   1.268  1.00  0.00     0.016 A 
ATOM     11  C   UNL     1       5.032  -2.175   1.980  1.00  0.00     0.010 A 
ATOM     12  C   UNL     1       3.241  -3.759   2.283  1.00  0.00     0.010 A 
ATOM     13  C   UNL     1       4.505  -3.280   2.635  1.00  0.00    -0.014 A 
BRANCH  13  14
ATOM     14  C   UNL     1       5.415  -3.949   3.574  1.00  0.00     0.031 A 
ATOM     15  C   UNL     1       6.170  -5.141   3.081  1.00  0.00     0.074 A 
ATOM     16  C   UNL     1       5.736  -3.320   4.719  1.00  0.00     0.049 A 
ATOM     17  N   UNL     1       7.085  -5.848   3.683  1.00  0.00    -0.248 NA
ATOM     18  C   UNL     1       5.878  -5.576   1.703  1.00  0.00     0.031 C 
ATOM     19  C   UNL     1       5.161  -2.047   5.168  1.00  0.00     0.029 A 
ATOM     20  N   UNL     1       6.666  -3.620   5.675  1.00  0.00    -0.354 N 
ATOM     21  C   UNL     1       7.470  -6.814   2.766  1.00  0.00     0.074 A 
ATOM     22  C   UNL     1       6.688  -6.614   1.569  1.00  0.00     0.031 C 
ATOM     23  C   UNL     1       5.773  -1.663   6.299  1.00  0.00     0.029 A 
ATOM     24  C   UNL     1       6.726  -2.695   6.689  1.00  0.00     0.049 A 
ATOM     25  H   UNL     1       7.237  -4.421   5.641  1.00  0.00     0.167 HD
ATOM     26  C   UNL     1       8.398  -7.784   2.927  1.00  0.00     0.037 A 
ATOM     27  C   UNL     1       7.449  -2.715   7.824  1.00  0.00     0.037 A 
ATOM     28  C   UNL     1       9.146  -7.955   4.141  1.00  0.00     0.049 A 
ATOM     29  C   UNL     1       8.378  -3.882   8.030  1.00  0.00     0.074 A 
ATOM     30  C   UNL     1      10.021  -8.966   4.490  1.00  0.00     0.029 A 
ATOM     31  N   UNL     1       9.101  -7.071   5.214  1.00  0.00    -0.354 N 
ATOM     32  N   UNL     1       8.658  -4.870   7.212  1.00  0.00    -0.248 NA
ATOM     33  C   UNL     1       9.079  -3.950   9.317  1.00  0.00     0.031 C 
ATOM     34  C   UNL     1      10.473  -8.713   5.790  1.00  0.00     0.029 A 
ATOM     35  C   UNL     1       9.923  -7.518   6.231  1.00  0.00     0.049 A 
ATOM     36  H   UNL     1       8.562  -6.248   5.244  1.00  0.00     0.167 HD
ATOM     37  C   UNL     1       9.571  -5.673   7.878  1.00  0.00     0.074 A 
ATOM     38  C   UNL     1       9.825  -5.033   9.155  1.00  0.00     0.031 C 
ATOM     39  C   UNL     1      10.141  -6.840   7.485  1.00  0.00     0.037 A 
BRANCH  26  40
ATOM     40  C   UNL     1       8.571  -8.754   1.798  1.00  0.00     0.064 A 
ATOM     41  C   UNL     1       9.193  -8.391   0.593  1.00  0.00     0.173 A 
ATOM     42  C   UNL     1       8.059 -10.056   1.905  1.00  0.00     0.173 A 
ATOM     43  F   UNL     1       9.665  -7.146   0.426  1.00  0.00    -0.203 F 
ATOM     44  C   UNL     1       9.273  -9.287  -0.470  1.00  0.00     0.198 A 
ATOM     45  C   UNL     1       8.163 -10.957   0.849  1.00  0.00     0.198 A 
ATOM     46  F   UNL     1       7.441 -10.448   3.029  1.00  0.00    -0.203 F 
ATOM     47  F   UNL     1       9.816  -8.900  -1.633  1.00  0.00    -0.200 F 
ATOM     48  C   UNL     1       8.762 -10.570  -0.340  1.00  0.00     0.200 A 
ATOM     49  F   UNL     1       7.667 -12.196   0.976  1.00  0.00    -0.200 F 
ATOM     50  F   UNL     1       8.830 -11.428  -1.367  1.00  0.00    -0.200 F 
ENDBRANCH  26  40
BRANCH  27  51
ATOM     51  C   UNL     1       7.260  -1.667   8.865  1.00  0.00     0.064 A 
ATOM     52  C   UNL     1       8.310  -0.837   9.281  1.00  0.00     0.173 A 
ATOM     53  C   UNL     1       6.019  -1.506   9.505  1.00  0.00     0.173 A 
ATOM     54  F   UNL     1       9.523  -0.960   8.722  1.00  0.00    -0.203 F 
ATOM     55  C   UNL     1       8.135   0.087  10.312  1.00  0.00     0.198 A 
ATOM     56  C   UNL     1       5.836  -0.558  10.509  1.00  0.00     0.198 A 
ATOM     57  F   UNL     1       4.977  -2.276   9.157  1.00  0.00    -0.203 F 
ATOM     58  F   UNL     1       9.175   0.820  10.735  1.00  0.00    -0.200 F 
ATOM     59  C   UNL     1       6.898   0.229  10.922  1.00  0.00     0.200 A 
ATOM     60  F   UNL     1       4.633  -0.418  11.084  1.00  0.00    -0.200 F 
ATOM     61  F   UNL     1       6.733   1.110  11.918  1.00  0.00    -0.200 F 
ENDBRANCH  27  51
BRANCH  39  62
ATOM     62  C   UNL     1      11.104  -7.468   8.446  1.00  0.00     0.064 A 
ATOM     63  C   UNL     1      10.665  -8.070   9.634  1.00  0.00     0.173 A 
ATOM     64  C   UNL     1      12.476  -7.491   8.158  1.00  0.00     0.173 A 
ATOM     65  F   UNL     1       9.363  -8.058   9.958  1.00  0.00    -0.203 F 
ATOM     66  C   UNL     1      11.573  -8.644  10.518  1.00  0.00     0.198 A 
ATOM     67  C   UNL     1      13.376  -8.097   9.027  1.00  0.00     0.198 A 
ATOM     68  F   UNL     1      12.940  -6.935   7.029  1.00  0.00    -0.203 F 
ATOM     69  F   UNL     1      11.141  -9.163  11.675  1.00  0.00    -0.200 F 
ATOM     70  C   UNL     1      12.926  -8.664  10.210  1.00  0.00     0.200 A 
ATOM     71  F   UNL     1      14.680  -8.129   8.722  1.00  0.00    -0.200 F 
ATOM     72  F   UNL     1      13.798  -9.222  11.060  1.00  0.00    -0.200 F 
ENDBRANCH  39  62
ENDBRANCH  13  14
ENDBRANCH   6   8
ENDBRANCH   5   6
ENDBRANCH   4   5
ENDBRANCH   3   4
ENDBRANCH   2   3
ENDBRANCH   1   2
BRANCH   1  73
ATOM     73  C   UNL     1       2.960   2.898   1.718  1.00  0.00     0.261 C 
BRANCH  73  74
ATOM     74  O   UNL     1       3.540   3.897   0.873  1.00  0.00    -0.460 OA
BRANCH  74  75
ATOM     75  C   UNL     1       4.893   4.000   0.859  1.00  0.00     0.338 C 
ATOM     76  O   UNL     1       5.694   3.415   1.566  1.00  0.00    -0.246 OA
BRANCH  75  77
ATOM     77  C   UNL     1       5.249   4.895  -0.269  1.00  0.00     0.067 A 
ATOM     78  C   UNL     1       6.223   4.429  -1.159  1.00  0.00     0.016 A 
ATOM     79  C   UNL     1       4.561   6.106  -0.513  1.00  0.00    -0.010 A 
ATOM     80  C   UNL     1       6.457   5.119  -2.344  1.00  0.00     0.001 A 
ATOM     81  C   UNL     1       4.803   6.781  -1.712  1.00  0.00     0.009 A 
ATOM     82  C   UNL     1       5.739   6.283  -2.625  1.00  0.00     0.001 A 
BRANCH  79  83
ATOM     83  C   UNL     1       3.480   6.564   0.378  1.00  0.00     0.030 C 
ATOM     84  C   UNL     1       3.594   6.693   1.710  1.00  0.00     0.081 C 
ATOM     85  S   UNL     1       5.003   6.788   2.683  1.00  0.00    -0.054 SA
ATOM     86  C   UNL     1       2.411   6.375   2.549  1.00  0.00     0.266 C 
ATOM     87  C   UNL     1       4.137   6.318   4.144  1.00  0.00     0.148 C 
ATOM     88  N   UNL     1       2.790   6.217   3.872  1.00  0.00    -0.288 N 
ATOM     89  O   UNL     1       1.302   6.150   2.082  1.00  0.00    -0.268 OA
ATOM     90  S   UNL     1       4.925   6.048   5.589  1.00  0.00    -0.052 S 
BRANCH  88  91
ATOM     91  C   UNL     1       1.743   5.968   4.863  1.00  0.00     0.163 C 
BRANCH  91  92
ATOM     92  C   UNL     1       1.030   7.269   5.164  1.00  0.00    -0.028 A 
ATOM     93  C   UNL     1       1.488   8.119   6.177  1.00  0.00     0.005 A 
ATOM     94  C   UNL     1       0.001   7.712   4.317  1.00  0.00     0.005 A 
ATOM     95  C   UNL     1       0.960   9.404   6.304  1.00  0.00     0.000 A 
ATOM     96  C   UNL     1      -0.505   9.004   4.428  1.00  0.00     0.000 A 
ATOM     97  C   UNL     1      -0.018   9.852   5.417  1.00  0.00     0.000 A 
ENDBRANCH  91  92
ENDBRANCH  88  91
ENDBRANCH  79  83
ENDBRANCH  75  77
ENDBRANCH  74  75
ENDBRANCH  73  74
ENDBRANCH   1  73
TORSDOF 17
