REMARK SMILES O=C(CN1C(=O)/C(=C2/Sc3ccccc3N2CCCS(=O)(=O)[O-])SC1=S)OCCOCCOC(=O)c1ccc(-c2c3nc(c(-c4c(F)c(F)c(F)c(F)c4F)c4ccc([nH]4)c(-c4c(F)c(F)c(F)c(F)c4F)c4nc(c(-c5c(F)c(F)c(F)c(F)c5F)c5ccc2[nH]5)C=C4)C=C3)cc1
REMARK SMILES IDX 28 1 27 2 2 3 1 4 3 5 4 6 5 7 25 8 6 9 7 10 24 11 26 12 8 13
REMARK SMILES IDX 9 14 16 15 10 16 15 17 11 18 14 19 12 20 13 21 17 22 18 23
REMARK SMILES IDX 19 24 20 25 21 26 22 27 23 28 29 29 30 30 31 31 32 32 33 33
REMARK SMILES IDX 34 34 35 35 36 36 37 37 98 38 38 39 97 40 39 41 40 42 41 43
REMARK SMILES IDX 91 44 42 45 96 46 90 47 92 48 43 49 95 50 89 51 88 52 44 54
REMARK SMILES IDX 76 55 56 56 75 57 57 58 60 59 74 60 93 61 58 62 59 63 73 65
REMARK SMILES IDX 94 66 61 67 45 68 46 69 54 70 47 71 48 72 52 73 55 74 49 75
REMARK SMILES IDX 50 76 53 77 51 78 77 79 78 80 86 81 79 82 80 83 84 84 87 85
REMARK SMILES IDX 81 86 82 87 85 88 83 89 62 90 63 91 71 92 64 93 65 94 69 95
REMARK SMILES IDX 72 96 66 97 67 98 70 99 68 100
REMARK H PARENT 92 53 60 64
REMARK Flexibility Score: inf
ROOT
ATOM      1  C   UNL     1       4.530  -1.014  -0.111  1.00  0.00     0.261 C 
ENDROOT
BRANCH   1   2
ATOM      2  O   UNL     1       3.126  -1.199   0.118  1.00  0.00    -0.462 OA
BRANCH   2   3
ATOM      3  C   UNL     1       2.339  -0.611   1.043  1.00  0.00     0.326 C 
ATOM      4  O   UNL     1       1.124  -0.574   0.836  1.00  0.00    -0.250 OA
BRANCH   3   5
ATOM      5  C   UNL     1       2.896   0.071   2.290  1.00  0.00     0.250 C 
BRANCH   5   6
ATOM      6  N   UNL     1       4.220  -0.264   2.808  1.00  0.00    -0.281 N 
ATOM      7  C   UNL     1       5.067   0.754   3.201  1.00  0.00     0.269 C 
ATOM      8  C   UNL     1       4.576  -1.502   3.282  1.00  0.00     0.148 C 
ATOM      9  O   UNL     1       4.683   1.873   3.513  1.00  0.00    -0.268 OA
ATOM     10  C   UNL     1       6.450   0.240   3.382  1.00  0.00     0.111 C 
ATOM     11  S   UNL     1       6.258  -1.458   3.773  1.00  0.00    -0.052 SA
ATOM     12  S   UNL     1       3.655  -2.887   3.349  1.00  0.00    -0.052 S 
ATOM     13  C   UNL     1       7.627   0.895   3.204  1.00  0.00     0.100 C 
ATOM     14  S   UNL     1       9.138  -0.119   3.383  1.00  0.00    -0.068 SA
ATOM     15  N   UNL     1       7.947   2.241   2.870  1.00  0.00    -0.334 N 
ATOM     16  C   UNL     1      10.132   1.318   3.104  1.00  0.00     0.037 A 
ATOM     17  C   UNL     1       9.358   2.458   2.825  1.00  0.00     0.056 A 
ATOM     18  C   UNL     1      11.519   1.356   3.205  1.00  0.00     0.017 A 
ATOM     19  C   UNL     1      10.030   3.658   2.588  1.00  0.00     0.027 A 
ATOM     20  C   UNL     1      12.168   2.571   3.015  1.00  0.00     0.001 A 
ATOM     21  C   UNL     1      11.428   3.714   2.698  1.00  0.00     0.002 A 
BRANCH  15  22
ATOM     22  C   UNL     1       7.113   3.447   2.980  1.00  0.00     0.124 C 
BRANCH  22  23
ATOM     23  C   UNL     1       6.619   3.985   1.625  1.00  0.00     0.037 C 
BRANCH  23  24
ATOM     24  C   UNL     1       5.185   3.651   1.231  1.00  0.00     0.124 C 
BRANCH  24  25
ATOM     25  S   UNL     1       3.894   4.556   2.086  1.00  0.00     0.095 S 
ATOM     26  O   UNL     1       3.970   5.950   1.716  1.00  0.00    -0.243 OA
ATOM     27  O   UNL     1       2.663   3.799   2.002  1.00  0.00    -0.243 OA
ATOM     28  O   UNL     1       4.402   4.419   3.609  1.00  0.00    -0.748 OA
ENDBRANCH  24  25
ENDBRANCH  23  24
ENDBRANCH  22  23
ENDBRANCH  15  22
ENDBRANCH   5   6
ENDBRANCH   3   5
ENDBRANCH   2   3
ENDBRANCH   1   2
BRANCH   1  29
ATOM     29  C   UNL     1       4.937   0.294  -0.791  1.00  0.00     0.202 C 
BRANCH  29  30
ATOM     30  O   UNL     1       4.024   1.374  -0.692  1.00  0.00    -0.374 OA
BRANCH  30  31
ATOM     31  C   UNL     1       2.900   1.373  -1.588  1.00  0.00     0.202 C 
BRANCH  31  32
ATOM     32  C   UNL     1       3.211   1.363  -3.091  1.00  0.00     0.261 C 
BRANCH  32  33
ATOM     33  O   UNL     1       3.454   0.009  -3.525  1.00  0.00    -0.460 OA
BRANCH  33  34
ATOM     34  C   UNL     1       4.619  -0.215  -4.177  1.00  0.00     0.338 C 
ATOM     35  O   UNL     1       5.458   0.605  -4.503  1.00  0.00    -0.246 OA
BRANCH  34  36
ATOM     36  C   UNL     1       4.846  -1.672  -4.208  1.00  0.00     0.060 A 
ATOM     37  C   UNL     1       3.891  -2.543  -4.736  1.00  0.00     0.016 A 
ATOM     38  C   UNL     1       6.052  -2.162  -3.689  1.00  0.00     0.016 A 
ATOM     39  C   UNL     1       4.158  -3.913  -4.765  1.00  0.00     0.010 A 
ATOM     40  C   UNL     1       6.311  -3.532  -3.708  1.00  0.00     0.010 A 
ATOM     41  C   UNL     1       5.374  -4.413  -4.264  1.00  0.00    -0.014 A 
BRANCH  41  42
ATOM     42  C   UNL     1       5.727  -5.836  -4.472  1.00  0.00     0.031 A 
ATOM     43  C   UNL     1       5.565  -6.853  -3.386  1.00  0.00     0.074 A 
ATOM     44  C   UNL     1       6.207  -6.192  -5.678  1.00  0.00     0.049 A 
ATOM     45  N   UNL     1       5.762  -8.146  -3.439  1.00  0.00    -0.248 NA
ATOM     46  C   UNL     1       5.131  -6.361  -2.071  1.00  0.00     0.031 C 
ATOM     47  C   UNL     1       6.428  -5.271  -6.795  1.00  0.00     0.029 A 
ATOM     48  N   UNL     1       6.586  -7.413  -6.172  1.00  0.00    -0.354 N 
ATOM     49  C   UNL     1       5.448  -8.630  -2.177  1.00  0.00     0.074 A 
ATOM     50  C   UNL     1       5.095  -7.484  -1.363  1.00  0.00     0.031 C 
ATOM     51  C   UNL     1       6.879  -5.963  -7.851  1.00  0.00     0.029 A 
ATOM     52  C   UNL     1       6.997  -7.370  -7.481  1.00  0.00     0.049 A 
ATOM     53  H   UNL     1       6.564  -8.241  -5.639  1.00  0.00     0.167 HD
ATOM     54  C   UNL     1       5.438  -9.916  -1.753  1.00  0.00     0.037 A 
ATOM     55  C   UNL     1       7.414  -8.358  -8.295  1.00  0.00     0.037 A 
ATOM     56  C   UNL     1       5.809 -11.045  -2.569  1.00  0.00     0.049 A 
ATOM     57  C   UNL     1       7.432  -9.769  -7.779  1.00  0.00     0.074 A 
ATOM     58  C   UNL     1       5.815 -12.388  -2.232  1.00  0.00     0.029 A 
ATOM     59  N   UNL     1       6.249 -10.963  -3.883  1.00  0.00    -0.354 N 
ATOM     60  N   UNL     1       7.071 -10.223  -6.604  1.00  0.00    -0.248 NA
ATOM     61  C   UNL     1       7.904 -10.806  -8.706  1.00  0.00     0.031 C 
ATOM     62  C   UNL     1       6.299 -13.114  -3.325  1.00  0.00     0.029 A 
ATOM     63  C   UNL     1       6.548 -12.229  -4.362  1.00  0.00     0.049 A 
ATOM     64  H   UNL     1       6.336 -10.129  -4.398  1.00  0.00     0.167 HD
ATOM     65  C   UNL     1       7.246 -11.598  -6.657  1.00  0.00     0.074 A 
ATOM     66  C   UNL     1       7.731 -11.907  -7.987  1.00  0.00     0.031 C 
ATOM     67  C   UNL     1       7.024 -12.521  -5.690  1.00  0.00     0.037 A 
BRANCH  54  68
ATOM     68  C   UNL     1       4.991 -10.193  -0.347  1.00  0.00     0.064 A 
ATOM     69  C   UNL     1       3.638 -10.107   0.012  1.00  0.00     0.173 A 
ATOM     70  C   UNL     1       5.898 -10.658   0.617  1.00  0.00     0.173 A 
ATOM     71  F   UNL     1       2.731  -9.665  -0.872  1.00  0.00    -0.203 F 
ATOM     72  C   UNL     1       3.210 -10.475   1.286  1.00  0.00     0.198 A 
ATOM     73  C   UNL     1       5.463 -11.047   1.882  1.00  0.00     0.198 A 
ATOM     74  F   UNL     1       7.202 -10.769   0.320  1.00  0.00    -0.203 F 
ATOM     75  F   UNL     1       1.913 -10.373   1.611  1.00  0.00    -0.200 F 
ATOM     76  C   UNL     1       4.120 -10.955   2.215  1.00  0.00     0.200 A 
ATOM     77  F   UNL     1       6.342 -11.527   2.773  1.00  0.00    -0.200 F 
ATOM     78  F   UNL     1       3.703 -11.334   3.431  1.00  0.00    -0.200 F 
ENDBRANCH  54  68
BRANCH  55  79
ATOM     79  C   UNL     1       7.797  -8.044  -9.694  1.00  0.00     0.064 A 
ATOM     80  C   UNL     1       6.999  -8.461 -10.768  1.00  0.00     0.173 A 
ATOM     81  C   UNL     1       8.954  -7.308  -9.986  1.00  0.00     0.173 A 
ATOM     82  F   UNL     1       5.891  -9.181 -10.538  1.00  0.00    -0.203 F 
ATOM     83  C   UNL     1       7.350  -8.164 -12.082  1.00  0.00     0.198 A 
ATOM     84  C   UNL     1       9.290  -6.988 -11.300  1.00  0.00     0.198 A 
ATOM     85  F   UNL     1       9.748  -6.880  -8.993  1.00  0.00    -0.203 F 
ATOM     86  F   UNL     1       6.589  -8.606 -13.092  1.00  0.00    -0.200 F 
ATOM     87  C   UNL     1       8.492  -7.422 -12.347  1.00  0.00     0.200 A 
ATOM     88  F   UNL     1      10.385  -6.257 -11.550  1.00  0.00    -0.200 F 
ATOM     89  F   UNL     1       8.824  -7.130 -13.612  1.00  0.00    -0.200 F 
ENDBRANCH  55  79
BRANCH  67  90
ATOM     90  C   UNL     1       7.280 -13.959  -6.038  1.00  0.00     0.064 A 
ATOM     91  C   UNL     1       8.583 -14.456  -6.186  1.00  0.00     0.173 A 
ATOM     92  C   UNL     1       6.212 -14.859  -6.170  1.00  0.00     0.173 A 
ATOM     93  F   UNL     1       9.636 -13.632  -6.083  1.00  0.00    -0.203 F 
ATOM     94  C   UNL     1       8.806 -15.800  -6.473  1.00  0.00     0.198 A 
ATOM     95  C   UNL     1       6.440 -16.207  -6.429  1.00  0.00     0.198 A 
ATOM     96  F   UNL     1       4.947 -14.434  -6.032  1.00  0.00    -0.203 F 
ATOM     97  F   UNL     1      10.057 -16.246  -6.650  1.00  0.00    -0.200 F 
ATOM     98  C   UNL     1       7.736 -16.676  -6.586  1.00  0.00     0.200 A 
ATOM     99  F   UNL     1       5.406 -17.055  -6.524  1.00  0.00    -0.200 F 
ATOM    100  F   UNL     1       7.954 -17.971  -6.851  1.00  0.00    -0.200 F 
ENDBRANCH  67  90
ENDBRANCH  41  42
ENDBRANCH  34  36
ENDBRANCH  33  34
ENDBRANCH  32  33
ENDBRANCH  31  32
ENDBRANCH  30  31
ENDBRANCH  29  30
ENDBRANCH   1  29
TORSDOF 19
