REMARK SMILES Cc1cc(C(=O)N[C@@H]2C(=O)N3C(C(=O)OCCOCCOC(=O)c4ccc(-c5c6nc(c(-c7c(F)c(F)c(F)c(F)c7F)c7ccc([nH]7)c(-c7c(F)c(F)c(F)c(F)c7F)c7nc(c(-c8c(F)c(F)c(F)c(F)c8F)c8ccc5[nH]8)C=C7)C=C6)cc4)=C(CSc4nnc(C)s4)CS[C@H]23)n(C)n1
REMARK SMILES IDX 17 1 16 2 15 3 13 4 14 5 12 6 8 7 9 8 98 9 10 10 11 11 97 12
REMARK SMILES IDX 96 13 87 14 7 15 5 16 6 17 4 19 1 20 2 21 3 22 101 23 99 24
REMARK SMILES IDX 100 25 88 26 89 27 90 28 91 29 95 30 92 31 93 32 94 33 18 34
REMARK SMILES IDX 19 35 20 36 21 37 22 38 23 39 24 40 25 41 86 42 26 43 85 44
REMARK SMILES IDX 27 45 28 46 29 47 79 48 30 49 84 50 78 51 80 52 31 53 83 54
REMARK SMILES IDX 77 55 76 56 32 58 64 59 44 60 63 61 45 62 48 63 62 64 81 65
REMARK SMILES IDX 46 66 47 67 61 69 82 70 49 71 33 72 34 73 42 74 35 75 36 76
REMARK SMILES IDX 40 77 43 78 37 79 38 80 41 81 39 82 65 83 66 84 74 85 67 86
REMARK SMILES IDX 68 87 72 88 75 89 69 90 70 91 73 92 71 93 50 94 51 95 59 96
REMARK SMILES IDX 52 97 53 98 57 99 60 100 54 101 55 102 58 103 56 104
REMARK H PARENT 7 18 80 57 48 68
REMARK Flexibility Score: inf
ROOT
ATOM      1  C   UNL     1      -3.757   1.673  -2.583  1.00  0.00     0.202 C 
ENDROOT
BRANCH   1   2
ATOM      2  C   UNL     1      -3.027   0.815  -3.614  1.00  0.00     0.261 C 
BRANCH   2   3
ATOM      3  O   UNL     1      -3.289  -0.581  -3.382  1.00  0.00    -0.459 OA
BRANCH   3   4
ATOM      4  C   UNL     1      -2.202  -1.310  -3.057  1.00  0.00     0.355 C 
ATOM      5  O   UNL     1      -1.041  -0.917  -3.099  1.00  0.00    -0.244 OA
BRANCH   4   6
ATOM      6  C   UNL     1      -2.526  -2.699  -2.596  1.00  0.00     0.132 C 
ATOM      7  C   UNL     1      -0.299  -4.107  -0.429  1.00  0.00     0.206 C 
ATOM      8  C   UNL     1      -1.100  -2.768  -0.500  1.00  0.00     0.253 C 
ATOM      9  C   UNL     1      -1.225  -4.535  -1.609  1.00  0.00     0.181 C 
ATOM     10  O   UNL     1      -1.231  -1.777   0.174  1.00  0.00    -0.272 OA
ATOM     11  N   UNL     1      -1.651  -3.172  -1.669  1.00  0.00    -0.289 N 
ATOM     12  S   UNL     1      -2.708  -5.505  -1.255  1.00  0.00    -0.129 SA
ATOM     13  C   UNL     1      -3.460  -5.043  -2.836  1.00  0.00     0.106 C 
ATOM     14  C   UNL     1      -3.450  -3.539  -3.133  1.00  0.00    -0.019 C 
BRANCH   7  15
ATOM     15  N   UNL     1      -0.292  -4.946   0.791  1.00  0.00    -0.336 N 
ATOM     16  C   UNL     1       0.021  -6.294   0.882  1.00  0.00     0.270 C 
ATOM     17  O   UNL     1      -0.032  -6.818   1.992  1.00  0.00    -0.268 OA
ATOM     18  H   UNL     1      -0.538  -4.496   1.632  1.00  0.00     0.164 HD
BRANCH  16  19
ATOM     19  C   UNL     1       0.313  -7.026  -0.337  1.00  0.00     0.126 A 
ATOM     20  C   UNL     1       0.412  -7.381  -3.963  1.00  0.00     0.069 C 
ATOM     21  C   UNL     1       0.449  -7.550  -2.490  1.00  0.00     0.060 A 
ATOM     22  C   UNL     1       0.921  -6.637  -1.523  1.00  0.00     0.059 A 
ATOM     23  N   UNL     1      -0.089  -8.621  -1.908  1.00  0.00    -0.178 NA
ATOM     24  N   UNL     1      -0.031  -8.337  -0.586  1.00  0.00    -0.263 N 
ATOM     25  C   UNL     1      -0.345  -9.398   0.341  1.00  0.00     0.174 C 
ENDBRANCH  16  19
ENDBRANCH   7  15
BRANCH  14  26
ATOM     26  C   UNL     1      -4.497  -3.172  -4.155  1.00  0.00     0.111 C 
BRANCH  26  27
ATOM     27  S   UNL     1      -6.010  -2.400  -3.530  1.00  0.00    -0.089 SA
BRANCH  27  28
ATOM     28  C   UNL     1      -6.506  -3.237  -2.080  1.00  0.00     0.174 A 
ATOM     29  N   UNL     1      -5.794  -4.137  -1.447  1.00  0.00    -0.132 NA
ATOM     30  S   UNL     1      -7.980  -2.877  -1.275  1.00  0.00    -0.091 S 
ATOM     31  N   UNL     1      -6.312  -4.466  -0.208  1.00  0.00    -0.143 NA
ATOM     32  C   UNL     1      -7.409  -3.791   0.055  1.00  0.00     0.115 A 
ATOM     33  C   UNL     1      -8.109  -3.756   1.363  1.00  0.00     0.081 C 
ENDBRANCH  27  28
ENDBRANCH  26  27
ENDBRANCH  14  26
ENDBRANCH   4   6
ENDBRANCH   3   4
ENDBRANCH   2   3
ENDBRANCH   1   2
BRANCH   1  34
ATOM     34  O   UNL     1      -3.295   1.636  -1.236  1.00  0.00    -0.374 OA
BRANCH  34  35
ATOM     35  C   UNL     1      -3.474   0.433  -0.492  1.00  0.00     0.202 C 
BRANCH  35  36
ATOM     36  C   UNL     1      -4.880   0.104   0.029  1.00  0.00     0.261 C 
BRANCH  36  37
ATOM     37  O   UNL     1      -5.907   0.181  -0.971  1.00  0.00    -0.460 OA
BRANCH  37  38
ATOM     38  C   UNL     1      -6.633   1.328  -0.954  1.00  0.00     0.338 C 
ATOM     39  O   UNL     1      -6.553   2.256  -0.171  1.00  0.00    -0.246 OA
BRANCH  38  40
ATOM     40  C   UNL     1      -7.492   1.360  -2.152  1.00  0.00     0.060 A 
ATOM     41  C   UNL     1      -7.303   2.366  -3.104  1.00  0.00     0.016 A 
ATOM     42  C   UNL     1      -8.514   0.430  -2.305  1.00  0.00     0.016 A 
ATOM     43  C   UNL     1      -8.155   2.446  -4.205  1.00  0.00     0.010 A 
ATOM     44  C   UNL     1      -9.329   0.470  -3.434  1.00  0.00     0.010 A 
ATOM     45  C   UNL     1      -9.190   1.512  -4.364  1.00  0.00    -0.014 A 
BRANCH  45  46
ATOM     46  C   UNL     1     -10.241   1.716  -5.392  1.00  0.00     0.031 A 
ATOM     47  C   UNL     1     -11.632   2.081  -4.943  1.00  0.00     0.074 A 
ATOM     48  C   UNL     1      -9.966   1.577  -6.701  1.00  0.00     0.049 A 
ATOM     49  N   UNL     1     -12.721   2.247  -5.651  1.00  0.00    -0.248 NA
ATOM     50  C   UNL     1     -11.829   2.262  -3.495  1.00  0.00     0.031 C 
ATOM     51  C   UNL     1      -8.661   1.229  -7.258  1.00  0.00     0.029 A 
ATOM     52  N   UNL     1     -10.778   1.705  -7.800  1.00  0.00    -0.354 N 
ATOM     53  C   UNL     1     -13.726   2.531  -4.735  1.00  0.00     0.074 A 
ATOM     54  C   UNL     1     -13.135   2.456  -3.418  1.00  0.00     0.031 C 
ATOM     55  C   UNL     1      -8.758   1.180  -8.598  1.00  0.00     0.029 A 
ATOM     56  C   UNL     1     -10.139   1.453  -8.988  1.00  0.00     0.049 A 
ATOM     57  H   UNL     1     -11.729   1.953  -7.741  1.00  0.00     0.167 HD
ATOM     58  C   UNL     1     -15.021   2.849  -4.970  1.00  0.00     0.037 A 
ATOM     59  C   UNL     1     -10.622   1.430 -10.246  1.00  0.00     0.037 A 
ATOM     60  C   UNL     1     -15.598   2.943  -6.284  1.00  0.00     0.049 A 
ATOM     61  C   UNL     1     -12.078   1.742 -10.481  1.00  0.00     0.074 A 
ATOM     62  C   UNL     1     -16.887   3.301  -6.637  1.00  0.00     0.029 A 
ATOM     63  N   UNL     1     -14.921   2.670  -7.464  1.00  0.00    -0.354 N 
ATOM     64  N   UNL     1     -13.010   2.055  -9.613  1.00  0.00    -0.248 NA
ATOM     65  C   UNL     1     -12.547   1.701 -11.873  1.00  0.00     0.031 C 
ATOM     66  C   UNL     1     -17.008   3.181  -8.025  1.00  0.00     0.029 A 
ATOM     67  C   UNL     1     -15.775   2.819  -8.544  1.00  0.00     0.049 A 
ATOM     68  H   UNL     1     -13.974   2.408  -7.524  1.00  0.00     0.167 HD
ATOM     69  C   UNL     1     -14.164   2.282 -10.354  1.00  0.00     0.074 A 
ATOM     70  C   UNL     1     -13.810   2.083 -11.744  1.00  0.00     0.031 C 
ATOM     71  C   UNL     1     -15.404   2.625  -9.924  1.00  0.00     0.037 A 
BRANCH  58  72
ATOM     72  C   UNL     1     -15.903   3.104  -3.779  1.00  0.00     0.064 A 
ATOM     73  C   UNL     1     -15.722   4.220  -2.946  1.00  0.00     0.173 A 
ATOM     74  C   UNL     1     -16.959   2.231  -3.480  1.00  0.00     0.173 A 
ATOM     75  F   UNL     1     -14.719   5.080  -3.178  1.00  0.00    -0.203 F 
ATOM     76  C   UNL     1     -16.540   4.429  -1.839  1.00  0.00     0.198 A 
ATOM     77  C   UNL     1     -17.799   2.464  -2.394  1.00  0.00     0.198 A 
ATOM     78  F   UNL     1     -17.182   1.151  -4.244  1.00  0.00    -0.203 F 
ATOM     79  F   UNL     1     -16.307   5.467  -1.023  1.00  0.00    -0.200 F 
ATOM     80  C   UNL     1     -17.583   3.557  -1.569  1.00  0.00     0.200 A 
ATOM     81  F   UNL     1     -18.817   1.628  -2.144  1.00  0.00    -0.200 F 
ATOM     82  F   UNL     1     -18.374   3.764  -0.507  1.00  0.00    -0.200 F 
ENDBRANCH  58  72
BRANCH  59  83
ATOM     83  C   UNL     1      -9.718   1.108 -11.383  1.00  0.00     0.064 A 
ATOM     84  C   UNL     1      -9.390   2.076 -12.342  1.00  0.00     0.173 A 
ATOM     85  C   UNL     1      -9.170  -0.174 -11.538  1.00  0.00     0.173 A 
ATOM     86  F   UNL     1      -9.906   3.311 -12.251  1.00  0.00    -0.203 F 
ATOM     87  C   UNL     1      -8.566   1.769 -13.424  1.00  0.00     0.198 A 
ATOM     88  C   UNL     1      -8.320  -0.470 -12.602  1.00  0.00     0.198 A 
ATOM     89  F   UNL     1      -9.448  -1.137 -10.647  1.00  0.00    -0.203 F 
ATOM     90  F   UNL     1      -8.309   2.701 -14.352  1.00  0.00    -0.200 F 
ATOM     91  C   UNL     1      -8.026   0.499 -13.549  1.00  0.00     0.200 A 
ATOM     92  F   UNL     1      -7.786  -1.695 -12.708  1.00  0.00    -0.200 F 
ATOM     93  F   UNL     1      -7.228   0.206 -14.584  1.00  0.00    -0.200 F 
ENDBRANCH  59  83
BRANCH  71  94
ATOM     94  C   UNL     1     -16.462   2.851 -10.967  1.00  0.00     0.064 A 
ATOM     95  C   UNL     1     -16.999   1.796 -11.719  1.00  0.00     0.173 A 
ATOM     96  C   UNL     1     -16.977   4.139 -11.184  1.00  0.00     0.173 A 
ATOM     97  F   UNL     1     -16.534   0.547 -11.559  1.00  0.00    -0.203 F 
ATOM     98  C   UNL     1     -17.991   2.026 -12.669  1.00  0.00     0.198 A 
ATOM     99  C   UNL     1     -17.994   4.359 -12.108  1.00  0.00     0.198 A 
ATOM    100  F   UNL     1     -16.506   5.183 -10.485  1.00  0.00    -0.203 F 
ATOM    101  F   UNL     1     -18.450   1.011 -13.414  1.00  0.00    -0.200 F 
ATOM    102  C   UNL     1     -18.494   3.305 -12.856  1.00  0.00     0.200 A 
ATOM    103  F   UNL     1     -18.492   5.593 -12.273  1.00  0.00    -0.200 F 
ATOM    104  F   UNL     1     -19.455   3.522 -13.764  1.00  0.00    -0.200 F 
ENDBRANCH  71  94
ENDBRANCH  45  46
ENDBRANCH  38  40
ENDBRANCH  37  38
ENDBRANCH  36  37
ENDBRANCH  35  36
ENDBRANCH  34  35
ENDBRANCH   1  34
TORSDOF 19
