REMARK SMILES CC1=CC[C@@](C(=O)N/N=C/C2=C([O-])CC(C)(C)CC2=O)(C(=O)OCCOCCOC(=O)c2ccc(-c3c4nc(c(-c5c(F)c(F)c(F)c(F)c5F)c5ccc([nH]5)c(-c5c(F)c(F)c(F)c(F)c5F)c5nc(c(-c6c(F)c(F)c(F)c(F)c6F)c6ccc3[nH]6)C=C5)C=C4)cc2)C[C@@H]1c1ccccc1
REMARK SMILES IDX 25 1 24 2 23 3 21 4 22 5 5 6 1 7 2 8 3 9 96 10 4 11 95 12
REMARK SMILES IDX 97 13 98 14 102 15 99 16 101 17 100 18 6 19 7 20 8 21 9 23
REMARK SMILES IDX 10 24 11 25 12 26 19 27 13 28 14 29 18 30 20 31 15 32 16 33
REMARK SMILES IDX 17 34 26 35 27 36 28 37 29 38 30 39 31 40 32 41 33 42 94 43
REMARK SMILES IDX 34 44 93 45 35 46 36 47 37 48 87 49 38 50 92 51 86 52 88 53
REMARK SMILES IDX 39 54 91 55 85 56 84 57 40 59 72 60 52 61 71 62 53 63 56 64
REMARK SMILES IDX 70 65 89 66 54 67 55 68 69 70 90 71 57 72 41 73 42 74 50 75
REMARK SMILES IDX 43 76 44 77 48 78 51 79 45 80 46 81 49 82 47 83 73 84 74 85
REMARK SMILES IDX 82 86 75 87 76 88 80 89 83 90 77 91 78 92 81 93 79 94 58 95
REMARK SMILES IDX 59 96 67 97 60 98 61 99 65 100 68 101 62 102 63 103 66 104
REMARK SMILES IDX 64 105
REMARK H PARENT 8 22 88 58 56 69
REMARK Flexibility Score: inf
ROOT
ATOM      1  C   UNL     1      -6.245   0.366  -1.289  1.00  0.00     0.202 C 
ENDROOT
BRANCH   1   2
ATOM      2  C   UNL     1      -5.566   0.178   0.070  1.00  0.00     0.261 C 
BRANCH   2   3
ATOM      3  O   UNL     1      -4.148   0.433   0.049  1.00  0.00    -0.462 OA
BRANCH   3   4
ATOM      4  C   UNL     1      -3.497  -0.153   1.093  1.00  0.00     0.322 C 
ATOM      5  O   UNL     1      -4.109  -0.627   2.047  1.00  0.00    -0.251 OA
BRANCH   4   6
ATOM      6  C   UNL     1      -1.975  -0.313   0.895  1.00  0.00     0.152 C 
ATOM      7  C   UNL     1       1.762  -1.992  -0.778  1.00  0.00     0.040 C 
ATOM      8  C   UNL     1       0.402  -1.517  -0.349  1.00  0.00    -0.070 C 
ATOM      9  C   UNL     1      -0.155  -0.424  -0.906  1.00  0.00    -0.026 C 
ATOM     10  C   UNL     1      -0.379  -2.381   0.617  1.00  0.00     0.046 C 
ATOM     11  C   UNL     1      -1.453   0.211  -0.453  1.00  0.00     0.056 C 
ATOM     12  C   UNL     1      -1.819  -1.863   0.830  1.00  0.00     0.042 C 
BRANCH  10  13
ATOM     13  C   UNL     1       0.215  -2.739   1.970  1.00  0.00    -0.041 A 
ATOM     14  C   UNL     1      -0.295  -3.892   2.604  1.00  0.00     0.004 A 
ATOM     15  C   UNL     1       1.103  -1.931   2.683  1.00  0.00     0.004 A 
ATOM     16  C   UNL     1       0.004  -4.180   3.933  1.00  0.00     0.000 A 
ATOM     17  C   UNL     1       1.402  -2.219   4.019  1.00  0.00     0.000 A 
ATOM     18  C   UNL     1       0.839  -3.330   4.647  1.00  0.00     0.000 A 
ENDBRANCH  10  13
BRANCH   6  19
ATOM     19  C   UNL     1      -1.304   0.289   2.164  1.00  0.00     0.257 C 
ATOM     20  O   UNL     1      -1.702   0.002   3.301  1.00  0.00    -0.272 OA
ATOM     21  N   UNL     1      -0.221   1.139   2.127  1.00  0.00    -0.246 N 
ATOM     22  H   UNL     1       0.091   1.512   2.982  1.00  0.00     0.193 HD
BRANCH  21  23
ATOM     23  N   UNL     1       0.448   1.500   1.009  1.00  0.00    -0.181 NA
ATOM     24  C   UNL     1       1.730   1.632   1.121  1.00  0.00     0.144 C 
BRANCH  24  25
ATOM     25  C   UNL     1       2.655   1.757  -0.044  1.00  0.00     0.026 C 
ATOM     26  C   UNL     1       3.966   1.478   0.105  1.00  0.00    -0.119 C 
ATOM     27  C   UNL     1       2.159   1.976  -1.436  1.00  0.00     0.164 C 
ATOM     28  O   UNL     1       4.566   1.224   1.326  1.00  0.00    -0.875 OA
ATOM     29  C   UNL     1       4.938   1.290  -1.041  1.00  0.00     0.026 C 
ATOM     30  C   UNL     1       2.936   1.323  -2.563  1.00  0.00     0.087 C 
ATOM     31  O   UNL     1       1.151   2.640  -1.666  1.00  0.00    -0.294 OA
ATOM     32  C   UNL     1       4.426   1.656  -2.452  1.00  0.00    -0.025 C 
ATOM     33  C   UNL     1       4.643   3.152  -2.745  1.00  0.00     0.012 C 
ATOM     34  C   UNL     1       5.218   0.843  -3.495  1.00  0.00     0.012 C 
ENDBRANCH  24  25
ENDBRANCH  21  23
ENDBRANCH   6  19
ENDBRANCH   4   6
ENDBRANCH   3   4
ENDBRANCH   2   3
ENDBRANCH   1   2
BRANCH   1  35
ATOM     35  O   UNL     1      -5.759  -0.371  -2.408  1.00  0.00    -0.374 OA
BRANCH  35  36
ATOM     36  C   UNL     1      -4.385  -0.212  -2.741  1.00  0.00     0.202 C 
BRANCH  36  37
ATOM     37  C   UNL     1      -3.911   1.176  -3.224  1.00  0.00     0.261 C 
BRANCH  37  38
ATOM     38  O   UNL     1      -4.330   2.278  -2.395  1.00  0.00    -0.460 OA
BRANCH  38  39
ATOM     39  C   UNL     1      -5.136   3.180  -3.015  1.00  0.00     0.338 C 
ATOM     40  O   UNL     1      -5.450   3.208  -4.191  1.00  0.00    -0.246 OA
BRANCH  39  41
ATOM     41  C   UNL     1      -5.773   4.078  -2.031  1.00  0.00     0.060 A 
ATOM     42  C   UNL     1      -7.145   3.910  -1.798  1.00  0.00     0.016 A 
ATOM     43  C   UNL     1      -5.088   5.152  -1.462  1.00  0.00     0.016 A 
ATOM     44  C   UNL     1      -7.841   4.824  -1.011  1.00  0.00     0.010 A 
ATOM     45  C   UNL     1      -5.795   6.084  -0.685  1.00  0.00     0.010 A 
ATOM     46  C   UNL     1      -7.180   5.940  -0.481  1.00  0.00    -0.014 A 
BRANCH  46  47
ATOM     47  C   UNL     1      -7.989   7.003   0.169  1.00  0.00     0.031 A 
ATOM     48  C   UNL     1      -8.380   8.222  -0.622  1.00  0.00     0.074 A 
ATOM     49  C   UNL     1      -8.447   6.842   1.423  1.00  0.00     0.049 A 
ATOM     50  N   UNL     1      -9.133   9.235  -0.271  1.00  0.00    -0.248 NA
ATOM     51  C   UNL     1      -7.859   8.309  -1.995  1.00  0.00     0.031 C 
ATOM     52  C   UNL     1      -8.176   5.687   2.277  1.00  0.00     0.029 A 
ATOM     53  N   UNL     1      -9.246   7.651   2.193  1.00  0.00    -0.354 N 
ATOM     54  C   UNL     1      -9.174  10.077  -1.375  1.00  0.00     0.074 A 
ATOM     55  C   UNL     1      -8.348   9.473  -2.398  1.00  0.00     0.031 C 
ATOM     56  C   UNL     1      -8.805   5.857   3.452  1.00  0.00     0.029 A 
ATOM     57  C   UNL     1      -9.498   7.144   3.444  1.00  0.00     0.049 A 
ATOM     58  H   UNL     1      -9.605   8.511   1.878  1.00  0.00     0.167 HD
ATOM     59  C   UNL     1      -9.848  11.243  -1.524  1.00  0.00     0.037 A 
ATOM     60  C   UNL     1     -10.201   7.665   4.469  1.00  0.00     0.037 A 
ATOM     61  C   UNL     1     -10.677  11.842  -0.510  1.00  0.00     0.049 A 
ATOM     62  C   UNL     1     -10.882   8.999   4.297  1.00  0.00     0.074 A 
ATOM     63  C   UNL     1     -11.425  13.004  -0.582  1.00  0.00     0.029 A 
ATOM     64  N   UNL     1     -10.859  11.329   0.766  1.00  0.00    -0.354 N 
ATOM     65  N   UNL     1     -10.947   9.768   3.238  1.00  0.00    -0.248 NA
ATOM     66  C   UNL     1     -11.593   9.533   5.468  1.00  0.00     0.031 C 
ATOM     67  C   UNL     1     -12.014  13.226   0.668  1.00  0.00     0.029 A 
ATOM     68  C   UNL     1     -11.679  12.171   1.502  1.00  0.00     0.049 A 
ATOM     69  H   UNL     1     -10.464  10.492   1.100  1.00  0.00     0.167 HD
ATOM     70  C   UNL     1     -11.723  10.860   3.604  1.00  0.00     0.074 A 
ATOM     71  C   UNL     1     -12.126  10.643   4.978  1.00  0.00     0.031 C 
ATOM     72  C   UNL     1     -12.071  11.946   2.870  1.00  0.00     0.037 A 
BRANCH  59  73
ATOM     73  C   UNL     1      -9.698  11.972  -2.829  1.00  0.00     0.064 A 
ATOM     74  C   UNL     1     -10.292  11.506  -4.010  1.00  0.00     0.173 A 
ATOM     75  C   UNL     1      -8.991  13.183  -2.884  1.00  0.00     0.173 A 
ATOM     76  F   UNL     1     -10.970  10.348  -4.014  1.00  0.00    -0.203 F 
ATOM     77  C   UNL     1     -10.167  12.214  -5.203  1.00  0.00     0.198 A 
ATOM     78  C   UNL     1      -8.891  13.903  -4.071  1.00  0.00     0.198 A 
ATOM     79  F   UNL     1      -8.408  13.677  -1.780  1.00  0.00    -0.203 F 
ATOM     80  F   UNL     1     -10.711  11.731  -6.328  1.00  0.00    -0.200 F 
ATOM     81  C   UNL     1      -9.475  13.416  -5.231  1.00  0.00     0.200 A 
ATOM     82  F   UNL     1      -8.233  15.070  -4.092  1.00  0.00    -0.200 F 
ATOM     83  F   UNL     1      -9.365  14.102  -6.376  1.00  0.00    -0.200 F 
ENDBRANCH  59  73
BRANCH  60  84
ATOM     84  C   UNL     1     -10.293   6.933   5.760  1.00  0.00     0.064 A 
ATOM     85  C   UNL     1     -11.514   6.413   6.213  1.00  0.00     0.173 A 
ATOM     86  C   UNL     1      -9.169   6.771   6.583  1.00  0.00     0.173 A 
ATOM     87  F   UNL     1     -12.623   6.569   5.476  1.00  0.00    -0.203 F 
ATOM     88  C   UNL     1     -11.610   5.779   7.450  1.00  0.00     0.198 A 
ATOM     89  C   UNL     1      -9.261   6.110   7.806  1.00  0.00     0.198 A 
ATOM     90  F   UNL     1      -7.979   7.257   6.200  1.00  0.00    -0.203 F 
ATOM     91  F   UNL     1     -12.800   5.341   7.885  1.00  0.00    -0.200 F 
ATOM     92  C   UNL     1     -10.483   5.623   8.243  1.00  0.00     0.200 A 
ATOM     93  F   UNL     1      -8.168   5.955   8.565  1.00  0.00    -0.200 F 
ATOM     94  F   UNL     1     -10.578   5.016   9.434  1.00  0.00    -0.200 F 
ENDBRANCH  60  84
BRANCH  72  95
ATOM     95  C   UNL     1     -12.951  12.970   3.531  1.00  0.00     0.064 A 
ATOM     96  C   UNL     1     -12.474  13.796   4.560  1.00  0.00     0.173 A 
ATOM     97  C   UNL     1     -14.282  13.139   3.119  1.00  0.00     0.173 A 
ATOM     98  F   UNL     1     -11.214  13.666   5.002  1.00  0.00    -0.203 F 
ATOM     99  C   UNL     1     -13.307  14.727   5.176  1.00  0.00     0.198 A 
ATOM    100  C   UNL     1     -15.102  14.093   3.714  1.00  0.00     0.198 A 
ATOM    101  F   UNL     1     -14.786  12.381   2.133  1.00  0.00    -0.203 F 
ATOM    102  F   UNL     1     -12.847  15.463   6.196  1.00  0.00    -0.200 F 
ATOM    103  C   UNL     1     -14.618  14.879   4.749  1.00  0.00     0.200 A 
ATOM    104  F   UNL     1     -16.364  14.249   3.290  1.00  0.00    -0.200 F 
ATOM    105  F   UNL     1     -15.418  15.776   5.341  1.00  0.00    -0.200 F 
ENDBRANCH  72  95
ENDBRANCH  46  47
ENDBRANCH  39  41
ENDBRANCH  38  39
ENDBRANCH  37  38
ENDBRANCH  36  37
ENDBRANCH  35  36
ENDBRANCH   1  35
TORSDOF 18
