REMARK SMILES COc1cc(C(=O)NC2(C(=O)OCCOCCOC(=O)c3ccc(-c4c5nc(c(-c6c(F)c(F)c(F)c(F)c6F)c6ccc([nH]6)c(-c6c(F)c(F)c(F)c(F)c6F)c6nc(c(-c7c(F)c(F)c(F)c(F)c7F)c7ccc4[nH]7)C=C6)C=C5)cc3)CCCCC2)cc2c1OCCO2
REMARK SMILES IDX 14 1 13 2 12 3 10 4 11 5 9 6 84 7 88 8 85 9 87 10 86 11 8 12
REMARK SMILES IDX 6 13 7 14 5 16 3 17 4 18 91 19 90 20 92 21 89 22 95 23 93 24
REMARK SMILES IDX 94 25 2 26 1 27 15 28 16 29 17 30 18 31 19 32 20 33 21 34
REMARK SMILES IDX 22 35 83 36 23 37 82 38 24 39 25 40 26 41 76 42 27 43 81 44
REMARK SMILES IDX 75 45 77 46 28 47 80 48 74 49 73 50 29 52 61 53 41 54 60 55
REMARK SMILES IDX 42 56 45 57 59 58 78 59 43 60 44 61 58 63 79 64 46 65 30 66
REMARK SMILES IDX 31 67 39 68 32 69 33 70 37 71 40 72 34 73 35 74 38 75 36 76
REMARK SMILES IDX 62 77 63 78 71 79 64 80 65 81 69 82 72 83 66 84 67 85 70 86
REMARK SMILES IDX 68 87 47 88 48 89 56 90 49 91 50 92 54 93 57 94 51 95 52 96
REMARK SMILES IDX 55 97 53 98
REMARK H PARENT 8 15 77 51 45 62
REMARK Flexibility Score: inf
ROOT
ATOM      1  C   UNL     1      -6.762   3.095  -1.815  1.00  0.00     0.202 C 
ENDROOT
BRANCH   1   2
ATOM      2  C   UNL     1      -6.271   2.630  -3.188  1.00  0.00     0.261 C 
BRANCH   2   3
ATOM      3  O   UNL     1      -4.913   2.158  -3.085  1.00  0.00    -0.461 OA
BRANCH   3   4
ATOM      4  C   UNL     1      -3.970   2.809  -3.815  1.00  0.00     0.331 C 
ATOM      5  O   UNL     1      -4.208   3.702  -4.623  1.00  0.00    -0.249 OA
BRANCH   4   6
ATOM      6  C   UNL     1      -2.529   2.276  -3.528  1.00  0.00     0.138 C 
ATOM      7  C   UNL     1      -2.326   1.116  -4.524  1.00  0.00     0.040 C 
ATOM      8  C   UNL     1      -2.393   1.937  -2.022  1.00  0.00     0.040 C 
ATOM      9  C   UNL     1      -2.848  -0.227  -4.022  1.00  0.00     0.003 C 
ATOM     10  C   UNL     1      -2.782   0.513  -1.619  1.00  0.00     0.003 C 
ATOM     11  C   UNL     1      -2.362  -0.553  -2.619  1.00  0.00     0.000 C 
BRANCH   6  12
ATOM     12  N   UNL     1      -1.659   3.437  -3.908  1.00  0.00    -0.336 N 
ATOM     13  C   UNL     1      -0.340   3.807  -3.858  1.00  0.00     0.252 C 
ATOM     14  O   UNL     1      -0.063   4.898  -4.362  1.00  0.00    -0.269 OA
ATOM     15  H   UNL     1      -2.200   4.150  -4.318  1.00  0.00     0.165 HD
BRANCH  13  16
ATOM     16  C   UNL     1       0.764   3.044  -3.207  1.00  0.00     0.047 A 
ATOM     17  C   UNL     1       1.695   1.084  -2.115  1.00  0.00     0.165 A 
ATOM     18  C   UNL     1       0.697   1.698  -2.870  1.00  0.00     0.064 A 
ATOM     19  C   UNL     1       2.872   1.760  -1.822  1.00  0.00     0.203 A 
ATOM     20  C   UNL     1       3.015   3.076  -2.268  1.00  0.00     0.166 A 
ATOM     21  O   UNL     1       3.849   1.087  -1.136  1.00  0.00    -0.483 OA
ATOM     22  C   UNL     1       1.956   3.728  -2.912  1.00  0.00     0.064 A 
ATOM     23  O   UNL     1       4.173   3.794  -2.099  1.00  0.00    -0.486 OA
ATOM     24  C   UNL     1       4.924   1.942  -0.740  1.00  0.00     0.271 C 
ATOM     25  C   UNL     1       5.277   2.913  -1.853  1.00  0.00     0.271 C 
BRANCH  17  26
ATOM     26  O   UNL     1       1.443  -0.199  -1.704  1.00  0.00    -0.493 OA
ATOM     27  C   UNL     1       1.195  -0.230  -0.295  1.00  0.00     0.278 C 
ENDBRANCH  17  26
ENDBRANCH  13  16
ENDBRANCH   6  12
ENDBRANCH   4   6
ENDBRANCH   3   4
ENDBRANCH   2   3
ENDBRANCH   1   2
BRANCH   1  28
ATOM     28  O   UNL     1      -6.415   4.435  -1.463  1.00  0.00    -0.374 OA
BRANCH  28  29
ATOM     29  C   UNL     1      -5.058   4.695  -1.115  1.00  0.00     0.202 C 
BRANCH  29  30
ATOM     30  C   UNL     1      -4.675   4.370   0.334  1.00  0.00     0.261 C 
BRANCH  30  31
ATOM     31  O   UNL     1      -4.838   2.972   0.643  1.00  0.00    -0.460 OA
BRANCH  31  32
ATOM     32  C   UNL     1      -5.867   2.705   1.479  1.00  0.00     0.338 C 
ATOM     33  O   UNL     1      -6.593   3.515   2.044  1.00  0.00    -0.246 OA
BRANCH  32  34
ATOM     34  C   UNL     1      -6.135   1.258   1.550  1.00  0.00     0.060 A 
ATOM     35  C   UNL     1      -7.462   0.853   1.362  1.00  0.00     0.016 A 
ATOM     36  C   UNL     1      -5.160   0.336   1.937  1.00  0.00     0.016 A 
ATOM     37  C   UNL     1      -7.839  -0.455   1.649  1.00  0.00     0.010 A 
ATOM     38  C   UNL     1      -5.541  -0.982   2.226  1.00  0.00     0.010 A 
ATOM     39  C   UNL     1      -6.893  -1.364   2.142  1.00  0.00    -0.014 A 
BRANCH  39  40
ATOM     40  C   UNL     1      -7.385  -2.622   2.761  1.00  0.00     0.031 A 
ATOM     41  C   UNL     1      -7.547  -2.680   4.257  1.00  0.00     0.074 A 
ATOM     42  C   UNL     1      -7.780  -3.661   2.005  1.00  0.00     0.049 A 
ATOM     43  N   UNL     1      -8.040  -3.634   5.006  1.00  0.00    -0.248 NA
ATOM     44  C   UNL     1      -7.094  -1.500   5.010  1.00  0.00     0.031 C 
ATOM     45  C   UNL     1      -7.707  -3.719   0.548  1.00  0.00     0.029 A 
ATOM     46  N   UNL     1      -8.335  -4.863   2.366  1.00  0.00    -0.354 N 
ATOM     47  C   UNL     1      -7.963  -3.167   6.312  1.00  0.00     0.074 A 
ATOM     48  C   UNL     1      -7.334  -1.865   6.259  1.00  0.00     0.031 C 
ATOM     49  C   UNL     1      -8.202  -4.899   0.136  1.00  0.00     0.029 A 
ATOM     50  C   UNL     1      -8.613  -5.682   1.301  1.00  0.00     0.049 A 
ATOM     51  H   UNL     1      -8.516  -5.114   3.301  1.00  0.00     0.167 HD
ATOM     52  C   UNL     1      -8.393  -3.758   7.453  1.00  0.00     0.037 A 
ATOM     53  C   UNL     1      -9.140  -6.921   1.271  1.00  0.00     0.037 A 
ATOM     54  C   UNL     1      -9.018  -5.052   7.513  1.00  0.00     0.049 A 
ATOM     55  C   UNL     1      -9.576  -7.577   2.555  1.00  0.00     0.074 A 
ATOM     56  C   UNL     1      -9.484  -5.738   8.621  1.00  0.00     0.029 A 
ATOM     57  N   UNL     1      -9.262  -5.860   6.412  1.00  0.00    -0.354 N 
ATOM     58  N   UNL     1      -9.520  -7.118   3.781  1.00  0.00    -0.248 NA
ATOM     59  C   UNL     1     -10.166  -8.920   2.446  1.00  0.00     0.031 C 
ATOM     60  C   UNL     1      -9.975  -6.977   8.196  1.00  0.00     0.029 A 
ATOM     61  C   UNL     1      -9.860  -7.043   6.816  1.00  0.00     0.049 A 
ATOM     62  H   UNL     1      -9.044  -5.627   5.481  1.00  0.00     0.167 HD
ATOM     63  C   UNL     1     -10.092  -8.097   4.584  1.00  0.00     0.074 A 
ATOM     64  C   UNL     1     -10.498  -9.173   3.704  1.00  0.00     0.031 C 
ATOM     65  C   UNL     1     -10.267  -8.103   5.929  1.00  0.00     0.037 A 
BRANCH  52  66
ATOM     66  C   UNL     1      -8.177  -3.007   8.734  1.00  0.00     0.064 A 
ATOM     67  C   UNL     1      -8.918  -1.857   9.047  1.00  0.00     0.173 A 
ATOM     68  C   UNL     1      -7.219  -3.443   9.661  1.00  0.00     0.173 A 
ATOM     69  F   UNL     1      -9.835  -1.390   8.186  1.00  0.00    -0.203 F 
ATOM     70  C   UNL     1      -8.684  -1.152  10.225  1.00  0.00     0.198 A 
ATOM     71  C   UNL     1      -7.008  -2.752  10.851  1.00  0.00     0.198 A 
ATOM     72  F   UNL     1      -6.486  -4.538   9.412  1.00  0.00    -0.203 F 
ATOM     73  F   UNL     1      -9.364  -0.025  10.477  1.00  0.00    -0.200 F 
ATOM     74  C   UNL     1      -7.733  -1.603  11.128  1.00  0.00     0.200 A 
ATOM     75  F   UNL     1      -6.094  -3.193  11.727  1.00  0.00    -0.200 F 
ATOM     76  F   UNL     1      -7.506  -0.922  12.260  1.00  0.00    -0.200 F 
ENDBRANCH  52  66
BRANCH  53  77
ATOM     77  C   UNL     1      -9.297  -7.619  -0.030  1.00  0.00     0.064 A 
ATOM     78  C   UNL     1     -10.563  -7.834  -0.593  1.00  0.00     0.173 A 
ATOM     79  C   UNL     1      -8.179  -8.084  -0.738  1.00  0.00     0.173 A 
ATOM     80  F   UNL     1     -11.662  -7.429   0.059  1.00  0.00    -0.203 F 
ATOM     81  C   UNL     1     -10.704  -8.499  -1.809  1.00  0.00     0.198 A 
ATOM     82  C   UNL     1      -8.320  -8.726  -1.965  1.00  0.00     0.198 A 
ATOM     83  F   UNL     1      -6.947  -7.902  -0.240  1.00  0.00    -0.203 F 
ATOM     84  F   UNL     1     -11.927  -8.725  -2.308  1.00  0.00    -0.200 F 
ATOM     85  C   UNL     1      -9.583  -8.938  -2.498  1.00  0.00     0.200 A 
ATOM     86  F   UNL     1      -7.234  -9.139  -2.632  1.00  0.00    -0.200 F 
ATOM     87  F   UNL     1      -9.720  -9.571  -3.671  1.00  0.00    -0.200 F 
ENDBRANCH  53  77
BRANCH  65  88
ATOM     88  C   UNL     1     -10.963  -9.290   6.530  1.00  0.00     0.064 A 
ATOM     89  C   UNL     1     -10.337 -10.541   6.627  1.00  0.00     0.173 A 
ATOM     90  C   UNL     1     -12.261  -9.163   7.047  1.00  0.00     0.173 A 
ATOM     91  F   UNL     1      -9.100 -10.718   6.138  1.00  0.00    -0.203 F 
ATOM     92  C   UNL     1     -10.997 -11.630   7.193  1.00  0.00     0.198 A 
ATOM     93  C   UNL     1     -12.908 -10.246   7.637  1.00  0.00     0.198 A 
ATOM     94  F   UNL     1     -12.901  -7.986   6.986  1.00  0.00    -0.203 F 
ATOM     95  F   UNL     1     -10.398 -12.828   7.232  1.00  0.00    -0.200 F 
ATOM     96  C   UNL     1     -12.278 -11.480   7.702  1.00  0.00     0.200 A 
ATOM     97  F   UNL     1     -14.141 -10.097   8.139  1.00  0.00    -0.200 F 
ATOM     98  F   UNL     1     -12.911 -12.528   8.249  1.00  0.00    -0.200 F 
ENDBRANCH  65  88
ENDBRANCH  39  40
ENDBRANCH  32  34
ENDBRANCH  31  32
ENDBRANCH  30  31
ENDBRANCH  29  30
ENDBRANCH  28  29
ENDBRANCH   1  28
TORSDOF 17
