REMARK SMILES O=C(OCCOCCOC(=O)c1[nH]ncc1C[NH+]1CCC([N@H+]2CCC[C@@H](C(=O)N3CCCC3)C2)CC1)c1ccc(-c2c3nc(c(-c4c(F)c(F)c(F)c(F)c4F)c4ccc([nH]4)c(-c4c(F)c(F)c(F)c(F)c4F)c4nc(c(-c5c(F)c(F)c(F)c(F)c5F)c5ccc2[nH]5)C=C4)C=C3)cc1
REMARK SMILES IDX 7 1 6 2 5 3 4 4 3 5 2 6 1 7 37 8 38 9 99 10 39 11 98 12
REMARK SMILES IDX 40 13 41 14 42 15 92 16 43 17 97 18 91 19 93 20 44 21 96 22
REMARK SMILES IDX 90 23 89 24 45 26 77 27 57 28 76 29 58 30 61 31 75 32 94 33
REMARK SMILES IDX 59 34 60 35 74 37 95 38 62 39 46 40 47 41 55 42 48 43 49 44
REMARK SMILES IDX 53 45 56 46 50 47 51 48 54 49 52 50 78 51 79 52 87 53 80 54
REMARK SMILES IDX 81 55 85 56 88 57 82 58 83 59 86 60 84 61 63 62 64 63 72 64
REMARK SMILES IDX 65 65 66 66 70 67 73 68 67 69 68 70 71 71 69 72 8 73 9 74
REMARK SMILES IDX 10 75 11 76 12 77 13 78 16 79 14 80 15 82 17 83 18 84 19 85
REMARK SMILES IDX 36 86 20 88 35 89 21 90 22 91 23 92 34 93 24 95 26 96 25 97
REMARK SMILES IDX 27 98 28 99 29 100 30 101 33 102 31 103 32 104
REMARK H PARENT 93 25 61 36 13 81 18 87 22 94
REMARK Flexibility Score: inf
ROOT
ATOM      1  C   UNL     1       2.631   1.988   0.182  1.00  0.00     0.202 C 
ENDROOT
BRANCH   1   2
ATOM      2  O   UNL     1       3.936   1.445  -0.030  1.00  0.00    -0.374 OA
BRANCH   2   3
ATOM      3  C   UNL     1       4.189   0.816  -1.287  1.00  0.00     0.202 C 
BRANCH   3   4
ATOM      4  C   UNL     1       3.920  -0.687  -1.296  1.00  0.00     0.261 C 
BRANCH   4   5
ATOM      5  O   UNL     1       2.546  -0.942  -0.971  1.00  0.00    -0.460 OA
BRANCH   5   6
ATOM      6  C   UNL     1       2.022  -1.196   0.250  1.00  0.00     0.338 C 
ATOM      7  O   UNL     1       0.800  -1.270   0.367  1.00  0.00    -0.246 OA
BRANCH   6   8
ATOM      8  C   UNL     1       2.850  -1.416   1.473  1.00  0.00     0.060 A 
ATOM      9  C   UNL     1       4.079  -0.808   1.724  1.00  0.00     0.016 A 
ATOM     10  C   UNL     1       2.298  -2.218   2.484  1.00  0.00     0.016 A 
ATOM     11  C   UNL     1       4.754  -0.979   2.911  1.00  0.00     0.010 A 
ATOM     12  C   UNL     1       2.963  -2.391   3.701  1.00  0.00     0.010 A 
ATOM     13  C   UNL     1       4.195  -1.763   3.908  1.00  0.00    -0.014 A 
BRANCH  13  14
ATOM     14  C   UNL     1       5.043  -1.992   5.080  1.00  0.00     0.031 A 
ATOM     15  C   UNL     1       5.788  -3.283   5.150  1.00  0.00     0.074 A 
ATOM     16  C   UNL     1       5.300  -0.960   5.904  1.00  0.00     0.049 A 
ATOM     17  N   UNL     1       6.602  -3.717   6.069  1.00  0.00    -0.248 NA
ATOM     18  C   UNL     1       5.610  -4.203   4.012  1.00  0.00     0.031 C 
ATOM     19  C   UNL     1       4.739   0.389   5.767  1.00  0.00     0.029 A 
ATOM     20  N   UNL     1       6.132  -0.865   6.982  1.00  0.00    -0.354 N 
ATOM     21  C   UNL     1       7.017  -4.967   5.633  1.00  0.00     0.074 A 
ATOM     22  C   UNL     1       6.357  -5.232   4.377  1.00  0.00     0.031 C 
ATOM     23  C   UNL     1       5.255   1.178   6.721  1.00  0.00     0.029 A 
ATOM     24  C   UNL     1       6.114   0.372   7.578  1.00  0.00     0.049 A 
ATOM     25  H   UNL     1       6.691  -1.610   7.302  1.00  0.00     0.167 HD
ATOM     26  C   UNL     1       7.877  -5.808   6.247  1.00  0.00     0.037 A 
ATOM     27  C   UNL     1       6.693   0.774   8.723  1.00  0.00     0.037 A 
ATOM     28  C   UNL     1       8.501  -5.499   7.503  1.00  0.00     0.049 A 
ATOM     29  C   UNL     1       7.526  -0.240   9.462  1.00  0.00     0.074 A 
ATOM     30  C   UNL     1       9.306  -6.294   8.293  1.00  0.00     0.029 A 
ATOM     31  N   UNL     1       8.379  -4.273   8.151  1.00  0.00    -0.354 N 
ATOM     32  N   UNL     1       7.840  -1.467   9.111  1.00  0.00    -0.248 NA
ATOM     33  C   UNL     1       8.073   0.173  10.757  1.00  0.00     0.031 C 
ATOM     34  C   UNL     1       9.630  -5.567   9.444  1.00  0.00     0.029 A 
ATOM     35  C   UNL     1       9.083  -4.295   9.340  1.00  0.00     0.049 A 
ATOM     36  H   UNL     1       7.867  -3.504   7.812  1.00  0.00     0.167 HD
ATOM     37  C   UNL     1       8.641  -1.964  10.127  1.00  0.00     0.074 A 
ATOM     38  C   UNL     1       8.784  -0.892  11.095  1.00  0.00     0.031 C 
ATOM     39  C   UNL     1       9.204  -3.191  10.261  1.00  0.00     0.037 A 
BRANCH  26  40
ATOM     40  C   UNL     1       8.105  -7.141   5.601  1.00  0.00     0.064 A 
ATOM     41  C   UNL     1       8.812  -7.274   4.396  1.00  0.00     0.173 A 
ATOM     42  C   UNL     1       7.564  -8.302   6.174  1.00  0.00     0.173 A 
ATOM     43  F   UNL     1       9.317  -6.191   3.785  1.00  0.00    -0.203 F 
ATOM     44  C   UNL     1       8.942  -8.514   3.774  1.00  0.00     0.198 A 
ATOM     45  C   UNL     1       7.722  -9.544   5.566  1.00  0.00     0.198 A 
ATOM     46  F   UNL     1       6.865  -8.229   7.316  1.00  0.00    -0.203 F 
ATOM     47  F   UNL     1       9.562  -8.607   2.590  1.00  0.00    -0.200 F 
ATOM     48  C   UNL     1       8.402  -9.649   4.363  1.00  0.00     0.200 A 
ATOM     49  F   UNL     1       7.200 -10.638   6.137  1.00  0.00    -0.200 F 
ATOM     50  F   UNL     1       8.523 -10.840   3.761  1.00  0.00    -0.200 F 
ENDBRANCH  26  40
BRANCH  27  51
ATOM     51  C   UNL     1       6.440   2.134   9.272  1.00  0.00     0.064 A 
ATOM     52  C   UNL     1       7.483   3.045   9.492  1.00  0.00     0.173 A 
ATOM     53  C   UNL     1       5.146   2.536   9.643  1.00  0.00     0.173 A 
ATOM     54  F   UNL     1       8.742   2.710   9.173  1.00  0.00    -0.203 F 
ATOM     55  C   UNL     1       7.248   4.280  10.095  1.00  0.00     0.198 A 
ATOM     56  C   UNL     1       4.906   3.786  10.209  1.00  0.00     0.198 A 
ATOM     57  F   UNL     1       4.105   1.709   9.459  1.00  0.00    -0.203 F 
ATOM     58  F   UNL     1       8.276   5.099  10.360  1.00  0.00    -0.200 F 
ATOM     59  C   UNL     1       5.960   4.651  10.450  1.00  0.00     0.200 A 
ATOM     60  F   UNL     1       3.656   4.143  10.535  1.00  0.00    -0.200 F 
ATOM     61  F   UNL     1       5.738   5.833  11.041  1.00  0.00    -0.200 F 
ENDBRANCH  27  51
BRANCH  39  62
ATOM     62  C   UNL     1      10.062  -3.406  11.472  1.00  0.00     0.064 A 
ATOM     63  C   UNL     1       9.514  -3.494  12.759  1.00  0.00     0.173 A 
ATOM     64  C   UNL     1      11.449  -3.564  11.329  1.00  0.00     0.173 A 
ATOM     65  F   UNL     1       8.195  -3.334  12.945  1.00  0.00    -0.203 F 
ATOM     66  C   UNL     1      10.331  -3.698  13.866  1.00  0.00     0.198 A 
ATOM     67  C   UNL     1      12.256  -3.809  12.434  1.00  0.00     0.198 A 
ATOM     68  F   UNL     1      12.017  -3.497  10.116  1.00  0.00    -0.203 F 
ATOM     69  F   UNL     1       9.795  -3.717  15.095  1.00  0.00    -0.200 F 
ATOM     70  C   UNL     1      11.698  -3.865  13.702  1.00  0.00     0.200 A 
ATOM     71  F   UNL     1      13.573  -3.990  12.271  1.00  0.00    -0.200 F 
ATOM     72  F   UNL     1      12.481  -4.072  14.769  1.00  0.00    -0.200 F 
ENDBRANCH  39  62
ENDBRANCH  13  14
ENDBRANCH   6   8
ENDBRANCH   5   6
ENDBRANCH   4   5
ENDBRANCH   3   4
ENDBRANCH   2   3
ENDBRANCH   1   2
BRANCH   1  73
ATOM     73  C   UNL     1       2.780   3.469   0.523  1.00  0.00     0.261 C 
BRANCH  73  74
ATOM     74  O   UNL     1       3.373   4.104  -0.612  1.00  0.00    -0.459 OA
BRANCH  74  75
ATOM     75  C   UNL     1       4.715   3.942  -0.757  1.00  0.00     0.356 C 
ATOM     76  O   UNL     1       5.525   3.758   0.145  1.00  0.00    -0.244 OA
BRANCH  75  77
ATOM     77  C   UNL     1       5.014   3.882  -2.159  1.00  0.00     0.152 A 
ATOM     78  N   UNL     1       6.107   3.238  -2.660  1.00  0.00    -0.271 N 
ATOM     79  C   UNL     1       4.361   4.419  -3.261  1.00  0.00     0.059 A 
ATOM     80  N   UNL     1       6.104   3.139  -4.000  1.00  0.00    -0.183 NA
ATOM     81  H   UNL     1       6.829   2.881  -2.095  1.00  0.00     0.190 HD
ATOM     82  C   UNL     1       5.059   3.885  -4.366  1.00  0.00     0.145 A 
BRANCH  79  83
ATOM     83  C   UNL     1       3.220   5.384  -3.272  1.00  0.00     0.303 C 
BRANCH  83  84
ATOM     84  N   UNL     1       3.658   6.756  -2.953  1.00  0.00    -0.331 N 
ATOM     85  C   UNL     1       4.367   6.870  -1.675  1.00  0.00     0.268 C 
ATOM     86  C   UNL     1       4.433   7.361  -4.038  1.00  0.00     0.268 C 
ATOM     87  H   UNL     1       2.793   7.286  -2.849  1.00  0.00     0.348 HD
ATOM     88  C   UNL     1       4.666   8.297  -1.282  1.00  0.00     0.126 C 
ATOM     89  C   UNL     1       4.666   8.843  -3.750  1.00  0.00     0.126 C 
ATOM     90  C   UNL     1       5.391   9.044  -2.409  1.00  0.00     0.195 C 
BRANCH  90  91
ATOM     91  N   UNL     1       5.628  10.479  -2.120  1.00  0.00    -0.331 N 
ATOM     92  C   UNL     1       4.395  11.209  -1.779  1.00  0.00     0.262 C 
ATOM     93  C   UNL     1       6.624  10.624  -1.042  1.00  0.00     0.275 C 
ATOM     94  H   UNL     1       5.987  10.897  -2.978  1.00  0.00     0.348 HD
ATOM     95  C   UNL     1       4.673  12.691  -1.548  1.00  0.00     0.062 C 
ATOM     96  C   UNL     1       6.950  12.093  -0.729  1.00  0.00     0.134 C 
ATOM     97  C   UNL     1       5.682  12.879  -0.418  1.00  0.00     0.025 C 
BRANCH  96  98
ATOM     98  C   UNL     1       7.910  12.036   0.451  1.00  0.00     0.231 C 
ATOM     99  O   UNL     1       7.550  11.602   1.547  1.00  0.00    -0.274 OA
ATOM    100  N   UNL     1       9.233  12.273   0.172  1.00  0.00    -0.342 N 
ATOM    101  C   UNL     1       9.793  13.241  -0.750  1.00  0.00     0.119 C 
ATOM    102  C   UNL     1      10.280  11.567   0.885  1.00  0.00     0.119 C 
ATOM    103  C   UNL     1      11.130  12.631  -1.117  1.00  0.00     0.023 C 
ATOM    104  C   UNL     1      11.575  11.955   0.178  1.00  0.00     0.023 C 
ENDBRANCH  96  98
ENDBRANCH  90  91
ENDBRANCH  83  84
ENDBRANCH  79  83
ENDBRANCH  75  77
ENDBRANCH  74  75
ENDBRANCH  73  74
ENDBRANCH   1  73
TORSDOF 18
