REMARK SMILES C[NH2+][C@@]1(C(=O)OCCOCCOC(=O)c2ccc(-c3c4nc(c(-c5c(F)c(F)c(F)c(F)c5F)c5ccc([nH]5)c(-c5c(F)c(F)c(F)c(F)c5F)c5nc(c(-c6c(F)c(F)c(F)c(F)c6F)c6ccc3[nH]6)C=C5)C=C4)cc2)C=CC=C(c2ccccc2)C1
REMARK SMILES IDX 10 1 9 2 8 3 7 4 6 5 4 6 5 7 3 8 78 9 88 10 79 11 81 12
REMARK SMILES IDX 80 13 2 14 1 15 82 18 83 19 87 20 84 21 86 22 85 23 11 24
REMARK SMILES IDX 12 25 13 26 14 27 15 28 16 29 77 30 17 31 76 32 18 33 19 34
REMARK SMILES IDX 20 35 70 36 21 37 75 38 69 39 71 40 22 41 74 42 68 43 67 44
REMARK SMILES IDX 23 46 55 47 35 48 54 49 36 50 39 51 53 52 72 53 37 54 38 55
REMARK SMILES IDX 52 57 73 58 40 59 24 60 25 61 33 62 26 63 27 64 31 65 34 66
REMARK SMILES IDX 28 67 29 68 32 69 30 70 56 71 57 72 65 73 58 74 59 75 63 76
REMARK SMILES IDX 66 77 60 78 61 79 64 80 62 81 41 82 42 83 50 84 43 85 44 86
REMARK SMILES IDX 48 87 51 88 45 89 46 90 49 91 47 92
REMARK H PARENT 2 16 2 17 71 45 39 56
REMARK Flexibility Score: inf
ROOT
ATOM      1  C   UNL     1      -0.935  -0.246   4.779  1.00  0.00     0.202 C 
ENDROOT
BRANCH   1   2
ATOM      2  O   UNL     1      -1.389   1.027   5.238  1.00  0.00    -0.374 OA
BRANCH   2   3
ATOM      3  C   UNL     1      -2.660   1.484   4.782  1.00  0.00     0.202 C 
BRANCH   3   4
ATOM      4  C   UNL     1      -2.726   1.978   3.336  1.00  0.00     0.261 C 
BRANCH   4   5
ATOM      5  O   UNL     1      -2.389   0.932   2.409  1.00  0.00    -0.458 OA
BRANCH   5   6
ATOM      6  C   UNL     1      -1.340   1.204   1.581  1.00  0.00     0.372 C 
ATOM      7  O   UNL     1      -0.804   2.310   1.516  1.00  0.00    -0.244 OA
BRANCH   6   8
ATOM      8  C   UNL     1      -0.913  -0.014   0.684  1.00  0.00     0.217 C 
ATOM      9  C   UNL     1      -1.374   0.410  -0.707  1.00  0.00     0.053 C 
ATOM     10  C   UNL     1      -1.577  -1.381   1.093  1.00  0.00     0.122 C 
ATOM     11  C   UNL     1      -1.884  -0.455  -1.596  1.00  0.00     0.003 C 
ATOM     12  C   UNL     1      -1.708  -2.341  -0.075  1.00  0.00    -0.034 C 
ATOM     13  C   UNL     1      -1.891  -1.870  -1.322  1.00  0.00     0.004 C 
BRANCH   8  14
ATOM     14  N   UNL     1       0.569  -0.128   0.850  1.00  0.00    -0.331 N 
ATOM     15  C   UNL     1       1.371  -0.077  -0.358  1.00  0.00     0.332 C 
ATOM     16  H   UNL     1       0.872   0.638   1.452  1.00  0.00     0.347 HD
ATOM     17  H   UNL     1       0.724  -1.061   1.233  1.00  0.00     0.347 HD
ENDBRANCH   8  14
BRANCH  12  18
ATOM     18  C   UNL     1      -1.622  -3.794   0.146  1.00  0.00    -0.022 A 
ATOM     19  C   UNL     1      -0.656  -4.547  -0.541  1.00  0.00     0.008 A 
ATOM     20  C   UNL     1      -2.507  -4.455   1.004  1.00  0.00     0.008 A 
ATOM     21  C   UNL     1      -0.594  -5.934  -0.398  1.00  0.00     0.001 A 
ATOM     22  C   UNL     1      -2.448  -5.846   1.143  1.00  0.00     0.001 A 
ATOM     23  C   UNL     1      -1.496  -6.585   0.440  1.00  0.00     0.000 A 
ENDBRANCH  12  18
ENDBRANCH   6   8
ENDBRANCH   5   6
ENDBRANCH   4   5
ENDBRANCH   3   4
ENDBRANCH   2   3
ENDBRANCH   1   2
BRANCH   1  24
ATOM     24  C   UNL     1      -1.612  -1.475   5.399  1.00  0.00     0.261 C 
BRANCH  24  25
ATOM     25  O   UNL     1      -3.002  -1.579   5.032  1.00  0.00    -0.460 OA
BRANCH  25  26
ATOM     26  C   UNL     1      -3.869  -1.468   6.065  1.00  0.00     0.338 C 
ATOM     27  O   UNL     1      -3.599  -1.381   7.257  1.00  0.00    -0.246 OA
BRANCH  26  28
ATOM     28  C   UNL     1      -5.245  -1.289   5.568  1.00  0.00     0.060 A 
ATOM     29  C   UNL     1      -5.959  -0.176   6.032  1.00  0.00     0.016 A 
ATOM     30  C   UNL     1      -5.860  -2.236   4.747  1.00  0.00     0.016 A 
ATOM     31  C   UNL     1      -7.309  -0.033   5.719  1.00  0.00     0.010 A 
ATOM     32  C   UNL     1      -7.220  -2.096   4.443  1.00  0.00     0.010 A 
ATOM     33  C   UNL     1      -7.958  -1.015   4.959  1.00  0.00    -0.014 A 
BRANCH  33  34
ATOM     34  C   UNL     1      -9.437  -0.984   4.845  1.00  0.00     0.031 A 
ATOM     35  C   UNL     1     -10.258  -1.836   5.773  1.00  0.00     0.074 A 
ATOM     36  C   UNL     1     -10.043  -0.178   3.957  1.00  0.00     0.049 A 
ATOM     37  N   UNL     1     -11.557  -1.976   5.844  1.00  0.00    -0.248 NA
ATOM     38  C   UNL     1      -9.511  -2.637   6.756  1.00  0.00     0.031 C 
ATOM     39  C   UNL     1      -9.361   0.722   3.031  1.00  0.00     0.029 A 
ATOM     40  N   UNL     1     -11.377   0.008   3.689  1.00  0.00    -0.354 N 
ATOM     41  C   UNL     1     -11.784  -2.877   6.876  1.00  0.00     0.074 A 
ATOM     42  C   UNL     1     -10.488  -3.277   7.382  1.00  0.00     0.031 C 
ATOM     43  C   UNL     1     -10.280   1.357   2.284  1.00  0.00     0.029 A 
ATOM     44  C   UNL     1     -11.613   0.888   2.663  1.00  0.00     0.049 A 
ATOM     45  H   UNL     1     -12.095  -0.448   4.185  1.00  0.00     0.167 HD
ATOM     46  C   UNL     1     -12.965  -3.322   7.366  1.00  0.00     0.037 A 
ATOM     47  C   UNL     1     -12.772   1.258   2.085  1.00  0.00     0.037 A 
ATOM     48  C   UNL     1     -14.254  -2.929   6.861  1.00  0.00     0.049 A 
ATOM     49  C   UNL     1     -14.071   0.698   2.603  1.00  0.00     0.074 A 
ATOM     50  C   UNL     1     -15.509  -3.319   7.296  1.00  0.00     0.029 A 
ATOM     51  N   UNL     1     -14.452  -2.056   5.801  1.00  0.00    -0.354 N 
ATOM     52  N   UNL     1     -14.277  -0.138   3.591  1.00  0.00    -0.248 NA
ATOM     53  C   UNL     1     -15.300   1.138   1.926  1.00  0.00     0.031 C 
ATOM     54  C   UNL     1     -16.465  -2.716   6.471  1.00  0.00     0.029 A 
ATOM     55  C   UNL     1     -15.808  -1.913   5.553  1.00  0.00     0.049 A 
ATOM     56  H   UNL     1     -13.735  -1.605   5.300  1.00  0.00     0.167 HD
ATOM     57  C   UNL     1     -15.654  -0.306   3.671  1.00  0.00     0.074 A 
ATOM     58  C   UNL     1     -16.236   0.525   2.638  1.00  0.00     0.031 C 
ATOM     59  C   UNL     1     -16.371  -1.079   4.523  1.00  0.00     0.037 A 
BRANCH  46  60
ATOM     60  C   UNL     1     -12.915  -4.306   8.498  1.00  0.00     0.064 A 
ATOM     61  C   UNL     1     -12.545  -3.916   9.793  1.00  0.00     0.173 A 
ATOM     62  C   UNL     1     -13.266  -5.648   8.289  1.00  0.00     0.173 A 
ATOM     63  F   UNL     1     -12.186  -2.647  10.040  1.00  0.00    -0.203 F 
ATOM     64  C   UNL     1     -12.503  -4.840  10.834  1.00  0.00     0.198 A 
ATOM     65  C   UNL     1     -13.248  -6.564   9.338  1.00  0.00     0.198 A 
ATOM     66  F   UNL     1     -13.630  -6.070   7.069  1.00  0.00    -0.203 F 
ATOM     67  F   UNL     1     -12.103  -4.456  12.054  1.00  0.00    -0.200 F 
ATOM     68  C   UNL     1     -12.860  -6.161  10.607  1.00  0.00     0.200 A 
ATOM     69  F   UNL     1     -13.602  -7.837   9.119  1.00  0.00    -0.200 F 
ATOM     70  F   UNL     1     -12.823  -7.049  11.610  1.00  0.00    -0.200 F 
ENDBRANCH  46  60
BRANCH  47  71
ATOM     71  C   UNL     1     -12.755   2.200   0.937  1.00  0.00     0.064 A 
ATOM     72  C   UNL     1     -13.249   3.506   1.062  1.00  0.00     0.173 A 
ATOM     73  C   UNL     1     -12.252   1.808  -0.312  1.00  0.00     0.173 A 
ATOM     74  F   UNL     1     -13.765   3.917   2.229  1.00  0.00    -0.203 F 
ATOM     75  C   UNL     1     -13.253   4.379  -0.024  1.00  0.00     0.198 A 
ATOM     76  C   UNL     1     -12.233   2.691  -1.390  1.00  0.00     0.198 A 
ATOM     77  F   UNL     1     -11.772   0.568  -0.484  1.00  0.00    -0.203 F 
ATOM     78  F   UNL     1     -13.768   5.609   0.111  1.00  0.00    -0.200 F 
ATOM     79  C   UNL     1     -12.739   3.974  -1.246  1.00  0.00     0.200 A 
ATOM     80  F   UNL     1     -11.726   2.297  -2.566  1.00  0.00    -0.200 F 
ATOM     81  F   UNL     1     -12.739   4.816  -2.288  1.00  0.00    -0.200 F 
ENDBRANCH  47  71
BRANCH  59  82
ATOM     82  C   UNL     1     -17.866  -1.043   4.395  1.00  0.00     0.064 A 
ATOM     83  C   UNL     1     -18.528  -1.667   3.327  1.00  0.00     0.173 A 
ATOM     84  C   UNL     1     -18.648  -0.414   5.376  1.00  0.00     0.173 A 
ATOM     85  F   UNL     1     -17.824  -2.269   2.357  1.00  0.00    -0.203 F 
ATOM     86  C   UNL     1     -19.917  -1.645   3.235  1.00  0.00     0.198 A 
ATOM     87  C   UNL     1     -20.038  -0.417   5.295  1.00  0.00     0.198 A 
ATOM     88  F   UNL     1     -18.064   0.191   6.421  1.00  0.00    -0.203 F 
ATOM     89  F   UNL     1     -20.526  -2.212   2.185  1.00  0.00    -0.200 F 
ATOM     90  C   UNL     1     -20.671  -1.026   4.222  1.00  0.00     0.200 A 
ATOM     91  F   UNL     1     -20.765   0.170   6.255  1.00  0.00    -0.200 F 
ATOM     92  F   UNL     1     -22.008  -1.012   4.135  1.00  0.00    -0.200 F 
ENDBRANCH  59  82
ENDBRANCH  33  34
ENDBRANCH  26  28
ENDBRANCH  25  26
ENDBRANCH  24  25
ENDBRANCH   1  24
TORSDOF 16
