REMARK SMILES O=C(OCCOCCOC(=O)[C@@]1([NH2+]C2CC2)CC[C@H](OC2CCC2)C1)c1ccc(-c2c3nc(c(-c4c(F)c(F)c(F)c(F)c4F)c4ccc([nH]4)c(-c4c(F)c(F)c(F)c(F)c4F)c4nc(c(-c5c(F)c(F)c(F)c(F)c5F)c5ccc2[nH]5)C=C4)C=C3)cc1
REMARK SMILES IDX 6 1 5 2 4 3 3 4 2 5 1 6 26 7 27 8 88 9 28 10 87 11 29 12
REMARK SMILES IDX 30 13 31 14 81 15 32 16 86 17 80 18 82 19 33 20 85 21 79 22
REMARK SMILES IDX 78 23 34 25 66 26 46 27 65 28 47 29 50 30 64 31 83 32 48 33
REMARK SMILES IDX 49 34 63 36 84 37 51 38 35 39 36 40 44 41 37 42 38 43 42 44
REMARK SMILES IDX 45 45 39 46 40 47 43 48 41 49 67 50 68 51 76 52 69 53 70 54
REMARK SMILES IDX 74 55 77 56 71 57 72 58 75 59 73 60 52 61 53 62 61 63 54 64
REMARK SMILES IDX 55 65 59 66 62 67 56 68 57 69 60 70 58 71 7 72 8 73 9 74
REMARK SMILES IDX 10 75 11 76 12 77 17 78 25 79 18 80 19 81 13 82 14 85 15 86
REMARK SMILES IDX 16 87 20 88 21 89 22 90 24 91 23 92
REMARK H PARENT 82 24 50 35 13 83 13 84
REMARK Flexibility Score: inf
ROOT
ATOM      1  O   UNL     1       3.315   0.737  -1.556  1.00  0.00    -0.374 OA
ENDROOT
BRANCH   1   2
ATOM      2  C   UNL     1       3.805  -0.510  -1.072  1.00  0.00     0.202 C 
BRANCH   2   3
ATOM      3  C   UNL     1       3.524  -0.786   0.404  1.00  0.00     0.261 C 
BRANCH   3   4
ATOM      4  O   UNL     1       2.132  -0.557   0.682  1.00  0.00    -0.460 OA
BRANCH   4   5
ATOM      5  C   UNL     1       1.596   0.606   1.129  1.00  0.00     0.338 C 
ATOM      6  O   UNL     1       0.377   0.720   1.235  1.00  0.00    -0.246 OA
BRANCH   5   7
ATOM      7  C   UNL     1       2.461   1.717   1.605  1.00  0.00     0.060 A 
ATOM      8  C   UNL     1       3.623   2.115   0.952  1.00  0.00     0.016 A 
ATOM      9  C   UNL     1       2.072   2.422   2.750  1.00  0.00     0.016 A 
ATOM     10  C   UNL     1       4.455   3.076   1.458  1.00  0.00     0.010 A 
ATOM     11  C   UNL     1       2.861   3.475   3.225  1.00  0.00     0.010 A 
ATOM     12  C   UNL     1       4.062   3.788   2.575  1.00  0.00    -0.014 A 
BRANCH  12  13
ATOM     13  C   UNL     1       5.031   4.772   3.064  1.00  0.00     0.031 A 
ATOM     14  C   UNL     1       5.779   4.447   4.310  1.00  0.00     0.074 A 
ATOM     15  C   UNL     1       5.364   5.803   2.267  1.00  0.00     0.049 A 
ATOM     16  N   UNL     1       6.607   5.187   4.990  1.00  0.00    -0.248 NA
ATOM     17  C   UNL     1       5.574   3.098   4.866  1.00  0.00     0.031 C 
ATOM     18  C   UNL     1       4.811   6.050   0.927  1.00  0.00     0.029 A 
ATOM     19  N   UNL     1       6.289   6.793   2.426  1.00  0.00    -0.354 N 
ATOM     20  C   UNL     1       6.953   4.428   6.098  1.00  0.00     0.074 A 
ATOM     21  C   UNL     1       6.280   3.155   5.983  1.00  0.00     0.031 C 
ATOM     22  C   UNL     1       5.453   7.086   0.369  1.00  0.00     0.029 A 
ATOM     23  C   UNL     1       6.363   7.648   1.355  1.00  0.00     0.049 A 
ATOM     24  H   UNL     1       6.849   6.885   3.231  1.00  0.00     0.167 HD
ATOM     25  C   UNL     1       7.740   4.806   7.129  1.00  0.00     0.037 A 
ATOM     26  C   UNL     1       7.057   8.792   1.226  1.00  0.00     0.037 A 
ATOM     27  C   UNL     1       8.405   6.080   7.160  1.00  0.00     0.049 A 
ATOM     28  C   UNL     1       7.865   9.227   2.415  1.00  0.00     0.074 A 
ATOM     29  C   UNL     1       9.160   6.647   8.166  1.00  0.00     0.029 A 
ATOM     30  N   UNL     1       8.395   6.984   6.101  1.00  0.00    -0.354 N 
ATOM     31  N   UNL     1       8.074   8.594   3.547  1.00  0.00    -0.248 NA
ATOM     32  C   UNL     1       8.502  10.543   2.333  1.00  0.00     0.031 C 
ATOM     33  C   UNL     1       9.574   7.912   7.729  1.00  0.00     0.029 A 
ATOM     34  C   UNL     1       9.125   8.110   6.430  1.00  0.00     0.049 A 
ATOM     35  H   UNL     1       7.935   6.842   5.242  1.00  0.00     0.167 HD
ATOM     36  C   UNL     1       8.879   9.423   4.309  1.00  0.00     0.074 A 
ATOM     37  C   UNL     1       9.134  10.600   3.497  1.00  0.00     0.031 C 
ATOM     38  C   UNL     1       9.360   9.242   5.565  1.00  0.00     0.037 A 
BRANCH  25  39
ATOM     39  C   UNL     1       7.790   3.886   8.312  1.00  0.00     0.064 A 
ATOM     40  C   UNL     1       8.429   2.638   8.274  1.00  0.00     0.173 A 
ATOM     41  C   UNL     1       7.096   4.229   9.483  1.00  0.00     0.173 A 
ATOM     42  F   UNL     1       9.072   2.242   7.165  1.00  0.00    -0.203 F 
ATOM     43  C   UNL     1       8.336   1.753   9.347  1.00  0.00     0.198 A 
ATOM     44  C   UNL     1       7.030   3.355  10.564  1.00  0.00     0.198 A 
ATOM     45  F   UNL     1       6.452   5.403   9.568  1.00  0.00    -0.203 F 
ATOM     46  F   UNL     1       8.886   0.533   9.256  1.00  0.00    -0.200 F 
ATOM     47  C   UNL     1       7.638   2.112  10.491  1.00  0.00     0.200 A 
ATOM     48  F   UNL     1       6.353   3.704  11.667  1.00  0.00    -0.200 F 
ATOM     49  F   UNL     1       7.532   1.251  11.512  1.00  0.00    -0.200 F 
ENDBRANCH  25  39
BRANCH  26  50
ATOM     50  C   UNL     1       6.950   9.610  -0.011  1.00  0.00     0.064 A 
ATOM     51  C   UNL     1       8.066   9.843  -0.826  1.00  0.00     0.173 A 
ATOM     52  C   UNL     1       5.728  10.175  -0.414  1.00  0.00     0.173 A 
ATOM     53  F   UNL     1       9.262   9.345  -0.481  1.00  0.00    -0.203 F 
ATOM     54  C   UNL     1       7.967  10.616  -1.984  1.00  0.00     0.198 A 
ATOM     55  C   UNL     1       5.623  10.918  -1.588  1.00  0.00     0.198 A 
ATOM     56  F   UNL     1       4.625   9.991   0.327  1.00  0.00    -0.203 F 
ATOM     57  F   UNL     1       9.060  10.857  -2.720  1.00  0.00    -0.200 F 
ATOM     58  C   UNL     1       6.745  11.146  -2.368  1.00  0.00     0.200 A 
ATOM     59  F   UNL     1       4.435  11.414  -1.961  1.00  0.00    -0.200 F 
ATOM     60  F   UNL     1       6.650  11.883  -3.483  1.00  0.00    -0.200 F 
ENDBRANCH  26  50
BRANCH  38  61
ATOM     61  C   UNL     1      10.257  10.317   6.090  1.00  0.00     0.064 A 
ATOM     62  C   UNL     1       9.756  11.561   6.497  1.00  0.00     0.173 A 
ATOM     63  C   UNL     1      11.632  10.075   6.221  1.00  0.00     0.173 A 
ATOM     64  F   UNL     1       8.450  11.838   6.370  1.00  0.00    -0.203 F 
ATOM     65  C   UNL     1      10.610  12.539   6.995  1.00  0.00     0.198 A 
ATOM     66  C   UNL     1      12.476  11.043   6.749  1.00  0.00     0.198 A 
ATOM     67  F   UNL     1      12.150   8.895   5.848  1.00  0.00    -0.203 F 
ATOM     68  F   UNL     1      10.123  13.741   7.332  1.00  0.00    -0.200 F 
ATOM     69  C   UNL     1      11.966  12.277   7.128  1.00  0.00     0.200 A 
ATOM     70  F   UNL     1      13.783  10.784   6.890  1.00  0.00    -0.200 F 
ATOM     71  F   UNL     1      12.786  13.218   7.616  1.00  0.00    -0.200 F 
ENDBRANCH  38  61
ENDBRANCH  12  13
ENDBRANCH   5   7
ENDBRANCH   4   5
ENDBRANCH   3   4
ENDBRANCH   2   3
ENDBRANCH   1   2
BRANCH   1  72
ATOM     72  C   UNL     1       2.129   0.683  -2.338  1.00  0.00     0.202 C 
BRANCH  72  73
ATOM     73  C   UNL     1       2.495   0.794  -3.816  1.00  0.00     0.261 C 
BRANCH  73  74
ATOM     74  O   UNL     1       3.189  -0.401  -4.214  1.00  0.00    -0.459 OA
BRANCH  74  75
ATOM     75  C   UNL     1       4.561  -0.396  -4.128  1.00  0.00     0.368 C 
ATOM     76  O   UNL     1       5.238   0.607  -3.954  1.00  0.00    -0.245 OA
BRANCH  75  77
ATOM     77  C   UNL     1       5.077  -1.852  -4.237  1.00  0.00     0.197 C 
ATOM     78  C   UNL     1       4.308  -2.833  -3.335  1.00  0.00     0.084 C 
ATOM     79  C   UNL     1       4.697  -2.409  -5.627  1.00  0.00     0.113 C 
ATOM     80  C   UNL     1       4.531  -4.191  -3.951  1.00  0.00     0.039 C 
ATOM     81  C   UNL     1       4.601  -3.931  -5.452  1.00  0.00     0.125 C 
BRANCH  77  82
ATOM     82  N   UNL     1       6.541  -1.983  -4.105  1.00  0.00    -0.330 N 
ATOM     83  H   UNL     1       6.940  -1.524  -4.924  1.00  0.00     0.347 HD
ATOM     84  H   UNL     1       6.647  -2.991  -3.986  1.00  0.00     0.347 HD
BRANCH  82  85
ATOM     85  C   UNL     1       7.279  -1.472  -2.958  1.00  0.00     0.183 C 
ATOM     86  C   UNL     1       7.084  -1.808  -1.506  1.00  0.00     0.071 C 
ATOM     87  C   UNL     1       8.174  -2.482  -2.264  1.00  0.00     0.071 C 
ENDBRANCH  82  85
ENDBRANCH  77  82
BRANCH  81  88
ATOM     88  O   UNL     1       5.770  -4.535  -5.990  1.00  0.00    -0.375 OA
BRANCH  88  89
ATOM     89  C   UNL     1       5.796  -5.957  -6.243  1.00  0.00     0.118 C 
ATOM     90  C   UNL     1       6.108  -6.902  -5.054  1.00  0.00     0.032 C 
ATOM     91  C   UNL     1       4.481  -6.755  -6.429  1.00  0.00     0.032 C 
ATOM     92  C   UNL     1       5.170  -7.931  -5.710  1.00  0.00     0.005 C 
ENDBRANCH  88  89
ENDBRANCH  81  88
ENDBRANCH  75  77
ENDBRANCH  74  75
ENDBRANCH  73  74
ENDBRANCH  72  73
ENDBRANCH   1  72
TORSDOF 18
