REMARK SMILES O=C(OCCOCCOC(=O)c1ccc(-c2c3nc(c(-c4c(F)c(F)c(F)c(F)c4F)c4ccc([nH]4)c(-c4c(F)c(F)c(F)c(F)c4F)c4nc(c(-c5c(F)c(F)c(F)c(F)c5F)c5ccc2[nH]5)C=C4)C=C3)cc1)C1=Cc2cc(Cl)c(Cl)cc2O[C@@H]1C(F)(F)F
REMARK SMILES IDX 7 1 6 2 5 3 4 4 3 5 2 6 1 7 75 8 76 9 86 10 77 11 85 12
REMARK SMILES IDX 78 13 84 14 79 15 83 16 80 17 81 18 82 19 87 20 88 21 89 22
REMARK SMILES IDX 90 23 8 24 9 25 10 26 11 27 12 28 13 29 74 30 14 31 73 32
REMARK SMILES IDX 15 33 16 34 17 35 67 36 18 37 72 38 66 39 68 40 19 41 71 42
REMARK SMILES IDX 65 43 64 44 20 46 52 47 32 48 51 49 33 50 36 51 50 52 69 53
REMARK SMILES IDX 34 54 35 55 49 57 70 58 37 59 21 60 22 61 30 62 23 63 24 64
REMARK SMILES IDX 28 65 31 66 25 67 26 68 29 69 27 70 53 71 54 72 62 73 55 74
REMARK SMILES IDX 56 75 60 76 63 77 57 78 58 79 61 80 59 81 38 82 39 83 47 84
REMARK SMILES IDX 40 85 41 86 45 87 48 88 42 89 43 90 46 91 44 92
REMARK H PARENT 68 45 36 56
REMARK Flexibility Score: inf
ROOT
ATOM      1  C   UNL     1       2.999  -0.862   2.997  1.00  0.00     0.202 C 
ENDROOT
BRANCH   1   2
ATOM      2  O   UNL     1       4.202  -0.783   2.200  1.00  0.00    -0.374 OA
BRANCH   2   3
ATOM      3  C   UNL     1       4.298  -1.190   0.640  1.00  0.00     0.202 C 
BRANCH   3   4
ATOM      4  C   UNL     1       3.537  -0.124  -1.085  1.00  0.00     0.261 C 
BRANCH   4   5
ATOM      5  O   UNL     1       2.635  -0.714  -2.206  1.00  0.00    -0.460 OA
BRANCH   5   6
ATOM      6  C   UNL     1       2.712  -2.042  -2.303  1.00  0.00     0.338 C 
ATOM      7  O   UNL     1       2.121  -2.817  -3.009  1.00  0.00    -0.246 OA
BRANCH   6   8
ATOM      8  C   UNL     1       3.512  -2.213  -1.120  1.00  0.00     0.087 C 
ATOM      9  C   UNL     1       4.926  -1.838  -1.428  1.00  0.00     0.027 C 
ATOM     10  C   UNL     1       2.359  -1.255   0.120  1.00  0.00     0.316 C 
ATOM     11  C   UNL     1       5.717  -0.311  -0.814  1.00  0.00     0.019 A 
ATOM     12  O   UNL     1       3.168   0.368   0.745  1.00  0.00    -0.475 OA
ATOM     13  C   UNL     1       6.923   0.067  -1.336  1.00  0.00     0.034 A 
ATOM     14  C   UNL     1       4.867   0.785   0.221  1.00  0.00     0.129 A 
ATOM     15  C   UNL     1       7.326   1.376  -1.018  1.00  0.00     0.060 A 
ATOM     16  C   UNL     1       5.300   2.066   0.425  1.00  0.00     0.069 A 
ATOM     17  Cl  UNL     1       8.858   1.846  -1.714  1.00  0.00    -0.083 Cl
ATOM     18  C   UNL     1       6.543   2.329  -0.221  1.00  0.00     0.063 A 
ATOM     19  Cl  UNL     1       7.133   3.962  -0.139  1.00  0.00    -0.083 Cl
BRANCH  10  20
ATOM     20  C   UNL     1       1.706  -2.409   0.972  1.00  0.00     0.430 C 
ATOM     21  F   UNL     1       0.784  -1.986   1.857  1.00  0.00    -0.167 F 
ATOM     22  F   UNL     1       1.052  -3.241   0.114  1.00  0.00    -0.167 F 
ATOM     23  F   UNL     1       2.584  -3.205   1.619  1.00  0.00    -0.167 F 
ENDBRANCH  10  20
ENDBRANCH   6   8
ENDBRANCH   5   6
ENDBRANCH   4   5
ENDBRANCH   3   4
ENDBRANCH   2   3
ENDBRANCH   1   2
BRANCH   1  24
ATOM     24  C   UNL     1       3.031  -0.049   4.292  1.00  0.00     0.261 C 
BRANCH  24  25
ATOM     25  O   UNL     1       3.434   1.293   4.034  1.00  0.00    -0.460 OA
BRANCH  25  26
ATOM     26  C   UNL     1       4.771   1.470   4.124  1.00  0.00     0.338 C 
ATOM     27  O   UNL     1       5.611   0.639   4.425  1.00  0.00    -0.246 OA
BRANCH  26  28
ATOM     28  C   UNL     1       5.103   2.865   3.787  1.00  0.00     0.060 A 
ATOM     29  C   UNL     1       6.420   3.132   3.400  1.00  0.00     0.016 A 
ATOM     30  C   UNL     1       4.158   3.898   3.864  1.00  0.00     0.016 A 
ATOM     31  C   UNL     1       6.798   4.434   3.105  1.00  0.00     0.010 A 
ATOM     32  C   UNL     1       4.538   5.204   3.568  1.00  0.00     0.010 A 
ATOM     33  C   UNL     1       5.863   5.472   3.202  1.00  0.00    -0.014 A 
BRANCH  33  34
ATOM     34  C   UNL     1       6.339   6.863   3.118  1.00  0.00     0.031 A 
ATOM     35  C   UNL     1       6.888   7.477   4.366  1.00  0.00     0.074 A 
ATOM     36  C   UNL     1       6.309   7.535   1.957  1.00  0.00     0.049 A 
ATOM     37  N   UNL     1       7.413   8.658   4.548  1.00  0.00    -0.248 NA
ATOM     38  C   UNL     1       6.832   6.643   5.580  1.00  0.00     0.031 C 
ATOM     39  C   UNL     1       5.796   7.011   0.695  1.00  0.00     0.029 A 
ATOM     40  N   UNL     1       6.730   8.801   1.649  1.00  0.00    -0.354 N 
ATOM     41  C   UNL     1       7.765   8.702   5.888  1.00  0.00     0.074 A 
ATOM     42  C   UNL     1       7.364   7.448   6.484  1.00  0.00     0.031 C 
ATOM     43  C   UNL     1       5.966   7.935  -0.265  1.00  0.00     0.029 A 
ATOM     44  C   UNL     1       6.541   9.137   0.332  1.00  0.00     0.049 A 
ATOM     45  H   UNL     1       7.130   9.412   2.310  1.00  0.00     0.167 HD
ATOM     46  C   UNL     1       8.372   9.707   6.557  1.00  0.00     0.037 A 
ATOM     47  C   UNL     1       6.787  10.298  -0.303  1.00  0.00     0.037 A 
ATOM     48  C   UNL     1       8.712  10.967   5.957  1.00  0.00     0.049 A 
ATOM     49  C   UNL     1       7.378  11.436   0.492  1.00  0.00     0.074 A 
ATOM     50  C   UNL     1       9.309  12.068   6.539  1.00  0.00     0.029 A 
ATOM     51  N   UNL     1       8.457  11.298   4.632  1.00  0.00    -0.354 N 
ATOM     52  N   UNL     1       7.748  11.464   1.750  1.00  0.00    -0.248 NA
ATOM     53  C   UNL     1       7.578  12.704  -0.220  1.00  0.00     0.031 C 
ATOM     54  C   UNL     1       9.356  13.089   5.584  1.00  0.00     0.029 A 
ATOM     55  C   UNL     1       8.853  12.601   4.386  1.00  0.00     0.049 A 
ATOM     56  H   UNL     1       8.053  10.695   3.966  1.00  0.00     0.167 HD
ATOM     57  C   UNL     1       8.249  12.739   1.975  1.00  0.00     0.074 A 
ATOM     58  C   UNL     1       8.151  13.449   0.715  1.00  0.00     0.031 C 
ATOM     59  C   UNL     1       8.745  13.278   3.117  1.00  0.00     0.037 A 
BRANCH  46  60
ATOM     60  C   UNL     1       8.645   9.488   8.014  1.00  0.00     0.064 A 
ATOM     61  C   UNL     1       9.604   8.562   8.455  1.00  0.00     0.173 A 
ATOM     62  C   UNL     1       7.923  10.197   8.985  1.00  0.00     0.173 A 
ATOM     63  F   UNL     1      10.301   7.837   7.567  1.00  0.00    -0.203 F 
ATOM     64  C   UNL     1       9.808   8.334   9.813  1.00  0.00     0.198 A 
ATOM     65  C   UNL     1       8.153   9.990  10.342  1.00  0.00     0.198 A 
ATOM     66  F   UNL     1       6.988  11.086   8.618  1.00  0.00    -0.203 F 
ATOM     67  F   UNL     1      10.684   7.400  10.210  1.00  0.00    -0.200 F 
ATOM     68  C   UNL     1       9.087   9.052  10.755  1.00  0.00     0.200 A 
ATOM     69  F   UNL     1       7.459  10.689  11.251  1.00  0.00    -0.200 F 
ATOM     70  F   UNL     1       9.283   8.831  12.062  1.00  0.00    -0.200 F 
ENDBRANCH  46  60
BRANCH  47  71
ATOM     71  C   UNL     1       6.457  10.455  -1.745  1.00  0.00     0.064 A 
ATOM     72  C   UNL     1       7.460  10.667  -2.701  1.00  0.00     0.173 A 
ATOM     73  C   UNL     1       5.128  10.423  -2.195  1.00  0.00     0.173 A 
ATOM     74  F   UNL     1       8.745  10.729  -2.322  1.00  0.00    -0.203 F 
ATOM     75  C   UNL     1       7.146  10.866  -4.045  1.00  0.00     0.198 A 
ATOM     76  C   UNL     1       4.817  10.590  -3.543  1.00  0.00     0.198 A 
ATOM     77  F   UNL     1       4.127  10.226  -1.325  1.00  0.00    -0.203 F 
ATOM     78  F   UNL     1       8.120  11.123  -4.928  1.00  0.00    -0.200 F 
ATOM     79  C   UNL     1       5.825  10.822  -4.466  1.00  0.00     0.200 A 
ATOM     80  F   UNL     1       3.540  10.533  -3.946  1.00  0.00    -0.200 F 
ATOM     81  F   UNL     1       5.523  11.015  -5.757  1.00  0.00    -0.200 F 
ENDBRANCH  47  71
BRANCH  59  82
ATOM     82  C   UNL     1       9.251  14.690   3.046  1.00  0.00     0.064 A 
ATOM     83  C   UNL     1       8.382  15.780   2.899  1.00  0.00     0.173 A 
ATOM     84  C   UNL     1      10.623  14.955   3.184  1.00  0.00     0.173 A 
ATOM     85  F   UNL     1       7.064  15.579   2.751  1.00  0.00    -0.203 F 
ATOM     86  C   UNL     1       8.871  17.083   2.865  1.00  0.00     0.198 A 
ATOM     87  C   UNL     1      11.103  16.261   3.186  1.00  0.00     0.198 A 
ATOM     88  F   UNL     1      11.495  13.947   3.337  1.00  0.00    -0.203 F 
ATOM     89  F   UNL     1       8.028  18.107   2.671  1.00  0.00    -0.200 F 
ATOM     90  C   UNL     1      10.228  17.323   3.018  1.00  0.00     0.200 A 
ATOM     91  F   UNL     1      12.412  16.490   3.356  1.00  0.00    -0.200 F 
ATOM     92  F   UNL     1      10.695  18.579   2.999  1.00  0.00    -0.200 F 
ENDBRANCH  59  82
ENDBRANCH  33  34
ENDBRANCH  26  28
ENDBRANCH  25  26
ENDBRANCH  24  25
ENDBRANCH   1  24
TORSDOF 15
