REMARK SMILES CCCCCCNC(=O)Oc1cccc(-c2ccc([C@@H](C)C(=O)OCCOCCOC(=O)c3ccc(-c4c5nc(c(-c6c(F)c(F)c(F)c(F)c6F)c6ccc([nH]6)c(-c6c(F)c(F)c(F)c(F)c6F)c6nc(c(-c7c(F)c(F)c(F)c(F)c7F)c7ccc4[nH]7)C=C6)C=C5)cc3)cc2Cl)c1
REMARK SMILES IDX 22 1 23 2 20 3 21 4 19 5 16 6 17 7 97 8 18 9 96 10 98 11
REMARK SMILES IDX 15 12 11 13 12 14 99 15 13 16 14 17 10 18 8 19 7 20 9 22
REMARK SMILES IDX 6 23 5 24 4 25 3 26 2 27 1 28 24 29 25 30 26 31 27 32 28 33
REMARK SMILES IDX 29 34 30 35 31 36 32 37 33 38 34 39 95 40 35 41 94 42 36 43
REMARK SMILES IDX 37 44 38 45 88 46 39 47 93 48 87 49 89 50 40 51 92 52 86 53
REMARK SMILES IDX 85 54 41 56 73 57 53 58 72 59 54 60 57 61 71 62 90 63 55 64
REMARK SMILES IDX 56 65 70 67 91 68 58 69 42 70 43 71 51 72 44 73 45 74 49 75
REMARK SMILES IDX 52 76 46 77 47 78 50 79 48 80 74 81 75 82 83 83 76 84 77 85
REMARK SMILES IDX 81 86 84 87 78 88 79 89 82 90 80 91 59 92 60 93 68 94 61 95
REMARK SMILES IDX 62 96 66 97 69 98 63 99 64 100 67 101 65 102
REMARK H PARENT 7 21 89 55 57 66
REMARK Flexibility Score: inf
ROOT
ATOM      1  C   UNL     1      -4.582   6.976  13.460  1.00  0.00     0.313 C 
ATOM      2  O   UNL     1      -4.399   8.126  13.847  1.00  0.00    -0.252 OA
ENDROOT
BRANCH   1   3
ATOM      3  C   UNL     1      -5.550   6.659  12.331  1.00  0.00     0.126 C 
ATOM      4  C   UNL     1      -6.977   6.691  12.875  1.00  0.00     0.025 C 
BRANCH   3   5
ATOM      5  C   UNL     1      -5.301   5.413  11.485  1.00  0.00    -0.033 A 
ATOM      6  C   UNL     1      -5.118   3.131   9.757  1.00  0.00     0.000 A 
ATOM      7  C   UNL     1      -5.280   2.999  11.151  1.00  0.00     0.010 A 
ATOM      8  C   UNL     1      -5.000   4.440   9.253  1.00  0.00     0.049 A 
ATOM      9  C   UNL     1      -5.379   4.114  11.998  1.00  0.00     0.005 A 
ATOM     10  C   UNL     1      -5.081   5.555  10.104  1.00  0.00     0.025 A 
ATOM     11  Cl  UNL     1      -4.839   4.778   7.560  1.00  0.00    -0.084 Cl
BRANCH   6  12
ATOM     12  C   UNL     1      -5.172   1.924   8.901  1.00  0.00    -0.013 A 
ATOM     13  C   UNL     1      -4.284   0.483   7.155  1.00  0.00     0.133 A 
ATOM     14  C   UNL     1      -5.414  -0.330   7.207  1.00  0.00     0.047 A 
ATOM     15  C   UNL     1      -4.152   1.597   7.991  1.00  0.00     0.056 A 
ATOM     16  C   UNL     1      -6.420  -0.037   8.120  1.00  0.00     0.004 A 
ATOM     17  C   UNL     1      -6.301   1.079   8.953  1.00  0.00     0.009 A 
BRANCH  13  18
ATOM     18  O   UNL     1      -3.366   0.208   6.125  1.00  0.00    -0.410 OA
BRANCH  18  19
ATOM     19  C   UNL     1      -2.021   0.101   6.432  1.00  0.00     0.412 C 
ATOM     20  N   UNL     1      -1.234  -0.144   5.341  1.00  0.00    -0.321 N 
ATOM     21  H   UNL     1      -0.267  -0.221   5.506  1.00  0.00     0.167 HD
ATOM     22  O   UNL     1      -1.530   0.191   7.557  1.00  0.00    -0.224 OA
BRANCH  20  23
ATOM     23  C   UNL     1      -1.671  -0.304   3.966  1.00  0.00     0.119 C 
BRANCH  23  24
ATOM     24  C   UNL     1      -1.070   0.755   3.041  1.00  0.00     0.021 C 
BRANCH  24  25
ATOM     25  C   UNL     1       0.458   0.713   2.913  1.00  0.00     0.002 C 
BRANCH  25  26
ATOM     26  C   UNL     1       1.044  -0.597   2.374  1.00  0.00    -0.000 C 
BRANCH  26  27
ATOM     27  C   UNL     1       0.569  -1.007   0.978  1.00  0.00    -0.003 C 
ATOM     28  C   UNL     1       0.961  -0.017  -0.108  1.00  0.00     0.004 C 
ENDBRANCH  26  27
ENDBRANCH  25  26
ENDBRANCH  24  25
ENDBRANCH  23  24
ENDBRANCH  20  23
ENDBRANCH  18  19
ENDBRANCH  13  18
ENDBRANCH   6  12
ENDBRANCH   3   5
ENDBRANCH   1   3
BRANCH   1  29
ATOM     29  O   UNL     1      -3.986   5.882  14.001  1.00  0.00    -0.463 OA
BRANCH  29  30
ATOM     30  C   UNL     1      -2.953   6.145  14.967  1.00  0.00     0.261 C 
BRANCH  30  31
ATOM     31  C   UNL     1      -1.603   5.603  14.492  1.00  0.00     0.202 C 
BRANCH  31  32
ATOM     32  O   UNL     1      -1.029   6.245  13.354  1.00  0.00    -0.374 OA
BRANCH  32  33
ATOM     33  C   UNL     1      -1.590   5.954  12.075  1.00  0.00     0.202 C 
BRANCH  33  34
ATOM     34  C   UNL     1      -1.221   4.603  11.449  1.00  0.00     0.261 C 
BRANCH  34  35
ATOM     35  O   UNL     1      -1.692   3.487  12.226  1.00  0.00    -0.460 OA
BRANCH  35  36
ATOM     36  C   UNL     1      -0.710   2.766  12.817  1.00  0.00     0.338 C 
ATOM     37  O   UNL     1       0.495   2.921  12.705  1.00  0.00    -0.246 OA
BRANCH  36  38
ATOM     38  C   UNL     1      -1.280   1.832  13.808  1.00  0.00     0.060 A 
ATOM     39  C   UNL     1      -0.725   1.858  15.093  1.00  0.00     0.016 A 
ATOM     40  C   UNL     1      -2.247   0.882  13.472  1.00  0.00     0.016 A 
ATOM     41  C   UNL     1      -1.078   0.888  16.026  1.00  0.00     0.010 A 
ATOM     42  C   UNL     1      -2.600  -0.096  14.412  1.00  0.00     0.010 A 
ATOM     43  C   UNL     1      -1.980  -0.126  15.676  1.00  0.00    -0.014 A 
BRANCH  43  44
ATOM     44  C   UNL     1      -2.112  -1.299  16.577  1.00  0.00     0.031 A 
ATOM     45  C   UNL     1      -1.345  -2.555  16.254  1.00  0.00     0.074 A 
ATOM     46  C   UNL     1      -2.823  -1.220  17.716  1.00  0.00     0.049 A 
ATOM     47  N   UNL     1      -1.266  -3.678  16.923  1.00  0.00    -0.248 NA
ATOM     48  C   UNL     1      -0.553  -2.540  15.013  1.00  0.00     0.031 C 
ATOM     49  C   UNL     1      -3.566  -0.046  18.168  1.00  0.00     0.029 A 
ATOM     50  N   UNL     1      -3.022  -2.148  18.709  1.00  0.00    -0.354 N 
ATOM     51  C   UNL     1      -0.413  -4.495  16.191  1.00  0.00     0.074 A 
ATOM     52  C   UNL     1      -0.033  -3.758  15.006  1.00  0.00     0.031 C 
ATOM     53  C   UNL     1      -4.138  -0.322  19.353  1.00  0.00     0.029 A 
ATOM     54  C   UNL     1      -3.822  -1.698  19.731  1.00  0.00     0.049 A 
ATOM     55  H   UNL     1      -2.629  -3.050  18.691  1.00  0.00     0.167 HD
ATOM     56  C   UNL     1       0.029  -5.740  16.488  1.00  0.00     0.037 A 
ATOM     57  C   UNL     1      -4.256  -2.331  20.838  1.00  0.00     0.037 A 
ATOM     58  C   UNL     1      -0.344  -6.476  17.667  1.00  0.00     0.049 A 
ATOM     59  C   UNL     1      -3.816  -3.750  21.100  1.00  0.00     0.074 A 
ATOM     60  C   UNL     1       0.049  -7.745  18.053  1.00  0.00     0.029 A 
ATOM     61  N   UNL     1      -1.201  -6.006  18.650  1.00  0.00    -0.354 N 
ATOM     62  N   UNL     1      -2.995  -4.505  20.412  1.00  0.00    -0.248 NA
ATOM     63  C   UNL     1      -4.362  -4.402  22.300  1.00  0.00     0.031 C 
ATOM     64  C   UNL     1      -0.605  -8.061  19.249  1.00  0.00     0.029 A 
ATOM     65  C   UNL     1      -1.366  -6.969  19.632  1.00  0.00     0.049 A 
ATOM     66  H   UNL     1      -1.629  -5.119  18.651  1.00  0.00     0.167 HD
ATOM     67  C   UNL     1      -2.901  -5.703  21.109  1.00  0.00     0.074 A 
ATOM     68  C   UNL     1      -3.737  -5.570  22.283  1.00  0.00     0.031 C 
ATOM     69  C   UNL     1      -2.188  -6.815  20.804  1.00  0.00     0.037 A 
BRANCH  56  70
ATOM     70  C   UNL     1       0.964  -6.395  15.514  1.00  0.00     0.064 A 
ATOM     71  C   UNL     1       2.298  -5.980  15.385  1.00  0.00     0.173 A 
ATOM     72  C   UNL     1       0.535  -7.482  14.738  1.00  0.00     0.173 A 
ATOM     73  F   UNL     1       2.752  -4.938  16.097  1.00  0.00    -0.203 F 
ATOM     74  C   UNL     1       3.163  -6.619  14.501  1.00  0.00     0.198 A 
ATOM     75  C   UNL     1       1.411  -8.135  13.874  1.00  0.00     0.198 A 
ATOM     76  F   UNL     1      -0.729  -7.921  14.828  1.00  0.00    -0.203 F 
ATOM     77  F   UNL     1       4.424  -6.184  14.367  1.00  0.00    -0.200 F 
ATOM     78  C   UNL     1       2.722  -7.700  13.753  1.00  0.00     0.200 A 
ATOM     79  F   UNL     1       0.986  -9.188  13.162  1.00  0.00    -0.200 F 
ATOM     80  F   UNL     1       3.560  -8.322  12.911  1.00  0.00    -0.200 F 
ENDBRANCH  56  70
BRANCH  57  81
ATOM     81  C   UNL     1      -5.167  -1.641  21.789  1.00  0.00     0.064 A 
ATOM     82  C   UNL     1      -4.755  -1.326  23.092  1.00  0.00     0.173 A 
ATOM     83  C   UNL     1      -6.486  -1.326  21.430  1.00  0.00     0.173 A 
ATOM     84  F   UNL     1      -3.512  -1.632  23.492  1.00  0.00    -0.203 F 
ATOM     85  C   UNL     1      -5.634  -0.748  24.006  1.00  0.00     0.198 A 
ATOM     86  C   UNL     1      -7.355  -0.720  22.335  1.00  0.00     0.198 A 
ATOM     87  F   UNL     1      -6.933  -1.609  20.198  1.00  0.00    -0.203 F 
ATOM     88  F   UNL     1      -5.231  -0.512  25.262  1.00  0.00    -0.200 F 
ATOM     89  C   UNL     1      -6.932  -0.442  23.626  1.00  0.00     0.200 A 
ATOM     90  F   UNL     1      -8.605  -0.418  21.960  1.00  0.00    -0.200 F 
ATOM     91  F   UNL     1      -7.778   0.108  24.506  1.00  0.00    -0.200 F 
ENDBRANCH  57  81
BRANCH  69  92
ATOM     92  C   UNL     1      -2.245  -7.961  21.774  1.00  0.00     0.064 A 
ATOM     93  C   UNL     1      -3.395  -8.752  21.912  1.00  0.00     0.173 A 
ATOM     94  C   UNL     1      -1.121  -8.294  22.545  1.00  0.00     0.173 A 
ATOM     95  F   UNL     1      -4.500  -8.466  21.207  1.00  0.00    -0.203 F 
ATOM     96  C   UNL     1      -3.426  -9.819  22.806  1.00  0.00     0.198 A 
ATOM     97  C   UNL     1      -1.146  -9.380  23.416  1.00  0.00     0.198 A 
ATOM     98  F   UNL     1       0.006  -7.574  22.445  1.00  0.00    -0.203 F 
ATOM     99  F   UNL     1      -4.551 -10.531  22.957  1.00  0.00    -0.200 F 
ATOM    100  C   UNL     1      -2.300 -10.136  23.552  1.00  0.00     0.200 A 
ATOM    101  F   UNL     1      -0.053  -9.693  24.126  1.00  0.00    -0.200 F 
ATOM    102  F   UNL     1      -2.330 -11.167  24.408  1.00  0.00    -0.200 F 
ENDBRANCH  69  92
ENDBRANCH  43  44
ENDBRANCH  36  38
ENDBRANCH  35  36
ENDBRANCH  34  35
ENDBRANCH  33  34
ENDBRANCH  32  33
ENDBRANCH  31  32
ENDBRANCH  30  31
ENDBRANCH  29  30
ENDBRANCH   1  29
TORSDOF 23
