REMARK SMILES CCCN1C(=O)/C(=C\c2ccc(OC)c(OC)c2C(=O)OCCOCCOC(=O)c2ccc(-c3c4nc(c(-c5c(F)c(F)c(F)c(F)c5F)c5ccc([nH]5)c(-c5c(F)c(F)c(F)c(F)c5F)c5nc(c(-c6c(F)c(F)c(F)c(F)c6F)c6ccc3[nH]6)C=C5)C=C4)cc2)S/C1=[NH+]\c1nccs1
REMARK SMILES IDX 23 1 22 2 21 3 19 4 20 5 18 6 9 7 10 8 11 9 15 10 12 11 8 12
REMARK SMILES IDX 4 13 5 14 94 15 6 16 7 17 93 18 95 19 3 21 2 22 1 23 96 24
REMARK SMILES IDX 97 25 100 26 98 27 99 28 16 29 17 30 13 31 14 32 24 33 25 34
REMARK SMILES IDX 26 35 27 36 28 37 29 38 30 39 31 40 92 41 32 42 91 43 33 44
REMARK SMILES IDX 34 45 35 46 85 47 36 48 90 49 84 50 86 51 37 52 89 53 83 54
REMARK SMILES IDX 82 55 38 57 70 58 50 59 69 60 51 61 54 62 68 63 87 64 52 65
REMARK SMILES IDX 53 66 67 68 88 69 55 70 39 71 40 72 48 73 41 74 42 75 46 76
REMARK SMILES IDX 49 77 43 78 44 79 47 80 45 81 71 82 72 83 80 84 73 85 74 86
REMARK SMILES IDX 78 87 81 88 75 89 76 90 79 91 77 92 56 93 57 94 65 95 58 96
REMARK SMILES IDX 59 97 63 98 66 99 60 100 61 101 64 102 62 103
REMARK H PARENT 95 20 86 56 54 67
REMARK Flexibility Score: inf
ROOT
ATOM      1  C   UNL     1      -3.714   1.286   0.642  1.00  0.00     0.202 C 
ENDROOT
BRANCH   1   2
ATOM      2  C   UNL     1      -2.271   0.991   1.060  1.00  0.00     0.261 C 
BRANCH   2   3
ATOM      3  O   UNL     1      -1.423   2.145   1.004  1.00  0.00    -0.460 OA
BRANCH   3   4
ATOM      4  C   UNL     1      -0.439   2.075   0.073  1.00  0.00     0.342 C 
ATOM      5  O   UNL     1      -0.202   1.112  -0.633  1.00  0.00    -0.246 OA
BRANCH   4   6
ATOM      6  C   UNL     1       0.363   3.318   0.014  1.00  0.00     0.113 A 
ATOM      7  C   UNL     1       0.995   3.804   1.190  1.00  0.00    -0.006 A 
ATOM      8  C   UNL     1       1.908   4.857   1.077  1.00  0.00     0.013 A 
ATOM      9  C   UNL     1       2.182   5.420  -0.172  1.00  0.00     0.051 A 
ATOM     10  C   UNL     1       0.565   3.958  -1.235  1.00  0.00     0.175 A 
ATOM     11  C   UNL     1       1.511   4.994  -1.324  1.00  0.00     0.161 A 
BRANCH   7  12
ATOM     12  C   UNL     1       0.645   3.332   2.548  1.00  0.00     0.032 C 
ATOM     13  N   UNL     1       1.350  -0.164   2.791  1.00  0.00    -0.219 N 
ATOM     14  C   UNL     1       1.750   1.086   2.380  1.00  0.00     0.321 C 
ATOM     15  C   UNL     1       0.452  -0.222   3.834  1.00  0.00     0.271 C 
ATOM     16  O   UNL     1       2.672   1.350   1.624  1.00  0.00    -0.250 OA
ATOM     17  C   UNL     1       0.905   2.111   3.037  1.00  0.00     0.100 C 
ATOM     18  S   UNL     1       0.084   1.401   4.384  1.00  0.00    -0.012 SA
ATOM     19  N   UNL     1       0.041  -1.361   4.273  1.00  0.00    -0.228 N 
ATOM     20  H   UNL     1       0.373  -2.184   3.846  1.00  0.00     0.268 HD
BRANCH  13  21
ATOM     21  C   UNL     1       1.894  -1.359   2.156  1.00  0.00     0.206 C 
BRANCH  21  22
ATOM     22  C   UNL     1       1.177  -1.693   0.844  1.00  0.00     0.035 C 
ATOM     23  C   UNL     1       1.869  -1.094  -0.372  1.00  0.00     0.007 C 
ENDBRANCH  21  22
ENDBRANCH  13  21
BRANCH  19  24
ATOM     24  C   UNL     1      -0.830  -1.464   5.298  1.00  0.00     0.319 A 
ATOM     25  N   UNL     1      -2.077  -1.045   5.356  1.00  0.00    -0.101 NA
ATOM     26  S   UNL     1      -0.345  -2.450   6.643  1.00  0.00    -0.070 S 
ATOM     27  C   UNL     1      -2.699  -1.556   6.484  1.00  0.00     0.219 A 
ATOM     28  C   UNL     1      -1.916  -2.337   7.302  1.00  0.00     0.110 A 
ENDBRANCH  19  24
ENDBRANCH   7  12
BRANCH  10  29
ATOM     29  O   UNL     1      -0.337   3.859  -2.272  1.00  0.00    -0.492 OA
ATOM     30  C   UNL     1      -0.428   2.604  -2.940  1.00  0.00     0.278 C 
ENDBRANCH  10  29
BRANCH  11  31
ATOM     31  O   UNL     1       1.830   5.730  -2.438  1.00  0.00    -0.493 OA
ATOM     32  C   UNL     1       1.717   5.080  -3.699  1.00  0.00     0.278 C 
ENDBRANCH  11  31
ENDBRANCH   4   6
ENDBRANCH   3   4
ENDBRANCH   2   3
ENDBRANCH   1   2
BRANCH   1  33
ATOM     33  O   UNL     1      -3.930   2.076  -0.520  1.00  0.00    -0.374 OA
BRANCH  33  34
ATOM     34  C   UNL     1      -3.495   3.435  -0.524  1.00  0.00     0.202 C 
BRANCH  34  35
ATOM     35  C   UNL     1      -4.028   4.398   0.545  1.00  0.00     0.261 C 
BRANCH  35  36
ATOM     36  O   UNL     1      -3.687   4.032   1.896  1.00  0.00    -0.460 OA
BRANCH  36  37
ATOM     37  C   UNL     1      -4.753   3.739   2.682  1.00  0.00     0.338 C 
ATOM     38  O   UNL     1      -5.930   3.736   2.365  1.00  0.00    -0.246 OA
BRANCH  37  39
ATOM     39  C   UNL     1      -4.313   3.268   4.006  1.00  0.00     0.060 A 
ATOM     40  C   UNL     1      -4.734   1.999   4.416  1.00  0.00     0.016 A 
ATOM     41  C   UNL     1      -3.657   4.123   4.894  1.00  0.00     0.016 A 
ATOM     42  C   UNL     1      -4.540   1.600   5.736  1.00  0.00     0.010 A 
ATOM     43  C   UNL     1      -3.477   3.725   6.224  1.00  0.00     0.010 A 
ATOM     44  C   UNL     1      -3.949   2.476   6.658  1.00  0.00    -0.014 A 
BRANCH  44  45
ATOM     45  C   UNL     1      -3.984   2.128   8.100  1.00  0.00     0.031 A 
ATOM     46  C   UNL     1      -5.237   2.402   8.879  1.00  0.00     0.074 A 
ATOM     47  C   UNL     1      -2.933   1.539   8.694  1.00  0.00     0.049 A 
ATOM     48  N   UNL     1      -5.516   2.127  10.127  1.00  0.00    -0.248 NA
ATOM     49  C   UNL     1      -6.316   3.098   8.159  1.00  0.00     0.031 C 
ATOM     50  C   UNL     1      -1.669   1.238   8.037  1.00  0.00     0.029 A 
ATOM     51  N   UNL     1      -2.778   1.046   9.967  1.00  0.00    -0.354 N 
ATOM     52  C   UNL     1      -6.773   2.667  10.359  1.00  0.00     0.074 A 
ATOM     53  C   UNL     1      -7.225   3.244   9.111  1.00  0.00     0.031 C 
ATOM     54  C   UNL     1      -0.895   0.533   8.879  1.00  0.00     0.029 A 
ATOM     55  C   UNL     1      -1.605   0.350  10.141  1.00  0.00     0.049 A 
ATOM     56  H   UNL     1      -3.440   1.179  10.683  1.00  0.00     0.167 HD
ATOM     57  C   UNL     1      -7.463   2.717  11.522  1.00  0.00     0.037 A 
ATOM     58  C   UNL     1      -1.181  -0.382  11.190  1.00  0.00     0.037 A 
ATOM     59  C   UNL     1      -6.998   2.155  12.762  1.00  0.00     0.049 A 
ATOM     60  C   UNL     1      -2.018  -0.404  12.444  1.00  0.00     0.074 A 
ATOM     61  C   UNL     1      -7.590   2.203  14.012  1.00  0.00     0.029 A 
ATOM     62  N   UNL     1      -5.818   1.439  12.906  1.00  0.00    -0.354 N 
ATOM     63  N   UNL     1      -3.200   0.121  12.661  1.00  0.00    -0.248 NA
ATOM     64  C   UNL     1      -1.444  -1.091  13.611  1.00  0.00     0.031 C 
ATOM     65  C   UNL     1      -6.749   1.550  14.919  1.00  0.00     0.029 A 
ATOM     66  C   UNL     1      -5.659   1.050  14.225  1.00  0.00     0.049 A 
ATOM     67  H   UNL     1      -5.188   1.238  12.177  1.00  0.00     0.167 HD
ATOM     68  C   UNL     1      -3.497  -0.145  13.990  1.00  0.00     0.074 A 
ATOM     69  C   UNL     1      -2.404  -0.940  14.512  1.00  0.00     0.031 C 
ATOM     70  C   UNL     1      -4.560   0.265  14.725  1.00  0.00     0.037 A 
BRANCH  57  71
ATOM     71  C   UNL     1      -8.747   3.492  11.523  1.00  0.00     0.064 A 
ATOM     72  C   UNL     1      -9.913   3.006  10.916  1.00  0.00     0.173 A 
ATOM     73  C   UNL     1      -8.803   4.750  12.144  1.00  0.00     0.173 A 
ATOM     74  F   UNL     1      -9.904   1.821  10.289  1.00  0.00    -0.203 F 
ATOM     75  C   UNL     1     -11.083   3.763  10.910  1.00  0.00     0.198 A 
ATOM     76  C   UNL     1      -9.980   5.492  12.158  1.00  0.00     0.198 A 
ATOM     77  F   UNL     1      -7.713   5.261  12.736  1.00  0.00    -0.203 F 
ATOM     78  F   UNL     1     -12.174   3.303  10.281  1.00  0.00    -0.200 F 
ATOM     79  C   UNL     1     -11.117   5.002  11.535  1.00  0.00     0.200 A 
ATOM     80  F   UNL     1     -10.011   6.685  12.769  1.00  0.00    -0.200 F 
ATOM     81  F   UNL     1     -12.243   5.728  11.527  1.00  0.00    -0.200 F 
ENDBRANCH  57  71
BRANCH  58  82
ATOM     82  C   UNL     1       0.057  -1.202  11.095  1.00  0.00     0.064 A 
ATOM     83  C   UNL     1      -0.022  -2.603  11.146  1.00  0.00     0.173 A 
ATOM     84  C   UNL     1       1.330  -0.631  10.965  1.00  0.00     0.173 A 
ATOM     85  F   UNL     1      -1.216  -3.201  11.284  1.00  0.00    -0.203 F 
ATOM     86  C   UNL     1       1.122  -3.397  11.095  1.00  0.00     0.198 A 
ATOM     87  C   UNL     1       2.472  -1.427  10.878  1.00  0.00     0.198 A 
ATOM     88  F   UNL     1       1.466   0.702  10.912  1.00  0.00    -0.203 F 
ATOM     89  F   UNL     1       1.017  -4.728  11.200  1.00  0.00    -0.200 F 
ATOM     90  C   UNL     1       2.369  -2.808  10.954  1.00  0.00     0.200 A 
ATOM     91  F   UNL     1       3.674  -0.854  10.727  1.00  0.00    -0.200 F 
ATOM     92  F   UNL     1       3.470  -3.569  10.901  1.00  0.00    -0.200 F 
ENDBRANCH  58  82
BRANCH  70  93
ATOM     93  C   UNL     1      -4.578  -0.109  16.178  1.00  0.00     0.064 A 
ATOM     94  C   UNL     1      -3.709   0.501  17.096  1.00  0.00     0.173 A 
ATOM     95  C   UNL     1      -5.510  -1.035  16.670  1.00  0.00     0.173 A 
ATOM     96  F   UNL     1      -2.793   1.386  16.672  1.00  0.00    -0.203 F 
ATOM     97  C   UNL     1      -3.758   0.183  18.450  1.00  0.00     0.198 A 
ATOM     98  C   UNL     1      -5.574  -1.331  18.028  1.00  0.00     0.198 A 
ATOM     99  F   UNL     1      -6.367  -1.639  15.834  1.00  0.00    -0.203 F 
ATOM    100  F   UNL     1      -2.893   0.750  19.301  1.00  0.00    -0.200 F 
ATOM    101  C   UNL     1      -4.696  -0.727  18.916  1.00  0.00     0.200 A 
ATOM    102  F   UNL     1      -6.488  -2.200  18.480  1.00  0.00    -0.200 F 
ATOM    103  F   UNL     1      -4.749  -1.025  20.221  1.00  0.00    -0.200 F 
ENDBRANCH  70  93
ENDBRANCH  44  45
ENDBRANCH  37  39
ENDBRANCH  36  37
ENDBRANCH  35  36
ENDBRANCH  34  35
ENDBRANCH  33  34
ENDBRANCH   1  33
TORSDOF 20
