REMARK SMILES Cc1ccc(S(=O)(=O)N2CCN(C(=O)[C@H]3CCCC[C@H]3C(=O)OCCOCCOC(=O)c3ccc(-c4c5nc(c(-c6c(F)c(F)c(F)c(F)c6F)c6ccc([nH]6)c(-c6c(F)c(F)c(F)c(F)c6F)c6nc(c(-c7c(F)c(F)c(F)c(F)c7F)c7ccc4[nH]7)C=C6)C=C5)cc3)CC2)cc1C
REMARK SMILES IDX 25 1 24 2 23 3 21 4 22 5 20 6 15 7 16 8 17 9 19 10 18 11
REMARK SMILES IDX 13 12 9 13 10 14 96 15 11 16 95 17 12 18 14 19 6 20 7 21
REMARK SMILES IDX 8 22 5 23 1 24 2 25 3 26 98 27 4 28 97 29 99 30 26 31 27 32
REMARK SMILES IDX 28 33 29 34 30 35 31 36 32 37 33 38 94 39 34 40 93 41 35 42
REMARK SMILES IDX 36 43 37 44 87 45 38 46 92 47 86 48 88 49 39 50 91 51 85 52
REMARK SMILES IDX 84 53 40 55 72 56 52 57 71 58 53 59 56 60 70 61 89 62 54 63
REMARK SMILES IDX 55 64 69 66 90 67 57 68 41 69 42 70 50 71 43 72 44 73 48 74
REMARK SMILES IDX 51 75 45 76 46 77 49 78 47 79 73 80 74 81 82 82 75 83 76 84
REMARK SMILES IDX 80 85 83 86 77 87 78 88 81 89 79 90 58 91 59 92 67 93 60 94
REMARK SMILES IDX 61 95 65 96 68 97 62 98 63 99 66 100 64 101
REMARK H PARENT 88 54 56 65
REMARK Flexibility Score: inf
ROOT
ATOM      1  C   UNL     1      -1.916   6.860   2.172  1.00  0.00     0.202 C 
ENDROOT
BRANCH   1   2
ATOM      2  C   UNL     1      -2.550   7.438   0.909  1.00  0.00     0.261 C 
BRANCH   2   3
ATOM      3  O   UNL     1      -3.800   6.784   0.614  1.00  0.00    -0.463 OA
BRANCH   3   4
ATOM      4  C   UNL     1      -3.857   6.152  -0.579  1.00  0.00     0.309 C 
ATOM      5  O   UNL     1      -2.932   6.108  -1.386  1.00  0.00    -0.252 OA
BRANCH   4   6
ATOM      6  C   UNL     1      -5.184   5.482  -0.879  1.00  0.00     0.111 C 
ATOM      7  C   UNL     1      -6.092   4.981   0.277  1.00  0.00     0.093 C 
ATOM      8  C   UNL     1      -7.236   4.165  -0.372  1.00  0.00     0.014 C 
ATOM      9  C   UNL     1      -8.014   4.970  -1.413  1.00  0.00     0.001 C 
ATOM     10  C   UNL     1      -5.931   6.302  -1.937  1.00  0.00     0.016 C 
ATOM     11  C   UNL     1      -7.110   5.524  -2.506  1.00  0.00     0.001 C 
BRANCH   7  12
ATOM     12  C   UNL     1      -6.657   6.085   1.188  1.00  0.00     0.226 C 
ATOM     13  N   UNL     1      -9.387   5.261   4.287  1.00  0.00    -0.194 NA
ATOM     14  C   UNL     1      -9.176   6.623   3.752  1.00  0.00     0.124 C 
ATOM     15  C   UNL     1      -8.941   4.163   3.403  1.00  0.00     0.124 C 
ATOM     16  C   UNL     1      -7.729   6.802   3.281  1.00  0.00     0.136 C 
ATOM     17  C   UNL     1      -7.487   4.382   2.923  1.00  0.00     0.136 C 
ATOM     18  N   UNL     1      -7.287   5.731   2.376  1.00  0.00    -0.340 N 
ATOM     19  O   UNL     1      -6.558   7.270   0.867  1.00  0.00    -0.275 OA
BRANCH  13  20
ATOM     20  S   UNL     1      -9.947   4.999   5.848  1.00  0.00     0.243 S 
ATOM     21  O   UNL     1     -10.529   3.672   5.904  1.00  0.00    -0.207 OA
ATOM     22  O   UNL     1     -10.690   6.170   6.249  1.00  0.00    -0.207 OA
BRANCH  20  23
ATOM     23  C   UNL     1      -8.480   4.938   6.859  1.00  0.00     0.082 A 
ATOM     24  C   UNL     1      -4.886   4.762   9.240  1.00  0.00     0.044 C 
ATOM     25  C   UNL     1      -6.170   4.838   8.460  1.00  0.00    -0.048 A 
ATOM     26  C   UNL     1      -6.265   4.084   7.280  1.00  0.00     0.005 A 
ATOM     27  C   UNL     1      -7.293   5.572   8.892  1.00  0.00    -0.047 A 
ATOM     28  C   UNL     1      -7.423   4.107   6.505  1.00  0.00     0.022 A 
ATOM     29  C   UNL     1      -8.428   5.654   8.059  1.00  0.00     0.025 A 
ATOM     30  C   UNL     1      -7.390   6.189  10.262  1.00  0.00     0.044 C 
ENDBRANCH  20  23
ENDBRANCH  13  20
ENDBRANCH   7  12
ENDBRANCH   4   6
ENDBRANCH   3   4
ENDBRANCH   2   3
ENDBRANCH   1   2
BRANCH   1  31
ATOM     31  O   UNL     1      -1.439   5.518   2.073  1.00  0.00    -0.374 OA
BRANCH  31  32
ATOM     32  C   UNL     1      -2.412   4.476   2.091  1.00  0.00     0.202 C 
BRANCH  32  33
ATOM     33  C   UNL     1      -2.927   4.064   3.475  1.00  0.00     0.261 C 
BRANCH  33  34
ATOM     34  O   UNL     1      -3.593   5.141   4.157  1.00  0.00    -0.460 OA
BRANCH  34  35
ATOM     35  C   UNL     1      -2.870   5.698   5.161  1.00  0.00     0.338 C 
ATOM     36  O   UNL     1      -1.799   5.310   5.598  1.00  0.00    -0.246 OA
BRANCH  35  37
ATOM     37  C   UNL     1      -3.491   6.961   5.613  1.00  0.00     0.060 A 
ATOM     38  C   UNL     1      -2.645   8.037   5.901  1.00  0.00     0.016 A 
ATOM     39  C   UNL     1      -4.865   7.077   5.822  1.00  0.00     0.016 A 
ATOM     40  C   UNL     1      -3.167   9.200   6.463  1.00  0.00     0.010 A 
ATOM     41  C   UNL     1      -5.393   8.244   6.383  1.00  0.00     0.010 A 
ATOM     42  C   UNL     1      -4.537   9.294   6.748  1.00  0.00    -0.014 A 
BRANCH  42  43
ATOM     43  C   UNL     1      -5.022  10.438   7.556  1.00  0.00     0.031 A 
ATOM     44  C   UNL     1      -5.214  10.265   9.036  1.00  0.00     0.074 A 
ATOM     45  C   UNL     1      -5.217  11.637   6.984  1.00  0.00     0.049 A 
ATOM     46  N   UNL     1      -5.494  11.156   9.954  1.00  0.00    -0.248 NA
ATOM     47  C   UNL     1      -5.069   8.898   9.554  1.00  0.00     0.031 C 
ATOM     48  C   UNL     1      -5.074  11.925   5.559  1.00  0.00     0.029 A 
ATOM     49  N   UNL     1      -5.562  12.841   7.543  1.00  0.00    -0.354 N 
ATOM     50  C   UNL     1      -5.556  10.457  11.153  1.00  0.00     0.074 A 
ATOM     51  C   UNL     1      -5.317   9.066  10.844  1.00  0.00     0.031 C 
ATOM     52  C   UNL     1      -5.311  13.231   5.355  1.00  0.00     0.029 A 
ATOM     53  C   UNL     1      -5.626  13.867   6.634  1.00  0.00     0.049 A 
ATOM     54  H   UNL     1      -5.746  12.958   8.503  1.00  0.00     0.167 HD
ATOM     55  C   UNL     1      -5.778  10.933  12.402  1.00  0.00     0.037 A 
ATOM     56  C   UNL     1      -5.890  15.173   6.821  1.00  0.00     0.037 A 
ATOM     57  C   UNL     1      -5.999  12.323  12.704  1.00  0.00     0.049 A 
ATOM     58  C   UNL     1      -6.107  15.688   8.220  1.00  0.00     0.074 A 
ATOM     59  C   UNL     1      -6.194  12.921  13.937  1.00  0.00     0.029 A 
ATOM     60  N   UNL     1      -6.056  13.333  11.755  1.00  0.00    -0.354 N 
ATOM     61  N   UNL     1      -6.103  15.032   9.355  1.00  0.00    -0.248 NA
ATOM     62  C   UNL     1      -6.338  17.131   8.363  1.00  0.00     0.031 C 
ATOM     63  C   UNL     1      -6.410  14.288  13.729  1.00  0.00     0.029 A 
ATOM     64  C   UNL     1      -6.296  14.549  12.373  1.00  0.00     0.049 A 
ATOM     65  H   UNL     1      -5.942  13.205  10.786  1.00  0.00     0.167 HD
ATOM     66  C   UNL     1      -6.300  15.983  10.348  1.00  0.00     0.074 A 
ATOM     67  C   UNL     1      -6.402  17.265   9.680  1.00  0.00     0.031 C 
ATOM     68  C   UNL     1      -6.389  15.814  11.691  1.00  0.00     0.037 A 
BRANCH  55  69
ATOM     69  C   UNL     1      -5.804   9.945  13.534  1.00  0.00     0.064 A 
ATOM     70  C   UNL     1      -4.642   9.290  13.971  1.00  0.00     0.173 A 
ATOM     71  C   UNL     1      -7.001   9.675  14.216  1.00  0.00     0.173 A 
ATOM     72  F   UNL     1      -3.474   9.497  13.344  1.00  0.00    -0.203 F 
ATOM     73  C   UNL     1      -4.682   8.386  15.030  1.00  0.00     0.198 A 
ATOM     74  C   UNL     1      -7.031   8.795  15.295  1.00  0.00     0.198 A 
ATOM     75  F   UNL     1      -8.142  10.273  13.841  1.00  0.00    -0.203 F 
ATOM     76  F   UNL     1      -3.569   7.736  15.396  1.00  0.00    -0.200 F 
ATOM     77  C   UNL     1      -5.874   8.146  15.696  1.00  0.00     0.200 A 
ATOM     78  F   UNL     1      -8.182   8.572  15.944  1.00  0.00    -0.200 F 
ATOM     79  F   UNL     1      -5.909   7.282  16.720  1.00  0.00    -0.200 F 
ENDBRANCH  55  69
BRANCH  56  80
ATOM     80  C   UNL     1      -5.909  16.092   5.654  1.00  0.00     0.064 A 
ATOM     81  C   UNL     1      -4.899  17.045   5.466  1.00  0.00     0.173 A 
ATOM     82  C   UNL     1      -6.933  16.027   4.699  1.00  0.00     0.173 A 
ATOM     83  F   UNL     1      -3.908  17.156   6.364  1.00  0.00    -0.203 F 
ATOM     84  C   UNL     1      -4.921  17.911   4.376  1.00  0.00     0.198 A 
ATOM     85  C   UNL     1      -6.940  16.875   3.594  1.00  0.00     0.198 A 
ATOM     86  F   UNL     1      -7.920  15.129   4.832  1.00  0.00    -0.203 F 
ATOM     87  F   UNL     1      -3.965  18.840   4.241  1.00  0.00    -0.200 F 
ATOM     88  C   UNL     1      -5.938  17.821   3.437  1.00  0.00     0.200 A 
ATOM     89  F   UNL     1      -7.916  16.776   2.682  1.00  0.00    -0.200 F 
ATOM     90  F   UNL     1      -5.955  18.649   2.384  1.00  0.00    -0.200 F 
ENDBRANCH  56  80
BRANCH  68  91
ATOM     91  C   UNL     1      -6.571  17.048  12.526  1.00  0.00     0.064 A 
ATOM     92  C   UNL     1      -7.775  17.768  12.528  1.00  0.00     0.173 A 
ATOM     93  C   UNL     1      -5.531  17.505  13.351  1.00  0.00     0.173 A 
ATOM     94  F   UNL     1      -8.795  17.378  11.749  1.00  0.00    -0.203 F 
ATOM     95  C   UNL     1      -7.918  18.921  13.295  1.00  0.00     0.198 A 
ATOM     96  C   UNL     1      -5.689  18.640  14.140  1.00  0.00     0.198 A 
ATOM     97  F   UNL     1      -4.363  16.846  13.395  1.00  0.00    -0.203 F 
ATOM     98  F   UNL     1      -9.056  19.625  13.235  1.00  0.00    -0.200 F 
ATOM     99  C   UNL     1      -6.877  19.354  14.103  1.00  0.00     0.200 A 
ATOM    100  F   UNL     1      -4.687  19.049  14.932  1.00  0.00    -0.200 F 
ATOM    101  F   UNL     1      -7.016  20.465  14.839  1.00  0.00    -0.200 F 
ENDBRANCH  68  91
ENDBRANCH  42  43
ENDBRANCH  35  37
ENDBRANCH  34  35
ENDBRANCH  33  34
ENDBRANCH  32  33
ENDBRANCH  31  32
ENDBRANCH   1  31
TORSDOF 17
