REMARK SMILES CC[C@@]1(CO)CCCN(c2nc(-c3ccc(C)s3)ccc2C(=O)OCCOCCOC(=O)c2ccc(-c3c4nc(c(-c5c(F)c(F)c(F)c(F)c5F)c5ccc([nH]5)c(-c5c(F)c(F)c(F)c(F)c5F)c5nc(c(-c6c(F)c(F)c(F)c(F)c6F)c6ccc3[nH]6)C=C5)C=C4)cc2)C1
REMARK SMILES IDX 26 1 25 2 24 3 22 4 23 5 21 6 10 7 11 8 12 9 20 10 19 11
REMARK SMILES IDX 9 12 3 13 6 14 96 15 7 16 8 17 2 18 1 19 4 20 5 21 13 23
REMARK SMILES IDX 14 24 18 25 15 26 16 27 17 28 27 29 28 30 29 31 30 32 31 33
REMARK SMILES IDX 32 34 33 35 34 36 95 37 35 38 94 39 36 40 37 41 38 42 88 43
REMARK SMILES IDX 39 44 93 45 87 46 89 47 40 48 92 49 86 50 85 51 41 53 73 54
REMARK SMILES IDX 53 55 72 56 54 57 57 58 71 59 90 60 55 61 56 62 70 64 91 65
REMARK SMILES IDX 58 66 42 67 43 68 51 69 44 70 45 71 49 72 52 73 46 74 47 75
REMARK SMILES IDX 50 76 48 77 74 78 75 79 83 80 76 81 77 82 81 83 84 84 78 85
REMARK SMILES IDX 79 86 82 87 80 88 59 89 60 90 68 91 61 92 62 93 66 94 69 95
REMARK SMILES IDX 63 96 64 97 67 98 65 99
REMARK H PARENT 5 22 89 52 57 63
REMARK Flexibility Score: inf
ROOT
ATOM      1  C   UNL     1       0.126   9.598   0.205  1.00  0.00     0.202 C 
ENDROOT
BRANCH   1   2
ATOM      2  C   UNL     1      -0.893   8.867  -0.671  1.00  0.00     0.261 C 
BRANCH   2   3
ATOM      3  O   UNL     1      -1.559   7.842   0.089  1.00  0.00    -0.460 OA
BRANCH   3   4
ATOM      4  C   UNL     1      -1.478   6.588  -0.426  1.00  0.00     0.341 C 
ATOM      5  O   UNL     1      -1.010   6.288  -1.511  1.00  0.00    -0.246 OA
BRANCH   4   6
ATOM      6  C   UNL     1      -2.022   5.622   0.551  1.00  0.00     0.102 A 
ATOM      7  C   UNL     1      -1.444   4.359   0.724  1.00  0.00     0.143 A 
ATOM      8  N   UNL     1      -2.095   3.390   1.411  1.00  0.00    -0.229 NA
ATOM      9  C   UNL     1      -3.290   3.674   1.976  1.00  0.00     0.083 A 
ATOM     10  C   UNL     1      -3.216   5.929   1.217  1.00  0.00     0.022 A 
ATOM     11  C   UNL     1      -3.860   4.938   1.947  1.00  0.00     0.031 A 
BRANCH   7  12
ATOM     12  N   UNL     1      -0.218   3.979   0.242  1.00  0.00    -0.355 N 
ATOM     13  C   UNL     1       0.806   2.090  -0.925  1.00  0.00     0.011 C 
ATOM     14  C   UNL     1       2.185   2.617  -0.426  1.00  0.00     0.013 C 
ATOM     15  C   UNL     1      -0.175   3.279  -1.029  1.00  0.00     0.127 C 
ATOM     16  C   UNL     1       2.091   3.462   0.847  1.00  0.00     0.022 C 
ATOM     17  C   UNL     1       1.019   4.543   0.737  1.00  0.00     0.118 C 
BRANCH  13  18
ATOM     18  C   UNL     1       1.030   1.471  -2.334  1.00  0.00     0.008 C 
ATOM     19  C   UNL     1      -0.191   0.794  -2.946  1.00  0.00     0.004 C 
ENDBRANCH  13  18
BRANCH  13  20
ATOM     20  C   UNL     1       0.218   1.057   0.067  1.00  0.00     0.164 C 
BRANCH  20  21
ATOM     21  O   UNL     1       0.897  -0.192  -0.040  1.00  0.00    -0.396 OA
ATOM     22  H   UNL     1       0.794  -0.540  -0.939  1.00  0.00     0.210 HD
ENDBRANCH  20  21
ENDBRANCH  13  20
ENDBRANCH   7  12
BRANCH   9  23
ATOM     23  C   UNL     1      -4.038   2.525   2.477  1.00  0.00     0.053 A 
ATOM     24  C   UNL     1      -5.308   2.119   2.111  1.00  0.00     0.022 A 
ATOM     25  S   UNL     1      -3.361   1.469   3.641  1.00  0.00    -0.139 S 
ATOM     26  C   UNL     1      -5.724   0.942   2.793  1.00  0.00     0.016 A 
ATOM     27  C   UNL     1      -4.763   0.485   3.669  1.00  0.00     0.002 A 
ATOM     28  C   UNL     1      -4.825  -0.702   4.566  1.00  0.00     0.056 C 
ENDBRANCH   9  23
ENDBRANCH   4   6
ENDBRANCH   3   4
ENDBRANCH   2   3
ENDBRANCH   1   2
BRANCH   1  29
ATOM     29  O   UNL     1       1.324   8.902   0.556  1.00  0.00    -0.374 OA
BRANCH  29  30
ATOM     30  C   UNL     1       1.205   7.764   1.399  1.00  0.00     0.202 C 
BRANCH  30  31
ATOM     31  C   UNL     1       1.053   7.959   2.912  1.00  0.00     0.261 C 
BRANCH  31  32
ATOM     32  O   UNL     1       0.229   9.067   3.257  1.00  0.00    -0.460 OA
BRANCH  32  33
ATOM     33  C   UNL     1       0.924  10.220   3.383  1.00  0.00     0.338 C 
ATOM     34  O   UNL     1       2.135  10.378   3.340  1.00  0.00    -0.246 OA
BRANCH  33  35
ATOM     35  C   UNL     1      -0.030  11.332   3.410  1.00  0.00     0.060 A 
ATOM     36  C   UNL     1       0.140  12.351   2.468  1.00  0.00     0.016 A 
ATOM     37  C   UNL     1      -1.065  11.373   4.347  1.00  0.00     0.016 A 
ATOM     38  C   UNL     1      -0.705  13.451   2.489  1.00  0.00     0.010 A 
ATOM     39  C   UNL     1      -1.907  12.481   4.373  1.00  0.00     0.010 A 
ATOM     40  C   UNL     1      -1.704  13.537   3.467  1.00  0.00    -0.014 A 
BRANCH  40  41
ATOM     41  C   UNL     1      -2.438  14.806   3.633  1.00  0.00     0.031 A 
ATOM     42  C   UNL     1      -2.022  15.738   4.733  1.00  0.00     0.074 A 
ATOM     43  C   UNL     1      -3.433  15.127   2.790  1.00  0.00     0.049 A 
ATOM     44  N   UNL     1      -2.525  16.895   5.074  1.00  0.00    -0.248 NA
ATOM     45  C   UNL     1      -0.887  15.303   5.564  1.00  0.00     0.031 C 
ATOM     46  C   UNL     1      -3.887  14.302   1.672  1.00  0.00     0.029 A 
ATOM     47  N   UNL     1      -4.240  16.232   2.747  1.00  0.00    -0.354 N 
ATOM     48  C   UNL     1      -1.773  17.323   6.160  1.00  0.00     0.074 A 
ATOM     49  C   UNL     1      -0.806  16.287   6.447  1.00  0.00     0.031 C 
ATOM     50  C   UNL     1      -4.900  14.931   1.053  1.00  0.00     0.029 A 
ATOM     51  C   UNL     1      -5.183  16.181   1.753  1.00  0.00     0.049 A 
ATOM     52  H   UNL     1      -4.152  16.990   3.370  1.00  0.00     0.167 HD
ATOM     53  C   UNL     1      -1.878  18.485   6.846  1.00  0.00     0.037 A 
ATOM     54  C   UNL     1      -6.174  17.044   1.461  1.00  0.00     0.037 A 
ATOM     55  C   UNL     1      -2.849  19.505   6.548  1.00  0.00     0.049 A 
ATOM     56  C   UNL     1      -6.312  18.298   2.282  1.00  0.00     0.074 A 
ATOM     57  C   UNL     1      -3.031  20.730   7.162  1.00  0.00     0.029 A 
ATOM     58  N   UNL     1      -3.814  19.407   5.554  1.00  0.00    -0.354 N 
ATOM     59  N   UNL     1      -5.578  18.717   3.286  1.00  0.00    -0.248 NA
ATOM     60  C   UNL     1      -7.412  19.203   1.926  1.00  0.00     0.031 C 
ATOM     61  C   UNL     1      -4.145  21.346   6.583  1.00  0.00     0.029 A 
ATOM     62  C   UNL     1      -4.616  20.537   5.561  1.00  0.00     0.049 A 
ATOM     63  H   UNL     1      -3.913  18.648   4.936  1.00  0.00     0.167 HD
ATOM     64  C   UNL     1      -6.108  19.944   3.663  1.00  0.00     0.074 A 
ATOM     65  C   UNL     1      -7.216  20.208   2.768  1.00  0.00     0.031 C 
ATOM     66  C   UNL     1      -5.715  20.778   4.659  1.00  0.00     0.037 A 
BRANCH  53  67
ATOM     67  C   UNL     1      -0.944  18.695   8.003  1.00  0.00     0.064 A 
ATOM     68  C   UNL     1       0.434  18.887   7.820  1.00  0.00     0.173 A 
ATOM     69  C   UNL     1      -1.439  18.721   9.316  1.00  0.00     0.173 A 
ATOM     70  F   UNL     1       0.964  18.855   6.588  1.00  0.00    -0.203 F 
ATOM     71  C   UNL     1       1.285  19.067   8.909  1.00  0.00     0.198 A 
ATOM     72  C   UNL     1      -0.591  18.936  10.399  1.00  0.00     0.198 A 
ATOM     73  F   UNL     1      -2.748  18.543   9.549  1.00  0.00    -0.203 F 
ATOM     74  F   UNL     1       2.604  19.193   8.713  1.00  0.00    -0.200 F 
ATOM     75  C   UNL     1       0.770  19.099  10.196  1.00  0.00     0.200 A 
ATOM     76  F   UNL     1      -1.093  18.979  11.642  1.00  0.00    -0.200 F 
ATOM     77  F   UNL     1       1.588  19.279  11.243  1.00  0.00    -0.200 F 
ENDBRANCH  53  67
BRANCH  54  78
ATOM     78  C   UNL     1      -7.111  16.744   0.347  1.00  0.00     0.064 A 
ATOM     79  C   UNL     1      -7.127  17.523  -0.817  1.00  0.00     0.173 A 
ATOM     80  C   UNL     1      -8.010  15.669   0.424  1.00  0.00     0.173 A 
ATOM     81  F   UNL     1      -6.301  18.574  -0.931  1.00  0.00    -0.203 F 
ATOM     82  C   UNL     1      -8.018  17.252  -1.853  1.00  0.00     0.198 A 
ATOM     83  C   UNL     1      -8.878  15.379  -0.626  1.00  0.00     0.198 A 
ATOM     84  F   UNL     1      -8.033  14.888   1.514  1.00  0.00    -0.203 F 
ATOM     85  F   UNL     1      -8.043  18.041  -2.936  1.00  0.00    -0.200 F 
ATOM     86  C   UNL     1      -8.888  16.175  -1.760  1.00  0.00     0.200 A 
ATOM     87  F   UNL     1      -9.704  14.327  -0.538  1.00  0.00    -0.200 F 
ATOM     88  F   UNL     1      -9.739  15.909  -2.760  1.00  0.00    -0.200 F 
ENDBRANCH  54  78
BRANCH  66  89
ATOM     89  C   UNL     1      -6.468  22.070   4.809  1.00  0.00     0.064 A 
ATOM     90  C   UNL     1      -7.790  22.105   5.275  1.00  0.00     0.173 A 
ATOM     91  C   UNL     1      -5.842  23.292   4.518  1.00  0.00     0.173 A 
ATOM     92  F   UNL     1      -8.439  20.964   5.555  1.00  0.00    -0.203 F 
ATOM     93  C   UNL     1      -8.469  23.313   5.412  1.00  0.00     0.198 A 
ATOM     94  C   UNL     1      -6.511  24.500   4.691  1.00  0.00     0.198 A 
ATOM     95  F   UNL     1      -4.575  23.316   4.078  1.00  0.00    -0.203 F 
ATOM     96  F   UNL     1      -9.751  23.319   5.803  1.00  0.00    -0.200 F 
ATOM     97  C   UNL     1      -7.827  24.509   5.128  1.00  0.00     0.200 A 
ATOM     98  F   UNL     1      -5.882  25.655   4.433  1.00  0.00    -0.200 F 
ATOM     99  F   UNL     1      -8.479  25.671   5.267  1.00  0.00    -0.200 F 
ENDBRANCH  66  89
ENDBRANCH  40  41
ENDBRANCH  33  35
ENDBRANCH  32  33
ENDBRANCH  31  32
ENDBRANCH  30  31
ENDBRANCH  29  30
ENDBRANCH   1  29
TORSDOF 19
