REMARK SMILES Nc1nc(N2CCOC[C@H]2C(=O)OCCOCCOC(=O)c2ccc(-c3c4nc(c(-c5c(F)c(F)c(F)c(F)c5F)c5ccc([nH]5)c(-c5c(F)c(F)c(F)c(F)c5F)c5nc(c(-c6c(F)c(F)c(F)c(F)c6F)c6ccc3[nH]6)C=C5)C=C4)cc2)ccc1[N+](=O)[O-]
REMARK SMILES IDX 16 1 15 2 14 3 13 4 11 5 12 6 10 7 5 8 6 9 7 10 9 11 8 12
REMARK SMILES IDX 4 13 2 14 3 15 87 16 86 17 85 18 1 19 88 22 89 23 90 24
REMARK SMILES IDX 17 25 18 26 19 27 20 28 21 29 22 30 23 31 84 32 24 33 83 34
REMARK SMILES IDX 25 35 26 36 27 37 77 38 28 39 82 40 76 41 78 42 29 43 81 44
REMARK SMILES IDX 75 45 74 46 30 48 62 49 42 50 61 51 43 52 46 53 60 54 79 55
REMARK SMILES IDX 44 56 45 57 59 59 80 60 47 61 31 62 32 63 40 64 33 65 34 66
REMARK SMILES IDX 38 67 41 68 35 69 36 70 39 71 37 72 63 73 64 74 72 75 65 76
REMARK SMILES IDX 66 77 70 78 73 79 67 80 68 81 71 82 69 83 48 84 49 85 57 86
REMARK SMILES IDX 50 87 51 88 55 89 58 90 52 91 53 92 56 93 54 94
REMARK H PARENT 1 20 1 21 78 47 46 58
REMARK Flexibility Score: inf
ROOT
ATOM      1  O   UNL     1       1.835   5.361   1.584  1.00  0.00    -0.374 OA
ENDROOT
BRANCH   1   2
ATOM      2  C   UNL     1       0.753   6.022   2.240  1.00  0.00     0.202 C 
BRANCH   2   3
ATOM      3  C   UNL     1      -0.416   6.421   1.337  1.00  0.00     0.261 C 
BRANCH   3   4
ATOM      4  O   UNL     1      -1.148   5.256   0.921  1.00  0.00    -0.462 OA
BRANCH   4   5
ATOM      5  C   UNL     1      -1.199   5.010  -0.416  1.00  0.00     0.331 C 
ATOM      6  O   UNL     1      -0.789   5.785  -1.276  1.00  0.00    -0.250 OA
BRANCH   5   7
ATOM      7  C   UNL     1      -1.868   3.679  -0.772  1.00  0.00     0.220 C 
ATOM      8  N   UNL     1      -1.890   2.644   0.295  1.00  0.00    -0.339 N 
ATOM      9  C   UNL     1      -2.873   2.812   1.367  1.00  0.00     0.147 C 
ATOM     10  C   UNL     1      -4.250   3.136   0.781  1.00  0.00     0.181 C 
ATOM     11  C   UNL     1      -3.308   4.000  -1.217  1.00  0.00     0.197 C 
ATOM     12  O   UNL     1      -4.190   4.261  -0.107  1.00  0.00    -0.377 OA
BRANCH   8  13
ATOM     13  C   UNL     1      -1.299   1.425   0.050  1.00  0.00     0.132 A 
ATOM     14  C   UNL     1       0.675   0.212  -0.331  1.00  0.00     0.204 A 
ATOM     15  N   UNL     1       0.022   1.400  -0.242  1.00  0.00    -0.207 NA
ATOM     16  C   UNL     1      -0.000  -0.998  -0.197  1.00  0.00     0.311 A 
ATOM     17  C   UNL     1      -1.379  -0.986   0.009  1.00  0.00     0.093 A 
ATOM     18  C   UNL     1      -2.025   0.239   0.138  1.00  0.00     0.054 A 
BRANCH  14  19
ATOM     19  N   UNL     1       2.018   0.324  -0.630  1.00  0.00    -0.378 N 
ATOM     20  H   UNL     1       2.432   1.214  -0.709  1.00  0.00     0.158 HD
ATOM     21  H   UNL     1       2.561  -0.486  -0.763  1.00  0.00     0.158 HD
ENDBRANCH  14  19
BRANCH  16  22
ATOM     22  N   UNL     1       0.698  -2.279  -0.214  1.00  0.00     0.066 N 
ATOM     23  O   UNL     1       0.015  -3.299  -0.391  1.00  0.00    -0.258 OA
ATOM     24  O   UNL     1       1.920  -2.290   0.002  1.00  0.00    -0.258 OA
ENDBRANCH  16  22
ENDBRANCH   8  13
ENDBRANCH   5   7
ENDBRANCH   4   5
ENDBRANCH   3   4
ENDBRANCH   2   3
ENDBRANCH   1   2
BRANCH   1  25
ATOM     25  C   UNL     1       1.640   3.990   1.232  1.00  0.00     0.202 C 
BRANCH  25  26
ATOM     26  C   UNL     1       1.854   2.985   2.366  1.00  0.00     0.261 C 
BRANCH  26  27
ATOM     27  O   UNL     1       0.850   3.108   3.390  1.00  0.00    -0.460 OA
BRANCH  27  28
ATOM     28  C   UNL     1       1.313   3.540   4.582  1.00  0.00     0.338 C 
ATOM     29  O   UNL     1       2.475   3.747   4.902  1.00  0.00    -0.246 OA
BRANCH  28  30
ATOM     30  C   UNL     1       0.189   3.887   5.470  1.00  0.00     0.060 A 
ATOM     31  C   UNL     1       0.254   5.120   6.129  1.00  0.00     0.016 A 
ATOM     32  C   UNL     1      -0.853   2.993   5.732  1.00  0.00     0.016 A 
ATOM     33  C   UNL     1      -0.684   5.435   7.107  1.00  0.00     0.010 A 
ATOM     34  C   UNL     1      -1.793   3.310   6.718  1.00  0.00     0.010 A 
ATOM     35  C   UNL     1      -1.684   4.513   7.440  1.00  0.00    -0.014 A 
BRANCH  35  36
ATOM     36  C   UNL     1      -2.500   4.748   8.654  1.00  0.00     0.031 A 
ATOM     37  C   UNL     1      -2.106   4.071   9.938  1.00  0.00     0.074 A 
ATOM     38  C   UNL     1      -3.534   5.605   8.630  1.00  0.00     0.049 A 
ATOM     39  N   UNL     1      -2.648   4.159  11.126  1.00  0.00    -0.248 NA
ATOM     40  C   UNL     1      -0.941   3.174   9.873  1.00  0.00     0.031 C 
ATOM     41  C   UNL     1      -3.980   6.355   7.458  1.00  0.00     0.029 A 
ATOM     42  N   UNL     1      -4.389   5.997   9.629  1.00  0.00    -0.354 N 
ATOM     43  C   UNL     1      -1.888   3.338  11.949  1.00  0.00     0.074 A 
ATOM     44  C   UNL     1      -0.873   2.727  11.118  1.00  0.00     0.031 C 
ATOM     45  C   UNL     1      -5.025   7.124   7.806  1.00  0.00     0.029 A 
ATOM     46  C   UNL     1      -5.335   6.902   9.217  1.00  0.00     0.049 A 
ATOM     47  H   UNL     1      -4.330   5.660  10.552  1.00  0.00     0.167 HD
ATOM     48  C   UNL     1      -2.014   3.125  13.280  1.00  0.00     0.037 A 
ATOM     49  C   UNL     1      -6.338   7.480   9.905  1.00  0.00     0.037 A 
ATOM     50  C   UNL     1      -3.027   3.729  14.105  1.00  0.00     0.049 A 
ATOM     51  C   UNL     1      -6.510   7.162  11.367  1.00  0.00     0.074 A 
ATOM     52  C   UNL     1      -3.239   3.581  15.464  1.00  0.00     0.029 A 
ATOM     53  N   UNL     1      -4.005   4.596  13.640  1.00  0.00    -0.354 N 
ATOM     54  N   UNL     1      -5.777   6.399  12.141  1.00  0.00    -0.248 NA
ATOM     55  C   UNL     1      -7.649   7.790  12.051  1.00  0.00     0.031 C 
ATOM     56  C   UNL     1      -4.373   4.324  15.813  1.00  0.00     0.029 A 
ATOM     57  C   UNL     1      -4.839   4.972  14.680  1.00  0.00     0.049 A 
ATOM     58  H   UNL     1      -4.093   4.900  12.707  1.00  0.00     0.167 HD
ATOM     59  C   UNL     1      -6.346   6.476  13.405  1.00  0.00     0.074 A 
ATOM     60  C   UNL     1      -7.481   7.369  13.297  1.00  0.00     0.031 C 
ATOM     61  C   UNL     1      -5.962   5.865  14.554  1.00  0.00     0.037 A 
BRANCH  48  62
ATOM     62  C   UNL     1      -1.041   2.178  13.919  1.00  0.00     0.064 A 
ATOM     63  C   UNL     1       0.307   2.522  14.104  1.00  0.00     0.173 A 
ATOM     64  C   UNL     1      -1.462   0.914  14.359  1.00  0.00     0.173 A 
ATOM     65  F   UNL     1       0.763   3.712  13.686  1.00  0.00    -0.203 F 
ATOM     66  C   UNL     1       1.204   1.623  14.677  1.00  0.00     0.198 A 
ATOM     67  C   UNL     1      -0.569   0.029  14.956  1.00  0.00     0.198 A 
ATOM     68  F   UNL     1      -2.740   0.537  14.207  1.00  0.00    -0.203 F 
ATOM     69  F   UNL     1       2.497   1.953  14.796  1.00  0.00    -0.200 F 
ATOM     70  C   UNL     1       0.764   0.380  15.107  1.00  0.00     0.200 A 
ATOM     71  F   UNL     1      -0.997  -1.169  15.379  1.00  0.00    -0.200 F 
ATOM     72  F   UNL     1       1.628  -0.484  15.657  1.00  0.00    -0.200 F 
ENDBRANCH  48  62
BRANCH  49  73
ATOM     73  C   UNL     1      -7.253   8.428   9.220  1.00  0.00     0.064 A 
ATOM     74  C   UNL     1      -7.229   9.796   9.519  1.00  0.00     0.173 A 
ATOM     75  C   UNL     1      -8.172   7.984   8.258  1.00  0.00     0.173 A 
ATOM     76  F   UNL     1      -6.385  10.263  10.451  1.00  0.00    -0.203 F 
ATOM     77  C   UNL     1      -8.096  10.686   8.887  1.00  0.00     0.198 A 
ATOM     78  C   UNL     1      -9.022   8.878   7.610  1.00  0.00     0.198 A 
ATOM     79  F   UNL     1      -8.236   6.683   7.940  1.00  0.00    -0.203 F 
ATOM     80  F   UNL     1      -8.078  11.984   9.218  1.00  0.00    -0.200 F 
ATOM     81  C   UNL     1      -8.987  10.227   7.929  1.00  0.00     0.200 A 
ATOM     82  F   UNL     1      -9.875   8.431   6.677  1.00  0.00    -0.200 F 
ATOM     83  F   UNL     1      -9.818  11.083   7.318  1.00  0.00    -0.200 F 
ENDBRANCH  49  73
BRANCH  61  84
ATOM     84  C   UNL     1      -6.758   6.167  15.790  1.00  0.00     0.064 A 
ATOM     85  C   UNL     1      -8.047   5.648  15.980  1.00  0.00     0.173 A 
ATOM     86  C   UNL     1      -6.208   6.954  16.813  1.00  0.00     0.173 A 
ATOM     87  F   UNL     1      -8.621   4.902  15.024  1.00  0.00    -0.203 F 
ATOM     88  C   UNL     1      -8.766   5.927  17.139  1.00  0.00     0.198 A 
ATOM     89  C   UNL     1      -6.920   7.209  17.982  1.00  0.00     0.198 A 
ATOM     90  F   UNL     1      -4.976   7.468  16.683  1.00  0.00    -0.203 F 
ATOM     91  F   UNL     1     -10.014   5.459  17.279  1.00  0.00    -0.200 F 
ATOM     92  C   UNL     1      -8.200   6.702  18.141  1.00  0.00     0.200 A 
ATOM     93  F   UNL     1      -6.367   7.947  18.954  1.00  0.00    -0.200 F 
ATOM     94  F   UNL     1      -8.893   6.965  19.257  1.00  0.00    -0.200 F 
ENDBRANCH  61  84
ENDBRANCH  35  36
ENDBRANCH  28  30
ENDBRANCH  27  28
ENDBRANCH  26  27
ENDBRANCH  25  26
ENDBRANCH   1  25
TORSDOF 17
