REMARK SMILES CSc1nc(N)cc(Nc2cccc(C(=O)OCCOCCOC(=O)c3ccc(-c4c5nc(c(-c6c(F)c(F)c(F)c(F)c6F)c6ccc([nH]6)c(-c6c(F)c(F)c(F)c(F)c6F)c6nc(c(-c7c(F)c(F)c(F)c(F)c7F)c7ccc4[nH]7)C=C6)C=C5)cc3)c2)n1
REMARK SMILES IDX 19 1 18 2 17 3 15 4 16 5 14 6 10 7 11 8 89 9 12 10 13 11
REMARK SMILES IDX 9 12 8 14 3 15 4 16 90 17 5 18 7 19 2 20 1 21 6 22 20 25
REMARK SMILES IDX 21 26 22 27 23 28 24 29 25 30 26 31 27 32 88 33 28 34 87 35
REMARK SMILES IDX 29 36 30 37 31 38 81 39 32 40 86 41 80 42 82 43 33 44 85 45
REMARK SMILES IDX 79 46 78 47 34 49 66 50 46 51 65 52 47 53 50 54 64 55 83 56
REMARK SMILES IDX 48 57 49 58 63 60 84 61 51 62 35 63 36 64 44 65 37 66 38 67
REMARK SMILES IDX 42 68 45 69 39 70 40 71 43 72 41 73 67 74 68 75 76 76 69 77
REMARK SMILES IDX 70 78 74 79 77 80 71 81 72 82 75 83 73 84 52 85 53 86 61 87
REMARK SMILES IDX 54 88 55 89 59 90 62 91 56 92 57 93 60 94 58 95
REMARK H PARENT 9 13 6 23 6 24 82 48 50 59
REMARK Flexibility Score: inf
ROOT
ATOM      1  C   UNL     1      -1.862   6.564   5.483  1.00  0.00     0.202 C 
ENDROOT
BRANCH   1   2
ATOM      2  C   UNL     1      -1.158   6.053   4.222  1.00  0.00     0.261 C 
BRANCH   2   3
ATOM      3  O   UNL     1      -0.231   5.006   4.554  1.00  0.00    -0.460 OA
BRANCH   3   4
ATOM      4  C   UNL     1       1.078   5.298   4.362  1.00  0.00     0.338 C 
ATOM      5  O   UNL     1       1.534   6.280   3.796  1.00  0.00    -0.246 OA
BRANCH   4   6
ATOM      6  C   UNL     1       1.916   4.342   5.121  1.00  0.00     0.062 A 
ATOM      7  C   UNL     1       2.394   2.108   5.962  1.00  0.00     0.040 A 
ATOM      8  C   UNL     1       3.544   2.618   6.583  1.00  0.00     0.026 A 
ATOM      9  C   UNL     1       1.563   2.997   5.264  1.00  0.00     0.041 A 
ATOM     10  C   UNL     1       3.887   3.968   6.465  1.00  0.00     0.003 A 
ATOM     11  C   UNL     1       3.085   4.825   5.718  1.00  0.00     0.016 A 
BRANCH   7  12
ATOM     12  N   UNL     1       2.175   0.714   5.959  1.00  0.00    -0.340 N 
ATOM     13  H   UNL     1       2.420   0.231   6.781  1.00  0.00     0.168 HD
BRANCH  12  14
ATOM     14  C   UNL     1       1.644  -0.063   4.909  1.00  0.00     0.137 A 
ATOM     15  C   UNL     1       0.778  -0.233   2.791  1.00  0.00     0.191 A 
ATOM     16  N   UNL     1       0.611  -1.557   2.866  1.00  0.00    -0.206 NA
ATOM     17  N   UNL     1       1.295   0.528   3.758  1.00  0.00    -0.205 NA
ATOM     18  C   UNL     1       0.974  -2.133   4.014  1.00  0.00     0.130 A 
ATOM     19  C   UNL     1       1.471  -1.420   5.085  1.00  0.00     0.093 A 
BRANCH  15  20
ATOM     20  S   UNL     1       0.209   0.624   1.347  1.00  0.00    -0.090 SA
ATOM     21  C   UNL     1       1.082  -0.335   0.095  1.00  0.00     0.094 C 
ENDBRANCH  15  20
BRANCH  18  22
ATOM     22  N   UNL     1       0.763  -3.496   4.111  1.00  0.00    -0.383 N 
ATOM     23  H   UNL     1       0.408  -3.994   3.340  1.00  0.00     0.158 HD
ATOM     24  H   UNL     1       0.968  -3.967   4.950  1.00  0.00     0.158 HD
ENDBRANCH  18  22
ENDBRANCH  12  14
ENDBRANCH   7  12
ENDBRANCH   4   6
ENDBRANCH   3   4
ENDBRANCH   2   3
ENDBRANCH   1   2
BRANCH   1  25
ATOM     25  O   UNL     1      -1.034   7.277   6.404  1.00  0.00    -0.374 OA
BRANCH  25  26
ATOM     26  C   UNL     1      -0.243   6.489   7.297  1.00  0.00     0.202 C 
BRANCH  26  27
ATOM     27  C   UNL     1      -0.957   6.008   8.564  1.00  0.00     0.261 C 
BRANCH  27  28
ATOM     28  O   UNL     1      -1.988   5.051   8.258  1.00  0.00    -0.460 OA
BRANCH  28  29
ATOM     29  C   UNL     1      -3.251   5.513   8.398  1.00  0.00     0.338 C 
ATOM     30  O   UNL     1      -3.603   6.595   8.844  1.00  0.00    -0.246 OA
BRANCH  29  31
ATOM     31  C   UNL     1      -4.201   4.571   7.778  1.00  0.00     0.060 A 
ATOM     32  C   UNL     1      -5.145   5.100   6.888  1.00  0.00     0.016 A 
ATOM     33  C   UNL     1      -4.220   3.214   8.108  1.00  0.00     0.016 A 
ATOM     34  C   UNL     1      -6.147   4.285   6.368  1.00  0.00     0.010 A 
ATOM     35  C   UNL     1      -5.231   2.398   7.591  1.00  0.00     0.010 A 
ATOM     36  C   UNL     1      -6.220   2.938   6.749  1.00  0.00    -0.014 A 
BRANCH  36  37
ATOM     37  C   UNL     1      -7.414   2.139   6.384  1.00  0.00     0.031 A 
ATOM     38  C   UNL     1      -8.504   1.953   7.402  1.00  0.00     0.074 A 
ATOM     39  C   UNL     1      -7.538   1.608   5.156  1.00  0.00     0.049 A 
ATOM     40  N   UNL     1      -9.618   1.271   7.314  1.00  0.00    -0.248 NA
ATOM     41  C   UNL     1      -8.310   2.626   8.696  1.00  0.00     0.031 C 
ATOM     42  C   UNL     1      -6.568   1.750   4.074  1.00  0.00     0.029 A 
ATOM     43  N   UNL     1      -8.537   0.836   4.617  1.00  0.00    -0.354 N 
ATOM     44  C   UNL     1     -10.253   1.428   8.539  1.00  0.00     0.074 A 
ATOM     45  C   UNL     1      -9.388   2.243   9.364  1.00  0.00     0.031 C 
ATOM     46  C   UNL     1      -7.014   1.078   2.999  1.00  0.00     0.029 A 
ATOM     47  C   UNL     1      -8.285   0.436   3.329  1.00  0.00     0.049 A 
ATOM     48  H   UNL     1      -9.355   0.593   5.108  1.00  0.00     0.167 HD
ATOM     49  C   UNL     1     -11.454   0.944   8.936  1.00  0.00     0.037 A 
ATOM     50  C   UNL     1      -8.993  -0.374   2.518  1.00  0.00     0.037 A 
ATOM     51  C   UNL     1     -12.314   0.135   8.113  1.00  0.00     0.049 A 
ATOM     52  C   UNL     1     -10.294  -0.958   3.006  1.00  0.00     0.074 A 
ATOM     53  C   UNL     1     -13.559  -0.387   8.416  1.00  0.00     0.029 A 
ATOM     54  N   UNL     1     -12.011  -0.277   6.823  1.00  0.00    -0.354 N 
ATOM     55  N   UNL     1     -10.901  -0.785   4.156  1.00  0.00    -0.248 NA
ATOM     56  C   UNL     1     -11.009  -1.848   2.081  1.00  0.00     0.031 C 
ATOM     57  C   UNL     1     -13.988  -1.156   7.328  1.00  0.00     0.029 A 
ATOM     58  C   UNL     1     -13.034  -1.070   6.327  1.00  0.00     0.049 A 
ATOM     59  H   UNL     1     -11.190  -0.041   6.333  1.00  0.00     0.167 HD
ATOM     60  C   UNL     1     -12.078  -1.518   4.082  1.00  0.00     0.074 A 
ATOM     61  C   UNL     1     -12.105  -2.131   2.770  1.00  0.00     0.031 C 
ATOM     62  C   UNL     1     -13.050  -1.668   5.016  1.00  0.00     0.037 A 
BRANCH  49  63
ATOM     63  C   UNL     1     -11.896   1.256  10.336  1.00  0.00     0.064 A 
ATOM     64  C   UNL     1     -12.293   2.548  10.714  1.00  0.00     0.173 A 
ATOM     65  C   UNL     1     -11.942   0.245  11.307  1.00  0.00     0.173 A 
ATOM     66  F   UNL     1     -12.253   3.553   9.827  1.00  0.00    -0.203 F 
ATOM     67  C   UNL     1     -12.691   2.821  12.020  1.00  0.00     0.198 A 
ATOM     68  C   UNL     1     -12.368   0.515  12.604  1.00  0.00     0.198 A 
ATOM     69  F   UNL     1     -11.577  -1.008  10.996  1.00  0.00    -0.203 F 
ATOM     70  F   UNL     1     -13.018   4.072  12.372  1.00  0.00    -0.200 F 
ATOM     71  C   UNL     1     -12.734   1.804  12.962  1.00  0.00     0.200 A 
ATOM     72  F   UNL     1     -12.420  -0.471  13.510  1.00  0.00    -0.200 F 
ATOM     73  F   UNL     1     -13.121   2.067  14.218  1.00  0.00    -0.200 F 
ENDBRANCH  49  63
BRANCH  50  74
ATOM     74  C   UNL     1      -8.484  -0.686   1.158  1.00  0.00     0.064 A 
ATOM     75  C   UNL     1      -9.127  -0.194   0.015  1.00  0.00     0.173 A 
ATOM     76  C   UNL     1      -7.349  -1.490   0.974  1.00  0.00     0.173 A 
ATOM     77  F   UNL     1     -10.233   0.555   0.140  1.00  0.00    -0.203 F 
ATOM     78  C   UNL     1      -8.663  -0.504  -1.262  1.00  0.00     0.198 A 
ATOM     79  C   UNL     1      -6.870  -1.778  -0.302  1.00  0.00     0.198 A 
ATOM     80  F   UNL     1      -6.702  -1.992   2.036  1.00  0.00    -0.203 F 
ATOM     81  F   UNL     1      -9.322  -0.056  -2.339  1.00  0.00    -0.200 F 
ATOM     82  C   UNL     1      -7.531  -1.290  -1.419  1.00  0.00     0.200 A 
ATOM     83  F   UNL     1      -5.773  -2.532  -0.449  1.00  0.00    -0.200 F 
ATOM     84  F   UNL     1      -7.084  -1.586  -2.647  1.00  0.00    -0.200 F 
ENDBRANCH  50  74
BRANCH  62  85
ATOM     85  C   UNL     1     -14.244  -2.498   4.643  1.00  0.00     0.064 A 
ATOM     86  C   UNL     1     -14.167  -3.894   4.535  1.00  0.00     0.173 A 
ATOM     87  C   UNL     1     -15.492  -1.890   4.436  1.00  0.00     0.173 A 
ATOM     88  F   UNL     1     -12.995  -4.521   4.710  1.00  0.00    -0.203 F 
ATOM     89  C   UNL     1     -15.292  -4.649   4.211  1.00  0.00     0.198 A 
ATOM     90  C   UNL     1     -16.620  -2.651   4.140  1.00  0.00     0.198 A 
ATOM     91  F   UNL     1     -15.621  -0.559   4.534  1.00  0.00    -0.203 F 
ATOM     92  F   UNL     1     -15.186  -5.978   4.070  1.00  0.00    -0.200 F 
ATOM     93  C   UNL     1     -16.518  -4.029   4.021  1.00  0.00     0.200 A 
ATOM     94  F   UNL     1     -17.806  -2.051   3.971  1.00  0.00    -0.200 F 
ATOM     95  F   UNL     1     -17.600  -4.758   3.717  1.00  0.00    -0.200 F 
ENDBRANCH  62  85
ENDBRANCH  36  37
ENDBRANCH  29  31
ENDBRANCH  28  29
ENDBRANCH  27  28
ENDBRANCH  26  27
ENDBRANCH  25  26
ENDBRANCH   1  25
TORSDOF 18
