REMARK SMILES O=C(OCCOCCOC(=O)c1cccc(N/C(=[NH+]\Cc2ccccc2)N2CCN(c3ccc(F)cc3)CC2)c1)c1ccc(-c2c3nc(c(-c4c(F)c(F)c(F)c(F)c4F)c4ccc([nH]4)c(-c4c(F)c(F)c(F)c(F)c4F)c4nc(c(-c5c(F)c(F)c(F)c(F)c5F)c5ccc2[nH]5)C=C4)C=C3)cc1
REMARK SMILES IDX 7 1 6 2 5 3 4 4 3 5 2 6 1 7 41 8 42 9 103 10 43 11 102 12
REMARK SMILES IDX 44 13 45 14 46 15 96 16 47 17 101 18 95 19 97 20 48 21
REMARK SMILES IDX 100 22 94 23 93 24 49 26 81 27 61 28 80 29 62 30 65 31 79 32
REMARK SMILES IDX 98 33 63 34 64 35 78 37 99 38 66 39 50 40 51 41 59 42 52 43
REMARK SMILES IDX 53 44 57 45 60 46 54 47 55 48 58 49 56 50 82 51 83 52 91 53
REMARK SMILES IDX 84 54 85 55 89 56 92 57 86 58 87 59 90 60 88 61 67 62 68 63
REMARK SMILES IDX 76 64 69 65 70 66 74 67 77 68 71 69 72 70 75 71 73 72 8 73
REMARK SMILES IDX 9 74 10 75 11 76 12 77 13 78 40 79 14 80 16 81 15 82 17 83
REMARK SMILES IDX 18 84 19 86 27 87 28 89 39 90 29 91 38 92 30 93 20 94 21 95
REMARK SMILES IDX 22 96 26 97 23 98 25 99 24 100 31 101 32 102 37 103 33 104
REMARK SMILES IDX 36 105 34 106 35 107
REMARK H PARENT 97 25 65 36 17 85 19 88
REMARK Flexibility Score: inf
ROOT
ATOM      1  C   UNL     1       2.481   1.993   0.182  1.00  0.00     0.202 C 
ENDROOT
BRANCH   1   2
ATOM      2  O   UNL     1       3.848   1.585   0.037  1.00  0.00    -0.374 OA
BRANCH   2   3
ATOM      3  C   UNL     1       4.180   0.892  -1.168  1.00  0.00     0.202 C 
BRANCH   3   4
ATOM      4  C   UNL     1       3.896  -0.615  -1.145  1.00  0.00     0.261 C 
BRANCH   4   5
ATOM      5  O   UNL     1       2.526  -0.874  -0.802  1.00  0.00    -0.460 OA
BRANCH   5   6
ATOM      6  C   UNL     1       2.024  -1.215   0.409  1.00  0.00     0.338 C 
ATOM      7  O   UNL     1       0.811  -1.382   0.523  1.00  0.00    -0.246 OA
BRANCH   6   8
ATOM      8  C   UNL     1       2.869  -1.401   1.626  1.00  0.00     0.060 A 
ATOM      9  C   UNL     1       4.070  -0.735   1.866  1.00  0.00     0.016 A 
ATOM     10  C   UNL     1       2.369  -2.236   2.639  1.00  0.00     0.016 A 
ATOM     11  C   UNL     1       4.789  -0.919   3.027  1.00  0.00     0.010 A 
ATOM     12  C   UNL     1       3.063  -2.396   3.842  1.00  0.00     0.010 A 
ATOM     13  C   UNL     1       4.283  -1.736   4.027  1.00  0.00    -0.014 A 
BRANCH  13  14
ATOM     14  C   UNL     1       5.146  -1.944   5.196  1.00  0.00     0.031 A 
ATOM     15  C   UNL     1       5.892  -3.234   5.292  1.00  0.00     0.074 A 
ATOM     16  C   UNL     1       5.391  -0.907   6.016  1.00  0.00     0.049 A 
ATOM     17  N   UNL     1       6.697  -3.656   6.226  1.00  0.00    -0.248 NA
ATOM     18  C   UNL     1       5.725  -4.171   4.166  1.00  0.00     0.031 C 
ATOM     19  C   UNL     1       4.818   0.436   5.871  1.00  0.00     0.029 A 
ATOM     20  N   UNL     1       6.215  -0.799   7.101  1.00  0.00    -0.354 N 
ATOM     21  C   UNL     1       7.114  -4.913   5.813  1.00  0.00     0.074 A 
ATOM     22  C   UNL     1       6.466  -5.196   4.554  1.00  0.00     0.031 C 
ATOM     23  C   UNL     1       5.325   1.236   6.822  1.00  0.00     0.029 A 
ATOM     24  C   UNL     1       6.186   0.443   7.688  1.00  0.00     0.049 A 
ATOM     25  H   UNL     1       6.775  -1.539   7.430  1.00  0.00     0.167 HD
ATOM     26  C   UNL     1       7.968  -5.748   6.447  1.00  0.00     0.037 A 
ATOM     27  C   UNL     1       6.760   0.860   8.830  1.00  0.00     0.037 A 
ATOM     28  C   UNL     1       8.583  -5.423   7.704  1.00  0.00     0.049 A 
ATOM     29  C   UNL     1       7.593  -0.141   9.586  1.00  0.00     0.074 A 
ATOM     30  C   UNL     1       9.382  -6.208   8.511  1.00  0.00     0.029 A 
ATOM     31  N   UNL     1       8.458  -4.189   8.335  1.00  0.00    -0.354 N 
ATOM     32  N   UNL     1       7.911  -1.372   9.254  1.00  0.00    -0.248 NA
ATOM     33  C   UNL     1       8.135   0.292  10.877  1.00  0.00     0.031 C 
ATOM     34  C   UNL     1       9.701  -5.464   9.653  1.00  0.00     0.029 A 
ATOM     35  C   UNL     1       9.155  -4.194   9.529  1.00  0.00     0.049 A 
ATOM     36  H   UNL     1       7.948  -3.424   7.983  1.00  0.00     0.167 HD
ATOM     37  C   UNL     1       8.707  -1.853  10.281  1.00  0.00     0.074 A 
ATOM     38  C   UNL     1       8.844  -0.769  11.235  1.00  0.00     0.031 C 
ATOM     39  C   UNL     1       9.270  -3.078  10.435  1.00  0.00     0.037 A 
BRANCH  26  40
ATOM     40  C   UNL     1       8.202  -7.090   5.821  1.00  0.00     0.064 A 
ATOM     41  C   UNL     1       8.922  -7.238   4.625  1.00  0.00     0.173 A 
ATOM     42  C   UNL     1       7.652  -8.243   6.401  1.00  0.00     0.173 A 
ATOM     43  F   UNL     1       9.437  -6.163   4.009  1.00  0.00    -0.203 F 
ATOM     44  C   UNL     1       9.056  -8.486   4.019  1.00  0.00     0.198 A 
ATOM     45  C   UNL     1       7.814  -9.492   5.809  1.00  0.00     0.198 A 
ATOM     46  F   UNL     1       6.942  -8.156   7.536  1.00  0.00    -0.203 F 
ATOM     47  F   UNL     1       9.690  -8.593   2.843  1.00  0.00    -0.200 F 
ATOM     48  C   UNL     1       8.507  -9.612   4.614  1.00  0.00     0.200 A 
ATOM     49  F   UNL     1       7.283 -10.579   6.386  1.00  0.00    -0.200 F 
ATOM     50  F   UNL     1       8.629 -10.810   4.026  1.00  0.00    -0.200 F 
ENDBRANCH  26  40
BRANCH  27  51
ATOM     51  C   UNL     1       6.503   2.228   9.359  1.00  0.00     0.064 A 
ATOM     52  C   UNL     1       7.544   3.145   9.561  1.00  0.00     0.173 A 
ATOM     53  C   UNL     1       5.208   2.633   9.723  1.00  0.00     0.173 A 
ATOM     54  F   UNL     1       8.804   2.808   9.249  1.00  0.00    -0.203 F 
ATOM     55  C   UNL     1       7.305   4.393  10.137  1.00  0.00     0.198 A 
ATOM     56  C   UNL     1       4.965   3.894  10.263  1.00  0.00     0.198 A 
ATOM     57  F   UNL     1       4.170   1.799   9.557  1.00  0.00    -0.203 F 
ATOM     58  F   UNL     1       8.330   5.221  10.383  1.00  0.00    -0.200 F 
ATOM     59  C   UNL     1       6.016   4.768  10.485  1.00  0.00     0.200 A 
ATOM     60  F   UNL     1       3.714   4.254  10.582  1.00  0.00    -0.200 F 
ATOM     61  F   UNL     1       5.790   5.962  11.048  1.00  0.00    -0.200 F 
ENDBRANCH  27  51
BRANCH  39  62
ATOM     62  C   UNL     1      10.120  -3.276  11.654  1.00  0.00     0.064 A 
ATOM     63  C   UNL     1       9.562  -3.357  12.937  1.00  0.00     0.173 A 
ATOM     64  C   UNL     1      11.509  -3.424  11.525  1.00  0.00     0.173 A 
ATOM     65  F   UNL     1       8.240  -3.205  13.111  1.00  0.00    -0.203 F 
ATOM     66  C   UNL     1      10.370  -3.548  14.053  1.00  0.00     0.198 A 
ATOM     67  C   UNL     1      12.308  -3.654  12.638  1.00  0.00     0.198 A 
ATOM     68  F   UNL     1      12.087  -3.362  10.315  1.00  0.00    -0.203 F 
ATOM     69  F   UNL     1       9.824  -3.563  15.277  1.00  0.00    -0.200 F 
ATOM     70  C   UNL     1      11.740  -3.705  13.902  1.00  0.00     0.200 A 
ATOM     71  F   UNL     1      13.629  -3.825  12.488  1.00  0.00    -0.200 F 
ATOM     72  F   UNL     1      12.515  -3.900  14.977  1.00  0.00    -0.200 F 
ENDBRANCH  39  62
ENDBRANCH  13  14
ENDBRANCH   6   8
ENDBRANCH   5   6
ENDBRANCH   4   5
ENDBRANCH   3   4
ENDBRANCH   2   3
ENDBRANCH   1   2
BRANCH   1  73
ATOM     73  C   UNL     1       2.423   3.458   0.621  1.00  0.00     0.261 C 
BRANCH  73  74
ATOM     74  O   UNL     1       3.112   4.242  -0.360  1.00  0.00    -0.460 OA
BRANCH  74  75
ATOM     75  C   UNL     1       4.451   4.305  -0.153  1.00  0.00     0.338 C 
ATOM     76  O   UNL     1       5.050   4.154   0.901  1.00  0.00    -0.246 OA
BRANCH  75  77
ATOM     77  C   UNL     1       5.118   4.379  -1.463  1.00  0.00     0.063 A 
ATOM     78  C   UNL     1       6.305   3.667  -1.642  1.00  0.00     0.016 A 
ATOM     79  C   UNL     1       4.567   5.123  -2.510  1.00  0.00     0.058 A 
ATOM     80  C   UNL     1       6.968   3.751  -2.853  1.00  0.00     0.004 A 
ATOM     81  C   UNL     1       5.237   5.244  -3.731  1.00  0.00     0.100 A 
ATOM     82  C   UNL     1       6.455   4.574  -3.857  1.00  0.00     0.043 A 
BRANCH  81  83
ATOM     83  N   UNL     1       4.632   6.027  -4.726  1.00  0.00    -0.245 N 
ATOM     84  C   UNL     1       4.906   6.290  -6.042  1.00  0.00     0.351 C 
ATOM     85  H   UNL     1       3.827   6.494  -4.404  1.00  0.00     0.267 HD
ATOM     86  N   UNL     1       4.208   7.078  -6.799  1.00  0.00    -0.273 N 
ATOM     87  N   UNL     1       5.974   5.631  -6.591  1.00  0.00    -0.261 N 
ATOM     88  H   UNL     1       4.453   7.188  -7.746  1.00  0.00     0.260 HD
ATOM     89  C   UNL     1       7.042   6.390  -7.250  1.00  0.00     0.221 C 
ATOM     90  C   UNL     1       5.795   4.290  -7.173  1.00  0.00     0.221 C 
ATOM     91  C   UNL     1       8.380   5.648  -7.067  1.00  0.00     0.154 C 
ATOM     92  C   UNL     1       7.109   3.473  -7.154  1.00  0.00     0.154 C 
ATOM     93  N   UNL     1       8.289   4.265  -7.573  1.00  0.00    -0.365 N 
BRANCH  86  94
ATOM     94  C   UNL     1       3.054   7.808  -6.255  1.00  0.00     0.233 C 
BRANCH  94  95
ATOM     95  C   UNL     1       1.838   6.983  -5.866  1.00  0.00    -0.014 A 
ATOM     96  C   UNL     1       0.763   7.613  -5.218  1.00  0.00     0.007 A 
ATOM     97  C   UNL     1       1.754   5.602  -6.099  1.00  0.00     0.007 A 
ATOM     98  C   UNL     1      -0.342   6.875  -4.784  1.00  0.00     0.000 A 
ATOM     99  C   UNL     1       0.664   4.861  -5.641  1.00  0.00     0.000 A 
ATOM    100  C   UNL     1      -0.383   5.496  -4.981  1.00  0.00     0.000 A 
ENDBRANCH  94  95
ENDBRANCH  86  94
BRANCH  93 101
ATOM    101  C   UNL     1       9.447   3.568  -7.888  1.00  0.00     0.037 A 
ATOM    102  C   UNL     1      10.680   3.812  -7.262  1.00  0.00     0.029 A 
ATOM    103  C   UNL     1       9.415   2.595  -8.902  1.00  0.00     0.029 A 
ATOM    104  C   UNL     1      11.836   3.120  -7.641  1.00  0.00     0.041 A 
ATOM    105  C   UNL     1      10.565   1.906  -9.290  1.00  0.00     0.041 A 
ATOM    106  C   UNL     1      11.767   2.178  -8.657  1.00  0.00     0.123 A 
ATOM    107  F   UNL     1      12.875   1.528  -9.036  1.00  0.00    -0.207 F 
ENDBRANCH  93 101
ENDBRANCH  81  83
ENDBRANCH  75  77
ENDBRANCH  74  75
ENDBRANCH  73  74
ENDBRANCH   1  73
TORSDOF 18
