REMARK SMILES CCC(CC)(C[C@H](O)COC)C(=O)OCCOCCOC(=O)c1ccc(-c2c3nc(c(-c4c(F)c(F)c(F)c(F)c4F)c4ccc([nH]4)c(-c4c(F)c(F)c(F)c(F)c4F)c4nc(c(-c5c(F)c(F)c(F)c(F)c5F)c5ccc2[nH]5)C=C4)C=C3)cc1
REMARK SMILES IDX 16 1 15 2 14 3 12 4 13 5 3 6 2 7 1 8 4 9 5 10 6 11 7 12 9 13
REMARK SMILES IDX 10 14 11 15 8 16 17 18 18 19 19 20 20 21 21 22 22 23 23 24
REMARK SMILES IDX 24 25 85 26 25 27 84 28 26 29 27 30 28 31 78 32 29 33 83 34
REMARK SMILES IDX 77 35 79 36 30 37 82 38 76 39 75 40 31 42 63 43 43 44 62 45
REMARK SMILES IDX 44 46 47 47 61 48 80 49 45 50 46 51 60 53 81 54 48 55 32 56
REMARK SMILES IDX 33 57 41 58 34 59 35 60 39 61 42 62 36 63 37 64 40 65 38 66
REMARK SMILES IDX 64 67 65 68 73 69 66 70 67 71 71 72 74 73 68 74 69 75 72 76
REMARK SMILES IDX 70 77 49 78 50 79 58 80 51 81 52 82 56 83 59 84 53 85 54 86
REMARK SMILES IDX 57 87 55 88
REMARK H PARENT 8 17 79 41 47 52
REMARK Flexibility Score: inf
ROOT
ATOM      1  C   UNL     1       1.594   9.340  -1.448  1.00  0.00     0.202 C 
ENDROOT
BRANCH   1   2
ATOM      2  C   UNL     1       2.937   8.658  -1.166  1.00  0.00     0.261 C 
BRANCH   2   3
ATOM      3  O   UNL     1       2.856   7.283  -0.755  1.00  0.00    -0.463 OA
BRANCH   3   4
ATOM      4  C   UNL     1       3.023   7.067   0.582  1.00  0.00     0.312 C 
ATOM      5  O   UNL     1       3.093   7.978   1.397  1.00  0.00    -0.252 OA
BRANCH   4   6
ATOM      6  C   UNL     1       3.237   5.575   0.947  1.00  0.00     0.070 C 
BRANCH   6   7
ATOM      7  C   UNL     1       2.729   5.339   2.402  1.00  0.00     0.015 C 
ATOM      8  C   UNL     1       3.434   6.082   3.540  1.00  0.00     0.005 C 
ENDBRANCH   6   7
BRANCH   6   9
ATOM      9  C   UNL     1       4.787   5.387   0.837  1.00  0.00     0.015 C 
ATOM     10  C   UNL     1       5.337   4.077   1.393  1.00  0.00     0.005 C 
ENDBRANCH   6   9
BRANCH   6  11
ATOM     11  C   UNL     1       2.546   4.604  -0.086  1.00  0.00     0.053 C 
BRANCH  11  12
ATOM     12  C   UNL     1       1.397   3.667   0.325  1.00  0.00     0.141 C 
BRANCH  12  13
ATOM     13  C   UNL     1       0.056   4.348   0.641  1.00  0.00     0.191 C 
BRANCH  13  14
ATOM     14  O   UNL     1      -1.007   3.397   0.462  1.00  0.00    -0.382 OA
ATOM     15  C   UNL     1      -1.829   3.711  -0.660  1.00  0.00     0.195 C 
ENDBRANCH  13  14
ENDBRANCH  12  13
BRANCH  12  16
ATOM     16  O   UNL     1       1.188   2.788  -0.801  1.00  0.00    -0.391 OA
ATOM     17  H   UNL     1       0.927   3.311  -1.575  1.00  0.00     0.211 HD
ENDBRANCH  12  16
ENDBRANCH  11  12
ENDBRANCH   6  11
ENDBRANCH   4   6
ENDBRANCH   3   4
ENDBRANCH   2   3
ENDBRANCH   1   2
BRANCH   1  18
ATOM     18  O   UNL     1       0.630   9.339  -0.402  1.00  0.00    -0.374 OA
BRANCH  18  19
ATOM     19  C   UNL     1      -0.106   8.134  -0.185  1.00  0.00     0.202 C 
BRANCH  19  20
ATOM     20  C   UNL     1      -1.016   7.702  -1.339  1.00  0.00     0.261 C 
BRANCH  20  21
ATOM     21  O   UNL     1      -0.229   7.188  -2.429  1.00  0.00    -0.460 OA
BRANCH  21  22
ATOM     22  C   UNL     1      -0.779   7.415  -3.644  1.00  0.00     0.338 C 
ATOM     23  O   UNL     1      -1.917   7.776  -3.886  1.00  0.00    -0.246 OA
BRANCH  22  24
ATOM     24  C   UNL     1       0.267   7.347  -4.676  1.00  0.00     0.060 A 
ATOM     25  C   UNL     1       0.687   8.549  -5.259  1.00  0.00     0.016 A 
ATOM     26  C   UNL     1       0.725   6.120  -5.156  1.00  0.00     0.016 A 
ATOM     27  C   UNL     1       1.526   8.525  -6.372  1.00  0.00     0.010 A 
ATOM     28  C   UNL     1       1.561   6.098  -6.276  1.00  0.00     0.010 A 
ATOM     29  C   UNL     1       1.927   7.298  -6.914  1.00  0.00    -0.014 A 
BRANCH  29  30
ATOM     30  C   UNL     1       2.581   7.261  -8.244  1.00  0.00     0.031 A 
ATOM     31  C   UNL     1       1.736   6.996  -9.459  1.00  0.00     0.074 A 
ATOM     32  C   UNL     1       3.904   7.461  -8.367  1.00  0.00     0.049 A 
ATOM     33  N   UNL     1       2.094   6.866 -10.710  1.00  0.00    -0.248 NA
ATOM     34  C   UNL     1       0.290   6.852  -9.227  1.00  0.00     0.031 C 
ATOM     35  C   UNL     1       4.816   7.748  -7.263  1.00  0.00     0.029 A 
ATOM     36  N   UNL     1       4.710   7.433  -9.477  1.00  0.00    -0.354 N 
ATOM     37  C   UNL     1       0.923   6.611 -11.412  1.00  0.00     0.074 A 
ATOM     38  C   UNL     1      -0.154   6.585 -10.446  1.00  0.00     0.031 C 
ATOM     39  C   UNL     1       6.066   7.841  -7.747  1.00  0.00     0.029 A 
ATOM     40  C   UNL     1       6.041   7.595  -9.189  1.00  0.00     0.049 A 
ATOM     41  H   UNL     1       4.366   7.309 -10.391  1.00  0.00     0.167 HD
ATOM     42  C   UNL     1       0.762   6.418 -12.743  1.00  0.00     0.037 A 
ATOM     43  C   UNL     1       7.119   7.525  -9.995  1.00  0.00     0.037 A 
ATOM     44  C   UNL     1       1.837   6.448 -13.697  1.00  0.00     0.049 A 
ATOM     45  C   UNL     1       6.924   7.280 -11.467  1.00  0.00     0.074 A 
ATOM     46  C   UNL     1       1.779   6.305 -15.072  1.00  0.00     0.029 A 
ATOM     47  N   UNL     1       3.174   6.623 -13.369  1.00  0.00    -0.354 N 
ATOM     48  N   UNL     1       5.809   7.084 -12.130  1.00  0.00    -0.248 NA
ATOM     49  C   UNL     1       8.131   7.255 -12.304  1.00  0.00     0.031 C 
ATOM     50  C   UNL     1       3.086   6.347 -15.570  1.00  0.00     0.029 A 
ATOM     51  C   UNL     1       3.954   6.564 -14.511  1.00  0.00     0.049 A 
ATOM     52  H   UNL     1       3.518   6.768 -12.457  1.00  0.00     0.167 HD
ATOM     53  C   UNL     1       6.176   6.930 -13.460  1.00  0.00     0.074 A 
ATOM     54  C   UNL     1       7.617   7.064 -13.513  1.00  0.00     0.031 C 
ATOM     55  C   UNL     1       5.389   6.702 -14.540  1.00  0.00     0.037 A 
BRANCH  42  56
ATOM     56  C   UNL     1      -0.626   6.122 -13.232  1.00  0.00     0.064 A 
ATOM     57  C   UNL     1      -1.628   7.104 -13.257  1.00  0.00     0.173 A 
ATOM     58  C   UNL     1      -0.957   4.835 -13.685  1.00  0.00     0.173 A 
ATOM     59  F   UNL     1      -1.366   8.346 -12.823  1.00  0.00    -0.203 F 
ATOM     60  C   UNL     1      -2.918   6.799 -13.683  1.00  0.00     0.198 A 
ATOM     61  C   UNL     1      -2.241   4.542 -14.135  1.00  0.00     0.198 A 
ATOM     62  F   UNL     1      -0.035   3.861 -13.686  1.00  0.00    -0.203 F 
ATOM     63  F   UNL     1      -3.873   7.739 -13.647  1.00  0.00    -0.200 F 
ATOM     64  C   UNL     1      -3.223   5.521 -14.125  1.00  0.00     0.200 A 
ATOM     65  F   UNL     1      -2.531   3.308 -14.570  1.00  0.00    -0.200 F 
ATOM     66  F   UNL     1      -4.467   5.228 -14.530  1.00  0.00    -0.200 F 
ENDBRANCH  42  56
BRANCH  43  67
ATOM     67  C   UNL     1       8.474   7.677  -9.407  1.00  0.00     0.064 A 
ATOM     68  C   UNL     1       9.233   8.835  -9.618  1.00  0.00     0.173 A 
ATOM     69  C   UNL     1       9.017   6.679  -8.583  1.00  0.00     0.173 A 
ATOM     70  F   UNL     1       8.765   9.805 -10.416  1.00  0.00    -0.203 F 
ATOM     71  C   UNL     1      10.484   8.991  -9.024  1.00  0.00     0.198 A 
ATOM     72  C   UNL     1      10.257   6.847  -7.971  1.00  0.00     0.198 A 
ATOM     73  F   UNL     1       8.328   5.553  -8.350  1.00  0.00    -0.203 F 
ATOM     74  F   UNL     1      11.200  10.100  -9.257  1.00  0.00    -0.200 F 
ATOM     75  C   UNL     1      10.991   8.002  -8.194  1.00  0.00     0.200 A 
ATOM     76  F   UNL     1      10.736   5.895  -7.159  1.00  0.00    -0.200 F 
ATOM     77  F   UNL     1      12.185   8.163  -7.608  1.00  0.00    -0.200 F 
ENDBRANCH  43  67
BRANCH  55  78
ATOM     78  C   UNL     1       6.061   6.603 -15.877  1.00  0.00     0.064 A 
ATOM     79  C   UNL     1       6.774   5.456 -16.255  1.00  0.00     0.173 A 
ATOM     80  C   UNL     1       5.928   7.637 -16.815  1.00  0.00     0.173 A 
ATOM     81  F   UNL     1       6.938   4.447 -15.387  1.00  0.00    -0.203 F 
ATOM     82  C   UNL     1       7.338   5.353 -17.523  1.00  0.00     0.198 A 
ATOM     83  C   UNL     1       6.475   7.521 -18.090  1.00  0.00     0.198 A 
ATOM     84  F   UNL     1       5.250   8.751 -16.502  1.00  0.00    -0.203 F 
ATOM     85  F   UNL     1       8.039   4.260 -17.857  1.00  0.00    -0.200 F 
ATOM     86  C   UNL     1       7.181   6.381 -18.442  1.00  0.00     0.200 A 
ATOM     87  F   UNL     1       6.312   8.510 -18.980  1.00  0.00    -0.200 F 
ATOM     88  F   UNL     1       7.714   6.274 -19.667  1.00  0.00    -0.200 F 
ENDBRANCH  55  78
ENDBRANCH  29  30
ENDBRANCH  22  24
ENDBRANCH  21  22
ENDBRANCH  20  21
ENDBRANCH  19  20
ENDBRANCH  18  19
ENDBRANCH   1  18
TORSDOF 21
