REMARK SMILES O=C(OCCOCCOC(=O)[C@@H]1[C@H](C(=O)Nc2ccccc2Cc2ccccc2)[C@H]2C=C[C@@H]1O2)c1ccc(-c2c3nc(c(-c4c(F)c(F)c(F)c(F)c4F)c4ccc([nH]4)c(-c4c(F)c(F)c(F)c(F)c4F)c4nc(c(-c5c(F)c(F)c(F)c(F)c5F)c5ccc2[nH]5)C=C4)C=C3)cc1
REMARK SMILES IDX 7 1 6 2 5 3 4 4 3 5 2 6 1 7 35 8 36 9 97 10 37 11 96 12
REMARK SMILES IDX 38 13 39 14 40 15 90 16 41 17 95 18 89 19 91 20 42 21 94 22
REMARK SMILES IDX 88 23 87 24 43 26 75 27 55 28 74 29 56 30 59 31 73 32 92 33
REMARK SMILES IDX 57 34 58 35 72 37 93 38 60 39 44 40 45 41 53 42 46 43 47 44
REMARK SMILES IDX 51 45 54 46 48 47 49 48 52 49 50 50 76 51 77 52 85 53 78 54
REMARK SMILES IDX 79 55 83 56 86 57 80 58 81 59 84 60 82 61 61 62 62 63 70 64
REMARK SMILES IDX 63 65 64 66 68 67 71 68 65 69 66 70 69 71 67 72 8 73 9 74
REMARK SMILES IDX 10 75 11 76 12 77 13 78 33 79 30 80 32 81 34 82 31 83 14 84
REMARK SMILES IDX 15 85 16 86 17 88 18 89 22 90 19 91 21 92 20 93 23 94 24 95
REMARK SMILES IDX 25 96 29 97 26 98 28 99 27 100
REMARK H PARENT 91 25 59 36 16 87
REMARK Flexibility Score: inf
ROOT
ATOM      1  C   UNL     1       1.633   1.396  -1.684  1.00  0.00     0.202 C 
ENDROOT
BRANCH   1   2
ATOM      2  O   UNL     1       2.674   1.860  -0.816  1.00  0.00    -0.374 OA
BRANCH   2   3
ATOM      3  C   UNL     1       3.543   0.864  -0.269  1.00  0.00     0.202 C 
BRANCH   3   4
ATOM      4  C   UNL     1       2.903  -0.421   0.284  1.00  0.00     0.261 C 
BRANCH   4   5
ATOM      5  O   UNL     1       1.495  -0.302   0.630  1.00  0.00    -0.460 OA
BRANCH   5   6
ATOM      6  C   UNL     1       0.989  -0.067   1.867  1.00  0.00     0.338 C 
ATOM      7  O   UNL     1      -0.161  -0.344   2.173  1.00  0.00    -0.246 OA
BRANCH   6   8
ATOM      8  C   UNL     1       1.904   0.532   2.848  1.00  0.00     0.060 A 
ATOM      9  C   UNL     1       2.675   1.607   2.455  1.00  0.00     0.016 A 
ATOM     10  C   UNL     1       2.055   0.000   4.125  1.00  0.00     0.016 A 
ATOM     11  C   UNL     1       3.834   1.887   3.150  1.00  0.00     0.010 A 
ATOM     12  C   UNL     1       3.068   0.500   4.951  1.00  0.00     0.010 A 
ATOM     13  C   UNL     1       4.019   1.407   4.445  1.00  0.00    -0.014 A 
BRANCH  13  14
ATOM     14  C   UNL     1       5.196   1.858   5.240  1.00  0.00     0.031 A 
ATOM     15  C   UNL     1       5.996   0.850   6.017  1.00  0.00     0.074 A 
ATOM     16  C   UNL     1       5.565   3.158   5.252  1.00  0.00     0.049 A 
ATOM     17  N   UNL     1       6.791   1.033   7.038  1.00  0.00    -0.248 NA
ATOM     18  C   UNL     1       5.855  -0.559   5.617  1.00  0.00     0.031 C 
ATOM     19  C   UNL     1       4.947   4.237   4.473  1.00  0.00     0.029 A 
ATOM     20  N   UNL     1       6.571   3.801   5.930  1.00  0.00    -0.354 N 
ATOM     21  C   UNL     1       7.138  -0.238   7.479  1.00  0.00     0.074 A 
ATOM     22  C   UNL     1       6.503  -1.185   6.589  1.00  0.00     0.031 C 
ATOM     23  C   UNL     1       5.647   5.365   4.624  1.00  0.00     0.029 A 
ATOM     24  C   UNL     1       6.625   5.151   5.673  1.00  0.00     0.049 A 
ATOM     25  H   UNL     1       7.192   3.341   6.540  1.00  0.00     0.167 HD
ATOM     26  C   UNL     1       7.892  -0.561   8.558  1.00  0.00     0.037 A 
ATOM     27  C   UNL     1       7.306   6.135   6.285  1.00  0.00     0.037 A 
ATOM     28  C   UNL     1       8.571   0.425   9.361  1.00  0.00     0.049 A 
ATOM     29  C   UNL     1       8.116   5.763   7.489  1.00  0.00     0.074 A 
ATOM     30  C   UNL     1       9.348   0.248  10.491  1.00  0.00     0.029 A 
ATOM     31  N   UNL     1       8.570   1.789   9.085  1.00  0.00    -0.354 N 
ATOM     32  N   UNL     1       8.319   4.578   8.012  1.00  0.00    -0.248 NA
ATOM     33  C   UNL     1       8.750   6.866   8.217  1.00  0.00     0.031 C 
ATOM     34  C   UNL     1       9.789   1.508  10.915  1.00  0.00     0.029 A 
ATOM     35  C   UNL     1       9.332   2.465  10.022  1.00  0.00     0.049 A 
ATOM     36  H   UNL     1       8.097   2.211   8.332  1.00  0.00     0.167 HD
ATOM     37  C   UNL     1       9.113   4.786   9.127  1.00  0.00     0.074 A 
ATOM     38  C   UNL     1       9.373   6.213   9.187  1.00  0.00     0.031 C 
ATOM     39  C   UNL     1       9.578   3.886  10.028  1.00  0.00     0.037 A 
BRANCH  26  40
ATOM     40  C   UNL     1       7.935  -2.007   8.971  1.00  0.00     0.064 A 
ATOM     41  C   UNL     1       8.577  -2.996   8.211  1.00  0.00     0.173 A 
ATOM     42  C   UNL     1       7.283  -2.415  10.147  1.00  0.00     0.173 A 
ATOM     43  F   UNL     1       9.201  -2.671   7.069  1.00  0.00    -0.203 F 
ATOM     44  C   UNL     1       8.522  -4.340   8.585  1.00  0.00     0.198 A 
ATOM     45  C   UNL     1       7.258  -3.753  10.536  1.00  0.00     0.198 A 
ATOM     46  F   UNL     1       6.654  -1.515  10.918  1.00  0.00    -0.203 F 
ATOM     47  F   UNL     1       9.079  -5.274   7.802  1.00  0.00    -0.200 F 
ATOM     48  C   UNL     1       7.866  -4.716   9.747  1.00  0.00     0.200 A 
ATOM     49  F   UNL     1       6.631  -4.111  11.665  1.00  0.00    -0.200 F 
ATOM     50  F   UNL     1       7.804  -6.008  10.097  1.00  0.00    -0.200 F 
ENDBRANCH  26  40
BRANCH  27  51
ATOM     51  C   UNL     1       7.164   7.547   5.831  1.00  0.00     0.064 A 
ATOM     52  C   UNL     1       8.256   8.239   5.292  1.00  0.00     0.173 A 
ATOM     53  C   UNL     1       5.934   8.226   5.893  1.00  0.00     0.173 A 
ATOM     54  F   UNL     1       9.458   7.647   5.230  1.00  0.00    -0.203 F 
ATOM     55  C   UNL     1       8.126   9.550   4.836  1.00  0.00     0.198 A 
ATOM     56  C   UNL     1       5.796   9.521   5.399  1.00  0.00     0.198 A 
ATOM     57  F   UNL     1       4.852   7.616   6.399  1.00  0.00    -0.203 F 
ATOM     58  F   UNL     1       9.197  10.200   4.361  1.00  0.00    -0.200 F 
ATOM     59  C   UNL     1       6.894  10.186   4.878  1.00  0.00     0.200 A 
ATOM     60  F   UNL     1       4.597  10.120   5.419  1.00  0.00    -0.200 F 
ATOM     61  F   UNL     1       6.767  11.439   4.421  1.00  0.00    -0.200 F 
ENDBRANCH  27  51
BRANCH  39  62
ATOM     62  C   UNL     1      10.466   4.428  11.104  1.00  0.00     0.064 A 
ATOM     63  C   UNL     1       9.959   5.191  12.165  1.00  0.00     0.173 A 
ATOM     64  C   UNL     1      11.843   4.168  11.070  1.00  0.00     0.173 A 
ATOM     65  F   UNL     1       8.651   5.485  12.222  1.00  0.00    -0.203 F 
ATOM     66  C   UNL     1      10.808   5.702  13.141  1.00  0.00     0.198 A 
ATOM     67  C   UNL     1      12.684   4.653  12.065  1.00  0.00     0.198 A 
ATOM     68  F   UNL     1      12.370   3.442  10.073  1.00  0.00    -0.203 F 
ATOM     69  F   UNL     1      10.315   6.478  14.116  1.00  0.00    -0.200 F 
ATOM     70  C   UNL     1      12.168   5.426  13.094  1.00  0.00     0.200 A 
ATOM     71  F   UNL     1      13.995   4.378  12.023  1.00  0.00    -0.200 F 
ATOM     72  F   UNL     1      12.984   5.917  14.037  1.00  0.00    -0.200 F 
ENDBRANCH  39  62
ENDBRANCH  13  14
ENDBRANCH   6   8
ENDBRANCH   5   6
ENDBRANCH   4   5
ENDBRANCH   3   4
ENDBRANCH   2   3
ENDBRANCH   1   2
BRANCH   1  73
ATOM     73  C   UNL     1       1.647   2.093  -3.061  1.00  0.00     0.261 C 
BRANCH  73  74
ATOM     74  O   UNL     1       2.147   1.276  -4.165  1.00  0.00    -0.463 OA
BRANCH  74  75
ATOM     75  C   UNL     1       3.404   0.811  -4.005  1.00  0.00     0.312 C 
ATOM     76  O   UNL     1       4.044   1.019  -2.995  1.00  0.00    -0.252 OA
BRANCH  75  77
ATOM     77  C   UNL     1       3.949  -0.015  -5.124  1.00  0.00     0.147 C 
ATOM     78  C   UNL     1       4.524  -1.359  -4.629  1.00  0.00     0.129 C 
ATOM     79  C   UNL     1       5.199   0.561  -5.823  1.00  0.00     0.157 C 
ATOM     80  C   UNL     1       5.897  -1.431  -5.271  1.00  0.00     0.155 C 
ATOM     81  C   UNL     1       5.401  -0.181  -7.114  1.00  0.00     0.004 C 
ATOM     82  O   UNL     1       6.302  -0.062  -5.099  1.00  0.00    -0.365 OA
ATOM     83  C   UNL     1       5.789  -1.421  -6.772  1.00  0.00     0.004 C 
BRANCH  78  84
ATOM     84  C   UNL     1       4.551  -1.635  -3.144  1.00  0.00     0.231 C 
ATOM     85  O   UNL     1       3.601  -2.335  -2.729  1.00  0.00    -0.274 OA
ATOM     86  N   UNL     1       5.432  -1.355  -2.170  1.00  0.00    -0.325 N 
ATOM     87  H   UNL     1       5.194  -1.974  -1.443  1.00  0.00     0.169 HD
BRANCH  86  88
ATOM     88  C   UNL     1       6.539  -0.616  -1.654  1.00  0.00     0.044 A 
ATOM     89  C   UNL     1       7.093  -1.379  -0.574  1.00  0.00     0.026 A 
ATOM     90  C   UNL     1       7.111   0.671  -1.876  1.00  0.00    -0.020 A 
ATOM     91  C   UNL     1       8.143  -0.957   0.236  1.00  0.00     0.002 A 
ATOM     92  C   UNL     1       8.239   1.026  -1.073  1.00  0.00     0.006 A 
ATOM     93  C   UNL     1       8.727   0.257  -0.021  1.00  0.00     0.000 A 
BRANCH  90  94
ATOM     94  C   UNL     1       6.749   1.794  -2.853  1.00  0.00     0.073 C 
BRANCH  94  95
ATOM     95  C   UNL     1       6.219   3.168  -2.381  1.00  0.00    -0.044 A 
ATOM     96  C   UNL     1       5.075   3.714  -3.001  1.00  0.00     0.004 A 
ATOM     97  C   UNL     1       6.879   4.013  -1.479  1.00  0.00     0.004 A 
ATOM     98  C   UNL     1       4.553   4.970  -2.668  1.00  0.00     0.000 A 
ATOM     99  C   UNL     1       6.385   5.293  -1.168  1.00  0.00     0.000 A 
ATOM    100  C   UNL     1       5.211   5.764  -1.745  1.00  0.00     0.000 A 
ENDBRANCH  94  95
ENDBRANCH  90  94
ENDBRANCH  86  88
ENDBRANCH  78  84
ENDBRANCH  75  77
ENDBRANCH  74  75
ENDBRANCH  73  74
ENDBRANCH   1  73
TORSDOF 18
