REMARK SMILES CCS(=O)(=O)Nc1ccc(N2CC[NH+](C)CC2)cc1C(=O)OCCOCCOC(=O)c1ccc(-c2c3nc(c(-c4c(F)c(F)c(F)c(F)c4F)c4ccc([nH]4)c(-c4c(F)c(F)c(F)c(F)c4F)c4nc(c(-c5c(F)c(F)c(F)c(F)c5F)c5ccc2[nH]5)C=C4)C=C3)cc1
REMARK SMILES IDX 24 1 23 2 22 3 20 4 21 5 19 6 7 7 8 8 9 9 18 10 10 11 6 12
REMARK SMILES IDX 3 14 4 15 5 16 2 17 1 18 11 19 12 20 17 21 13 22 16 23 14 24
REMARK SMILES IDX 15 25 25 27 26 28 27 29 28 30 29 31 30 32 31 33 32 34 93 35
REMARK SMILES IDX 33 36 92 37 34 38 35 39 36 40 86 41 37 42 91 43 85 44 87 45
REMARK SMILES IDX 38 46 90 47 84 48 83 49 39 51 71 52 51 53 70 54 52 55 55 56
REMARK SMILES IDX 69 57 88 58 53 59 54 60 68 62 89 63 56 64 40 65 41 66 49 67
REMARK SMILES IDX 42 68 43 69 47 70 50 71 44 72 45 73 48 74 46 75 72 76 73 77
REMARK SMILES IDX 81 78 74 79 75 80 79 81 82 82 76 83 77 84 80 85 78 86 57 87
REMARK SMILES IDX 58 88 66 89 59 90 60 91 64 92 67 93 61 94 62 95 65 96 63 97
REMARK H PARENT 6 13 14 26 87 50 55 61
REMARK Flexibility Score: inf
ROOT
ATOM      1  C   UNL     1       0.262   0.388   3.445  1.00  0.00     0.202 C 
ENDROOT
BRANCH   1   2
ATOM      2  C   UNL     1       0.151  -0.086   1.994  1.00  0.00     0.261 C 
BRANCH   2   3
ATOM      3  O   UNL     1       1.400  -0.430   1.377  1.00  0.00    -0.460 OA
BRANCH   3   4
ATOM      4  C   UNL     1       1.864   0.496   0.496  1.00  0.00     0.340 C 
ATOM      5  O   UNL     1       1.407   1.613   0.322  1.00  0.00    -0.246 OA
BRANCH   4   6
ATOM      6  C   UNL     1       3.017  -0.014  -0.283  1.00  0.00     0.086 A 
ATOM      7  C   UNL     1       3.148  -1.354  -0.678  1.00  0.00     0.063 A 
ATOM      8  C   UNL     1       4.144  -1.692  -1.591  1.00  0.00     0.030 A 
ATOM      9  C   UNL     1       5.014  -0.699  -2.077  1.00  0.00     0.028 A 
ATOM     10  C   UNL     1       3.908   0.958  -0.761  1.00  0.00     0.043 A 
ATOM     11  C   UNL     1       4.927   0.639  -1.657  1.00  0.00     0.038 A 
BRANCH   7  12
ATOM     12  N   UNL     1       2.289  -2.351  -0.133  1.00  0.00    -0.283 N 
ATOM     13  H   UNL     1       2.366  -2.545   0.829  1.00  0.00     0.180 HD
BRANCH  12  14
ATOM     14  S   UNL     1       1.169  -3.208  -1.006  1.00  0.00     0.232 S 
ATOM     15  O   UNL     1       0.099  -3.457  -0.058  1.00  0.00    -0.207 OA
ATOM     16  O   UNL     1       1.855  -4.313  -1.639  1.00  0.00    -0.207 OA
BRANCH  14  17
ATOM     17  C   UNL     1       0.503  -2.173  -2.310  1.00  0.00     0.156 C 
ATOM     18  C   UNL     1       0.104  -0.766  -1.935  1.00  0.00     0.023 C 
ENDBRANCH  14  17
ENDBRANCH  12  14
ENDBRANCH   7  12
BRANCH  11  19
ATOM     19  N   UNL     1       5.802   1.598  -2.116  1.00  0.00    -0.360 N 
ATOM     20  C   UNL     1       6.311   2.684  -1.261  1.00  0.00     0.178 C 
ATOM     21  C   UNL     1       5.997   1.810  -3.559  1.00  0.00     0.178 C 
ATOM     22  C   UNL     1       5.801   4.064  -1.737  1.00  0.00     0.283 C 
ATOM     23  C   UNL     1       5.484   3.215  -3.973  1.00  0.00     0.283 C 
ATOM     24  N   UNL     1       6.085   4.304  -3.169  1.00  0.00    -0.334 N 
ATOM     25  C   UNL     1       5.575   5.608  -3.587  1.00  0.00     0.332 C 
ATOM     26  H   UNL     1       7.094   4.310  -3.318  1.00  0.00     0.347 HD
ENDBRANCH  11  19
ENDBRANCH   4   6
ENDBRANCH   3   4
ENDBRANCH   2   3
ENDBRANCH   1   2
BRANCH   1  27
ATOM     27  O   UNL     1       1.183   1.422   3.760  1.00  0.00    -0.374 OA
BRANCH  27  28
ATOM     28  C   UNL     1       2.579   1.180   3.622  1.00  0.00     0.202 C 
BRANCH  28  29
ATOM     29  C   UNL     1       3.232   0.070   4.454  1.00  0.00     0.261 C 
BRANCH  29  30
ATOM     30  O   UNL     1       2.660  -1.235   4.255  1.00  0.00    -0.460 OA
BRANCH  30  31
ATOM     31  C   UNL     1       2.059  -1.742   5.361  1.00  0.00     0.338 C 
ATOM     32  O   UNL     1       1.948  -1.211   6.453  1.00  0.00    -0.246 OA
BRANCH  31  33
ATOM     33  C   UNL     1       1.407  -3.029   5.073  1.00  0.00     0.060 A 
ATOM     34  C   UNL     1       0.026  -3.119   5.290  1.00  0.00     0.016 A 
ATOM     35  C   UNL     1       2.168  -4.171   4.822  1.00  0.00     0.016 A 
ATOM     36  C   UNL     1      -0.589  -4.368   5.335  1.00  0.00     0.010 A 
ATOM     37  C   UNL     1       1.551  -5.425   4.877  1.00  0.00     0.010 A 
ATOM     38  C   UNL     1       0.184  -5.528   5.192  1.00  0.00    -0.014 A 
BRANCH  38  39
ATOM     39  C   UNL     1      -0.400  -6.832   5.588  1.00  0.00     0.031 A 
ATOM     40  C   UNL     1      -0.144  -7.346   6.979  1.00  0.00     0.074 A 
ATOM     41  C   UNL     1      -1.183  -7.524   4.744  1.00  0.00     0.049 A 
ATOM     42  N   UNL     1      -0.543  -8.458   7.544  1.00  0.00    -0.248 NA
ATOM     43  C   UNL     1       0.671  -6.488   7.854  1.00  0.00     0.031 C 
ATOM     44  C   UNL     1      -1.536  -7.109   3.389  1.00  0.00     0.029 A 
ATOM     45  N   UNL     1      -1.822  -8.726   4.911  1.00  0.00    -0.354 N 
ATOM     46  C   UNL     1      -0.022  -8.436   8.832  1.00  0.00     0.074 A 
ATOM     47  C   UNL     1       0.741  -7.214   8.960  1.00  0.00     0.031 C 
ATOM     48  C   UNL     1      -2.325  -8.049   2.840  1.00  0.00     0.029 A 
ATOM     49  C   UNL     1      -2.510  -9.139   3.798  1.00  0.00     0.049 A 
ATOM     50  H   UNL     1      -1.790  -9.243   5.748  1.00  0.00     0.167 HD
ATOM     51  C   UNL     1      -0.174  -9.348   9.821  1.00  0.00     0.037 A 
ATOM     52  C   UNL     1      -3.198 -10.275   3.578  1.00  0.00     0.037 A 
ATOM     53  C   UNL     1      -0.935 -10.562   9.695  1.00  0.00     0.049 A 
ATOM     54  C   UNL     1      -3.314 -11.297   4.679  1.00  0.00     0.074 A 
ATOM     55  C   UNL     1      -1.150 -11.551  10.639  1.00  0.00     0.029 A 
ATOM     56  N   UNL     1      -1.606 -10.953   8.546  1.00  0.00    -0.354 N 
ATOM     57  N   UNL     1      -2.831 -11.262   5.897  1.00  0.00    -0.248 NA
ATOM     58  C   UNL     1      -4.079 -12.514   4.373  1.00  0.00     0.031 C 
ATOM     59  C   UNL     1      -1.922 -12.558  10.049  1.00  0.00     0.029 A 
ATOM     60  C   UNL     1      -2.224 -12.175   8.752  1.00  0.00     0.049 A 
ATOM     61  H   UNL     1      -1.637 -10.438   7.707  1.00  0.00     0.167 HD
ATOM     62  C   UNL     1      -3.256 -12.433   6.511  1.00  0.00     0.074 A 
ATOM     63  C   UNL     1      -4.045 -13.154   5.534  1.00  0.00     0.031 C 
ATOM     64  C   UNL     1      -3.017 -12.870   7.772  1.00  0.00     0.037 A 
BRANCH  51  65
ATOM     65  C   UNL     1       0.522  -9.075  11.122  1.00  0.00     0.064 A 
ATOM     66  C   UNL     1       0.068  -8.087  12.007  1.00  0.00     0.173 A 
ATOM     67  C   UNL     1       1.646  -9.827  11.496  1.00  0.00     0.173 A 
ATOM     68  F   UNL     1      -0.994  -7.331  11.687  1.00  0.00    -0.203 F 
ATOM     69  C   UNL     1       0.727  -7.844  13.209  1.00  0.00     0.198 A 
ATOM     70  C   UNL     1       2.288  -9.598  12.710  1.00  0.00     0.198 A 
ATOM     71  F   UNL     1       2.119 -10.786  10.687  1.00  0.00    -0.203 F 
ATOM     72  F   UNL     1       0.302  -6.865  14.020  1.00  0.00    -0.200 F 
ATOM     73  C   UNL     1       1.833  -8.603  13.562  1.00  0.00     0.200 A 
ATOM     74  F   UNL     1       3.351 -10.339  13.055  1.00  0.00    -0.200 F 
ATOM     75  F   UNL     1       2.465  -8.371  14.721  1.00  0.00    -0.200 F 
ENDBRANCH  51  65
BRANCH  52  76
ATOM     76  C   UNL     1      -3.836 -10.506   2.257  1.00  0.00     0.064 A 
ATOM     77  C   UNL     1      -5.229 -10.478   2.112  1.00  0.00     0.173 A 
ATOM     78  C   UNL     1      -3.063 -10.770   1.117  1.00  0.00     0.173 A 
ATOM     79  F   UNL     1      -6.009 -10.257   3.180  1.00  0.00    -0.203 F 
ATOM     80  C   UNL     1      -5.827 -10.718   0.877  1.00  0.00     0.198 A 
ATOM     81  C   UNL     1      -3.662 -10.985  -0.123  1.00  0.00     0.198 A 
ATOM     82  F   UNL     1      -1.726 -10.813   1.206  1.00  0.00    -0.203 F 
ATOM     83  F   UNL     1      -7.163 -10.727   0.773  1.00  0.00    -0.200 F 
ATOM     84  C   UNL     1      -5.043 -10.966  -0.240  1.00  0.00     0.200 A 
ATOM     85  F   UNL     1      -2.901 -11.218  -1.201  1.00  0.00    -0.200 F 
ATOM     86  F   UNL     1      -5.620 -11.195  -1.428  1.00  0.00    -0.200 F 
ENDBRANCH  52  76
BRANCH  64  87
ATOM     87  C   UNL     1      -3.651 -14.167   8.182  1.00  0.00     0.064 A 
ATOM     88  C   UNL     1      -3.177 -15.400   7.711  1.00  0.00     0.173 A 
ATOM     89  C   UNL     1      -4.721 -14.176   9.089  1.00  0.00     0.173 A 
ATOM     90  F   UNL     1      -2.164 -15.443   6.832  1.00  0.00    -0.203 F 
ATOM     91  C   UNL     1      -3.768 -16.594   8.114  1.00  0.00     0.198 A 
ATOM     92  C   UNL     1      -5.293 -15.373   9.510  1.00  0.00     0.198 A 
ATOM     93  F   UNL     1      -5.205 -13.023   9.575  1.00  0.00    -0.203 F 
ATOM     94  F   UNL     1      -3.328 -17.759   7.619  1.00  0.00    -0.200 F 
ATOM     95  C   UNL     1      -4.821 -16.580   9.018  1.00  0.00     0.200 A 
ATOM     96  F   UNL     1      -6.303 -15.358  10.392  1.00  0.00    -0.200 F 
ATOM     97  F   UNL     1      -5.386 -17.731   9.408  1.00  0.00    -0.200 F 
ENDBRANCH  64  87
ENDBRANCH  38  39
ENDBRANCH  31  33
ENDBRANCH  30  31
ENDBRANCH  29  30
ENDBRANCH  28  29
ENDBRANCH  27  28
ENDBRANCH   1  27
TORSDOF 18
