REMARK SMILES CCn1cc(C[N@@H+]2CCC[C@H]2C(=O)OCCOCCOC(=O)c2ccc(-c3c4nc(c(-c5c(F)c(F)c(F)c(F)c5F)c5ccc([nH]5)c(-c5c(F)c(F)c(F)c(F)c5F)c5nc(c(-c6c(F)c(F)c(F)c(F)c6F)c6ccc3[nH]6)C=C5)C=C4)cc2)c(C)n1
REMARK SMILES IDX 16 1 15 2 14 3 12 4 13 5 11 6 7 7 8 8 9 10 10 11 6 12 5 13
REMARK SMILES IDX 3 14 4 15 88 16 86 17 87 18 2 19 1 20 17 21 18 22 19 23
REMARK SMILES IDX 20 24 21 25 22 26 23 27 24 28 85 29 25 30 84 31 26 32 27 33
REMARK SMILES IDX 28 34 78 35 29 36 83 37 77 38 79 39 30 40 82 41 76 42 75 43
REMARK SMILES IDX 31 45 63 46 43 47 62 48 44 49 47 50 61 51 80 52 45 53 46 54
REMARK SMILES IDX 60 56 81 57 48 58 32 59 33 60 41 61 34 62 35 63 39 64 42 65
REMARK SMILES IDX 36 66 37 67 40 68 38 69 64 70 65 71 73 72 66 73 67 74 71 75
REMARK SMILES IDX 74 76 68 77 69 78 72 79 70 80 49 81 50 82 58 83 51 84 52 85
REMARK SMILES IDX 56 86 59 87 53 88 54 89 57 90 55 91
REMARK H PARENT 7 9 79 44 47 55
REMARK Flexibility Score: inf
ROOT
ATOM      1  C   UNL     1      -2.052   1.280   9.527  1.00  0.00     0.202 C 
ENDROOT
BRANCH   1   2
ATOM      2  C   UNL     1      -1.969   1.940   8.148  1.00  0.00     0.261 C 
BRANCH   2   3
ATOM      3  O   UNL     1      -1.705   0.943   7.143  1.00  0.00    -0.459 OA
BRANCH   3   4
ATOM      4  C   UNL     1      -0.541   1.052   6.444  1.00  0.00     0.365 C 
ATOM      5  O   UNL     1       0.202   2.026   6.485  1.00  0.00    -0.245 OA
BRANCH   4   6
ATOM      6  C   UNL     1      -0.250  -0.209   5.605  1.00  0.00     0.295 C 
ATOM      7  N   UNL     1       1.057  -0.787   6.016  1.00  0.00    -0.319 N 
ATOM      8  C   UNL     1       0.849  -2.148   6.493  1.00  0.00     0.263 C 
ATOM      9  H   UNL     1       1.410  -0.230   6.794  1.00  0.00     0.349 HD
ATOM     10  C   UNL     1      -0.426  -2.620   5.834  1.00  0.00     0.068 C 
ATOM     11  C   UNL     1      -1.261  -1.358   5.730  1.00  0.00     0.083 C 
BRANCH   7  12
ATOM     12  C   UNL     1       2.155  -0.620   5.057  1.00  0.00     0.303 C 
BRANCH  12  13
ATOM     13  C   UNL     1       1.872  -1.194   3.705  1.00  0.00     0.047 A 
ATOM     14  N   UNL     1       1.221  -1.408   1.611  1.00  0.00    -0.272 N 
ATOM     15  C   UNL     1       1.362  -0.507   2.619  1.00  0.00     0.118 A 
ATOM     16  N   UNL     1       1.644  -2.638   1.942  1.00  0.00    -0.178 NA
ATOM     17  C   UNL     1       2.076  -2.515   3.204  1.00  0.00     0.068 A 
ATOM     18  C   UNL     1       2.641  -3.705   3.888  1.00  0.00     0.069 C 
BRANCH  14  19
ATOM     19  C   UNL     1       0.604  -1.190   0.317  1.00  0.00     0.141 C 
ATOM     20  C   UNL     1       1.000   0.120  -0.344  1.00  0.00     0.029 C 
ENDBRANCH  14  19
ENDBRANCH  12  13
ENDBRANCH   7  12
ENDBRANCH   4   6
ENDBRANCH   3   4
ENDBRANCH   2   3
ENDBRANCH   1   2
BRANCH   1  21
ATOM     21  O   UNL     1      -0.787   0.991  10.125  1.00  0.00    -0.374 OA
BRANCH  21  22
ATOM     22  C   UNL     1      -0.076  -0.138   9.628  1.00  0.00     0.202 C 
BRANCH  22  23
ATOM     23  C   UNL     1      -0.505  -1.476  10.215  1.00  0.00     0.261 C 
BRANCH  23  24
ATOM     24  O   UNL     1      -1.723  -1.947   9.634  1.00  0.00    -0.460 OA
BRANCH  24  25
ATOM     25  C   UNL     1      -2.803  -1.877  10.445  1.00  0.00     0.338 C 
ATOM     26  O   UNL     1      -2.918  -1.216  11.461  1.00  0.00    -0.246 OA
BRANCH  25  27
ATOM     27  C   UNL     1      -3.796  -2.871  10.001  1.00  0.00     0.060 A 
ATOM     28  C   UNL     1      -4.855  -3.128  10.873  1.00  0.00     0.016 A 
ATOM     29  C   UNL     1      -3.607  -3.646   8.845  1.00  0.00     0.016 A 
ATOM     30  C   UNL     1      -5.654  -4.232  10.650  1.00  0.00     0.010 A 
ATOM     31  C   UNL     1      -4.409  -4.752   8.620  1.00  0.00     0.010 A 
ATOM     32  C   UNL     1      -5.396  -5.064   9.551  1.00  0.00    -0.014 A 
BRANCH  32  33
ATOM     33  C   UNL     1      -6.270  -6.214   9.384  1.00  0.00     0.031 A 
ATOM     34  C   UNL     1      -7.665  -5.869   9.038  1.00  0.00     0.074 A 
ATOM     35  C   UNL     1      -5.872  -7.493   9.508  1.00  0.00     0.049 A 
ATOM     36  N   UNL     1      -8.717  -6.043   9.766  1.00  0.00    -0.248 NA
ATOM     37  C   UNL     1      -7.909  -5.160   7.775  1.00  0.00     0.031 C 
ATOM     38  C   UNL     1      -4.499  -7.996   9.557  1.00  0.00     0.029 A 
ATOM     39  N   UNL     1      -6.632  -8.630   9.542  1.00  0.00    -0.354 N 
ATOM     40  C   UNL     1      -9.787  -5.625   8.986  1.00  0.00     0.074 A 
ATOM     41  C   UNL     1      -9.229  -4.972   7.830  1.00  0.00     0.031 C 
ATOM     42  C   UNL     1      -4.516  -9.341   9.418  1.00  0.00     0.029 A 
ATOM     43  C   UNL     1      -5.898  -9.798   9.422  1.00  0.00     0.049 A 
ATOM     44  H   UNL     1      -7.612  -8.620   9.642  1.00  0.00     0.167 HD
ATOM     45  C   UNL     1     -11.044  -6.077   9.238  1.00  0.00     0.037 A 
ATOM     46  C   UNL     1      -6.379 -11.058   9.307  1.00  0.00     0.037 A 
ATOM     47  C   UNL     1     -11.148  -6.682  10.538  1.00  0.00     0.049 A 
ATOM     48  C   UNL     1      -7.747 -11.104   9.870  1.00  0.00     0.074 A 
ATOM     49  C   UNL     1     -11.374  -6.269  11.831  1.00  0.00     0.029 A 
ATOM     50  N   UNL     1     -10.691  -7.968  10.595  1.00  0.00    -0.354 N 
ATOM     51  N   UNL     1      -8.010 -10.982  11.141  1.00  0.00    -0.248 NA
ATOM     52  C   UNL     1      -8.903 -11.021   8.982  1.00  0.00     0.031 C 
ATOM     53  C   UNL     1     -10.928  -7.327  12.681  1.00  0.00     0.029 A 
ATOM     54  C   UNL     1     -10.439  -8.356  11.884  1.00  0.00     0.049 A 
ATOM     55  H   UNL     1     -10.559  -8.544   9.808  1.00  0.00     0.167 HD
ATOM     56  C   UNL     1      -9.259 -10.399  11.172  1.00  0.00     0.074 A 
ATOM     57  C   UNL     1      -9.832 -10.621   9.854  1.00  0.00     0.031 C 
ATOM     58  C   UNL     1      -9.579  -9.487  12.132  1.00  0.00     0.037 A 
BRANCH  45  59
ATOM     59  C   UNL     1     -12.059  -6.397   8.168  1.00  0.00     0.064 A 
ATOM     60  C   UNL     1     -13.384  -6.690   8.547  1.00  0.00     0.173 A 
ATOM     61  C   UNL     1     -11.707  -6.752   6.849  1.00  0.00     0.173 A 
ATOM     62  F   UNL     1     -13.818  -6.416   9.787  1.00  0.00    -0.203 F 
ATOM     63  C   UNL     1     -14.267  -7.350   7.688  1.00  0.00     0.198 A 
ATOM     64  C   UNL     1     -12.607  -7.361   5.976  1.00  0.00     0.198 A 
ATOM     65  F   UNL     1     -10.453  -6.633   6.393  1.00  0.00    -0.203 F 
ATOM     66  F   UNL     1     -15.479  -7.715   8.128  1.00  0.00    -0.200 F 
ATOM     67  C   UNL     1     -13.876  -7.688   6.405  1.00  0.00     0.200 A 
ATOM     68  F   UNL     1     -12.202  -7.702   4.745  1.00  0.00    -0.200 F 
ATOM     69  F   UNL     1     -14.700  -8.370   5.598  1.00  0.00    -0.200 F 
ENDBRANCH  45  59
BRANCH  46  70
ATOM     70  C   UNL     1      -5.779 -12.211   8.608  1.00  0.00     0.064 A 
ATOM     71  C   UNL     1      -6.144 -13.529   8.924  1.00  0.00     0.173 A 
ATOM     72  C   UNL     1      -5.031 -12.027   7.430  1.00  0.00     0.173 A 
ATOM     73  F   UNL     1      -6.889 -13.782  10.009  1.00  0.00    -0.203 F 
ATOM     74  C   UNL     1      -5.805 -14.599   8.092  1.00  0.00     0.198 A 
ATOM     75  C   UNL     1      -4.686 -13.096   6.605  1.00  0.00     0.198 A 
ATOM     76  F   UNL     1      -4.704 -10.796   7.011  1.00  0.00    -0.203 F 
ATOM     77  F   UNL     1      -6.226 -15.836   8.390  1.00  0.00    -0.200 F 
ATOM     78  C   UNL     1      -5.087 -14.380   6.928  1.00  0.00     0.200 A 
ATOM     79  F   UNL     1      -4.019 -12.867   5.465  1.00  0.00    -0.200 F 
ATOM     80  F   UNL     1      -4.816 -15.397   6.098  1.00  0.00    -0.200 F 
ENDBRANCH  46  70
BRANCH  58  81
ATOM     81  C   UNL     1      -8.833  -9.571  13.422  1.00  0.00     0.064 A 
ATOM     82  C   UNL     1      -7.463  -9.296  13.556  1.00  0.00     0.173 A 
ATOM     83  C   UNL     1      -9.545  -9.923  14.576  1.00  0.00     0.173 A 
ATOM     84  F   UNL     1      -6.739  -8.882  12.507  1.00  0.00    -0.203 F 
ATOM     85  C   UNL     1      -6.825  -9.424  14.788  1.00  0.00     0.198 A 
ATOM     86  C   UNL     1      -8.913 -10.016  15.811  1.00  0.00     0.198 A 
ATOM     87  F   UNL     1     -10.865 -10.158  14.507  1.00  0.00    -0.203 F 
ATOM     88  F   UNL     1      -5.509  -9.190  14.891  1.00  0.00    -0.200 F 
ATOM     89  C   UNL     1      -7.551  -9.781  15.914  1.00  0.00     0.200 A 
ATOM     90  F   UNL     1      -9.626 -10.326  16.903  1.00  0.00    -0.200 F 
ATOM     91  F   UNL     1      -6.941  -9.884  17.103  1.00  0.00    -0.200 F 
ENDBRANCH  58  81
ENDBRANCH  32  33
ENDBRANCH  25  27
ENDBRANCH  24  25
ENDBRANCH  23  24
ENDBRANCH  22  23
ENDBRANCH  21  22
ENDBRANCH   1  21
TORSDOF 17
