REMARK SMILES O=C(CN(C(=O)[C@H]1CC[C@H]2CCCC[C@H]2[NH2+]1)C1CC1)OCCOCCOC(=O)c1ccc(-c2c3nc(c(-c4c(F)c(F)c(F)c(F)c4F)c4ccc([nH]4)c(-c4c(F)c(F)c(F)c(F)c4F)c4nc(c(-c5c(F)c(F)c(F)c(F)c5F)c5ccc2[nH]5)C=C4)C=C3)cc1
REMARK SMILES IDX 22 1 21 2 20 3 2 4 1 5 3 6 4 7 5 8 6 9 7 10 8 11 16 12 9 13
REMARK SMILES IDX 15 14 10 17 14 18 11 19 13 20 12 21 17 22 18 23 19 24 23 25
REMARK SMILES IDX 24 26 25 27 26 28 27 29 28 30 29 31 30 32 91 33 31 34 90 35
REMARK SMILES IDX 32 36 33 37 34 38 84 39 35 40 89 41 83 42 85 43 36 44 88 45
REMARK SMILES IDX 82 46 81 47 37 49 69 50 49 51 68 52 50 53 53 54 67 55 86 56
REMARK SMILES IDX 51 57 52 58 66 60 87 61 54 62 38 63 39 64 47 65 40 66 41 67
REMARK SMILES IDX 45 68 48 69 42 70 43 71 46 72 44 73 70 74 71 75 79 76 72 77
REMARK SMILES IDX 73 78 77 79 80 80 74 81 75 82 78 83 76 84 55 85 56 86 64 87
REMARK SMILES IDX 57 88 58 89 62 90 65 91 59 92 60 93 63 94 61 95
REMARK H PARENT 16 15 16 16 85 48 53 59
REMARK Flexibility Score: inf
ROOT
ATOM      1  C   UNL     1       6.351  -2.180  -1.045  1.00  0.00     0.202 C 
ENDROOT
BRANCH   1   2
ATOM      2  C   UNL     1       7.739  -2.295  -0.426  1.00  0.00     0.261 C 
BRANCH   2   3
ATOM      3  O   UNL     1       7.968  -3.582   0.168  1.00  0.00    -0.462 OA
BRANCH   3   4
ATOM      4  C   UNL     1       7.257  -3.996   1.246  1.00  0.00     0.325 C 
ATOM      5  O   UNL     1       6.824  -5.148   1.277  1.00  0.00    -0.250 OA
BRANCH   4   6
ATOM      6  C   UNL     1       6.974  -3.021   2.398  1.00  0.00     0.242 C 
BRANCH   6   7
ATOM      7  N   UNL     1       7.937  -1.923   2.615  1.00  0.00    -0.323 N 
BRANCH   7   8
ATOM      8  C   UNL     1       7.632  -0.552   2.599  1.00  0.00     0.281 C 
ATOM      9  O   UNL     1       8.488   0.301   2.859  1.00  0.00    -0.268 OA
BRANCH   8  10
ATOM     10  C   UNL     1       6.198  -0.068   2.194  1.00  0.00     0.273 C 
ATOM     11  C   UNL     1       5.511   0.565   3.411  1.00  0.00     0.076 C 
ATOM     12  N   UNL     1       6.322   0.916   1.090  1.00  0.00    -0.333 N 
ATOM     13  C   UNL     1       4.199   1.264   3.038  1.00  0.00     0.016 C 
ATOM     14  C   UNL     1       5.022   1.458   0.680  1.00  0.00     0.186 C 
ATOM     15  H   UNL     1       6.755   0.458   0.288  1.00  0.00     0.347 HD
ATOM     16  H   UNL     1       6.892   1.693   1.426  1.00  0.00     0.347 HD
ATOM     17  C   UNL     1       4.365   2.214   1.839  1.00  0.00     0.048 C 
ATOM     18  C   UNL     1       5.167   2.411  -0.507  1.00  0.00     0.065 C 
ATOM     19  C   UNL     1       5.129   3.494   2.232  1.00  0.00     0.010 C 
ATOM     20  C   UNL     1       6.088   3.581  -0.207  1.00  0.00     0.006 C 
ATOM     21  C   UNL     1       5.792   4.297   1.107  1.00  0.00     0.001 C 
ENDBRANCH   8  10
ENDBRANCH   7   8
BRANCH   7  22
ATOM     22  C   UNL     1       9.283  -2.424   2.896  1.00  0.00     0.086 C 
ATOM     23  C   UNL     1      10.504  -1.674   3.334  1.00  0.00     0.027 C 
ATOM     24  C   UNL     1       9.745  -2.501   4.328  1.00  0.00     0.027 C 
ENDBRANCH   7  22
ENDBRANCH   6   7
ENDBRANCH   4   6
ENDBRANCH   3   4
ENDBRANCH   2   3
ENDBRANCH   1   2
BRANCH   1  25
ATOM     25  O   UNL     1       5.302  -2.410  -0.101  1.00  0.00    -0.374 OA
BRANCH  25  26
ATOM     26  C   UNL     1       4.560  -3.618  -0.329  1.00  0.00     0.202 C 
BRANCH  26  27
ATOM     27  C   UNL     1       3.357  -3.438  -1.259  1.00  0.00     0.261 C 
BRANCH  27  28
ATOM     28  O   UNL     1       3.788  -3.012  -2.559  1.00  0.00    -0.460 OA
BRANCH  28  29
ATOM     29  C   UNL     1       3.774  -1.673  -2.758  1.00  0.00     0.338 C 
ATOM     30  O   UNL     1       3.281  -0.821  -2.036  1.00  0.00    -0.246 OA
BRANCH  29  31
ATOM     31  C   UNL     1       4.660  -1.359  -3.899  1.00  0.00     0.060 A 
ATOM     32  C   UNL     1       5.408  -0.174  -3.837  1.00  0.00     0.016 A 
ATOM     33  C   UNL     1       4.800  -2.223  -4.987  1.00  0.00     0.016 A 
ATOM     34  C   UNL     1       6.274   0.170  -4.868  1.00  0.00     0.010 A 
ATOM     35  C   UNL     1       5.657  -1.875  -6.028  1.00  0.00     0.010 A 
ATOM     36  C   UNL     1       6.368  -0.662  -5.986  1.00  0.00    -0.014 A 
BRANCH  36  37
ATOM     37  C   UNL     1       7.024  -0.178  -7.217  1.00  0.00     0.031 A 
ATOM     38  C   UNL     1       6.144   0.356  -8.307  1.00  0.00     0.074 A 
ATOM     39  C   UNL     1       8.355  -0.255  -7.373  1.00  0.00     0.049 A 
ATOM     40  N   UNL     1       6.441   0.675  -9.537  1.00  0.00    -0.248 NA
ATOM     41  C   UNL     1       4.723   0.533  -7.962  1.00  0.00     0.031 C 
ATOM     42  C   UNL     1       9.299  -0.717  -6.360  1.00  0.00     0.029 A 
ATOM     43  N   UNL     1       9.134   0.027  -8.465  1.00  0.00    -0.354 N 
ATOM     44  C   UNL     1       5.242   1.061 -10.121  1.00  0.00     0.074 A 
ATOM     45  C   UNL     1       4.209   0.913  -9.120  1.00  0.00     0.031 C 
ATOM     46  C   UNL     1      10.534  -0.726  -6.892  1.00  0.00     0.029 A 
ATOM     47  C   UNL     1      10.453  -0.311  -8.292  1.00  0.00     0.049 A 
ATOM     48  H   UNL     1       8.783   0.431  -9.291  1.00  0.00     0.167 HD
ATOM     49  C   UNL     1       5.027   1.498 -11.383  1.00  0.00     0.037 A 
ATOM     50  C   UNL     1      11.464  -0.325  -9.182  1.00  0.00     0.037 A 
ATOM     51  C   UNL     1       6.070   1.640 -12.362  1.00  0.00     0.049 A 
ATOM     52  C   UNL     1      11.195   0.113 -10.599  1.00  0.00     0.074 A 
ATOM     53  C   UNL     1       5.978   2.111 -13.658  1.00  0.00     0.029 A 
ATOM     54  N   UNL     1       7.399   1.299 -12.149  1.00  0.00    -0.354 N 
ATOM     55  N   UNL     1      10.068   0.505 -11.145  1.00  0.00    -0.248 NA
ATOM     56  C   UNL     1      12.336   0.107 -11.525  1.00  0.00     0.031 C 
ATOM     57  C   UNL     1       7.239   1.994 -14.251  1.00  0.00     0.029 A 
ATOM     58  C   UNL     1       8.132   1.516 -13.303  1.00  0.00     0.049 A 
ATOM     59  H   UNL     1       7.765   0.954 -11.303  1.00  0.00     0.167 HD
ATOM     60  C   UNL     1      10.368   0.820 -12.464  1.00  0.00     0.074 A 
ATOM     61  C   UNL     1      11.786   0.577 -12.636  1.00  0.00     0.031 C 
ATOM     62  C   UNL     1       9.547   1.274 -13.444  1.00  0.00     0.037 A 
BRANCH  49  63
ATOM     63  C   UNL     1       3.612   1.801 -11.779  1.00  0.00     0.064 A 
ATOM     64  C   UNL     1       2.902   2.883 -11.237  1.00  0.00     0.173 A 
ATOM     65  C   UNL     1       2.953   0.990 -12.716  1.00  0.00     0.173 A 
ATOM     66  F   UNL     1       3.477   3.679 -10.322  1.00  0.00    -0.203 F 
ATOM     67  C   UNL     1       1.575   3.119 -11.589  1.00  0.00     0.198 A 
ATOM     68  C   UNL     1       1.639   1.250 -13.092  1.00  0.00     0.198 A 
ATOM     69  F   UNL     1       3.584  -0.060 -13.264  1.00  0.00    -0.203 F 
ATOM     70  F   UNL     1       0.897   4.119 -11.009  1.00  0.00    -0.200 F 
ATOM     71  C   UNL     1       0.947   2.307 -12.521  1.00  0.00     0.200 A 
ATOM     72  F   UNL     1       1.038   0.469 -14.001  1.00  0.00    -0.200 F 
ATOM     73  F   UNL     1      -0.329   2.535 -12.860  1.00  0.00    -0.200 F 
ENDBRANCH  49  63
BRANCH  50  74
ATOM     74  C   UNL     1      12.808  -0.797  -8.760  1.00  0.00     0.064 A 
ATOM     75  C   UNL     1      13.889   0.088  -8.660  1.00  0.00     0.173 A 
ATOM     76  C   UNL     1      13.035  -2.143  -8.431  1.00  0.00     0.173 A 
ATOM     77  F   UNL     1      13.729   1.379  -8.985  1.00  0.00    -0.203 F 
ATOM     78  C   UNL     1      15.148  -0.355  -8.257  1.00  0.00     0.198 A 
ATOM     79  C   UNL     1      14.286  -2.579  -8.001  1.00  0.00     0.198 A 
ATOM     80  F   UNL     1      12.033  -3.031  -8.509  1.00  0.00    -0.203 F 
ATOM     81  F   UNL     1      16.174   0.506  -8.205  1.00  0.00    -0.200 F 
ATOM     82  C   UNL     1      15.343  -1.686  -7.920  1.00  0.00     0.200 A 
ATOM     83  F   UNL     1      14.466  -3.863  -7.662  1.00  0.00    -0.200 F 
ATOM     84  F   UNL     1      16.551  -2.109  -7.521  1.00  0.00    -0.200 F 
ENDBRANCH  50  74
BRANCH  62  85
ATOM     85  C   UNL     1      10.161   1.581 -14.779  1.00  0.00     0.064 A 
ATOM     86  C   UNL     1      10.575   0.566 -15.652  1.00  0.00     0.173 A 
ATOM     87  C   UNL     1      10.256   2.910 -15.221  1.00  0.00     0.173 A 
ATOM     88  F   UNL     1      10.516  -0.719 -15.271  1.00  0.00    -0.203 F 
ATOM     89  C   UNL     1      11.075   0.872 -16.916  1.00  0.00     0.198 A 
ATOM     90  C   UNL     1      10.726   3.210 -16.496  1.00  0.00     0.198 A 
ATOM     91  F   UNL     1       9.864   3.917 -14.426  1.00  0.00    -0.203 F 
ATOM     92  F   UNL     1      11.497  -0.112 -17.723  1.00  0.00    -0.200 F 
ATOM     93  C   UNL     1      11.139   2.191 -17.340  1.00  0.00     0.200 A 
ATOM     94  F   UNL     1      10.769   4.483 -16.911  1.00  0.00    -0.200 F 
ATOM     95  F   UNL     1      11.601   2.481 -18.565  1.00  0.00    -0.200 F 
ENDBRANCH  62  85
ENDBRANCH  36  37
ENDBRANCH  29  31
ENDBRANCH  28  29
ENDBRANCH  27  28
ENDBRANCH  26  27
ENDBRANCH  25  26
ENDBRANCH   1  25
TORSDOF 18
