REMARK SMILES CCCCCCCCNC(=O)Oc1cccc(-c2ccc([C@@H](C)C(=O)OCCOCCOC(=O)c3ccc(-c4c5nc(c(-c6c(F)c(F)c(F)c(F)c6F)c6ccc([nH]6)c(-c6c(F)c(F)c(F)c(F)c6F)c6nc(c(-c7c(F)c(F)c(F)c(F)c7F)c7ccc4[nH]7)C=C6)C=C5)cc3)cc2F)c1
REMARK SMILES IDX 22 1 23 2 21 3 18 4 19 5 99 6 20 7 98 8 100 9 17 10 13 11
REMARK SMILES IDX 14 12 101 13 15 14 16 15 12 16 10 17 9 18 11 20 8 21 7 22
REMARK SMILES IDX 6 23 5 24 4 25 3 26 2 27 1 28 24 29 25 30 26 31 27 32 28 33
REMARK SMILES IDX 29 34 30 35 31 36 32 37 33 38 34 39 35 40 36 41 97 42 37 43
REMARK SMILES IDX 96 44 38 45 39 46 40 47 90 48 41 49 95 50 89 51 91 52 42 53
REMARK SMILES IDX 94 54 88 55 87 56 43 58 75 59 55 60 74 61 56 62 59 63 73 64
REMARK SMILES IDX 92 65 57 66 58 67 72 69 93 70 60 71 44 72 45 73 53 74 46 75
REMARK SMILES IDX 47 76 51 77 54 78 48 79 49 80 52 81 50 82 76 83 77 84 85 85
REMARK SMILES IDX 78 86 79 87 83 88 86 89 80 90 81 91 84 92 82 93 61 94 62 95
REMARK SMILES IDX 70 96 63 97 64 98 68 99 71 100 65 101 66 102 69 103 67 104
REMARK H PARENT 9 19 91 57 59 68
REMARK Flexibility Score: inf
ROOT
ATOM      1  C   UNL     1      -9.655 -12.966  -0.178  1.00  0.00     0.126 C 
ATOM      2  C   UNL     1      -9.926 -14.369   0.360  1.00  0.00     0.025 C 
ENDROOT
BRANCH   1   3
ATOM      3  C   UNL     1      -8.658 -12.208   0.692  1.00  0.00    -0.031 A 
ATOM      4  C   UNL     1      -6.645 -10.975   2.302  1.00  0.00     0.018 A 
ATOM      5  C   UNL     1      -7.894 -11.330   2.839  1.00  0.00     0.012 A 
ATOM      6  C   UNL     1      -6.446 -11.219   0.938  1.00  0.00     0.131 A 
ATOM      7  C   UNL     1      -8.884 -11.937   2.049  1.00  0.00     0.005 A 
ATOM      8  C   UNL     1      -7.425 -11.820   0.144  1.00  0.00     0.044 A 
ATOM      9  F   UNL     1      -5.276 -10.908   0.358  1.00  0.00    -0.206 F 
BRANCH   4  10
ATOM     10  C   UNL     1      -5.580 -10.408   3.148  1.00  0.00    -0.012 A 
ATOM     11  C   UNL     1      -3.896  -8.714   3.592  1.00  0.00     0.133 A 
ATOM     12  C   UNL     1      -3.471  -9.389   4.733  1.00  0.00     0.047 A 
ATOM     13  C   UNL     1      -4.927  -9.216   2.795  1.00  0.00     0.056 A 
ATOM     14  C   UNL     1      -4.109 -10.571   5.099  1.00  0.00     0.004 A 
ATOM     15  C   UNL     1      -5.154 -11.073   4.314  1.00  0.00     0.009 A 
BRANCH  11  16
ATOM     16  O   UNL     1      -3.159  -7.583   3.209  1.00  0.00    -0.410 OA
BRANCH  16  17
ATOM     17  C   UNL     1      -3.856  -6.409   2.977  1.00  0.00     0.412 C 
ATOM     18  N   UNL     1      -3.060  -5.387   2.542  1.00  0.00    -0.321 N 
ATOM     19  H   UNL     1      -3.505  -4.527   2.365  1.00  0.00     0.167 HD
ATOM     20  O   UNL     1      -5.063  -6.242   3.140  1.00  0.00    -0.224 OA
BRANCH  18  21
ATOM     21  C   UNL     1      -1.629  -5.436   2.312  1.00  0.00     0.119 C 
BRANCH  21  22
ATOM     22  C   UNL     1      -1.270  -5.137   0.856  1.00  0.00     0.021 C 
BRANCH  22  23
ATOM     23  C   UNL     1      -1.662  -3.735   0.369  1.00  0.00     0.002 C 
BRANCH  23  24
ATOM     24  C   UNL     1      -1.070  -2.571   1.171  1.00  0.00     0.000 C 
BRANCH  24  25
ATOM     25  C   UNL     1       0.460  -2.495   1.173  1.00  0.00    -0.000 C 
BRANCH  25  26
ATOM     26  C   UNL     1       1.102  -2.250  -0.198  1.00  0.00    -0.000 C 
BRANCH  26  27
ATOM     27  C   UNL     1       0.671  -0.961  -0.903  1.00  0.00    -0.003 C 
ATOM     28  C   UNL     1       1.008   0.299  -0.120  1.00  0.00     0.004 C 
ENDBRANCH  26  27
ENDBRANCH  25  26
ENDBRANCH  24  25
ENDBRANCH  23  24
ENDBRANCH  22  23
ENDBRANCH  21  22
ENDBRANCH  18  21
ENDBRANCH  16  17
ENDBRANCH  11  16
ENDBRANCH   4  10
ENDBRANCH   1   3
BRANCH   1  29
ATOM     29  C   UNL     1     -10.979 -12.292  -0.503  1.00  0.00     0.313 C 
ATOM     30  O   UNL     1     -11.595 -12.545  -1.534  1.00  0.00    -0.252 OA
BRANCH  29  31
ATOM     31  O   UNL     1     -11.413 -11.436   0.459  1.00  0.00    -0.463 OA
BRANCH  31  32
ATOM     32  C   UNL     1     -12.593 -10.678   0.137  1.00  0.00     0.261 C 
BRANCH  32  33
ATOM     33  C   UNL     1     -12.295  -9.177   0.102  1.00  0.00     0.202 C 
BRANCH  33  34
ATOM     34  O   UNL     1     -11.428  -8.731  -0.940  1.00  0.00    -0.374 OA
BRANCH  34  35
ATOM     35  C   UNL     1     -10.030  -8.973  -0.783  1.00  0.00     0.202 C 
BRANCH  35  36
ATOM     36  C   UNL     1      -9.277  -8.058   0.190  1.00  0.00     0.261 C 
BRANCH  36  37
ATOM     37  O   UNL     1      -9.701  -8.238   1.553  1.00  0.00    -0.460 OA
BRANCH  37  38
ATOM     38  C   UNL     1     -10.367  -7.181   2.080  1.00  0.00     0.338 C 
ATOM     39  O   UNL     1     -10.589  -6.106   1.554  1.00  0.00    -0.246 OA
BRANCH  38  40
ATOM     40  C   UNL     1     -10.990  -7.567   3.362  1.00  0.00     0.060 A 
ATOM     41  C   UNL     1     -12.359  -7.310   3.510  1.00  0.00     0.016 A 
ATOM     42  C   UNL     1     -10.247  -8.084   4.425  1.00  0.00     0.016 A 
ATOM     43  C   UNL     1     -12.981  -7.516   4.738  1.00  0.00     0.010 A 
ATOM     44  C   UNL     1     -10.872  -8.285   5.662  1.00  0.00     0.010 A 
ATOM     45  C   UNL     1     -12.233  -7.965   5.834  1.00  0.00    -0.014 A 
BRANCH  45  46
ATOM     46  C   UNL     1     -12.846  -7.946   7.186  1.00  0.00     0.031 A 
ATOM     47  C   UNL     1     -12.539  -6.801   8.111  1.00  0.00     0.074 A 
ATOM     48  C   UNL     1     -13.703  -8.909   7.568  1.00  0.00     0.049 A 
ATOM     49  N   UNL     1     -12.954  -6.585   9.334  1.00  0.00    -0.248 NA
ATOM     50  C   UNL     1     -11.645  -5.757   7.586  1.00  0.00     0.031 C 
ATOM     51  C   UNL     1     -14.114 -10.046   6.748  1.00  0.00     0.029 A 
ATOM     52  N   UNL     1     -14.380  -9.082   8.750  1.00  0.00    -0.354 N 
ATOM     53  C   UNL     1     -12.368  -5.388   9.725  1.00  0.00     0.074 A 
ATOM     54  C   UNL     1     -11.545  -4.938   8.623  1.00  0.00     0.031 C 
ATOM     55  C   UNL     1     -14.967 -10.806   7.455  1.00  0.00     0.029 A 
ATOM     56  C   UNL     1     -15.138 -10.226   8.786  1.00  0.00     0.049 A 
ATOM     57  H   UNL     1     -14.328  -8.445   9.499  1.00  0.00     0.167 HD
ATOM     58  C   UNL     1     -12.510  -4.720  10.895  1.00  0.00     0.037 A 
ATOM     59  C   UNL     1     -15.868 -10.753   9.788  1.00  0.00     0.037 A 
ATOM     60  C   UNL     1     -13.333  -5.163  11.989  1.00  0.00     0.049 A 
ATOM     61  C   UNL     1     -15.958 -10.024  11.104  1.00  0.00     0.074 A 
ATOM     62  C   UNL     1     -13.561  -4.543  13.205  1.00  0.00     0.029 A 
ATOM     63  N   UNL     1     -14.058  -6.346  12.002  1.00  0.00    -0.354 N 
ATOM     64  N   UNL     1     -15.423  -8.880  11.456  1.00  0.00    -0.248 NA
ATOM     65  C   UNL     1     -16.757 -10.659  12.162  1.00  0.00     0.031 C 
ATOM     66  C   UNL     1     -14.382  -5.375  13.974  1.00  0.00     0.029 A 
ATOM     67  C   UNL     1     -14.710  -6.487  13.217  1.00  0.00     0.049 A 
ATOM     68  H   UNL     1     -14.102  -6.989  11.259  1.00  0.00     0.167 HD
ATOM     69  C   UNL     1     -15.842  -8.645  12.759  1.00  0.00     0.074 A 
ATOM     70  C   UNL     1     -16.686  -9.760  13.133  1.00  0.00     0.031 C 
ATOM     71  C   UNL     1     -15.553  -7.600  13.573  1.00  0.00     0.037 A 
BRANCH  58  72
ATOM     72  C   UNL     1     -11.735  -3.446  11.063  1.00  0.00     0.064 A 
ATOM     73  C   UNL     1     -12.076  -2.276  10.368  1.00  0.00     0.173 A 
ATOM     74  C   UNL     1     -10.657  -3.386  11.960  1.00  0.00     0.173 A 
ATOM     75  F   UNL     1     -13.091  -2.283   9.491  1.00  0.00    -0.203 F 
ATOM     76  C   UNL     1     -11.351  -1.100  10.547  1.00  0.00     0.198 A 
ATOM     77  C   UNL     1      -9.953  -2.201  12.156  1.00  0.00     0.198 A 
ATOM     78  F   UNL     1     -10.293  -4.475  12.653  1.00  0.00    -0.203 F 
ATOM     79  F   UNL     1     -11.668  -0.006   9.840  1.00  0.00    -0.200 F 
ATOM     80  C   UNL     1     -10.295  -1.062  11.445  1.00  0.00     0.200 A 
ATOM     81  F   UNL     1      -8.941  -2.163  13.035  1.00  0.00    -0.200 F 
ATOM     82  F   UNL     1      -9.604   0.072  11.621  1.00  0.00    -0.200 F 
ENDBRANCH  58  72
BRANCH  59  83
ATOM     83  C   UNL     1     -16.565 -12.051   9.593  1.00  0.00     0.064 A 
ATOM     84  C   UNL     1     -17.964 -12.125   9.547  1.00  0.00     0.173 A 
ATOM     85  C   UNL     1     -15.844 -13.248   9.465  1.00  0.00     0.173 A 
ATOM     86  F   UNL     1     -18.698 -11.012   9.692  1.00  0.00    -0.203 F 
ATOM     87  C   UNL     1     -18.615 -13.348   9.399  1.00  0.00     0.198 A 
ATOM     88  C   UNL     1     -16.495 -14.466   9.287  1.00  0.00     0.198 A 
ATOM     89  F   UNL     1     -14.503 -13.232   9.505  1.00  0.00    -0.203 F 
ATOM     90  F   UNL     1     -19.954 -13.397   9.405  1.00  0.00    -0.200 F 
ATOM     91  C   UNL     1     -17.880 -14.517   9.263  1.00  0.00     0.200 A 
ATOM     92  F   UNL     1     -15.780 -15.591   9.145  1.00  0.00    -0.200 F 
ATOM     93  F   UNL     1     -18.507 -15.692   9.116  1.00  0.00    -0.200 F 
ENDBRANCH  59  83
BRANCH  71  94
ATOM     94  C   UNL     1     -16.182  -7.591  14.938  1.00  0.00     0.064 A 
ATOM     95  C   UNL     1     -15.765  -8.471  15.947  1.00  0.00     0.173 A 
ATOM     96  C   UNL     1     -17.185  -6.661  15.251  1.00  0.00     0.173 A 
ATOM     97  F   UNL     1     -14.820  -9.389  15.694  1.00  0.00    -0.203 F 
ATOM     98  C   UNL     1     -16.347  -8.437  17.212  1.00  0.00     0.198 A 
ATOM     99  C   UNL     1     -17.743  -6.609  16.525  1.00  0.00     0.198 A 
ATOM    100  F   UNL     1     -17.614  -5.791  14.324  1.00  0.00    -0.203 F 
ATOM    101  F   UNL     1     -15.966  -9.318  18.147  1.00  0.00    -0.200 F 
ATOM    102  C   UNL     1     -17.329  -7.502  17.502  1.00  0.00     0.200 A 
ATOM    103  F   UNL     1     -18.682  -5.695  16.807  1.00  0.00    -0.200 F 
ATOM    104  F   UNL     1     -17.882  -7.465  18.722  1.00  0.00    -0.200 F 
ENDBRANCH  71  94
ENDBRANCH  45  46
ENDBRANCH  38  40
ENDBRANCH  37  38
ENDBRANCH  36  37
ENDBRANCH  35  36
ENDBRANCH  34  35
ENDBRANCH  33  34
ENDBRANCH  32  33
ENDBRANCH  31  32
ENDBRANCH  29  31
ENDBRANCH   1  29
TORSDOF 25
