REMARK SMILES O=C(OCCOCCOC(=O)[C@@]1([NH2+]C2CC2)CCC[C@@H](n2cncn2)C1)c1ccc(-c2c3nc(c(-c4c(F)c(F)c(F)c(F)c4F)c4ccc([nH]4)c(-c4c(F)c(F)c(F)c(F)c4F)c4nc(c(-c5c(F)c(F)c(F)c(F)c5F)c5ccc2[nH]5)C=C4)C=C3)cc1
REMARK SMILES IDX 6 1 5 2 4 3 3 4 2 5 1 6 27 7 28 8 89 9 29 10 88 11 30 12
REMARK SMILES IDX 31 13 32 14 82 15 33 16 87 17 81 18 83 19 34 20 86 21 80 22
REMARK SMILES IDX 79 23 35 25 67 26 47 27 66 28 48 29 51 30 65 31 84 32 49 33
REMARK SMILES IDX 50 34 64 36 85 37 52 38 36 39 37 40 45 41 38 42 39 43 43 44
REMARK SMILES IDX 46 45 40 46 41 47 44 48 42 49 68 50 69 51 77 52 70 53 71 54
REMARK SMILES IDX 75 55 78 56 72 57 73 58 76 59 74 60 53 61 54 62 62 63 55 64
REMARK SMILES IDX 56 65 60 66 63 67 57 68 58 69 61 70 59 71 7 72 8 73 9 74
REMARK SMILES IDX 10 75 11 76 12 77 17 78 26 79 18 80 20 81 19 82 13 83 14 86
REMARK SMILES IDX 15 87 16 88 21 89 22 90 25 91 23 92 24 93
REMARK H PARENT 83 24 51 35 13 84 13 85
REMARK Flexibility Score: inf
ROOT
ATOM      1  O   UNL     1       4.207   1.146   0.510  1.00  0.00    -0.374 OA
ENDROOT
BRANCH   1   2
ATOM      2  C   UNL     1       4.787   0.384  -0.542  1.00  0.00     0.202 C 
BRANCH   2   3
ATOM      3  C   UNL     1       4.580  -1.134  -0.638  1.00  0.00     0.261 C 
BRANCH   3   4
ATOM      4  O   UNL     1       3.235  -1.489  -1.018  1.00  0.00    -0.460 OA
BRANCH   4   5
ATOM      5  C   UNL     1       2.142  -0.952  -0.434  1.00  0.00     0.338 C 
ATOM      6  O   UNL     1       1.181  -0.580  -1.105  1.00  0.00    -0.246 OA
BRANCH   5   7
ATOM      7  C   UNL     1       2.030  -1.059   1.042  1.00  0.00     0.060 A 
ATOM      8  C   UNL     1       3.120  -1.257   1.891  1.00  0.00     0.016 A 
ATOM      9  C   UNL     1       0.736  -1.084   1.571  1.00  0.00     0.016 A 
ATOM     10  C   UNL     1       2.942  -1.863   3.098  1.00  0.00     0.010 A 
ATOM     11  C   UNL     1       0.542  -1.583   2.840  1.00  0.00     0.010 A 
ATOM     12  C   UNL     1       1.645  -2.111   3.506  1.00  0.00    -0.014 A 
BRANCH  12  13
ATOM     13  C   UNL     1       1.514  -2.984   4.645  1.00  0.00     0.031 A 
ATOM     14  C   UNL     1       2.167  -2.472   5.877  1.00  0.00     0.074 A 
ATOM     15  C   UNL     1       0.850  -4.142   4.488  1.00  0.00     0.049 A 
ATOM     16  N   UNL     1       3.056  -3.047   6.620  1.00  0.00    -0.248 NA
ATOM     17  C   UNL     1       1.918  -1.059   6.219  1.00  0.00     0.031 C 
ATOM     18  C   UNL     1       0.083  -4.602   3.323  1.00  0.00     0.029 A 
ATOM     19  N   UNL     1       0.612  -5.105   5.410  1.00  0.00    -0.354 N 
ATOM     20  C   UNL     1       3.328  -2.138   7.639  1.00  0.00     0.074 A 
ATOM     21  C   UNL     1       2.735  -0.885   7.255  1.00  0.00     0.031 C 
ATOM     22  C   UNL     1      -0.747  -5.595   3.702  1.00  0.00     0.029 A 
ATOM     23  C   UNL     1      -0.464  -5.920   5.084  1.00  0.00     0.049 A 
ATOM     24  H   UNL     1       1.147  -5.216   6.228  1.00  0.00     0.167 HD
ATOM     25  C   UNL     1       3.784  -2.550   8.851  1.00  0.00     0.037 A 
ATOM     26  C   UNL     1      -1.153  -6.657   5.986  1.00  0.00     0.037 A 
ATOM     27  C   UNL     1       4.476  -3.805   8.764  1.00  0.00     0.049 A 
ATOM     28  C   UNL     1      -0.262  -6.833   7.168  1.00  0.00     0.074 A 
ATOM     29  C   UNL     1       5.627  -4.225   8.125  1.00  0.00     0.029 A 
ATOM     30  N   UNL     1       3.801  -4.952   9.101  1.00  0.00    -0.354 N 
ATOM     31  N   UNL     1       0.852  -7.516   7.129  1.00  0.00    -0.248 NA
ATOM     32  C   UNL     1      -0.346  -5.840   8.233  1.00  0.00     0.031 C 
ATOM     33  C   UNL     1       5.343  -5.550   7.681  1.00  0.00     0.029 A 
ATOM     34  C   UNL     1       4.059  -5.876   8.119  1.00  0.00     0.049 A 
ATOM     35  H   UNL     1       3.239  -5.087   9.898  1.00  0.00     0.167 HD
ATOM     36  C   UNL     1       1.751  -6.784   7.895  1.00  0.00     0.074 A 
ATOM     37  C   UNL     1       0.939  -5.792   8.595  1.00  0.00     0.031 C 
ATOM     38  C   UNL     1       3.097  -6.855   7.673  1.00  0.00     0.037 A 
BRANCH  25  39
ATOM     39  C   UNL     1       3.242  -1.990  10.139  1.00  0.00     0.064 A 
ATOM     40  C   UNL     1       3.862  -2.324  11.355  1.00  0.00     0.173 A 
ATOM     41  C   UNL     1       1.966  -1.389  10.247  1.00  0.00     0.173 A 
ATOM     42  F   UNL     1       5.062  -2.924  11.367  1.00  0.00    -0.203 F 
ATOM     43  C   UNL     1       3.221  -2.130  12.582  1.00  0.00     0.198 A 
ATOM     44  C   UNL     1       1.355  -1.147  11.472  1.00  0.00     0.198 A 
ATOM     45  F   UNL     1       1.210  -1.116   9.176  1.00  0.00    -0.203 F 
ATOM     46  F   UNL     1       3.795  -2.573  13.709  1.00  0.00    -0.200 F 
ATOM     47  C   UNL     1       1.967  -1.548  12.639  1.00  0.00     0.200 A 
ATOM     48  F   UNL     1       0.132  -0.600  11.501  1.00  0.00    -0.200 F 
ATOM     49  F   UNL     1       1.326  -1.419  13.807  1.00  0.00    -0.200 F 
ENDBRANCH  25  39
BRANCH  26  50
ATOM     50  C   UNL     1      -2.628  -6.782   6.031  1.00  0.00     0.064 A 
ATOM     51  C   UNL     1      -3.244  -7.806   6.762  1.00  0.00     0.173 A 
ATOM     52  C   UNL     1      -3.476  -5.764   5.540  1.00  0.00     0.173 A 
ATOM     53  F   UNL     1      -2.501  -8.778   7.310  1.00  0.00    -0.203 F 
ATOM     54  C   UNL     1      -4.625  -7.815   6.985  1.00  0.00     0.198 A 
ATOM     55  C   UNL     1      -4.853  -5.781   5.752  1.00  0.00     0.198 A 
ATOM     56  F   UNL     1      -2.978  -4.686   4.918  1.00  0.00    -0.203 F 
ATOM     57  F   UNL     1      -5.175  -8.785   7.729  1.00  0.00    -0.200 F 
ATOM     58  C   UNL     1      -5.427  -6.802   6.482  1.00  0.00     0.200 A 
ATOM     59  F   UNL     1      -5.609  -4.774   5.290  1.00  0.00    -0.200 F 
ATOM     60  F   UNL     1      -6.743  -6.788   6.735  1.00  0.00    -0.200 F 
ENDBRANCH  26  50
BRANCH  38  61
ATOM     61  C   UNL     1       3.585  -7.879   6.686  1.00  0.00     0.064 A 
ATOM     62  C   UNL     1       3.296  -7.820   5.310  1.00  0.00     0.173 A 
ATOM     63  C   UNL     1       4.500  -8.850   7.108  1.00  0.00     0.173 A 
ATOM     64  F   UNL     1       2.523  -6.846   4.815  1.00  0.00    -0.203 F 
ATOM     65  C   UNL     1       3.857  -8.723   4.409  1.00  0.00     0.198 A 
ATOM     66  C   UNL     1       5.088  -9.729   6.201  1.00  0.00     0.198 A 
ATOM     67  F   UNL     1       4.868  -8.908   8.397  1.00  0.00    -0.203 F 
ATOM     68  F   UNL     1       3.558  -8.647   3.104  1.00  0.00    -0.200 F 
ATOM     69  C   UNL     1       4.758  -9.674   4.856  1.00  0.00     0.200 A 
ATOM     70  F   UNL     1       6.001 -10.612   6.628  1.00  0.00    -0.200 F 
ATOM     71  F   UNL     1       5.334 -10.516   3.986  1.00  0.00    -0.200 F 
ENDBRANCH  38  61
ENDBRANCH  12  13
ENDBRANCH   5   7
ENDBRANCH   4   5
ENDBRANCH   3   4
ENDBRANCH   2   3
ENDBRANCH   1   2
BRANCH   1  72
ATOM     72  C   UNL     1       3.071   1.979   0.211  1.00  0.00     0.202 C 
BRANCH  72  73
ATOM     73  C   UNL     1       3.103   3.022  -0.921  1.00  0.00     0.261 C 
BRANCH  73  74
ATOM     74  O   UNL     1       3.412   2.490  -2.222  1.00  0.00    -0.459 OA
BRANCH  74  75
ATOM     75  C   UNL     1       4.723   2.621  -2.587  1.00  0.00     0.368 C 
ATOM     76  O   UNL     1       5.573   3.128  -1.858  1.00  0.00    -0.245 OA
BRANCH  75  77
ATOM     77  C   UNL     1       5.057   1.982  -3.962  1.00  0.00     0.196 C 
ATOM     78  C   UNL     1       6.520   2.356  -4.279  1.00  0.00     0.081 C 
ATOM     79  C   UNL     1       5.022   0.422  -3.862  1.00  0.00     0.108 C 
ATOM     80  C   UNL     1       7.033   1.724  -5.561  1.00  0.00     0.009 C 
ATOM     81  C   UNL     1       5.582  -0.339  -5.084  1.00  0.00     0.116 C 
ATOM     82  C   UNL     1       6.971   0.206  -5.476  1.00  0.00     0.028 C 
BRANCH  77  83
ATOM     83  N   UNL     1       4.089   2.375  -5.006  1.00  0.00    -0.330 N 
ATOM     84  H   UNL     1       3.259   1.805  -4.842  1.00  0.00     0.347 HD
ATOM     85  H   UNL     1       4.651   2.249  -5.848  1.00  0.00     0.347 HD
BRANCH  83  86
ATOM     86  C   UNL     1       3.602   3.741  -5.196  1.00  0.00     0.183 C 
ATOM     87  C   UNL     1       3.783   4.923  -4.292  1.00  0.00     0.071 C 
ATOM     88  C   UNL     1       4.530   4.853  -5.591  1.00  0.00     0.071 C 
ENDBRANCH  83  86
ENDBRANCH  77  83
BRANCH  81  89
ATOM     89  N   UNL     1       5.621  -1.790  -4.851  1.00  0.00    -0.250 N 
ATOM     90  C   UNL     1       4.579  -2.632  -4.599  1.00  0.00     0.220 A 
ATOM     91  N   UNL     1       6.773  -2.488  -4.940  1.00  0.00    -0.160 NA
ATOM     92  N   UNL     1       5.014  -3.871  -4.532  1.00  0.00    -0.224 NA
ATOM     93  C   UNL     1       6.352  -3.740  -4.757  1.00  0.00     0.246 A 
ENDBRANCH  81  89
ENDBRANCH  75  77
ENDBRANCH  74  75
ENDBRANCH  73  74
ENDBRANCH  72  73
ENDBRANCH   1  72
TORSDOF 17
