REMARK SMILES C[C@H](C(=O)OCCOCCOC(=O)c1ccc(-c2c3nc(c(-c4c(F)c(F)c(F)c(F)c4F)c4ccc([nH]4)c(-c4c(F)c(F)c(F)c(F)c4F)c4nc(c(-c5c(F)c(F)c(F)c(F)c5F)c5ccc2[nH]5)C=C4)C=C3)cc1)N1C(=O)C[C@@H](N2C(=O)/C(=C/c3ccccc3)SC2=S)C1=O
REMARK SMILES IDX 7 1 6 2 5 3 3 4 4 5 2 6 1 7 77 8 78 9 96 10 79 11 80 12
REMARK SMILES IDX 81 13 97 14 82 15 83 16 94 17 84 18 85 19 93 20 95 21 86 22
REMARK SMILES IDX 87 23 88 24 92 25 89 26 91 27 90 28 8 29 9 30 10 31 11 32
REMARK SMILES IDX 12 33 13 34 14 35 15 36 76 37 16 38 75 39 17 40 18 41 19 42
REMARK SMILES IDX 69 43 20 44 74 45 68 46 70 47 21 48 73 49 67 50 66 51 22 53
REMARK SMILES IDX 54 54 34 55 53 56 35 57 38 58 52 59 71 60 36 61 37 62 51 64
REMARK SMILES IDX 72 65 39 66 23 67 24 68 32 69 25 70 26 71 30 72 33 73 27 74
REMARK SMILES IDX 28 75 31 76 29 77 55 78 56 79 64 80 57 81 58 82 62 83 65 84
REMARK SMILES IDX 59 85 60 86 63 87 61 88 40 89 41 90 49 91 42 92 43 93 47 94
REMARK SMILES IDX 50 95 44 96 45 97 48 98 46 99
REMARK H PARENT 70 52 38 63
REMARK Flexibility Score: inf
ROOT
ATOM      1  C   UNL     1       1.130   1.267   2.520  1.00  0.00     0.202 C 
ENDROOT
BRANCH   1   2
ATOM      2  C   UNL     1       1.846   1.383   1.175  1.00  0.00     0.261 C 
BRANCH   2   3
ATOM      3  O   UNL     1       1.039   0.851   0.111  1.00  0.00    -0.462 OA
BRANCH   3   4
ATOM      4  C   UNL     1       1.736   0.214  -0.868  1.00  0.00     0.329 C 
ATOM      5  O   UNL     1       2.961   0.206  -0.941  1.00  0.00    -0.250 OA
BRANCH   4   6
ATOM      6  C   UNL     1       0.842  -0.512  -1.887  1.00  0.00     0.200 C 
ATOM      7  C   UNL     1       1.391  -1.933  -2.052  1.00  0.00     0.044 C 
BRANCH   6   8
ATOM      8  N   UNL     1      -0.609  -0.449  -1.645  1.00  0.00    -0.267 N 
ATOM      9  C   UNL     1      -1.302   0.716  -1.843  1.00  0.00     0.232 C 
ATOM     10  C   UNL     1      -1.447  -1.495  -1.362  1.00  0.00     0.253 C 
ATOM     11  O   UNL     1      -0.823   1.810  -2.103  1.00  0.00    -0.274 OA
ATOM     12  C   UNL     1      -2.768   0.481  -1.625  1.00  0.00     0.136 C 
ATOM     13  C   UNL     1      -2.883  -1.031  -1.532  1.00  0.00     0.191 C 
ATOM     14  O   UNL     1      -1.146  -2.651  -1.103  1.00  0.00    -0.272 OA
BRANCH  13  15
ATOM     15  N   UNL     1      -3.507  -1.690  -2.700  1.00  0.00    -0.280 N 
ATOM     16  C   UNL     1      -3.021  -1.430  -3.970  1.00  0.00     0.266 C 
ATOM     17  C   UNL     1      -4.559  -2.583  -2.635  1.00  0.00     0.149 C 
ATOM     18  O   UNL     1      -2.052  -0.728  -4.227  1.00  0.00    -0.268 OA
ATOM     19  C   UNL     1      -3.838  -2.108  -5.006  1.00  0.00     0.081 C 
ATOM     20  S   UNL     1      -5.036  -3.076  -4.260  1.00  0.00    -0.054 SA
ATOM     21  S   UNL     1      -5.362  -3.132  -1.281  1.00  0.00    -0.052 S 
ATOM     22  C   UNL     1      -3.603  -1.908  -6.310  1.00  0.00     0.029 C 
BRANCH  22  23
ATOM     23  C   UNL     1      -4.363  -2.441  -7.445  1.00  0.00    -0.024 A 
ATOM     24  C   UNL     1      -3.705  -3.209  -8.413  1.00  0.00     0.008 A 
ATOM     25  C   UNL     1      -5.713  -2.120  -7.631  1.00  0.00     0.008 A 
ATOM     26  C   UNL     1      -4.392  -3.663  -9.541  1.00  0.00     0.001 A 
ATOM     27  C   UNL     1      -6.398  -2.574  -8.760  1.00  0.00     0.001 A 
ATOM     28  C   UNL     1      -5.738  -3.345  -9.714  1.00  0.00     0.000 A 
ENDBRANCH  22  23
ENDBRANCH  13  15
ENDBRANCH   6   8
ENDBRANCH   4   6
ENDBRANCH   3   4
ENDBRANCH   2   3
ENDBRANCH   1   2
BRANCH   1  29
ATOM     29  O   UNL     1       0.785  -0.056   2.928  1.00  0.00    -0.374 OA
BRANCH  29  30
ATOM     30  C   UNL     1      -0.247  -0.730   2.207  1.00  0.00     0.202 C 
BRANCH  30  31
ATOM     31  C   UNL     1      -1.672  -0.193   2.399  1.00  0.00     0.261 C 
BRANCH  31  32
ATOM     32  O   UNL     1      -1.844   1.145   1.885  1.00  0.00    -0.460 OA
BRANCH  32  33
ATOM     33  C   UNL     1      -2.262   2.048   2.807  1.00  0.00     0.338 C 
ATOM     34  O   UNL     1      -2.607   1.817   3.961  1.00  0.00    -0.246 OA
BRANCH  33  35
ATOM     35  C   UNL     1      -2.121   3.431   2.317  1.00  0.00     0.060 A 
ATOM     36  C   UNL     1      -1.328   4.306   3.072  1.00  0.00     0.016 A 
ATOM     37  C   UNL     1      -2.860   3.907   1.233  1.00  0.00     0.016 A 
ATOM     38  C   UNL     1      -1.311   5.669   2.777  1.00  0.00     0.010 A 
ATOM     39  C   UNL     1      -2.848   5.279   0.943  1.00  0.00     0.010 A 
ATOM     40  C   UNL     1      -2.105   6.172   1.738  1.00  0.00    -0.014 A 
BRANCH  40  41
ATOM     41  C   UNL     1      -2.266   7.641   1.592  1.00  0.00     0.031 A 
ATOM     42  C   UNL     1      -3.476   8.311   2.188  1.00  0.00     0.074 A 
ATOM     43  C   UNL     1      -1.325   8.383   0.982  1.00  0.00     0.049 A 
ATOM     44  N   UNL     1      -3.812   9.577   2.187  1.00  0.00    -0.248 NA
ATOM     45  C   UNL     1      -4.434   7.436   2.880  1.00  0.00     0.031 C 
ATOM     46  C   UNL     1      -0.090   7.864   0.400  1.00  0.00     0.029 A 
ATOM     47  N   UNL     1      -1.264   9.735   0.753  1.00  0.00    -0.354 N 
ATOM     48  C   UNL     1      -5.018   9.649   2.872  1.00  0.00     0.074 A 
ATOM     49  C   UNL     1      -5.370   8.298   3.251  1.00  0.00     0.031 C 
ATOM     50  C   UNL     1       0.608   8.886  -0.124  1.00  0.00     0.029 A 
ATOM     51  C   UNL     1      -0.144  10.127   0.063  1.00  0.00     0.049 A 
ATOM     52  H   UNL     1      -1.958  10.365   1.056  1.00  0.00     0.167 HD
ATOM     53  C   UNL     1      -5.760  10.744   3.168  1.00  0.00     0.037 A 
ATOM     54  C   UNL     1       0.223  11.345  -0.381  1.00  0.00     0.037 A 
ATOM     55  C   UNL     1      -5.410  12.090   2.799  1.00  0.00     0.049 A 
ATOM     56  C   UNL     1      -0.655  12.537  -0.099  1.00  0.00     0.074 A 
ATOM     57  C   UNL     1      -6.085  13.266   3.080  1.00  0.00     0.029 A 
ATOM     58  N   UNL     1      -4.289  12.441   2.062  1.00  0.00    -0.354 N 
ATOM     59  N   UNL     1      -1.776  12.599   0.576  1.00  0.00    -0.248 NA
ATOM     60  C   UNL     1      -0.212  13.830  -0.642  1.00  0.00     0.031 C 
ATOM     61  C   UNL     1      -5.399  14.322   2.471  1.00  0.00     0.029 A 
ATOM     62  C   UNL     1      -4.270  13.810   1.853  1.00  0.00     0.049 A 
ATOM     63  H   UNL     1      -3.608  11.809   1.735  1.00  0.00     0.167 HD
ATOM     64  C   UNL     1      -2.157  13.935   0.563  1.00  0.00     0.074 A 
ATOM     65  C   UNL     1      -1.142  14.652  -0.178  1.00  0.00     0.031 C 
ATOM     66  C   UNL     1      -3.250  14.515   1.119  1.00  0.00     0.037 A 
BRANCH  53  67
ATOM     67  C   UNL     1      -7.045  10.528   3.911  1.00  0.00     0.064 A 
ATOM     68  C   UNL     1      -7.061  10.188   5.272  1.00  0.00     0.173 A 
ATOM     69  C   UNL     1      -8.276  10.701   3.262  1.00  0.00     0.173 A 
ATOM     70  F   UNL     1      -5.910   9.999   5.934  1.00  0.00    -0.203 F 
ATOM     71  C   UNL     1      -8.264  10.006   5.949  1.00  0.00     0.198 A 
ATOM     72  C   UNL     1      -9.477  10.544   3.949  1.00  0.00     0.198 A 
ATOM     73  F   UNL     1      -8.315  11.031   1.962  1.00  0.00    -0.203 F 
ATOM     74  F   UNL     1      -8.257   9.640   7.239  1.00  0.00    -0.200 F 
ATOM     75  C   UNL     1      -9.470  10.190   5.289  1.00  0.00     0.200 A 
ATOM     76  F   UNL     1     -10.641  10.732   3.312  1.00  0.00    -0.200 F 
ATOM     77  F   UNL     1     -10.627  10.020   5.944  1.00  0.00    -0.200 F 
ENDBRANCH  53  67
BRANCH  54  78
ATOM     78  C   UNL     1       1.486  11.503  -1.148  1.00  0.00     0.064 A 
ATOM     79  C   UNL     1       2.582  12.186  -0.604  1.00  0.00     0.173 A 
ATOM     80  C   UNL     1       1.613  10.993  -2.449  1.00  0.00     0.173 A 
ATOM     81  F   UNL     1       2.497  12.717   0.624  1.00  0.00    -0.203 F 
ATOM     82  C   UNL     1       3.753  12.364  -1.337  1.00  0.00     0.198 A 
ATOM     83  C   UNL     1       2.794  11.149  -3.170  1.00  0.00     0.198 A 
ATOM     84  F   UNL     1       0.589  10.339  -3.016  1.00  0.00    -0.203 F 
ATOM     85  F   UNL     1       4.771  13.060  -0.811  1.00  0.00    -0.200 F 
ATOM     86  C   UNL     1       3.861  11.841  -2.617  1.00  0.00     0.200 A 
ATOM     87  F   UNL     1       2.896  10.636  -4.404  1.00  0.00    -0.200 F 
ATOM     88  F   UNL     1       4.988  12.012  -3.321  1.00  0.00    -0.200 F 
ENDBRANCH  54  78
BRANCH  66  89
ATOM     89  C   UNL     1      -3.392  16.003   0.976  1.00  0.00     0.064 A 
ATOM     90  C   UNL     1      -3.739  16.595  -0.247  1.00  0.00     0.173 A 
ATOM     91  C   UNL     1      -3.221  16.842   2.088  1.00  0.00     0.173 A 
ATOM     92  F   UNL     1      -3.900  15.837  -1.342  1.00  0.00    -0.203 F 
ATOM     93  C   UNL     1      -3.888  17.975  -0.356  1.00  0.00     0.198 A 
ATOM     94  C   UNL     1      -3.397  18.219   1.981  1.00  0.00     0.198 A 
ATOM     95  F   UNL     1      -2.895  16.325   3.282  1.00  0.00    -0.203 F 
ATOM     96  F   UNL     1      -4.179  18.524  -1.544  1.00  0.00    -0.200 F 
ATOM     97  C   UNL     1      -3.724  18.785   0.758  1.00  0.00     0.200 A 
ATOM     98  F   UNL     1      -3.251  18.998   3.062  1.00  0.00    -0.200 F 
ATOM     99  F   UNL     1      -3.875  20.112   0.652  1.00  0.00    -0.200 F 
ENDBRANCH  66  89
ENDBRANCH  40  41
ENDBRANCH  33  35
ENDBRANCH  32  33
ENDBRANCH  31  32
ENDBRANCH  30  31
ENDBRANCH  29  30
ENDBRANCH   1  29
TORSDOF 17
