REMARK SMILES CC1=C(C#N)c2nc(N)c(C#N)c(C)c2/C1=C\c1ccc(OCC(=O)OCCOCCOC(=O)c2ccc(-c3c4nc(c(-c5c(F)c(F)c(F)c(F)c5F)c5ccc([nH]5)c(-c5c(F)c(F)c(F)c(F)c5F)c5nc(c(-c6c(F)c(F)c(F)c(F)c6F)c6ccc3[nH]6)C=C5)C=C4)cc2)c(Cl)c1
REMARK SMILES IDX 28 1 27 2 26 3 24 4 25 5 23 6 22 7 21 8 18 9 19 10 100 11
REMARK SMILES IDX 20 12 98 13 99 14 17 15 1 16 2 17 3 18 16 19 6 20 15 21 7 22
REMARK SMILES IDX 13 23 8 24 10 25 14 26 4 27 5 28 9 29 11 32 12 33 29 34
REMARK SMILES IDX 30 35 31 36 32 37 33 38 34 39 35 40 36 41 97 42 37 43 96 44
REMARK SMILES IDX 38 45 39 46 40 47 90 48 41 49 95 50 89 51 91 52 42 53 94 54
REMARK SMILES IDX 88 55 87 56 43 58 75 59 55 60 74 61 56 62 59 63 73 64 92 65
REMARK SMILES IDX 57 66 58 67 72 69 93 70 60 71 44 72 45 73 53 74 46 75 47 76
REMARK SMILES IDX 51 77 54 78 48 79 49 80 52 81 50 82 76 83 77 84 85 85 78 86
REMARK SMILES IDX 79 87 83 88 86 89 80 90 81 91 84 92 82 93 61 94 62 95 70 96
REMARK SMILES IDX 63 97 64 98 68 99 71 100 65 101 66 102 69 103 67 104
REMARK H PARENT 9 30 9 31 91 57 59 68
REMARK Flexibility Score: inf
ROOT
ATOM      1  C   UNL     1       1.760  10.429   0.935  1.00  0.00     0.202 C 
ENDROOT
BRANCH   1   2
ATOM      2  C   UNL     1       3.142  11.095   0.738  1.00  0.00     0.261 C 
BRANCH   2   3
ATOM      3  O   UNL     1       4.267  10.200   0.459  1.00  0.00    -0.461 OA
BRANCH   3   4
ATOM      4  C   UNL     1       5.081   9.831   1.498  1.00  0.00     0.344 C 
ATOM      5  O   UNL     1       5.048  10.382   2.594  1.00  0.00    -0.248 OA
BRANCH   4   6
ATOM      6  C   UNL     1       6.045   8.589   1.205  1.00  0.00     0.352 C 
BRANCH   6   7
ATOM      7  O   UNL     1       5.897   7.459   0.342  1.00  0.00    -0.480 OA
BRANCH   7   8
ATOM      8  C   UNL     1       5.356   6.216   0.582  1.00  0.00     0.138 A 
ATOM      9  C   UNL     1       3.620   3.889   0.438  1.00  0.00    -0.023 A 
ATOM     10  C   UNL     1       4.318   4.345  -0.685  1.00  0.00     0.012 A 
ATOM     11  C   UNL     1       3.972   4.483   1.662  1.00  0.00     0.032 A 
ATOM     12  C   UNL     1       5.175   5.474  -0.608  1.00  0.00     0.048 A 
ATOM     13  C   UNL     1       4.826   5.633   1.740  1.00  0.00     0.083 A 
ATOM     14  Cl  UNL     1       5.097   6.262   3.321  1.00  0.00    -0.080 Cl
BRANCH   9  15
ATOM     15  C   UNL     1       2.596   2.801   0.314  1.00  0.00     0.017 C 
ATOM     16  C   UNL     1       1.060   0.070   0.005  1.00  0.00     0.046 C 
ATOM     17  C   UNL     1       0.505   1.455   0.036  1.00  0.00    -0.023 C 
ATOM     18  C   UNL     1      -0.807   1.741  -0.069  1.00  0.00     0.082 C 
ATOM     19  C   UNL     1       1.235   2.747   0.207  1.00  0.00    -0.011 C 
ATOM     20  C   UNL     1      -1.067   3.133  -0.041  1.00  0.00     0.092 A 
ATOM     21  C   UNL     1       0.121   3.767   0.186  1.00  0.00     0.014 A 
ATOM     22  N   UNL     1      -2.328   3.630  -0.123  1.00  0.00    -0.228 NA
ATOM     23  C   UNL     1      -0.075   5.094   0.424  1.00  0.00    -0.019 A 
ATOM     24  C   UNL     1      -2.452   4.950   0.003  1.00  0.00     0.142 A 
ATOM     25  C   UNL     1      -1.341   5.728   0.278  1.00  0.00     0.098 A 
ATOM     26  C   UNL     1       1.072   5.810   0.932  1.00  0.00     0.046 C 
BRANCH  18  27
ATOM     27  C   UNL     1      -2.003   0.804  -0.097  1.00  0.00     0.102 C 
ATOM     28  N   UNL     1      -2.995   0.026  -0.120  1.00  0.00    -0.192 NA
ENDBRANCH  18  27
BRANCH  24  29
ATOM     29  N   UNL     1      -3.736   5.444  -0.044  1.00  0.00    -0.383 N 
ATOM     30  H   UNL     1      -4.488   4.842  -0.245  1.00  0.00     0.158 HD
ATOM     31  H   UNL     1      -3.901   6.401   0.122  1.00  0.00     0.158 HD
ENDBRANCH  24  29
BRANCH  25  32
ATOM     32  C   UNL     1      -1.488   7.150   0.369  1.00  0.00     0.103 C 
ATOM     33  N   UNL     1      -1.595   8.309   0.368  1.00  0.00    -0.192 NA
ENDBRANCH  25  32
ENDBRANCH   9  15
ENDBRANCH   7   8
ENDBRANCH   6   7
ENDBRANCH   4   6
ENDBRANCH   3   4
ENDBRANCH   2   3
ENDBRANCH   1   2
BRANCH   1  34
ATOM     34  O   UNL     1       1.719   9.305   1.791  1.00  0.00    -0.374 OA
BRANCH  34  35
ATOM     35  C   UNL     1       2.605   8.249   1.485  1.00  0.00     0.202 C 
BRANCH  35  36
ATOM     36  C   UNL     1       2.874   7.913  -0.009  1.00  0.00     0.261 C 
BRANCH  36  37
ATOM     37  O   UNL     1       1.843   8.278  -0.915  1.00  0.00    -0.460 OA
BRANCH  37  38
ATOM     38  C   UNL     1       1.633   7.417  -1.924  1.00  0.00     0.338 C 
ATOM     39  O   UNL     1       2.000   6.260  -2.030  1.00  0.00    -0.246 OA
BRANCH  38  40
ATOM     40  C   UNL     1       1.024   8.149  -3.024  1.00  0.00     0.060 A 
ATOM     41  C   UNL     1       0.011   9.091  -2.823  1.00  0.00     0.016 A 
ATOM     42  C   UNL     1       1.515   7.841  -4.294  1.00  0.00     0.016 A 
ATOM     43  C   UNL     1      -0.574   9.684  -3.929  1.00  0.00     0.010 A 
ATOM     44  C   UNL     1       0.963   8.462  -5.390  1.00  0.00     0.010 A 
ATOM     45  C   UNL     1      -0.099   9.357  -5.205  1.00  0.00    -0.014 A 
BRANCH  45  46
ATOM     46  C   UNL     1      -0.680   9.951  -6.409  1.00  0.00     0.031 A 
ATOM     47  C   UNL     1      -1.500   9.089  -7.308  1.00  0.00     0.074 A 
ATOM     48  C   UNL     1      -0.322  11.208  -6.704  1.00  0.00     0.049 A 
ATOM     49  N   UNL     1      -1.928   9.337  -8.514  1.00  0.00    -0.248 NA
ATOM     50  C   UNL     1      -1.863   7.757  -6.795  1.00  0.00     0.031 C 
ATOM     51  C   UNL     1       0.494  12.071  -5.845  1.00  0.00     0.029 A 
ATOM     52  N   UNL     1      -0.564  11.963  -7.812  1.00  0.00    -0.354 N 
ATOM     53  C   UNL     1      -2.612   8.195  -8.905  1.00  0.00     0.074 A 
ATOM     54  C   UNL     1      -2.503   7.234  -7.831  1.00  0.00     0.031 C 
ATOM     55  C   UNL     1       0.686  13.244  -6.463  1.00  0.00     0.029 A 
ATOM     56  C   UNL     1       0.054  13.185  -7.775  1.00  0.00     0.049 A 
ATOM     57  H   UNL     1      -1.125  11.661  -8.563  1.00  0.00     0.167 HD
ATOM     58  C   UNL     1      -3.278   7.997 -10.065  1.00  0.00     0.037 A 
ATOM     59  C   UNL     1       0.116  14.134  -8.722  1.00  0.00     0.037 A 
ATOM     60  C   UNL     1      -3.327   8.985 -11.111  1.00  0.00     0.049 A 
ATOM     61  C   UNL     1      -0.585  13.863 -10.020  1.00  0.00     0.074 A 
ATOM     62  C   UNL     1      -3.959   8.919 -12.337  1.00  0.00     0.029 A 
ATOM     63  N   UNL     1      -2.704  10.228 -11.044  1.00  0.00    -0.354 N 
ATOM     64  N   UNL     1      -1.250  12.793 -10.390  1.00  0.00    -0.248 NA
ATOM     65  C   UNL     1      -0.535  14.925 -11.027  1.00  0.00     0.031 C 
ATOM     66  C   UNL     1      -3.679  10.102 -13.030  1.00  0.00     0.029 A 
ATOM     67  C   UNL     1      -2.927  10.934 -12.213  1.00  0.00     0.049 A 
ATOM     68  H   UNL     1      -2.182  10.557 -10.277  1.00  0.00     0.167 HD
ATOM     69  C   UNL     1      -1.726  13.059 -11.663  1.00  0.00     0.074 A 
ATOM     70  C   UNL     1      -1.283  14.404 -11.989  1.00  0.00     0.031 C 
ATOM     71  C   UNL     1      -2.460  12.273 -12.490  1.00  0.00     0.037 A 
BRANCH  58  72
ATOM     72  C   UNL     1      -3.987   6.687 -10.253  1.00  0.00     0.064 A 
ATOM     73  C   UNL     1      -5.112   6.344  -9.485  1.00  0.00     0.173 A 
ATOM     74  C   UNL     1      -3.570   5.778 -11.237  1.00  0.00     0.173 A 
ATOM     75  F   UNL     1      -5.543   7.165  -8.516  1.00  0.00    -0.203 F 
ATOM     76  C   UNL     1      -5.781   5.139  -9.685  1.00  0.00     0.198 A 
ATOM     77  C   UNL     1      -4.260   4.587 -11.456  1.00  0.00     0.198 A 
ATOM     78  F   UNL     1      -2.497   6.047 -11.996  1.00  0.00    -0.203 F 
ATOM     79  F   UNL     1      -6.827   4.819  -8.911  1.00  0.00    -0.200 F 
ATOM     80  C   UNL     1      -5.362   4.267 -10.678  1.00  0.00     0.200 A 
ATOM     81  F   UNL     1      -3.858   3.749 -12.422  1.00  0.00    -0.200 F 
ATOM     82  F   UNL     1      -6.016   3.115 -10.881  1.00  0.00    -0.200 F 
ENDBRANCH  58  72
BRANCH  59  83
ATOM     83  C   UNL     1       0.812  15.411  -8.432  1.00  0.00     0.064 A 
ATOM     84  C   UNL     1       0.077  16.590  -8.255  1.00  0.00     0.173 A 
ATOM     85  C   UNL     1       2.200  15.471  -8.238  1.00  0.00     0.173 A 
ATOM     86  F   UNL     1      -1.253  16.581  -8.429  1.00  0.00    -0.203 F 
ATOM     87  C   UNL     1       0.704  17.783  -7.904  1.00  0.00     0.198 A 
ATOM     88  C   UNL     1       2.823  16.658  -7.858  1.00  0.00     0.198 A 
ATOM     89  F   UNL     1       2.947  14.364  -8.371  1.00  0.00    -0.203 F 
ATOM     90  F   UNL     1      -0.022  18.900  -7.761  1.00  0.00    -0.200 F 
ATOM     91  C   UNL     1       2.075  17.814  -7.696  1.00  0.00     0.200 A 
ATOM     92  F   UNL     1       4.143  16.677  -7.630  1.00  0.00    -0.200 F 
ATOM     93  F   UNL     1       2.674  18.957  -7.335  1.00  0.00    -0.200 F 
ENDBRANCH  59  83
BRANCH  71  94
ATOM     94  C   UNL     1      -2.848  12.871 -13.809  1.00  0.00     0.064 A 
ATOM     95  C   UNL     1      -1.903  13.100 -14.819  1.00  0.00     0.173 A 
ATOM     96  C   UNL     1      -4.190  13.182 -14.075  1.00  0.00     0.173 A 
ATOM     97  F   UNL     1      -0.606  12.832 -14.605  1.00  0.00    -0.203 F 
ATOM     98  C   UNL     1      -2.283  13.654 -16.037  1.00  0.00     0.198 A 
ATOM     99  C   UNL     1      -4.572  13.698 -15.308  1.00  0.00     0.198 A 
ATOM    100  F   UNL     1      -5.132  12.971 -13.143  1.00  0.00    -0.203 F 
ATOM    101  F   UNL     1      -1.355  13.924 -16.965  1.00  0.00    -0.200 F 
ATOM    102  C   UNL     1      -3.617  13.943 -16.284  1.00  0.00     0.200 A 
ATOM    103  F   UNL     1      -5.863  13.957 -15.552  1.00  0.00    -0.200 F 
ATOM    104  F   UNL     1      -3.982  14.467 -17.461  1.00  0.00    -0.200 F 
ENDBRANCH  71  94
ENDBRANCH  45  46
ENDBRANCH  38  40
ENDBRANCH  37  38
ENDBRANCH  36  37
ENDBRANCH  35  36
ENDBRANCH  34  35
ENDBRANCH   1  34
TORSDOF 20
