REMARK SMILES O=C(OCCOCCOC(=O)C1([NH+]2CCOCC2)CCC1)c1ccc(-c2c3nc(c(-c4c(F)c(F)c(F)c(F)c4F)c4ccc([nH]4)c(-c4c(F)c(F)c(F)c(F)c4F)c4nc(c(-c5c(F)c(F)c(F)c(F)c5F)c5ccc2[nH]5)C=C4)C=C3)cc1
REMARK SMILES IDX 5 1 4 2 3 3 2 4 1 5 22 6 23 7 84 8 24 9 83 10 25 11 26 12
REMARK SMILES IDX 27 13 77 14 28 15 82 16 76 17 78 18 29 19 81 20 75 21 74 22
REMARK SMILES IDX 30 24 62 25 42 26 61 27 43 28 46 29 60 30 79 31 44 32 45 33
REMARK SMILES IDX 59 35 80 36 47 37 31 38 32 39 40 40 33 41 34 42 38 43 41 44
REMARK SMILES IDX 35 45 36 46 39 47 37 48 63 49 64 50 72 51 65 52 66 53 70 54
REMARK SMILES IDX 73 55 67 56 68 57 71 58 69 59 48 60 49 61 57 62 50 63 51 64
REMARK SMILES IDX 55 65 58 66 52 67 53 68 56 69 54 70 6 71 7 72 8 73 9 74
REMARK SMILES IDX 10 75 11 76 12 77 19 78 21 79 20 80 13 81 14 82 18 83 15 85
REMARK SMILES IDX 17 86 16 87
REMARK H PARENT 78 23 46 34 13 84
REMARK Flexibility Score: inf
ROOT
ATOM      1  C   UNL     1       4.468   0.893   0.076  1.00  0.00     0.202 C 
ENDROOT
BRANCH   1   2
ATOM      2  C   UNL     1       4.066  -0.542  -0.319  1.00  0.00     0.261 C 
BRANCH   2   3
ATOM      3  O   UNL     1       2.629  -0.722  -0.447  1.00  0.00    -0.460 OA
BRANCH   3   4
ATOM      4  C   UNL     1       1.813  -1.409   0.415  1.00  0.00     0.338 C 
ATOM      5  O   UNL     1       0.655  -1.659   0.153  1.00  0.00    -0.246 OA
BRANCH   4   6
ATOM      6  C   UNL     1       2.414  -1.867   1.686  1.00  0.00     0.060 A 
ATOM      7  C   UNL     1       3.188  -0.972   2.380  1.00  0.00     0.016 A 
ATOM      8  C   UNL     1       2.314  -3.162   2.169  1.00  0.00     0.016 A 
ATOM      9  C   UNL     1       4.236  -1.415   3.128  1.00  0.00     0.010 A 
ATOM     10  C   UNL     1       3.130  -3.537   3.248  1.00  0.00     0.010 A 
ATOM     11  C   UNL     1       4.159  -2.678   3.680  1.00  0.00    -0.014 A 
BRANCH  11  12
ATOM     12  C   UNL     1       5.213  -3.023   4.658  1.00  0.00     0.031 A 
ATOM     13  C   UNL     1       6.033  -4.250   4.425  1.00  0.00     0.074 A 
ATOM     14  C   UNL     1       5.524  -2.143   5.638  1.00  0.00     0.049 A 
ATOM     15  N   UNL     1       6.888  -4.829   5.221  1.00  0.00    -0.248 NA
ATOM     16  C   UNL     1       5.864  -4.929   3.128  1.00  0.00     0.031 C 
ATOM     17  C   UNL     1       4.872  -0.841   5.862  1.00  0.00     0.029 A 
ATOM     18  N   UNL     1       6.507  -2.164   6.591  1.00  0.00    -0.354 N 
ATOM     19  C   UNL     1       7.299  -5.974   4.555  1.00  0.00     0.074 A 
ATOM     20  C   UNL     1       6.605  -6.014   3.289  1.00  0.00     0.031 C 
ATOM     21  C   UNL     1       5.537  -0.155   6.797  1.00  0.00     0.029 A 
ATOM     22  C   UNL     1       6.529  -1.036   7.380  1.00  0.00     0.049 A 
ATOM     23  H   UNL     1       7.137  -2.912   6.701  1.00  0.00     0.167 HD
ATOM     24  C   UNL     1       8.176  -6.907   4.989  1.00  0.00     0.037 A 
ATOM     25  C   UNL     1       7.211  -0.779   8.510  1.00  0.00     0.037 A 
ATOM     26  C   UNL     1       8.863  -6.798   6.247  1.00  0.00     0.049 A 
ATOM     27  C   UNL     1       8.102  -1.874   9.017  1.00  0.00     0.074 A 
ATOM     28  C   UNL     1       9.699  -7.706   6.865  1.00  0.00     0.029 A 
ATOM     29  N   UNL     1       8.797  -5.680   7.074  1.00  0.00    -0.354 N 
ATOM     30  N   UNL     1       8.376  -3.034   8.466  1.00  0.00    -0.248 NA
ATOM     31  C   UNL     1       8.750  -1.648  10.310  1.00  0.00     0.031 C 
ATOM     32  C   UNL     1      10.109  -7.153   8.084  1.00  0.00     0.029 A 
ATOM     33  C   UNL     1       9.576  -5.876   8.199  1.00  0.00     0.049 A 
ATOM     34  H   UNL     1       8.273  -4.869   6.885  1.00  0.00     0.167 HD
ATOM     35  C   UNL     1       9.234  -3.677   9.340  1.00  0.00     0.074 A 
ATOM     36  C   UNL     1       9.463  -2.757  10.440  1.00  0.00     0.031 C 
ATOM     37  C   UNL     1       9.775  -4.917   9.258  1.00  0.00     0.037 A 
BRANCH  24  38
ATOM     38  C   UNL     1       8.355  -8.127   4.135  1.00  0.00     0.064 A 
ATOM     39  C   UNL     1       9.003  -8.081   2.892  1.00  0.00     0.173 A 
ATOM     40  C   UNL     1       7.819  -9.356   4.548  1.00  0.00     0.173 A 
ATOM     41  F   UNL     1       9.500  -6.922   2.431  1.00  0.00    -0.203 F 
ATOM     42  C   UNL     1       9.080  -9.212   2.081  1.00  0.00     0.198 A 
ATOM     43  C   UNL     1       7.924 -10.492   3.748  1.00  0.00     0.198 A 
ATOM     44  F   UNL     1       7.174  -9.454   5.720  1.00  0.00    -0.203 F 
ATOM     45  F   UNL     1       9.642  -9.127   0.867  1.00  0.00    -0.200 F 
ATOM     46  C   UNL     1       8.545 -10.416   2.512  1.00  0.00     0.200 A 
ATOM     47  F   UNL     1       7.405 -11.654   4.167  1.00  0.00    -0.200 F 
ATOM     48  F   UNL     1       8.612 -11.501   1.727  1.00  0.00    -0.200 F 
ENDBRANCH  24  38
BRANCH  25  49
ATOM     49  C   UNL     1       6.981   0.479   9.276  1.00  0.00     0.064 A 
ATOM     50  C   UNL     1       8.021   1.384   9.526  1.00  0.00     0.173 A 
ATOM     51  C   UNL     1       5.714   0.795   9.800  1.00  0.00     0.173 A 
ATOM     52  F   UNL     1       9.255   1.129   9.068  1.00  0.00    -0.203 F 
ATOM     53  C   UNL     1       7.812   2.533  10.290  1.00  0.00     0.198 A 
ATOM     54  C   UNL     1       5.496   1.965  10.524  1.00  0.00     0.198 A 
ATOM     55  F   UNL     1       4.675  -0.029   9.598  1.00  0.00    -0.203 F 
ATOM     56  F   UNL     1       8.841   3.345  10.569  1.00  0.00    -0.200 F 
ATOM     57  C   UNL     1       6.549   2.826  10.783  1.00  0.00     0.200 A 
ATOM     58  F   UNL     1       4.268   2.251  10.977  1.00  0.00    -0.200 F 
ATOM     59  F   UNL     1       6.350   3.928  11.518  1.00  0.00    -0.200 F 
ENDBRANCH  25  49
BRANCH  37  60
ATOM     60  C   UNL     1      10.698  -5.308  10.370  1.00  0.00     0.064 A 
ATOM     61  C   UNL     1      10.221  -5.587  11.658  1.00  0.00     0.173 A 
ATOM     62  C   UNL     1      12.074  -5.420  10.130  1.00  0.00     0.173 A 
ATOM     63  F   UNL     1       8.913  -5.470  11.935  1.00  0.00    -0.203 F 
ATOM     64  C   UNL     1      11.098  -5.931  12.680  1.00  0.00     0.198 A 
ATOM     65  C   UNL     1      12.943  -5.802  11.145  1.00  0.00     0.198 A 
ATOM     66  F   UNL     1      12.572  -5.166   8.911  1.00  0.00    -0.203 F 
ATOM     67  F   UNL     1      10.632  -6.132  13.920  1.00  0.00    -0.200 F 
ATOM     68  C   UNL     1      12.456  -6.047  12.420  1.00  0.00     0.200 A 
ATOM     69  F   UNL     1      14.252  -5.928  10.889  1.00  0.00    -0.200 F 
ATOM     70  F   UNL     1      13.300  -6.386  13.404  1.00  0.00    -0.200 F 
ENDBRANCH  37  60
ENDBRANCH  11  12
ENDBRANCH   4   6
ENDBRANCH   3   4
ENDBRANCH   2   3
ENDBRANCH   1   2
BRANCH   1  71
ATOM     71  O   UNL     1       3.796   1.534   1.152  1.00  0.00    -0.374 OA
BRANCH  71  72
ATOM     72  C   UNL     1       2.490   2.038   0.831  1.00  0.00     0.202 C 
BRANCH  72  73
ATOM     73  C   UNL     1       2.508   3.552   0.702  1.00  0.00     0.261 C 
BRANCH  73  74
ATOM     74  O   UNL     1       3.102   3.904  -0.558  1.00  0.00    -0.459 OA
BRANCH  74  75
ATOM     75  C   UNL     1       4.468   4.000  -0.563  1.00  0.00     0.368 C 
ATOM     76  O   UNL     1       5.146   3.971   0.466  1.00  0.00    -0.245 OA
BRANCH  75  77
ATOM     77  C   UNL     1       5.051   4.213  -2.036  1.00  0.00     0.196 C 
ATOM     78  C   UNL     1       5.038   5.730  -2.381  1.00  0.00     0.081 C 
ATOM     79  C   UNL     1       6.602   4.262  -2.145  1.00  0.00     0.081 C 
ATOM     80  C   UNL     1       6.503   5.639  -2.814  1.00  0.00     0.014 C 
BRANCH  77  81
ATOM     81  N   UNL     1       4.479   3.319  -3.093  1.00  0.00    -0.317 N 
ATOM     82  C   UNL     1       4.940   1.917  -3.080  1.00  0.00     0.292 C 
ATOM     83  C   UNL     1       4.263   3.782  -4.464  1.00  0.00     0.292 C 
ATOM     84  H   UNL     1       3.535   3.382  -2.711  1.00  0.00     0.349 HD
ATOM     85  C   UNL     1       5.833   1.421  -4.233  1.00  0.00     0.221 C 
ATOM     86  C   UNL     1       5.374   3.365  -5.435  1.00  0.00     0.221 C 
ATOM     87  O   UNL     1       5.450   1.939  -5.502  1.00  0.00    -0.370 OA
ENDBRANCH  77  81
ENDBRANCH  75  77
ENDBRANCH  74  75
ENDBRANCH  73  74
ENDBRANCH  72  73
ENDBRANCH  71  72
ENDBRANCH   1  71
TORSDOF 15
