REMARK SMILES Cc1cnn(C2(C(=O)OCCOCCOC(=O)c3ccc(-c4c5nc(c(-c6c(F)c(F)c(F)c(F)c6F)c6ccc([nH]6)c(-c6c(F)c(F)c(F)c(F)c6F)c6nc(c(-c7c(F)c(F)c(F)c(F)c7F)c7ccc4[nH]7)C=C6)C=C5)cc3)CCN(C(=O)c3cc4ccccc4[nH]3)CC2)c1
REMARK SMILES IDX 13 1 12 2 11 3 10 4 9 5 7 6 8 7 6 8 81 9 96 10 82 11 95 12
REMARK SMILES IDX 83 13 84 14 85 15 5 16 1 17 2 18 3 19 97 20 4 21 86 22 87 23
REMARK SMILES IDX 94 24 88 25 93 26 89 28 92 29 90 30 91 31 14 32 15 33 16 34
REMARK SMILES IDX 17 35 18 36 19 37 80 38 20 39 79 40 21 41 22 42 23 43 73 44
REMARK SMILES IDX 24 45 78 46 72 47 74 48 25 49 77 50 71 51 70 52 26 54 58 55
REMARK SMILES IDX 38 56 57 57 39 58 42 59 56 60 75 61 40 62 41 63 55 65 76 66
REMARK SMILES IDX 43 67 27 68 28 69 36 70 29 71 30 72 34 73 37 74 31 75 32 76
REMARK SMILES IDX 35 77 33 78 59 79 60 80 68 81 61 82 62 83 66 84 69 85 63 86
REMARK SMILES IDX 64 87 67 88 65 89 44 90 45 91 53 92 46 93 47 94 51 95 54 96
REMARK SMILES IDX 48 97 49 98 52 99 50 100
REMARK H PARENT 94 27 74 53 42 64
REMARK Flexibility Score: inf
ROOT
ATOM      1  C   UNL     1      -0.838  -6.650  -1.203  1.00  0.00     0.202 C 
ENDROOT
BRANCH   1   2
ATOM      2  O   UNL     1      -0.917  -7.900  -0.521  1.00  0.00    -0.374 OA
BRANCH   2   3
ATOM      3  C   UNL     1      -2.049  -8.203   0.294  1.00  0.00     0.202 C 
BRANCH   3   4
ATOM      4  C   UNL     1      -2.276  -7.352   1.540  1.00  0.00     0.261 C 
BRANCH   4   5
ATOM      5  O   UNL     1      -2.557  -5.990   1.179  1.00  0.00    -0.461 OA
BRANCH   5   6
ATOM      6  C   UNL     1      -1.677  -5.055   1.645  1.00  0.00     0.334 C 
ATOM      7  O   UNL     1      -0.797  -5.310   2.462  1.00  0.00    -0.249 OA
BRANCH   6   8
ATOM      8  C   UNL     1      -2.014  -3.632   1.143  1.00  0.00     0.163 C 
ATOM      9  C   UNL     1      -3.228  -3.608   0.183  1.00  0.00     0.064 C 
ATOM     10  C   UNL     1      -2.392  -2.952   2.469  1.00  0.00     0.064 C 
ATOM     11  C   UNL     1      -3.896  -2.245   0.045  1.00  0.00     0.123 C 
ATOM     12  C   UNL     1      -3.036  -1.599   2.318  1.00  0.00     0.123 C 
ATOM     13  N   UNL     1      -4.105  -1.571   1.322  1.00  0.00    -0.337 N 
ATOM     14  C   UNL     1      -5.246  -0.769   1.476  1.00  0.00     0.270 C 
ATOM     15  O   UNL     1      -6.229  -0.886   0.750  1.00  0.00    -0.267 OA
BRANCH   8  16
ATOM     16  N   UNL     1      -0.830  -2.998   0.525  1.00  0.00    -0.255 N 
ATOM     17  C   UNL     1       1.380  -0.192  -0.212  1.00  0.00     0.048 C 
ATOM     18  C   UNL     1       0.691  -1.486  -0.020  1.00  0.00    -0.013 A 
ATOM     19  C   UNL     1       1.216  -2.791   0.001  1.00  0.00     0.138 A 
ATOM     20  C   UNL     1      -0.655  -1.678   0.191  1.00  0.00     0.113 A 
ATOM     21  N   UNL     1       0.278  -3.712   0.235  1.00  0.00    -0.180 NA
ENDBRANCH   8  16
BRANCH  14  22
ATOM     22  C   UNL     1      -5.222   0.167   2.576  1.00  0.00     0.105 A 
ATOM     23  C   UNL     1      -4.259   1.094   2.940  1.00  0.00     0.042 A 
ATOM     24  N   UNL     1      -6.223   0.252   3.514  1.00  0.00    -0.351 N 
ATOM     25  C   UNL     1      -4.568   1.555   4.244  1.00  0.00     0.000 A 
ATOM     26  C   UNL     1      -5.809   1.017   4.581  1.00  0.00     0.046 A 
ATOM     27  H   UNL     1      -7.107  -0.173   3.434  1.00  0.00     0.167 HD
ATOM     28  C   UNL     1      -3.891   2.356   5.180  1.00  0.00     0.010 A 
ATOM     29  C   UNL     1      -6.426   1.264   5.811  1.00  0.00     0.026 A 
ATOM     30  C   UNL     1      -4.482   2.594   6.424  1.00  0.00     0.001 A 
ATOM     31  C   UNL     1      -5.734   2.061   6.729  1.00  0.00     0.002 A 
ENDBRANCH  14  22
ENDBRANCH   6   8
ENDBRANCH   5   6
ENDBRANCH   4   5
ENDBRANCH   3   4
ENDBRANCH   2   3
ENDBRANCH   1   2
BRANCH   1  32
ATOM     32  C   UNL     1      -1.699  -6.471  -2.445  1.00  0.00     0.261 C 
BRANCH  32  33
ATOM     33  O   UNL     1      -3.081  -6.537  -2.122  1.00  0.00    -0.460 OA
BRANCH  33  34
ATOM     34  C   UNL     1      -3.646  -7.743  -2.367  1.00  0.00     0.338 C 
ATOM     35  O   UNL     1      -3.094  -8.763  -2.718  1.00  0.00    -0.246 OA
BRANCH  34  36
ATOM     36  C   UNL     1      -5.105  -7.590  -2.279  1.00  0.00     0.060 A 
ATOM     37  C   UNL     1      -5.830  -8.650  -2.821  1.00  0.00     0.016 A 
ATOM     38  C   UNL     1      -5.662  -6.318  -2.084  1.00  0.00     0.016 A 
ATOM     39  C   UNL     1      -6.980  -8.343  -3.499  1.00  0.00     0.010 A 
ATOM     40  C   UNL     1      -6.813  -6.012  -2.761  1.00  0.00     0.010 A 
ATOM     41  C   UNL     1      -7.372  -7.002  -3.562  1.00  0.00    -0.014 A 
BRANCH  41  42
ATOM     42  C   UNL     1      -8.444  -6.665  -4.464  1.00  0.00     0.031 A 
ATOM     43  C   UNL     1      -9.751  -7.107  -3.949  1.00  0.00     0.074 A 
ATOM     44  C   UNL     1      -8.239  -5.979  -5.602  1.00  0.00     0.049 A 
ATOM     45  N   UNL     1     -10.480  -8.076  -4.390  1.00  0.00    -0.248 NA
ATOM     46  C   UNL     1     -10.186  -6.554  -2.657  1.00  0.00     0.031 C 
ATOM     47  C   UNL     1      -7.027  -5.309  -6.077  1.00  0.00     0.029 A 
ATOM     48  N   UNL     1      -9.151  -5.679  -6.564  1.00  0.00    -0.354 N 
ATOM     49  C   UNL     1     -11.575  -8.120  -3.539  1.00  0.00     0.074 A 
ATOM     50  C   UNL     1     -11.233  -7.331  -2.387  1.00  0.00     0.031 C 
ATOM     51  C   UNL     1      -7.343  -4.496  -7.113  1.00  0.00     0.029 A 
ATOM     52  C   UNL     1      -8.740  -4.693  -7.453  1.00  0.00     0.049 A 
ATOM     53  H   UNL     1     -10.028  -6.122  -6.625  1.00  0.00     0.167 HD
ATOM     54  C   UNL     1     -12.781  -8.559  -3.986  1.00  0.00     0.037 A 
ATOM     55  C   UNL     1      -9.561  -4.042  -8.316  1.00  0.00     0.037 A 
ATOM     56  C   UNL     1     -12.636  -9.358  -5.177  1.00  0.00     0.049 A 
ATOM     57  C   UNL     1     -10.765  -4.903  -8.501  1.00  0.00     0.074 A 
ATOM     58  C   UNL     1     -11.989 -10.544  -5.468  1.00  0.00     0.029 A 
ATOM     59  N   UNL     1     -12.874  -8.758  -6.390  1.00  0.00    -0.354 N 
ATOM     60  N   UNL     1     -10.725  -6.067  -9.093  1.00  0.00    -0.248 NA
ATOM     61  C   UNL     1     -11.876  -4.710  -7.577  1.00  0.00     0.031 C 
ATOM     62  C   UNL     1     -11.445 -10.359  -6.774  1.00  0.00     0.029 A 
ATOM     63  C   UNL     1     -11.845  -9.103  -7.230  1.00  0.00     0.049 A 
ATOM     64  H   UNL     1     -13.643  -8.186  -6.615  1.00  0.00     0.167 HD
ATOM     65  C   UNL     1     -11.540  -6.888  -8.324  1.00  0.00     0.074 A 
ATOM     66  C   UNL     1     -12.259  -5.983  -7.429  1.00  0.00     0.031 C 
ATOM     67  C   UNL     1     -11.340  -8.238  -8.269  1.00  0.00     0.037 A 
BRANCH  54  68
ATOM     68  C   UNL     1     -14.085  -7.925  -3.579  1.00  0.00     0.064 A 
ATOM     69  C   UNL     1     -15.288  -8.522  -3.997  1.00  0.00     0.173 A 
ATOM     70  C   UNL     1     -14.205  -6.614  -3.061  1.00  0.00     0.173 A 
ATOM     71  F   UNL     1     -15.290  -9.758  -4.520  1.00  0.00    -0.203 F 
ATOM     72  C   UNL     1     -16.499  -7.827  -3.978  1.00  0.00     0.198 A 
ATOM     73  C   UNL     1     -15.423  -5.947  -2.990  1.00  0.00     0.198 A 
ATOM     74  F   UNL     1     -13.146  -5.875  -2.711  1.00  0.00    -0.203 F 
ATOM     75  F   UNL     1     -17.593  -8.388  -4.509  1.00  0.00    -0.200 F 
ATOM     76  C   UNL     1     -16.564  -6.538  -3.481  1.00  0.00     0.200 A 
ATOM     77  F   UNL     1     -15.457  -4.692  -2.519  1.00  0.00    -0.200 F 
ATOM     78  F   UNL     1     -17.710  -5.848  -3.521  1.00  0.00    -0.200 F 
ENDBRANCH  54  68
BRANCH  55  79
ATOM     79  C   UNL     1      -9.542  -2.595  -8.645  1.00  0.00     0.064 A 
ATOM     80  C   UNL     1     -10.232  -2.082  -9.754  1.00  0.00     0.173 A 
ATOM     81  C   UNL     1      -9.054  -1.646  -7.723  1.00  0.00     0.173 A 
ATOM     82  F   UNL     1     -10.783  -2.916 -10.649  1.00  0.00    -0.203 F 
ATOM     83  C   UNL     1     -10.422  -0.705  -9.930  1.00  0.00     0.198 A 
ATOM     84  C   UNL     1      -9.239  -0.274  -7.900  1.00  0.00     0.198 A 
ATOM     85  F   UNL     1      -8.467  -2.034  -6.582  1.00  0.00    -0.203 F 
ATOM     86  F   UNL     1     -11.127  -0.253 -10.977  1.00  0.00    -0.200 F 
ATOM     87  C   UNL     1      -9.931   0.197  -8.999  1.00  0.00     0.200 A 
ATOM     88  F   UNL     1      -8.794   0.582  -6.970  1.00  0.00    -0.200 F 
ATOM     89  F   UNL     1     -10.155   1.511  -9.140  1.00  0.00    -0.200 F 
ENDBRANCH  55  79
BRANCH  67  90
ATOM     90  C   UNL     1     -10.333  -8.837  -9.213  1.00  0.00     0.064 A 
ATOM     91  C   UNL     1      -8.954  -8.569  -9.153  1.00  0.00     0.173 A 
ATOM     92  C   UNL     1     -10.754  -9.847 -10.086  1.00  0.00     0.173 A 
ATOM     93  F   UNL     1      -8.463  -7.689  -8.272  1.00  0.00    -0.203 F 
ATOM     94  C   UNL     1      -8.045  -9.258  -9.956  1.00  0.00     0.198 A 
ATOM     95  C   UNL     1      -9.841 -10.558 -10.862  1.00  0.00     0.198 A 
ATOM     96  F   UNL     1     -12.050 -10.188 -10.142  1.00  0.00    -0.203 F 
ATOM     97  F   UNL     1      -6.734  -8.983  -9.878  1.00  0.00    -0.200 F 
ATOM     98  C   UNL     1      -8.489 -10.259 -10.803  1.00  0.00     0.200 A 
ATOM     99  F   UNL     1     -10.270 -11.560 -11.641  1.00  0.00    -0.200 F 
ATOM    100  F   UNL     1      -7.613 -10.957 -11.539  1.00  0.00    -0.200 F 
ENDBRANCH  67  90
ENDBRANCH  41  42
ENDBRANCH  34  36
ENDBRANCH  33  34
ENDBRANCH  32  33
ENDBRANCH   1  32
TORSDOF 16
