REMARK SMILES O=C(OCCOCCOC(=O)c1ccc(-c2c3nc(c(-c4c(F)c(F)c(F)c(F)c4F)c4ccc([nH]4)c(-c4c(F)c(F)c(F)c(F)c4F)c4nc(c(-c5c(F)c(F)c(F)c(F)c5F)c5ccc2[nH]5)C=C4)C=C3)cc1)C1=Cc2c(ccc(Cl)c2Cl)O[C@H]1C(F)(F)F
REMARK SMILES IDX 7 1 6 2 5 3 4 4 3 5 2 6 1 7 75 8 76 9 86 10 77 11 85 12
REMARK SMILES IDX 78 13 83 14 79 15 81 16 84 17 80 18 82 19 87 20 88 21 89 22
REMARK SMILES IDX 90 23 8 24 9 25 10 26 11 27 12 28 13 29 74 30 14 31 73 32
REMARK SMILES IDX 15 33 16 34 17 35 67 36 18 37 72 38 66 39 68 40 19 41 71 42
REMARK SMILES IDX 65 43 64 44 20 46 52 47 32 48 51 49 33 50 36 51 50 52 69 53
REMARK SMILES IDX 34 54 35 55 49 57 70 58 37 59 21 60 22 61 30 62 23 63 24 64
REMARK SMILES IDX 28 65 31 66 25 67 26 68 29 69 27 70 53 71 54 72 62 73 55 74
REMARK SMILES IDX 56 75 60 76 63 77 57 78 58 79 61 80 59 81 38 82 39 83 47 84
REMARK SMILES IDX 40 85 41 86 45 87 48 88 42 89 43 90 46 91 44 92
REMARK H PARENT 68 45 36 56
REMARK Flexibility Score: inf
ROOT
ATOM      1  C   UNL     1       1.583  -2.829  -1.852  1.00  0.00     0.202 C 
ENDROOT
BRANCH   1   2
ATOM      2  O   UNL     1       2.340  -1.864  -1.135  1.00  0.00    -0.374 OA
BRANCH   2   3
ATOM      3  C   UNL     1       2.241  -1.994   0.284  1.00  0.00     0.202 C 
BRANCH   3   4
ATOM      4  C   UNL     1       1.893  -0.651   0.933  1.00  0.00     0.261 C 
BRANCH   4   5
ATOM      5  O   UNL     1       1.512   0.352  -0.033  1.00  0.00    -0.460 OA
BRANCH   5   6
ATOM      6  C   UNL     1       2.332   1.110  -0.803  1.00  0.00     0.338 C 
ATOM      7  O   UNL     1       1.846   1.983  -1.518  1.00  0.00    -0.246 OA
BRANCH   6   8
ATOM      8  C   UNL     1       3.806   1.077  -0.630  1.00  0.00     0.087 C 
ATOM      9  C   UNL     1       4.547   0.060  -0.188  1.00  0.00     0.029 C 
ATOM     10  C   UNL     1       4.573   2.189  -1.334  1.00  0.00     0.316 C 
ATOM     11  C   UNL     1       5.778   0.386   0.496  1.00  0.00     0.037 A 
ATOM     12  O   UNL     1       6.018   2.224  -1.049  1.00  0.00    -0.475 OA
ATOM     13  C   UNL     1       6.485   1.469  -0.009  1.00  0.00     0.129 A 
ATOM     14  C   UNL     1       6.211  -0.268   1.671  1.00  0.00     0.070 A 
ATOM     15  C   UNL     1       7.704   1.817   0.560  1.00  0.00     0.049 A 
ATOM     16  C   UNL     1       7.414   0.118   2.268  1.00  0.00     0.060 A 
ATOM     17  Cl  UNL     1       5.208  -1.458   2.445  1.00  0.00    -0.082 Cl
ATOM     18  C   UNL     1       8.169   1.143   1.695  1.00  0.00     0.026 A 
ATOM     19  Cl  UNL     1       8.007  -0.610   3.722  1.00  0.00    -0.083 Cl
BRANCH  10  20
ATOM     20  C   UNL     1       4.375   2.067  -2.881  1.00  0.00     0.430 C 
ATOM     21  F   UNL     1       3.735   0.930  -3.252  1.00  0.00    -0.167 F 
ATOM     22  F   UNL     1       3.671   3.112  -3.377  1.00  0.00    -0.167 F 
ATOM     23  F   UNL     1       5.561   2.053  -3.542  1.00  0.00    -0.167 F 
ENDBRANCH  10  20
ENDBRANCH   6   8
ENDBRANCH   5   6
ENDBRANCH   4   5
ENDBRANCH   3   4
ENDBRANCH   2   3
ENDBRANCH   1   2
BRANCH   1  24
ATOM     24  C   UNL     1       2.372  -4.114  -2.113  1.00  0.00     0.261 C 
BRANCH  24  25
ATOM     25  O   UNL     1       3.021  -4.602  -0.921  1.00  0.00    -0.460 OA
BRANCH  25  26
ATOM     26  C   UNL     1       4.354  -4.361  -0.838  1.00  0.00     0.338 C 
ATOM     27  O   UNL     1       5.049  -3.825  -1.698  1.00  0.00    -0.246 OA
BRANCH  26  28
ATOM     28  C   UNL     1       4.904  -4.774   0.482  1.00  0.00     0.060 A 
ATOM     29  C   UNL     1       6.218  -4.399   0.800  1.00  0.00     0.016 A 
ATOM     30  C   UNL     1       4.163  -5.515   1.411  1.00  0.00     0.016 A 
ATOM     31  C   UNL     1       6.797  -4.784   2.015  1.00  0.00     0.010 A 
ATOM     32  C   UNL     1       4.740  -5.894   2.632  1.00  0.00     0.010 A 
ATOM     33  C   UNL     1       6.071  -5.558   2.931  1.00  0.00    -0.014 A 
BRANCH  33  34
ATOM     34  C   UNL     1       6.757  -6.146   4.114  1.00  0.00     0.031 A 
ATOM     35  C   UNL     1       7.237  -7.571   4.040  1.00  0.00     0.074 A 
ATOM     36  C   UNL     1       6.981  -5.431   5.233  1.00  0.00     0.049 A 
ATOM     37  N   UNL     1       7.902  -8.275   4.921  1.00  0.00    -0.248 NA
ATOM     38  C   UNL     1       6.918  -8.301   2.803  1.00  0.00     0.031 C 
ATOM     39  C   UNL     1       6.568  -4.049   5.451  1.00  0.00     0.029 A 
ATOM     40  N   UNL     1       7.615  -5.781   6.402  1.00  0.00    -0.354 N 
ATOM     41  C   UNL     1       8.104  -9.518   4.336  1.00  0.00     0.074 A 
ATOM     42  C   UNL     1       7.434  -9.495   3.053  1.00  0.00     0.031 C 
ATOM     43  C   UNL     1       6.956  -3.665   6.680  1.00  0.00     0.029 A 
ATOM     44  C   UNL     1       7.635  -4.779   7.343  1.00  0.00     0.049 A 
ATOM     45  H   UNL     1       8.018  -6.667   6.552  1.00  0.00     0.167 HD
ATOM     46  C   UNL     1       8.803 -10.579   4.808  1.00  0.00     0.037 A 
ATOM     47  C   UNL     1       8.137  -4.766   8.595  1.00  0.00     0.037 A 
ATOM     48  C   UNL     1       9.440 -10.630   6.098  1.00  0.00     0.049 A 
ATOM     49  C   UNL     1       8.851  -5.987   9.128  1.00  0.00     0.074 A 
ATOM     50  C   UNL     1      10.160 -11.667   6.665  1.00  0.00     0.029 A 
ATOM     51  N   UNL     1       9.420  -9.603   7.030  1.00  0.00    -0.354 N 
ATOM     52  N   UNL     1       9.089  -7.136   8.542  1.00  0.00    -0.248 NA
ATOM     53  C   UNL     1       9.382  -5.900  10.498  1.00  0.00     0.031 C 
ATOM     54  C   UNL     1      10.529 -11.289   7.961  1.00  0.00     0.029 A 
ATOM     55  C   UNL     1      10.097  -9.991   8.176  1.00  0.00     0.049 A 
ATOM     56  H   UNL     1       8.989  -8.727   6.897  1.00  0.00     0.167 HD
ATOM     57  C   UNL     1       9.819  -7.890   9.455  1.00  0.00     0.074 A 
ATOM     58  C   UNL     1      10.009  -7.060  10.624  1.00  0.00     0.031 C 
ATOM     59  C   UNL     1      10.287  -9.159   9.338  1.00  0.00     0.037 A 
BRANCH  46  60
ATOM     60  C   UNL     1       8.906 -11.781   3.914  1.00  0.00     0.064 A 
ATOM     61  C   UNL     1       9.665 -11.750   2.733  1.00  0.00     0.173 A 
ATOM     62  C   UNL     1       8.260 -12.981   4.247  1.00  0.00     0.173 A 
ATOM     63  F   UNL     1      10.290 -10.622   2.362  1.00  0.00    -0.203 F 
ATOM     64  C   UNL     1       9.747 -12.865   1.904  1.00  0.00     0.198 A 
ATOM     65  C   UNL     1       8.371 -14.104   3.432  1.00  0.00     0.198 A 
ATOM     66  F   UNL     1       7.525 -13.066   5.366  1.00  0.00    -0.203 F 
ATOM     67  F   UNL     1      10.431 -12.794   0.754  1.00  0.00    -0.200 F 
ATOM     68  C   UNL     1       9.106 -14.043   2.257  1.00  0.00     0.200 A 
ATOM     69  F   UNL     1       7.762 -15.245   3.781  1.00  0.00    -0.200 F 
ATOM     70  F   UNL     1       9.189 -15.117   1.460  1.00  0.00    -0.200 F 
ENDBRANCH  46  60
BRANCH  47  71
ATOM     71  C   UNL     1       7.986  -3.557   9.454  1.00  0.00     0.064 A 
ATOM     72  C   UNL     1       9.101  -2.815   9.873  1.00  0.00     0.173 A 
ATOM     73  C   UNL     1       6.727  -3.159   9.927  1.00  0.00     0.173 A 
ATOM     74  F   UNL     1      10.331  -3.173   9.476  1.00  0.00    -0.203 F 
ATOM     75  C   UNL     1       8.966  -1.748  10.759  1.00  0.00     0.198 A 
ATOM     76  C   UNL     1       6.590  -2.068  10.784  1.00  0.00     0.198 A 
ATOM     77  F   UNL     1       5.627  -3.835   9.564  1.00  0.00    -0.203 F 
ATOM     78  F   UNL     1      10.055  -1.105  11.202  1.00  0.00    -0.200 F 
ATOM     79  C   UNL     1       7.710  -1.372  11.210  1.00  0.00     0.200 A 
ATOM     80  F   UNL     1       5.372  -1.702  11.209  1.00  0.00    -0.200 F 
ATOM     81  F   UNL     1       7.581  -0.350  12.068  1.00  0.00    -0.200 F 
ENDBRANCH  47  71
BRANCH  59  82
ATOM     82  C   UNL     1      11.084  -9.715  10.487  1.00  0.00     0.064 A 
ATOM     83  C   UNL     1      10.498  -9.995  11.732  1.00  0.00     0.173 A 
ATOM     84  C   UNL     1      12.453  -9.988  10.336  1.00  0.00     0.173 A 
ATOM     85  F   UNL     1       9.196  -9.747  11.936  1.00  0.00    -0.203 F 
ATOM     86  C   UNL     1      11.260 -10.484  12.791  1.00  0.00     0.198 A 
ATOM     87  C   UNL     1      13.204 -10.512  11.386  1.00  0.00     0.198 A 
ATOM     88  F   UNL     1      13.066  -9.752   9.167  1.00  0.00    -0.203 F 
ATOM     89  F   UNL     1      10.691 -10.679  13.989  1.00  0.00    -0.200 F 
ATOM     90  C   UNL     1      12.610 -10.747  12.617  1.00  0.00     0.200 A 
ATOM     91  F   UNL     1      14.504 -10.784  11.209  1.00  0.00    -0.200 F 
ATOM     92  F   UNL     1      13.341 -11.217  13.637  1.00  0.00    -0.200 F 
ENDBRANCH  59  82
ENDBRANCH  33  34
ENDBRANCH  26  28
ENDBRANCH  25  26
ENDBRANCH  24  25
ENDBRANCH   1  24
TORSDOF 15
