REMARK SMILES O=C(OCCOCCOC(=O)c1csc(CNc2ccc(-n3cccn3)nc2)c1)c1ccc(-c2c3nc(c(-c4c(F)c(F)c(F)c(F)c4F)c4ccc([nH]4)c(-c4c(F)c(F)c(F)c(F)c4F)c4nc(c(-c5c(F)c(F)c(F)c(F)c5F)c5ccc2[nH]5)C=C4)C=C3)cc1
REMARK SMILES IDX 7 1 6 2 5 3 4 4 3 5 2 6 1 7 30 8 31 9 92 10 32 11 91 12
REMARK SMILES IDX 33 13 34 14 35 15 85 16 36 17 90 18 84 19 86 20 37 21 89 22
REMARK SMILES IDX 83 23 82 24 38 26 70 27 50 28 69 29 51 30 54 31 68 32 87 33
REMARK SMILES IDX 52 34 53 35 67 37 88 38 55 39 39 40 40 41 48 42 41 43 42 44
REMARK SMILES IDX 46 45 49 46 43 47 44 48 47 49 45 50 71 51 72 52 80 53 73 54
REMARK SMILES IDX 74 55 78 56 81 57 75 58 76 59 79 60 77 61 56 62 57 63 65 64
REMARK SMILES IDX 58 65 59 66 63 67 66 68 60 69 61 70 64 71 62 72 8 73 9 74
REMARK SMILES IDX 10 75 11 76 12 77 13 78 29 79 14 80 15 81 16 82 17 83 18 85
REMARK SMILES IDX 19 86 28 87 20 88 27 89 21 90 22 91 23 92 26 93 24 94 25 95
REMARK H PARENT 86 25 54 36 17 84
REMARK Flexibility Score: inf
ROOT
ATOM      1  C   UNL     1       3.015  -0.919  -2.001  1.00  0.00     0.202 C 
ENDROOT
BRANCH   1   2
ATOM      2  O   UNL     1       4.079  -0.335  -1.231  1.00  0.00    -0.374 OA
BRANCH   2   3
ATOM      3  C   UNL     1       4.580  -1.149  -0.172  1.00  0.00     0.202 C 
BRANCH   3   4
ATOM      4  C   UNL     1       4.583  -0.486   1.202  1.00  0.00     0.261 C 
BRANCH   4   5
ATOM      5  O   UNL     1       3.282  -0.339   1.808  1.00  0.00    -0.460 OA
BRANCH   5   6
ATOM      6  C   UNL     1       2.200  -0.072   1.038  1.00  0.00     0.338 C 
ATOM      7  O   UNL     1       1.308  -0.883   0.831  1.00  0.00    -0.246 OA
BRANCH   6   8
ATOM      8  C   UNL     1       2.017   1.380   0.806  1.00  0.00     0.060 A 
ATOM      9  C   UNL     1       3.096   2.256   0.679  1.00  0.00     0.016 A 
ATOM     10  C   UNL     1       0.710   1.881   0.831  1.00  0.00     0.016 A 
ATOM     11  C   UNL     1       2.898   3.616   0.801  1.00  0.00     0.010 A 
ATOM     12  C   UNL     1       0.503   3.253   0.896  1.00  0.00     0.010 A 
ATOM     13  C   UNL     1       1.606   4.105   0.977  1.00  0.00    -0.014 A 
BRANCH  13  14
ATOM     14  C   UNL     1       1.489   5.528   1.266  1.00  0.00     0.031 A 
ATOM     15  C   UNL     1       2.006   6.468   0.232  1.00  0.00     0.074 A 
ATOM     16  C   UNL     1       0.902   5.981   2.389  1.00  0.00     0.049 A 
ATOM     17  N   UNL     1       2.859   7.434   0.370  1.00  0.00    -0.248 NA
ATOM     18  C   UNL     1       1.541   6.268  -1.148  1.00  0.00     0.031 C 
ATOM     19  C   UNL     1       0.134   5.217   3.376  1.00  0.00     0.029 A 
ATOM     20  N   UNL     1       0.775   7.267   2.819  1.00  0.00    -0.354 N 
ATOM     21  C   UNL     1       2.934   8.060  -0.872  1.00  0.00     0.074 A 
ATOM     22  C   UNL     1       2.170   7.253  -1.789  1.00  0.00     0.031 C 
ATOM     23  C   UNL     1      -0.574   6.076   4.139  1.00  0.00     0.029 A 
ATOM     24  C   UNL     1      -0.207   7.435   3.778  1.00  0.00     0.049 A 
ATOM     25  H   UNL     1       1.330   8.007   2.480  1.00  0.00     0.167 HD
ATOM     26  C   UNL     1       3.478   9.296  -1.038  1.00  0.00     0.037 A 
ATOM     27  C   UNL     1      -0.752   8.607   4.175  1.00  0.00     0.037 A 
ATOM     28  C   UNL     1       4.365   9.655   0.032  1.00  0.00     0.049 A 
ATOM     29  C   UNL     1       0.176   9.701   3.801  1.00  0.00     0.074 A 
ATOM     30  C   UNL     1       5.547   9.140   0.528  1.00  0.00     0.029 A 
ATOM     31  N   UNL     1       3.944  10.565   0.966  1.00  0.00    -0.354 N 
ATOM     32  N   UNL     1       1.329   9.917   4.369  1.00  0.00    -0.248 NA
ATOM     33  C   UNL     1      -0.014  10.350   2.512  1.00  0.00     0.031 C 
ATOM     34  C   UNL     1       5.513   9.405   1.928  1.00  0.00     0.029 A 
ATOM     35  C   UNL     1       4.316  10.071   2.189  1.00  0.00     0.049 A 
ATOM     36  H   UNL     1       3.467  11.409   0.793  1.00  0.00     0.167 HD
ATOM     37  C   UNL     1       2.147  10.374   3.347  1.00  0.00     0.074 A 
ATOM     38  C   UNL     1       1.240  10.732   2.263  1.00  0.00     0.031 C 
ATOM     39  C   UNL     1       3.494  10.157   3.370  1.00  0.00     0.037 A 
BRANCH  26  40
ATOM     40  C   UNL     1       2.976  10.303  -2.038  1.00  0.00     0.064 A 
ATOM     41  C   UNL     1       3.739  11.452  -2.325  1.00  0.00     0.173 A 
ATOM     42  C   UNL     1       1.643  10.322  -2.500  1.00  0.00     0.173 A 
ATOM     43  F   UNL     1       5.008  11.552  -1.901  1.00  0.00    -0.203 F 
ATOM     44  C   UNL     1       3.187  12.559  -2.975  1.00  0.00     0.198 A 
ATOM     45  C   UNL     1       1.111  11.406  -3.196  1.00  0.00     0.198 A 
ATOM     46  F   UNL     1       0.779   9.343  -2.200  1.00  0.00    -0.203 F 
ATOM     47  F   UNL     1       3.914  13.674  -3.124  1.00  0.00    -0.200 F 
ATOM     48  C   UNL     1       1.873  12.536  -3.408  1.00  0.00     0.200 A 
ATOM     49  F   UNL     1      -0.170  11.373  -3.588  1.00  0.00    -0.200 F 
ATOM     50  F   UNL     1       1.327  13.615  -3.982  1.00  0.00    -0.200 F 
ENDBRANCH  26  40
BRANCH  27  51
ATOM     51  C   UNL     1      -2.151   8.844   4.593  1.00  0.00     0.064 A 
ATOM     52  C   UNL     1      -2.507   9.989   5.317  1.00  0.00     0.173 A 
ATOM     53  C   UNL     1      -3.211   8.067   4.082  1.00  0.00     0.173 A 
ATOM     54  F   UNL     1      -1.559  10.812   5.789  1.00  0.00    -0.203 F 
ATOM     55  C   UNL     1      -3.846  10.340   5.516  1.00  0.00     0.198 A 
ATOM     56  C   UNL     1      -4.545   8.408   4.294  1.00  0.00     0.198 A 
ATOM     57  F   UNL     1      -2.975   7.011   3.289  1.00  0.00    -0.203 F 
ATOM     58  F   UNL     1      -4.151  11.472   6.164  1.00  0.00    -0.200 F 
ATOM     59  C   UNL     1      -4.863   9.551   5.002  1.00  0.00     0.200 A 
ATOM     60  F   UNL     1      -5.516   7.654   3.760  1.00  0.00    -0.200 F 
ATOM     61  F   UNL     1      -6.145   9.912   5.151  1.00  0.00    -0.200 F 
ENDBRANCH  27  51
BRANCH  39  62
ATOM     62  C   UNL     1       4.102   9.681   4.656  1.00  0.00     0.064 A 
ATOM     63  C   UNL     1       3.795   8.443   5.245  1.00  0.00     0.173 A 
ATOM     64  C   UNL     1       5.133  10.435   5.232  1.00  0.00     0.173 A 
ATOM     65  F   UNL     1       2.901   7.617   4.685  1.00  0.00    -0.203 F 
ATOM     66  C   UNL     1       4.453   8.008   6.393  1.00  0.00     0.198 A 
ATOM     67  C   UNL     1       5.815   9.980   6.358  1.00  0.00     0.198 A 
ATOM     68  F   UNL     1       5.515  11.594   4.672  1.00  0.00    -0.203 F 
ATOM     69  F   UNL     1       4.133   6.828   6.945  1.00  0.00    -0.200 F 
ATOM     70  C   UNL     1       5.466   8.774   6.945  1.00  0.00     0.200 A 
ATOM     71  F   UNL     1       6.831  10.698   6.858  1.00  0.00    -0.200 F 
ATOM     72  F   UNL     1       6.128   8.336   8.025  1.00  0.00    -0.200 F 
ENDBRANCH  39  62
ENDBRANCH  13  14
ENDBRANCH   6   8
ENDBRANCH   5   6
ENDBRANCH   4   5
ENDBRANCH   3   4
ENDBRANCH   2   3
ENDBRANCH   1   2
BRANCH   1  73
ATOM     73  C   UNL     1       3.326  -2.182  -2.825  1.00  0.00     0.261 C 
BRANCH  73  74
ATOM     74  O   UNL     1       3.497  -3.350  -1.991  1.00  0.00    -0.460 OA
BRANCH  74  75
ATOM     75  C   UNL     1       4.790  -3.749  -1.797  1.00  0.00     0.339 C 
ATOM     76  O   UNL     1       5.749  -3.326  -2.396  1.00  0.00    -0.246 OA
BRANCH  75  77
ATOM     77  C   UNL     1       4.920  -4.579  -0.587  1.00  0.00     0.071 A 
ATOM     78  C   UNL     1       4.050  -5.572  -0.203  1.00  0.00     0.080 A 
ATOM     79  C   UNL     1       5.957  -4.395   0.390  1.00  0.00     0.033 A 
ATOM     80  S   UNL     1       4.497  -6.289   1.288  1.00  0.00    -0.146 S 
ATOM     81  C   UNL     1       5.813  -5.210   1.496  1.00  0.00     0.025 A 
BRANCH  81  82
ATOM     82  C   UNL     1       6.655  -5.234   2.748  1.00  0.00     0.159 C 
BRANCH  82  83
ATOM     83  N   UNL     1       5.887  -5.354   3.980  1.00  0.00    -0.379 N 
ATOM     84  H   UNL     1       5.216  -4.671   4.209  1.00  0.00     0.160 HD
BRANCH  83  85
ATOM     85  C   UNL     1       6.098  -6.428   4.830  1.00  0.00     0.053 A 
ATOM     86  C   UNL     1       7.363  -6.780   5.296  1.00  0.00     0.031 A 
ATOM     87  C   UNL     1       5.051  -7.266   5.209  1.00  0.00     0.139 A 
ATOM     88  C   UNL     1       7.527  -7.882   6.142  1.00  0.00     0.051 A 
ATOM     89  N   UNL     1       5.175  -8.365   5.989  1.00  0.00    -0.235 NA
ATOM     90  C   UNL     1       6.411  -8.650   6.472  1.00  0.00     0.153 A 
BRANCH  90  91
ATOM     91  N   UNL     1       6.555  -9.769   7.354  1.00  0.00    -0.223 N 
ATOM     92  C   UNL     1       7.585 -10.014   8.245  1.00  0.00     0.117 A 
ATOM     93  N   UNL     1       5.619 -10.757   7.413  1.00  0.00    -0.175 NA
ATOM     94  C   UNL     1       7.305 -11.204   8.873  1.00  0.00     0.042 A 
ATOM     95  C   UNL     1       6.097 -11.627   8.301  1.00  0.00     0.135 A 
ENDBRANCH  90  91
ENDBRANCH  83  85
ENDBRANCH  82  83
ENDBRANCH  81  82
ENDBRANCH  75  77
ENDBRANCH  74  75
ENDBRANCH  73  74
ENDBRANCH   1  73
TORSDOF 18
