REMARK SMILES CN1C(=O)C(=Cc2ccc(OCc3cccc(C(=O)OCCOCCOC(=O)c4ccc(-c5c6nc(c(-c7c(F)c(F)c(F)c(F)c7F)c7ccc([nH]7)c(-c7c(F)c(F)c(F)c(F)c7F)c7nc(c(-c8c(F)c(F)c(F)c(F)c8F)c8ccc5[nH]8)C=C7)C=C6)cc4)c3)c(Cl)c2)C(=O)N(C)C1=S
REMARK SMILES IDX 22 1 21 2 20 3 18 4 19 5 17 6 13 7 14 8 92 9 15 10 16 11
REMARK SMILES IDX 12 12 11 13 10 14 7 15 8 16 95 17 9 18 93 19 94 20 6 21 1 22
REMARK SMILES IDX 2 23 3 24 100 25 4 26 5 27 98 28 101 29 96 30 99 31 97 32
REMARK SMILES IDX 23 33 24 34 25 35 26 36 27 37 28 38 29 39 30 40 91 41 31 42
REMARK SMILES IDX 90 43 32 44 33 45 34 46 84 47 35 48 89 49 83 50 85 51 36 52
REMARK SMILES IDX 88 53 82 54 81 55 37 57 69 58 49 59 68 60 50 61 53 62 67 63
REMARK SMILES IDX 86 64 51 65 52 66 66 68 87 69 54 70 38 71 39 72 47 73 40 74
REMARK SMILES IDX 41 75 45 76 48 77 42 78 43 79 46 80 44 81 70 82 71 83 79 84
REMARK SMILES IDX 72 85 73 86 77 87 80 88 74 89 75 90 78 91 76 92 55 93 56 94
REMARK SMILES IDX 64 95 57 96 58 97 62 98 65 99 59 100 60 101 63 102 61 103
REMARK H PARENT 85 56 53 67
REMARK Flexibility Score: inf
ROOT
ATOM      1  C   UNL     1       9.693  -3.299  -9.278  1.00  0.00     0.202 C 
ENDROOT
BRANCH   1   2
ATOM      2  C   UNL     1       8.888  -2.764 -10.465  1.00  0.00     0.261 C 
BRANCH   2   3
ATOM      3  O   UNL     1       7.556  -2.393 -10.076  1.00  0.00    -0.460 OA
BRANCH   3   4
ATOM      4  C   UNL     1       6.589  -3.188 -10.594  1.00  0.00     0.338 C 
ATOM      5  O   UNL     1       6.730  -4.037 -11.462  1.00  0.00    -0.246 OA
BRANCH   4   6
ATOM      6  C   UNL     1       5.327  -3.039  -9.835  1.00  0.00     0.060 A 
ATOM      7  C   UNL     1       3.601  -1.740  -8.711  1.00  0.00    -0.010 A 
ATOM      8  C   UNL     1       2.868  -2.931  -8.564  1.00  0.00     0.007 A 
ATOM      9  C   UNL     1       4.860  -1.811  -9.338  1.00  0.00     0.023 A 
ATOM     10  C   UNL     1       3.362  -4.158  -8.997  1.00  0.00     0.001 A 
ATOM     11  C   UNL     1       4.585  -4.211  -9.644  1.00  0.00     0.016 A 
BRANCH   7  12
ATOM     12  C   UNL     1       2.991  -0.402  -8.316  1.00  0.00     0.265 C 
BRANCH  12  13
ATOM     13  O   UNL     1       3.035  -0.031  -6.933  1.00  0.00    -0.487 OA
BRANCH  13  14
ATOM     14  C   UNL     1       2.423  -0.818  -5.999  1.00  0.00     0.138 A 
ATOM     15  C   UNL     1       1.590  -2.561  -3.959  1.00  0.00    -0.023 A 
ATOM     16  C   UNL     1       2.754  -1.806  -3.801  1.00  0.00     0.012 A 
ATOM     17  C   UNL     1       0.793  -2.368  -5.086  1.00  0.00     0.032 A 
ATOM     18  C   UNL     1       3.168  -0.948  -4.820  1.00  0.00     0.048 A 
ATOM     19  C   UNL     1       1.175  -1.449  -6.073  1.00  0.00     0.083 A 
ATOM     20  Cl  UNL     1      -0.008  -1.101  -7.286  1.00  0.00    -0.080 Cl
BRANCH  15  21
ATOM     21  C   UNL     1       1.179  -3.497  -2.912  1.00  0.00     0.027 C 
ATOM     22  C   UNL     1       0.399   0.053   0.101  1.00  0.00     0.156 C 
ATOM     23  N   UNL     1       0.359  -1.396  -0.123  1.00  0.00    -0.288 N 
ATOM     24  C   UNL     1       0.203  -1.755  -1.457  1.00  0.00     0.265 C 
ATOM     25  C   UNL     1       0.494  -2.307   0.949  1.00  0.00     0.185 C 
ATOM     26  O   UNL     1      -0.216  -1.000  -2.330  1.00  0.00    -0.268 OA
ATOM     27  C   UNL     1       0.584  -3.138  -1.758  1.00  0.00     0.106 C 
ATOM     28  N   UNL     1       0.565  -3.671   0.586  1.00  0.00    -0.288 N 
ATOM     29  S   UNL     1       0.552  -1.787   2.562  1.00  0.00    -0.040 S 
ATOM     30  C   UNL     1       0.477  -4.162  -0.717  1.00  0.00     0.265 C 
ATOM     31  C   UNL     1       0.787  -4.738   1.567  1.00  0.00     0.156 C 
ATOM     32  O   UNL     1       0.390  -5.355  -1.000  1.00  0.00    -0.268 OA
ENDBRANCH  15  21
ENDBRANCH  13  14
ENDBRANCH  12  13
ENDBRANCH   7  12
ENDBRANCH   4   6
ENDBRANCH   3   4
ENDBRANCH   2   3
ENDBRANCH   1   2
BRANCH   1  33
ATOM     33  O   UNL     1       9.191  -4.453  -8.608  1.00  0.00    -0.374 OA
BRANCH  33  34
ATOM     34  C   UNL     1       8.100  -4.277  -7.704  1.00  0.00     0.202 C 
BRANCH  34  35
ATOM     35  C   UNL     1       8.402  -3.633  -6.344  1.00  0.00     0.261 C 
BRANCH  35  36
ATOM     36  O   UNL     1       8.831  -2.265  -6.463  1.00  0.00    -0.460 OA
BRANCH  36  37
ATOM     37  C   UNL     1      10.135  -2.052  -6.178  1.00  0.00     0.338 C 
ATOM     38  O   UNL     1      10.952  -2.868  -5.766  1.00  0.00    -0.246 OA
BRANCH  37  39
ATOM     39  C   UNL     1      10.528  -0.701  -6.612  1.00  0.00     0.060 A 
ATOM     40  C   UNL     1      11.599  -0.591  -7.511  1.00  0.00     0.016 A 
ATOM     41  C   UNL     1       9.912   0.440  -6.097  1.00  0.00     0.016 A 
ATOM     42  C   UNL     1      12.088   0.664  -7.863  1.00  0.00     0.010 A 
ATOM     43  C   UNL     1      10.411   1.699  -6.444  1.00  0.00     0.010 A 
ATOM     44  C   UNL     1      11.522   1.815  -7.300  1.00  0.00    -0.014 A 
BRANCH  44  45
ATOM     45  C   UNL     1      12.187   3.126  -7.493  1.00  0.00     0.031 A 
ATOM     46  C   UNL     1      13.042   3.679  -6.387  1.00  0.00     0.074 A 
ATOM     47  C   UNL     1      12.052   3.801  -8.647  1.00  0.00     0.049 A 
ATOM     48  N   UNL     1      13.678   4.821  -6.318  1.00  0.00    -0.248 NA
ATOM     49  C   UNL     1      13.198   2.830  -5.196  1.00  0.00     0.031 C 
ATOM     50  C   UNL     1      11.284   3.347  -9.805  1.00  0.00     0.029 A 
ATOM     51  N   UNL     1      12.552   5.020  -9.030  1.00  0.00    -0.354 N 
ATOM     52  C   UNL     1      14.300   4.831  -5.076  1.00  0.00     0.074 A 
ATOM     53  C   UNL     1      13.939   3.598  -4.411  1.00  0.00     0.031 C 
ATOM     54  C   UNL     1      11.356   4.282 -10.767  1.00  0.00     0.029 A 
ATOM     55  C   UNL     1      12.144   5.413 -10.280  1.00  0.00     0.049 A 
ATOM     56  H   UNL     1      13.148   5.561  -8.462  1.00  0.00     0.167 HD
ATOM     57  C   UNL     1      15.107   5.780  -4.545  1.00  0.00     0.037 A 
ATOM     58  C   UNL     1      12.362   6.566 -10.942  1.00  0.00     0.037 A 
ATOM     59  C   UNL     1      15.464   7.004  -5.213  1.00  0.00     0.049 A 
ATOM     60  C   UNL     1      13.201   7.639 -10.297  1.00  0.00     0.074 A 
ATOM     61  C   UNL     1      16.293   8.020  -4.769  1.00  0.00     0.029 A 
ATOM     62  N   UNL     1      15.004   7.383  -6.466  1.00  0.00    -0.354 N 
ATOM     63  N   UNL     1      13.809   7.632  -9.135  1.00  0.00    -0.248 NA
ATOM     64  C   UNL     1      13.388   8.881 -11.061  1.00  0.00     0.031 C 
ATOM     65  C   UNL     1      16.287   9.039  -5.727  1.00  0.00     0.029 A 
ATOM     66  C   UNL     1      15.506   8.632  -6.797  1.00  0.00     0.049 A 
ATOM     67  H   UNL     1      14.408   6.845  -7.036  1.00  0.00     0.167 HD
ATOM     68  C   UNL     1      14.472   8.849  -9.041  1.00  0.00     0.074 A 
ATOM     69  C   UNL     1      14.204   9.564 -10.271  1.00  0.00     0.031 C 
ATOM     70  C   UNL     1      15.236   9.330  -8.029  1.00  0.00     0.037 A 
BRANCH  57  71
ATOM     71  C   UNL     1      15.635   5.545  -3.159  1.00  0.00     0.064 A 
ATOM     72  C   UNL     1      16.592   4.556  -2.888  1.00  0.00     0.173 A 
ATOM     73  C   UNL     1      15.198   6.343  -2.090  1.00  0.00     0.173 A 
ATOM     74  F   UNL     1      17.033   3.756  -3.870  1.00  0.00    -0.203 F 
ATOM     75  C   UNL     1      17.070   4.355  -1.595  1.00  0.00     0.198 A 
ATOM     76  C   UNL     1      15.702   6.162  -0.805  1.00  0.00     0.198 A 
ATOM     77  F   UNL     1      14.287   7.307  -2.293  1.00  0.00    -0.203 F 
ATOM     78  F   UNL     1      17.945   3.370  -1.351  1.00  0.00    -0.200 F 
ATOM     79  C   UNL     1      16.630   5.162  -0.556  1.00  0.00     0.200 A 
ATOM     80  F   UNL     1      15.286   6.952   0.194  1.00  0.00    -0.200 F 
ATOM     81  F   UNL     1      17.096   4.973   0.686  1.00  0.00    -0.200 F 
ENDBRANCH  57  71
BRANCH  58  82
ATOM     82  C   UNL     1      11.766   6.772 -12.288  1.00  0.00     0.064 A 
ATOM     83  C   UNL     1      12.572   6.860 -13.431  1.00  0.00     0.173 A 
ATOM     84  C   UNL     1      10.379   6.903 -12.457  1.00  0.00     0.173 A 
ATOM     85  F   UNL     1      13.905   6.767 -13.318  1.00  0.00    -0.203 F 
ATOM     86  C   UNL     1      12.017   7.090 -14.688  1.00  0.00     0.198 A 
ATOM     87  C   UNL     1       9.822   7.102 -13.718  1.00  0.00     0.198 A 
ATOM     88  F   UNL     1       9.563   6.829 -11.395  1.00  0.00    -0.203 F 
ATOM     89  F   UNL     1      12.814   7.219 -15.757  1.00  0.00    -0.200 F 
ATOM     90  C   UNL     1      10.642   7.204 -14.832  1.00  0.00     0.200 A 
ATOM     91  F   UNL     1       8.493   7.198 -13.853  1.00  0.00    -0.200 F 
ATOM     92  F   UNL     1      10.108   7.422 -16.041  1.00  0.00    -0.200 F 
ENDBRANCH  58  82
BRANCH  70  93
ATOM     93  C   UNL     1      15.871  10.678  -8.222  1.00  0.00     0.064 A 
ATOM     94  C   UNL     1      15.114  11.860  -8.221  1.00  0.00     0.173 A 
ATOM     95  C   UNL     1      17.262  10.792  -8.370  1.00  0.00     0.173 A 
ATOM     96  F   UNL     1      13.779  11.806  -8.097  1.00  0.00    -0.203 F 
ATOM     97  C   UNL     1      15.723  13.101  -8.389  1.00  0.00     0.198 A 
ATOM     98  C   UNL     1      17.871  12.036  -8.504  1.00  0.00     0.198 A 
ATOM     99  F   UNL     1      18.034   9.695  -8.370  1.00  0.00    -0.203 F 
ATOM    100  F   UNL     1      14.975  14.211  -8.438  1.00  0.00    -0.200 F 
ATOM    101  C   UNL     1      17.101  13.189  -8.522  1.00  0.00     0.200 A 
ATOM    102  F   UNL     1      19.204  12.120  -8.615  1.00  0.00    -0.200 F 
ATOM    103  F   UNL     1      17.686  14.385  -8.676  1.00  0.00    -0.200 F 
ENDBRANCH  70  93
ENDBRANCH  44  45
ENDBRANCH  37  39
ENDBRANCH  36  37
ENDBRANCH  35  36
ENDBRANCH  34  35
ENDBRANCH  33  34
ENDBRANCH   1  33
TORSDOF 18
