REMARK SMILES O=C(OCCOCCOC(=O)[C@@H]1CCCC[C@H]1C(=O)Nc1ccc(NC(=O)c2ccco2)cc1)c1ccc(-c2c3nc(c(-c4c(F)c(F)c(F)c(F)c4F)c4ccc([nH]4)c(-c4c(F)c(F)c(F)c(F)c4F)c4nc(c(-c5c(F)c(F)c(F)c(F)c5F)c5ccc2[nH]5)C=C4)C=C3)cc1
REMARK SMILES IDX 7 1 6 2 5 3 4 4 3 5 2 6 1 7 35 8 36 9 97 10 37 11 96 12
REMARK SMILES IDX 38 13 39 14 40 15 90 16 41 17 95 18 89 19 91 20 42 21 94 22
REMARK SMILES IDX 88 23 87 24 43 26 75 27 55 28 74 29 56 30 59 31 73 32 92 33
REMARK SMILES IDX 57 34 58 35 72 37 93 38 60 39 44 40 45 41 53 42 46 43 47 44
REMARK SMILES IDX 51 45 54 46 48 47 49 48 52 49 50 50 76 51 77 52 85 53 78 54
REMARK SMILES IDX 79 55 83 56 86 57 80 58 81 59 84 60 82 61 61 62 62 63 70 64
REMARK SMILES IDX 63 65 64 66 68 67 71 68 65 69 66 70 69 71 67 72 8 73 9 74
REMARK SMILES IDX 10 75 11 76 12 77 13 78 17 79 14 80 16 81 15 82 18 83 19 84
REMARK SMILES IDX 20 85 21 87 22 88 34 89 23 90 33 91 24 92 25 93 26 94 27 96
REMARK SMILES IDX 28 97 29 98 32 99 30 100 31 101
REMARK H PARENT 91 25 59 36 20 86 25 95
REMARK Flexibility Score: inf
ROOT
ATOM      1  C   UNL     1       2.586  -1.661  -1.425  1.00  0.00     0.202 C 
ENDROOT
BRANCH   1   2
ATOM      2  O   UNL     1       3.914  -1.128  -1.463  1.00  0.00    -0.374 OA
BRANCH   2   3
ATOM      3  C   UNL     1       4.634  -1.212  -0.233  1.00  0.00     0.202 C 
BRANCH   3   4
ATOM      4  C   UNL     1       4.402  -0.072   0.777  1.00  0.00     0.261 C 
BRANCH   4   5
ATOM      5  O   UNL     1       3.010   0.234   0.947  1.00  0.00    -0.460 OA
BRANCH   5   6
ATOM      6  C   UNL     1       2.270   1.149   0.280  1.00  0.00     0.338 C 
ATOM      7  O   UNL     1       1.082   1.282   0.566  1.00  0.00    -0.246 OA
BRANCH   6   8
ATOM      8  C   UNL     1       2.835   2.037  -0.779  1.00  0.00     0.060 A 
ATOM      9  C   UNL     1       3.983   1.762  -1.521  1.00  0.00     0.016 A 
ATOM     10  C   UNL     1       2.128   3.213  -1.080  1.00  0.00     0.016 A 
ATOM     11  C   UNL     1       4.461   2.621  -2.482  1.00  0.00     0.010 A 
ATOM     12  C   UNL     1       2.588   4.089  -2.065  1.00  0.00     0.010 A 
ATOM     13  C   UNL     1       3.769   3.790  -2.748  1.00  0.00    -0.014 A 
BRANCH  13  14
ATOM     14  C   UNL     1       4.433   4.728  -3.648  1.00  0.00     0.031 A 
ATOM     15  C   UNL     1       5.235   5.823  -3.033  1.00  0.00     0.074 A 
ATOM     16  C   UNL     1       4.479   4.446  -4.959  1.00  0.00     0.049 A 
ATOM     17  N   UNL     1       5.855   6.814  -3.606  1.00  0.00    -0.248 NA
ATOM     18  C   UNL     1       5.380   5.781  -1.566  1.00  0.00     0.031 C 
ATOM     19  C   UNL     1       3.889   3.258  -5.583  1.00  0.00     0.029 A 
ATOM     20  N   UNL     1       5.078   5.108  -5.990  1.00  0.00    -0.354 N 
ATOM     21  C   UNL     1       6.415   7.544  -2.570  1.00  0.00     0.074 A 
ATOM     22  C   UNL     1       6.103   6.864  -1.335  1.00  0.00     0.031 C 
ATOM     23  C   UNL     1       4.163   3.276  -6.896  1.00  0.00     0.029 A 
ATOM     24  C   UNL     1       4.866   4.515  -7.207  1.00  0.00     0.049 A 
ATOM     25  H   UNL     1       5.609   5.928  -5.872  1.00  0.00     0.167 HD
ATOM     26  C   UNL     1       7.095   8.707  -2.666  1.00  0.00     0.037 A 
ATOM     27  C   UNL     1       5.160   4.973  -8.437  1.00  0.00     0.037 A 
ATOM     28  C   UNL     1       7.364   9.340  -3.927  1.00  0.00     0.049 A 
ATOM     29  C   UNL     1       5.835   6.312  -8.528  1.00  0.00     0.074 A 
ATOM     30  C   UNL     1       7.928  10.572  -4.184  1.00  0.00     0.029 A 
ATOM     31  N   UNL     1       7.074   8.759  -5.159  1.00  0.00    -0.354 N 
ATOM     32  N   UNL     1       6.239   7.095  -7.553  1.00  0.00    -0.248 NA
ATOM     33  C   UNL     1       6.067   6.851  -9.870  1.00  0.00     0.031 C 
ATOM     34  C   UNL     1       7.949  10.751  -5.573  1.00  0.00     0.029 A 
ATOM     35  C   UNL     1       7.437   9.612  -6.182  1.00  0.00     0.049 A 
ATOM     36  H   UNL     1       6.670   7.870  -5.282  1.00  0.00     0.167 HD
ATOM     37  C   UNL     1       6.771   8.221  -8.159  1.00  0.00     0.074 A 
ATOM     38  C   UNL     1       6.654   8.008  -9.591  1.00  0.00     0.031 C 
ATOM     39  C   UNL     1       7.299   9.334  -7.592  1.00  0.00     0.037 A 
BRANCH  26  40
ATOM     40  C   UNL     1       7.448   9.384  -1.379  1.00  0.00     0.064 A 
ATOM     41  C   UNL     1       8.465   8.910  -0.537  1.00  0.00     0.173 A 
ATOM     42  C   UNL     1       6.683  10.474  -0.935  1.00  0.00     0.173 A 
ATOM     43  F   UNL     1       9.195   7.843  -0.896  1.00  0.00    -0.203 F 
ATOM     44  C   UNL     1       8.681   9.482   0.716  1.00  0.00     0.198 A 
ATOM     45  C   UNL     1       6.916  11.056   0.308  1.00  0.00     0.198 A 
ATOM     46  F   UNL     1       5.685  10.951  -1.693  1.00  0.00    -0.203 F 
ATOM     47  F   UNL     1       9.611   8.968   1.534  1.00  0.00    -0.200 F 
ATOM     48  C   UNL     1       7.907  10.553   1.137  1.00  0.00     0.200 A 
ATOM     49  F   UNL     1       6.161  12.086   0.716  1.00  0.00    -0.200 F 
ATOM     50  F   UNL     1       8.100  11.085   2.351  1.00  0.00    -0.200 F 
ENDBRANCH  26  40
BRANCH  27  51
ATOM     51  C   UNL     1       4.734   4.196  -9.627  1.00  0.00     0.064 A 
ATOM     52  C   UNL     1       5.664   3.572 -10.466  1.00  0.00     0.173 A 
ATOM     53  C   UNL     1       3.370   4.001  -9.909  1.00  0.00     0.173 A 
ATOM     54  F   UNL     1       6.977   3.739 -10.251  1.00  0.00    -0.203 F 
ATOM     55  C   UNL     1       5.249   2.776 -11.534  1.00  0.00     0.198 A 
ATOM     56  C   UNL     1       2.957   3.184 -10.958  1.00  0.00     0.198 A 
ATOM     57  F   UNL     1       2.436   4.575  -9.136  1.00  0.00    -0.203 F 
ATOM     58  F   UNL     1       6.159   2.200 -12.332  1.00  0.00    -0.200 F 
ATOM     59  C   UNL     1       3.897   2.573 -11.771  1.00  0.00     0.200 A 
ATOM     60  F   UNL     1       1.649   2.977 -11.169  1.00  0.00    -0.200 F 
ATOM     61  F   UNL     1       3.500   1.787 -12.782  1.00  0.00    -0.200 F 
ENDBRANCH  27  51
BRANCH  39  62
ATOM     62  C   UNL     1       7.802  10.386  -8.526  1.00  0.00     0.064 A 
ATOM     63  C   UNL     1       6.923  11.278  -9.154  1.00  0.00     0.173 A 
ATOM     64  C   UNL     1       9.179  10.552  -8.722  1.00  0.00     0.173 A 
ATOM     65  F   UNL     1       5.598  11.143  -8.998  1.00  0.00    -0.203 F 
ATOM     66  C   UNL     1       7.410  12.304  -9.955  1.00  0.00     0.198 A 
ATOM     67  C   UNL     1       9.663  11.590  -9.508  1.00  0.00     0.198 A 
ATOM     68  F   UNL     1      10.051   9.720  -8.132  1.00  0.00    -0.203 F 
ATOM     69  F   UNL     1       6.557  13.139 -10.564  1.00  0.00    -0.200 F 
ATOM     70  C   UNL     1       8.779  12.465 -10.124  1.00  0.00     0.200 A 
ATOM     71  F   UNL     1      10.984  11.751  -9.663  1.00  0.00    -0.200 F 
ATOM     72  F   UNL     1       9.247  13.464 -10.884  1.00  0.00    -0.200 F 
ENDBRANCH  39  62
ENDBRANCH  13  14
ENDBRANCH   6   8
ENDBRANCH   5   6
ENDBRANCH   4   5
ENDBRANCH   3   4
ENDBRANCH   2   3
ENDBRANCH   1   2
BRANCH   1  73
ATOM     73  C   UNL     1       2.534  -3.070  -2.011  1.00  0.00     0.261 C 
BRANCH  73  74
ATOM     74  O   UNL     1       2.964  -4.031  -1.028  1.00  0.00    -0.463 OA
BRANCH  74  75
ATOM     75  C   UNL     1       4.279  -4.356  -1.034  1.00  0.00     0.309 C 
ATOM     76  O   UNL     1       5.106  -3.973  -1.852  1.00  0.00    -0.252 OA
BRANCH  75  77
ATOM     77  C   UNL     1       4.631  -5.292   0.103  1.00  0.00     0.111 C 
ATOM     78  C   UNL     1       4.222  -6.712  -0.301  1.00  0.00     0.016 C 
ATOM     79  C   UNL     1       4.066  -4.886   1.473  1.00  0.00     0.093 C 
ATOM     80  C   UNL     1       4.617  -7.707   0.783  1.00  0.00     0.001 C 
ATOM     81  C   UNL     1       4.382  -5.932   2.551  1.00  0.00     0.014 C 
ATOM     82  C   UNL     1       3.978  -7.335   2.115  1.00  0.00     0.001 C 
BRANCH  79  83
ATOM     83  C   UNL     1       4.334  -3.500   2.077  1.00  0.00     0.228 C 
ATOM     84  O   UNL     1       3.358  -2.798   2.381  1.00  0.00    -0.274 OA
ATOM     85  N   UNL     1       5.544  -3.005   2.463  1.00  0.00    -0.326 N 
ATOM     86  H   UNL     1       5.472  -2.200   3.025  1.00  0.00     0.169 HD
BRANCH  85  87
ATOM     87  C   UNL     1       6.861  -3.398   2.231  1.00  0.00     0.041 A 
ATOM     88  C   UNL     1       7.760  -3.302   3.287  1.00  0.00     0.028 A 
ATOM     89  C   UNL     1       7.340  -3.816   1.001  1.00  0.00     0.028 A 
ATOM     90  C   UNL     1       9.026  -3.885   3.182  1.00  0.00     0.028 A 
ATOM     91  C   UNL     1       8.583  -4.447   0.906  1.00  0.00     0.028 A 
ATOM     92  C   UNL     1       9.387  -4.588   2.037  1.00  0.00     0.041 A 
BRANCH  92  93
ATOM     93  N   UNL     1      10.481  -5.462   1.929  1.00  0.00    -0.319 N 
ATOM     94  C   UNL     1      11.313  -6.046   2.865  1.00  0.00     0.291 C 
ATOM     95  H   UNL     1      10.700  -5.707   1.001  1.00  0.00     0.170 HD
ATOM     96  O   UNL     1      12.188  -6.803   2.436  1.00  0.00    -0.265 OA
BRANCH  94  97
ATOM     97  C   UNL     1      11.128  -5.801   4.273  1.00  0.00     0.191 A 
ATOM     98  C   UNL     1      10.129  -6.146   5.168  1.00  0.00     0.056 A 
ATOM     99  O   UNL     1      12.088  -5.073   4.923  1.00  0.00    -0.459 OA
ATOM    100  C   UNL     1      10.476  -5.553   6.409  1.00  0.00     0.043 A 
ATOM    101  C   UNL     1      11.681  -4.923   6.208  1.00  0.00     0.196 A 
ENDBRANCH  94  97
ENDBRANCH  92  93
ENDBRANCH  85  87
ENDBRANCH  79  83
ENDBRANCH  75  77
ENDBRANCH  74  75
ENDBRANCH  73  74
ENDBRANCH   1  73
TORSDOF 18
