REMARK SMILES CC(C)N(CC1CC1)C(=O)N1CC[C@H](C(=O)OCCOCCOC(=O)c2ccc(-c3c4nc(c(-c5c(F)c(F)c(F)c(F)c5F)c5ccc([nH]5)c(-c5c(F)c(F)c(F)c(F)c5F)c5nc(c(-c6c(F)c(F)c(F)c(F)c6F)c6ccc3[nH]6)C=C5)C=C4)cc2)[C@H]1C
REMARK SMILES IDX 19 1 18 2 17 3 15 4 16 5 14 6 11 7 12 8 89 9 13 10 90 11
REMARK SMILES IDX 9 12 10 13 4 14 2 15 1 16 3 17 5 18 6 19 7 20 8 21 20 22
REMARK SMILES IDX 21 23 22 24 23 25 24 26 25 27 26 28 27 29 88 30 28 31 87 32
REMARK SMILES IDX 29 33 30 34 31 35 81 36 32 37 86 38 80 39 82 40 33 41 85 42
REMARK SMILES IDX 79 43 78 44 34 46 66 47 46 48 65 49 47 50 50 51 64 52 83 53
REMARK SMILES IDX 48 54 49 55 63 57 84 58 51 59 35 60 36 61 44 62 37 63 38 64
REMARK SMILES IDX 42 65 45 66 39 67 40 68 43 69 41 70 67 71 68 72 76 73 69 74
REMARK SMILES IDX 70 75 74 76 77 77 71 78 72 79 75 80 73 81 52 82 53 83 61 84
REMARK SMILES IDX 54 85 55 86 59 87 62 88 56 89 57 90 60 91 58 92
REMARK H PARENT 82 45 50 56
REMARK Flexibility Score: inf
ROOT
ATOM      1  C   UNL     1      -6.072  -5.791  -0.079  1.00  0.00     0.202 C 
ENDROOT
BRANCH   1   2
ATOM      2  C   UNL     1      -5.190  -5.056  -1.089  1.00  0.00     0.261 C 
BRANCH   2   3
ATOM      3  O   UNL     1      -4.987  -3.690  -0.690  1.00  0.00    -0.463 OA
BRANCH   3   4
ATOM      4  C   UNL     1      -5.206  -2.767  -1.657  1.00  0.00     0.311 C 
ATOM      5  O   UNL     1      -5.386  -3.021  -2.844  1.00  0.00    -0.252 OA
BRANCH   4   6
ATOM      6  C   UNL     1      -5.272  -1.348  -1.132  1.00  0.00     0.123 C 
ATOM      7  N   UNL     1      -3.061  -0.684  -0.573  1.00  0.00    -0.321 N 
ATOM      8  C   UNL     1      -3.727  -1.088   0.663  1.00  0.00     0.122 C 
ATOM      9  C   UNL     1      -4.056  -0.566  -1.657  1.00  0.00     0.098 C 
ATOM     10  C   UNL     1      -5.209  -1.106   0.371  1.00  0.00     0.039 C 
ATOM     11  C   UNL     1      -4.537   0.859  -1.959  1.00  0.00     0.032 C 
BRANCH   7  12
ATOM     12  C   UNL     1      -1.693  -0.881  -0.575  1.00  0.00     0.320 C 
ATOM     13  O   UNL     1      -1.201  -1.456   0.407  1.00  0.00    -0.248 OA
BRANCH  12  14
ATOM     14  N   UNL     1      -0.862  -0.438  -1.586  1.00  0.00    -0.322 N 
BRANCH  14  15
ATOM     15  C   UNL     1       0.608  -0.599  -1.393  1.00  0.00     0.080 C 
ATOM     16  C   UNL     1       1.125   0.055  -0.100  1.00  0.00     0.031 C 
ATOM     17  C   UNL     1       1.084  -2.047  -1.515  1.00  0.00     0.031 C 
ENDBRANCH  14  15
BRANCH  14  18
ATOM     18  C   UNL     1      -1.234   0.386  -2.728  1.00  0.00     0.125 C 
BRANCH  18  19
ATOM     19  C   UNL     1      -1.802  -0.359  -3.901  1.00  0.00     0.009 C 
ATOM     20  C   UNL     1      -0.896  -1.006  -4.922  1.00  0.00     0.006 C 
ATOM     21  C   UNL     1      -1.761  -1.867  -4.052  1.00  0.00     0.006 C 
ENDBRANCH  18  19
ENDBRANCH  14  18
ENDBRANCH  12  14
ENDBRANCH   7  12
ENDBRANCH   4   6
ENDBRANCH   3   4
ENDBRANCH   2   3
ENDBRANCH   1   2
BRANCH   1  22
ATOM     22  O   UNL     1      -7.405  -5.309   0.094  1.00  0.00    -0.374 OA
BRANCH  22  23
ATOM     23  C   UNL     1      -7.585  -4.044   0.725  1.00  0.00     0.202 C 
BRANCH  23  24
ATOM     24  C   UNL     1      -7.342  -3.964   2.241  1.00  0.00     0.261 C 
BRANCH  24  25
ATOM     25  O   UNL     1      -6.033  -4.409   2.640  1.00  0.00    -0.460 OA
BRANCH  25  26
ATOM     26  C   UNL     1      -6.031  -5.576   3.328  1.00  0.00     0.338 C 
ATOM     27  O   UNL     1      -7.008  -6.212   3.708  1.00  0.00    -0.246 OA
BRANCH  26  28
ATOM     28  C   UNL     1      -4.669  -6.126   3.442  1.00  0.00     0.060 A 
ATOM     29  C   UNL     1      -4.480  -7.448   3.016  1.00  0.00     0.016 A 
ATOM     30  C   UNL     1      -3.627  -5.421   4.047  1.00  0.00     0.016 A 
ATOM     31  C   UNL     1      -3.272  -8.095   3.257  1.00  0.00     0.010 A 
ATOM     32  C   UNL     1      -2.413  -6.076   4.295  1.00  0.00     0.010 A 
ATOM     33  C   UNL     1      -2.249  -7.428   3.943  1.00  0.00    -0.014 A 
BRANCH  33  34
ATOM     34  C   UNL     1      -1.088  -8.212   4.434  1.00  0.00     0.031 A 
ATOM     35  C   UNL     1      -1.074  -8.670   5.868  1.00  0.00     0.074 A 
ATOM     36  C   UNL     1      -0.096  -8.569   3.601  1.00  0.00     0.049 A 
ATOM     37  N   UNL     1      -0.174  -9.372   6.509  1.00  0.00    -0.248 NA
ATOM     38  C   UNL     1      -2.234  -8.288   6.689  1.00  0.00     0.031 C 
ATOM     39  C   UNL     1      -0.022  -8.226   2.183  1.00  0.00     0.029 A 
ATOM     40  N   UNL     1       1.040  -9.305   3.831  1.00  0.00    -0.354 N 
ATOM     41  C   UNL     1      -0.656  -9.510   7.805  1.00  0.00     0.074 A 
ATOM     42  C   UNL     1      -1.911  -8.795   7.869  1.00  0.00     0.031 C 
ATOM     43  C   UNL     1       1.106  -8.746   1.668  1.00  0.00     0.029 A 
ATOM     44  C   UNL     1       1.845  -9.432   2.726  1.00  0.00     0.049 A 
ATOM     45  H   UNL     1       1.257  -9.703   4.705  1.00  0.00     0.167 HD
ATOM     46  C   UNL     1      -0.105 -10.182   8.844  1.00  0.00     0.037 A 
ATOM     47  C   UNL     1       3.050 -10.019   2.593  1.00  0.00     0.037 A 
ATOM     48  C   UNL     1       1.142 -10.897   8.776  1.00  0.00     0.049 A 
ATOM     49  C   UNL     1       3.674 -10.701   3.783  1.00  0.00     0.074 A 
ATOM     50  C   UNL     1       1.777 -11.623   9.769  1.00  0.00     0.029 A 
ATOM     51  N   UNL     1       1.949 -10.969   7.650  1.00  0.00    -0.354 N 
ATOM     52  N   UNL     1       3.202 -10.847   4.997  1.00  0.00    -0.248 NA
ATOM     53  C   UNL     1       5.000 -11.304   3.581  1.00  0.00     0.031 C 
ATOM     54  C   UNL     1       2.992 -12.092   9.258  1.00  0.00     0.029 A 
ATOM     55  C   UNL     1       3.088 -11.705   7.931  1.00  0.00     0.049 A 
ATOM     56  H   UNL     1       1.742 -10.558   6.779  1.00  0.00     0.167 HD
ATOM     57  C   UNL     1       4.155 -11.579   5.694  1.00  0.00     0.074 A 
ATOM     58  C   UNL     1       5.227 -11.860   4.763  1.00  0.00     0.031 C 
ATOM     59  C   UNL     1       4.143 -11.982   6.989  1.00  0.00     0.037 A 
BRANCH  46  60
ATOM     60  C   UNL     1      -0.836 -10.154  10.155  1.00  0.00     0.064 A 
ATOM     61  C   UNL     1      -2.034 -10.858  10.348  1.00  0.00     0.173 A 
ATOM     62  C   UNL     1      -0.312  -9.441  11.244  1.00  0.00     0.173 A 
ATOM     63  F   UNL     1      -2.585 -11.545   9.335  1.00  0.00    -0.203 F 
ATOM     64  C   UNL     1      -2.692 -10.830  11.575  1.00  0.00     0.198 A 
ATOM     65  C   UNL     1      -0.958  -9.438  12.477  1.00  0.00     0.198 A 
ATOM     66  F   UNL     1       0.833  -8.754  11.115  1.00  0.00    -0.203 F 
ATOM     67  F   UNL     1      -3.858 -11.474  11.724  1.00  0.00    -0.200 F 
ATOM     68  C   UNL     1      -2.150 -10.126  12.640  1.00  0.00     0.200 A 
ATOM     69  F   UNL     1      -0.426  -8.768  13.509  1.00  0.00    -0.200 F 
ATOM     70  F   UNL     1      -2.781 -10.106  13.823  1.00  0.00    -0.200 F 
ENDBRANCH  46  60
BRANCH  47  71
ATOM     71  C   UNL     1       3.754  -9.979   1.284  1.00  0.00     0.064 A 
ATOM     72  C   UNL     1       3.953 -11.144   0.531  1.00  0.00     0.173 A 
ATOM     73  C   UNL     1       4.259  -8.775   0.770  1.00  0.00     0.173 A 
ATOM     74  F   UNL     1       3.514 -12.323   0.993  1.00  0.00    -0.203 F 
ATOM     75  C   UNL     1       4.644 -11.109  -0.679  1.00  0.00     0.198 A 
ATOM     76  C   UNL     1       4.924  -8.736  -0.454  1.00  0.00     0.198 A 
ATOM     77  F   UNL     1       4.100  -7.633   1.454  1.00  0.00    -0.203 F 
ATOM     78  F   UNL     1       4.862 -12.244  -1.357  1.00  0.00    -0.200 F 
ATOM     79  C   UNL     1       5.123  -9.905  -1.173  1.00  0.00     0.200 A 
ATOM     80  F   UNL     1       5.376  -7.569  -0.932  1.00  0.00    -0.200 F 
ATOM     81  F   UNL     1       5.785  -9.871  -2.338  1.00  0.00    -0.200 F 
ENDBRANCH  47  71
BRANCH  59  82
ATOM     82  C   UNL     1       5.307 -12.803   7.467  1.00  0.00     0.064 A 
ATOM     83  C   UNL     1       6.573 -12.236   7.671  1.00  0.00     0.173 A 
ATOM     84  C   UNL     1       5.139 -14.164   7.766  1.00  0.00     0.173 A 
ATOM     85  F   UNL     1       6.788 -10.943   7.387  1.00  0.00    -0.203 F 
ATOM     86  C   UNL     1       7.636 -13.009   8.132  1.00  0.00     0.198 A 
ATOM     87  C   UNL     1       6.197 -14.925   8.256  1.00  0.00     0.198 A 
ATOM     88  F   UNL     1       3.946 -14.752   7.597  1.00  0.00    -0.203 F 
ATOM     89  F   UNL     1       8.850 -12.458   8.274  1.00  0.00    -0.200 F 
ATOM     90  C   UNL     1       7.446 -14.350   8.431  1.00  0.00     0.200 A 
ATOM     91  F   UNL     1       6.006 -16.217   8.558  1.00  0.00    -0.200 F 
ATOM     92  F   UNL     1       8.468 -15.089   8.881  1.00  0.00    -0.200 F 
ENDBRANCH  59  82
ENDBRANCH  33  34
ENDBRANCH  26  28
ENDBRANCH  25  26
ENDBRANCH  24  25
ENDBRANCH  23  24
ENDBRANCH  22  23
ENDBRANCH   1  22
TORSDOF 19
