REMARK SMILES CCc1cc(C(=O)N2CCO[C@@H](CC(=O)OCCOCCOC(=O)c3ccc(-c4c5nc(c(-c6c(F)c(F)c(F)c(F)c6F)c6ccc([nH]6)c(-c6c(F)c(F)c(F)c(F)c6F)c6nc(c(-c7c(F)c(F)c(F)c(F)c7F)c7ccc4[nH]7)C=C6)C=C5)cc3)C2)sc1C
REMARK SMILES IDX 18 1 17 2 16 3 14 4 15 5 13 6 12 7 8 8 9 9 88 10 10 11 11 12
REMARK SMILES IDX 6 13 7 14 5 15 3 16 4 17 90 18 89 19 91 20 2 21 1 22 19 23
REMARK SMILES IDX 20 24 21 25 22 26 23 27 24 28 25 29 26 30 87 31 27 32 86 33
REMARK SMILES IDX 28 34 29 35 30 36 80 37 31 38 85 39 79 40 81 41 32 42 84 43
REMARK SMILES IDX 78 44 77 45 33 47 65 48 45 49 64 50 46 51 49 52 63 53 82 54
REMARK SMILES IDX 47 55 48 56 62 58 83 59 50 60 34 61 35 62 43 63 36 64 37 65
REMARK SMILES IDX 41 66 44 67 38 68 39 69 42 70 40 71 66 72 67 73 75 74 68 75
REMARK SMILES IDX 69 76 73 77 76 78 70 79 71 80 74 81 72 82 51 83 52 84 60 85
REMARK SMILES IDX 53 86 54 87 58 88 61 89 55 90 56 91 59 92 57 93
REMARK H PARENT 81 46 49 57
REMARK Flexibility Score: inf
ROOT
ATOM      1  C   UNL     1      -1.080  -4.370   9.713  1.00  0.00     0.202 C 
ENDROOT
BRANCH   1   2
ATOM      2  C   UNL     1       0.209  -5.022  10.215  1.00  0.00     0.261 C 
BRANCH   2   3
ATOM      3  O   UNL     1       1.275  -4.907   9.247  1.00  0.00    -0.463 OA
BRANCH   3   4
ATOM      4  C   UNL     1       1.757  -6.075   8.751  1.00  0.00     0.308 C 
ATOM      5  O   UNL     1       1.349  -7.188   9.056  1.00  0.00    -0.252 OA
BRANCH   4   6
ATOM      6  C   UNL     1       2.923  -5.862   7.824  1.00  0.00     0.156 C 
BRANCH   6   7
ATOM      7  C   UNL     1       2.695  -4.905   6.654  1.00  0.00     0.148 C 
ATOM      8  N   UNL     1       2.940  -2.576   5.832  1.00  0.00    -0.333 N 
ATOM      9  C   UNL     1       3.875  -3.039   4.811  1.00  0.00     0.148 C 
ATOM     10  C   UNL     1       2.897  -3.417   7.033  1.00  0.00     0.152 C 
ATOM     11  C   UNL     1       3.568  -4.489   4.459  1.00  0.00     0.182 C 
ATOM     12  O   UNL     1       3.646  -5.307   5.633  1.00  0.00    -0.374 OA
BRANCH   8  13
ATOM     13  C   UNL     1       2.466  -1.267   5.882  1.00  0.00     0.264 C 
ATOM     14  O   UNL     1       2.411  -0.685   6.965  1.00  0.00    -0.268 OA
BRANCH  13  15
ATOM     15  C   UNL     1       1.954  -0.689   4.637  1.00  0.00     0.093 A 
ATOM     16  C   UNL     1       1.009  -0.406   2.486  1.00  0.00    -0.034 A 
ATOM     17  C   UNL     1       1.532  -1.309   3.474  1.00  0.00     0.029 A 
ATOM     18  C   UNL     1       0.987   0.889   2.978  1.00  0.00     0.005 A 
ATOM     19  S   UNL     1       1.692   1.000   4.535  1.00  0.00    -0.135 S 
ATOM     20  C   UNL     1       0.452   2.130   2.339  1.00  0.00     0.056 C 
BRANCH  16  21
ATOM     21  C   UNL     1       0.507  -0.861   1.141  1.00  0.00     0.033 C 
ATOM     22  C   UNL     1       1.304  -0.296  -0.026  1.00  0.00     0.009 C 
ENDBRANCH  16  21
ENDBRANCH  13  15
ENDBRANCH   8  13
ENDBRANCH   6   7
ENDBRANCH   4   6
ENDBRANCH   3   4
ENDBRANCH   2   3
ENDBRANCH   1   2
BRANCH   1  23
ATOM     23  O   UNL     1      -1.781  -5.090   8.698  1.00  0.00    -0.374 OA
BRANCH  23  24
ATOM     24  C   UNL     1      -1.263  -5.008   7.373  1.00  0.00     0.202 C 
BRANCH  24  25
ATOM     25  C   UNL     1      -1.655  -3.754   6.583  1.00  0.00     0.261 C 
BRANCH  25  26
ATOM     26  O   UNL     1      -1.123  -2.557   7.177  1.00  0.00    -0.460 OA
BRANCH  26  27
ATOM     27  C   UNL     1      -2.044  -1.765   7.777  1.00  0.00     0.338 C 
ATOM     28  O   UNL     1      -3.260  -1.917   7.774  1.00  0.00    -0.246 OA
BRANCH  27  29
ATOM     29  C   UNL     1      -1.389  -0.734   8.603  1.00  0.00     0.060 A 
ATOM     30  C   UNL     1      -1.875  -0.529   9.899  1.00  0.00     0.016 A 
ATOM     31  C   UNL     1      -0.371   0.075   8.102  1.00  0.00     0.016 A 
ATOM     32  C   UNL     1      -1.394   0.532  10.665  1.00  0.00     0.010 A 
ATOM     33  C   UNL     1       0.132   1.125   8.879  1.00  0.00     0.010 A 
ATOM     34  C   UNL     1      -0.421   1.396  10.141  1.00  0.00    -0.014 A 
BRANCH  34  35
ATOM     35  C   UNL     1      -0.157   2.685  10.831  1.00  0.00     0.031 A 
ATOM     36  C   UNL     1      -0.804   3.936  10.293  1.00  0.00     0.074 A 
ATOM     37  C   UNL     1       0.569   2.737  11.962  1.00  0.00     0.049 A 
ATOM     38  N   UNL     1      -0.787   5.155  10.771  1.00  0.00    -0.248 NA
ATOM     39  C   UNL     1      -1.580   3.792   9.050  1.00  0.00     0.031 C 
ATOM     40  C   UNL     1       1.232   1.600  12.595  1.00  0.00     0.029 A 
ATOM     41  N   UNL     1       0.858   3.798  12.786  1.00  0.00    -0.354 N 
ATOM     42  C   UNL     1      -1.552   5.915   9.895  1.00  0.00     0.074 A 
ATOM     43  C   UNL     1      -1.979   5.036   8.829  1.00  0.00     0.031 C 
ATOM     44  C   UNL     1       1.842   2.021  13.717  1.00  0.00     0.029 A 
ATOM     45  C   UNL     1       1.627   3.459  13.871  1.00  0.00     0.049 A 
ATOM     46  H   UNL     1       0.543   4.715  12.614  1.00  0.00     0.167 HD
ATOM     47  C   UNL     1      -1.892   7.222   9.980  1.00  0.00     0.037 A 
ATOM     48  C   UNL     1       2.102   4.226  14.873  1.00  0.00     0.037 A 
ATOM     49  C   UNL     1      -1.477   8.102  11.038  1.00  0.00     0.049 A 
ATOM     50  C   UNL     1       1.757   5.694  14.911  1.00  0.00     0.074 A 
ATOM     51  C   UNL     1      -1.779   9.441  11.217  1.00  0.00     0.029 A 
ATOM     52  N   UNL     1      -0.667   7.728  12.099  1.00  0.00    -0.354 N 
ATOM     53  N   UNL     1       0.998   6.391  14.101  1.00  0.00    -0.248 NA
ATOM     54  C   UNL     1       2.331   6.479  16.014  1.00  0.00     0.031 C 
ATOM     55  C   UNL     1      -1.119   9.887  12.367  1.00  0.00     0.029 A 
ATOM     56  C   UNL     1      -0.443   8.816  12.927  1.00  0.00     0.049 A 
ATOM     57  H   UNL     1      -0.305   6.824  12.242  1.00  0.00     0.167 HD
ATOM     58  C   UNL     1       0.981   7.683  14.609  1.00  0.00     0.074 A 
ATOM     59  C   UNL     1       1.790   7.671  15.809  1.00  0.00     0.031 C 
ATOM     60  C   UNL     1       0.353   8.783  14.125  1.00  0.00     0.037 A 
BRANCH  47  61
ATOM     61  C   UNL     1      -2.759   7.782   8.892  1.00  0.00     0.064 A 
ATOM     62  C   UNL     1      -4.121   7.456   8.803  1.00  0.00     0.173 A 
ATOM     63  C   UNL     1      -2.235   8.681   7.952  1.00  0.00     0.173 A 
ATOM     64  F   UNL     1      -4.666   6.588   9.669  1.00  0.00    -0.203 F 
ATOM     65  C   UNL     1      -4.921   7.994   7.799  1.00  0.00     0.198 A 
ATOM     66  C   UNL     1      -3.044   9.237   6.965  1.00  0.00     0.198 A 
ATOM     67  F   UNL     1      -0.940   9.027   7.996  1.00  0.00    -0.203 F 
ATOM     68  F   UNL     1      -6.210   7.638   7.708  1.00  0.00    -0.200 F 
ATOM     69  C   UNL     1      -4.384   8.890   6.886  1.00  0.00     0.200 A 
ATOM     70  F   UNL     1      -2.527  10.110   6.090  1.00  0.00    -0.200 F 
ATOM     71  F   UNL     1      -5.158   9.414   5.926  1.00  0.00    -0.200 F 
ENDBRANCH  47  61
BRANCH  48  72
ATOM     72  C   UNL     1       2.953   3.629  15.936  1.00  0.00     0.064 A 
ATOM     73  C   UNL     1       2.496   3.529  17.258  1.00  0.00     0.173 A 
ATOM     74  C   UNL     1       4.258   3.195  15.663  1.00  0.00     0.173 A 
ATOM     75  F   UNL     1       1.266   3.957  17.576  1.00  0.00    -0.203 F 
ATOM     76  C   UNL     1       3.322   3.043  18.270  1.00  0.00     0.198 A 
ATOM     77  C   UNL     1       5.073   2.684  16.670  1.00  0.00     0.198 A 
ATOM     78  F   UNL     1       4.745   3.275  14.416  1.00  0.00    -0.203 F 
ATOM     79  F   UNL     1       2.880   3.012  19.535  1.00  0.00    -0.200 F 
ATOM     80  C   UNL     1       4.608   2.618  17.975  1.00  0.00     0.200 A 
ATOM     81  F   UNL     1       6.313   2.268  16.380  1.00  0.00    -0.200 F 
ATOM     82  F   UNL     1       5.404   2.158  18.950  1.00  0.00    -0.200 F 
ENDBRANCH  48  72
BRANCH  60  83
ATOM     83  C   UNL     1       0.488  10.056  14.910  1.00  0.00     0.064 A 
ATOM     84  C   UNL     1       1.690  10.777  14.939  1.00  0.00     0.173 A 
ATOM     85  C   UNL     1      -0.610  10.579  15.610  1.00  0.00     0.173 A 
ATOM     86  F   UNL     1       2.772  10.312  14.297  1.00  0.00    -0.203 F 
ATOM     87  C   UNL     1       1.796  11.962  15.663  1.00  0.00     0.198 A 
ATOM     88  C   UNL     1      -0.509  11.778  16.308  1.00  0.00     0.198 A 
ATOM     89  F   UNL     1      -1.785   9.932  15.606  1.00  0.00    -0.203 F 
ATOM     90  F   UNL     1       2.968  12.610  15.715  1.00  0.00    -0.200 F 
ATOM     91  C   UNL     1       0.696  12.464  16.341  1.00  0.00     0.200 A 
ATOM     92  F   UNL     1      -1.577  12.270  16.952  1.00  0.00    -0.200 F 
ATOM     93  F   UNL     1       0.798  13.607  17.033  1.00  0.00    -0.200 F 
ENDBRANCH  60  83
ENDBRANCH  34  35
ENDBRANCH  27  29
ENDBRANCH  26  27
ENDBRANCH  25  26
ENDBRANCH  24  25
ENDBRANCH  23  24
ENDBRANCH   1  23
TORSDOF 18
