REMARK SMILES O=C(Cn1cc(/C=C(/Cl)c2nnc(C(=O)Nc3ccc(Cl)cc3)s2)nn1)OCCOCCOC(=O)c1ccc(-c2c3nc(c(-c4c(F)c(F)c(F)c(F)c4F)c4ccc([nH]4)c(-c4c(F)c(F)c(F)c(F)c4F)c4nc(c(-c5c(F)c(F)c(F)c(F)c5F)c5ccc2[nH]5)C=C4)C=C3)cc1
REMARK SMILES IDX 28 1 27 2 2 3 1 4 3 5 4 6 5 7 26 8 6 9 25 10 7 11 8 12 9 13
REMARK SMILES IDX 10 14 11 15 24 16 12 17 13 18 14 19 15 20 16 21 17 23 18 24
REMARK SMILES IDX 23 25 19 26 22 27 20 28 21 29 29 30 30 31 31 32 32 33 33 34
REMARK SMILES IDX 34 35 35 36 36 37 37 38 98 39 38 40 97 41 39 42 40 43 41 44
REMARK SMILES IDX 91 45 42 46 96 47 90 48 92 49 43 50 95 51 89 52 88 53 44 55
REMARK SMILES IDX 76 56 56 57 75 58 57 59 60 60 74 61 93 62 58 63 59 64 73 66
REMARK SMILES IDX 94 67 61 68 45 69 46 70 54 71 47 72 48 73 52 74 55 75 49 76
REMARK SMILES IDX 50 77 53 78 51 79 77 80 78 81 86 82 79 83 80 84 84 85 87 86
REMARK SMILES IDX 81 87 82 88 85 89 83 90 62 91 63 92 71 93 64 94 65 95 69 96
REMARK SMILES IDX 72 97 66 98 67 99 70 100 68 101
REMARK H PARENT 16 22 92 54 60 65
REMARK Flexibility Score: inf
ROOT
ATOM      1  C   UNL     1       3.891  -0.316   0.059  1.00  0.00     0.261 C 
ENDROOT
BRANCH   1   2
ATOM      2  O   UNL     1       2.458  -0.361   0.077  1.00  0.00    -0.462 OA
BRANCH   2   3
ATOM      3  C   UNL     1       1.686   0.105   1.088  1.00  0.00     0.327 C 
ATOM      4  O   UNL     1       0.476  -0.118   1.060  1.00  0.00    -0.250 OA
BRANCH   3   5
ATOM      5  C   UNL     1       2.287   1.002   2.135  1.00  0.00     0.268 C 
BRANCH   5   6
ATOM      6  N   UNL     1       3.020   0.305   3.156  1.00  0.00    -0.241 N 
ATOM      7  C   UNL     1       4.327   0.478   3.520  1.00  0.00     0.139 A 
ATOM      8  N   UNL     1       2.396  -0.573   3.953  1.00  0.00    -0.066 NA
ATOM      9  C   UNL     1       4.475  -0.413   4.551  1.00  0.00     0.107 A 
ATOM     10  N   UNL     1       3.285  -1.014   4.829  1.00  0.00    -0.131 NA
BRANCH   9  11
ATOM     11  C   UNL     1       5.646  -0.734   5.273  1.00  0.00     0.055 C 
ATOM     12  C   UNL     1       6.159  -1.954   5.521  1.00  0.00     0.081 C 
ATOM     13  Cl  UNL     1       7.593  -2.011   6.526  1.00  0.00    -0.081 Cl
BRANCH  12  14
ATOM     14  C   UNL     1       5.745  -3.220   4.975  1.00  0.00     0.159 A 
ATOM     15  N   UNL     1       6.127  -4.416   5.410  1.00  0.00    -0.137 NA
ATOM     16  S   UNL     1       4.819  -3.374   3.509  1.00  0.00    -0.086 S 
ATOM     17  N   UNL     1       5.909  -5.440   4.503  1.00  0.00    -0.133 NA
ATOM     18  C   UNL     1       5.370  -4.986   3.396  1.00  0.00     0.206 A 
BRANCH  18  19
ATOM     19  C   UNL     1       5.268  -5.737   2.155  1.00  0.00     0.286 C 
ATOM     20  O   UNL     1       4.726  -6.841   2.068  1.00  0.00    -0.266 OA
ATOM     21  N   UNL     1       5.725  -5.153   0.972  1.00  0.00    -0.320 N 
ATOM     22  H   UNL     1       5.416  -5.580   0.140  1.00  0.00     0.170 HD
BRANCH  21  23
ATOM     23  C   UNL     1       6.566  -4.037   0.807  1.00  0.00     0.041 A 
ATOM     24  C   UNL     1       7.565  -3.701   1.729  1.00  0.00     0.027 A 
ATOM     25  C   UNL     1       6.350  -3.207  -0.295  1.00  0.00     0.027 A 
ATOM     26  C   UNL     1       8.225  -2.473   1.643  1.00  0.00     0.022 A 
ATOM     27  C   UNL     1       7.019  -1.982  -0.388  1.00  0.00     0.022 A 
ATOM     28  C   UNL     1       7.921  -1.602   0.603  1.00  0.00     0.041 A 
ATOM     29  Cl  UNL     1       8.634  -0.039   0.561  1.00  0.00    -0.084 Cl
ENDBRANCH  21  23
ENDBRANCH  18  19
ENDBRANCH  12  14
ENDBRANCH   9  11
ENDBRANCH   5   6
ENDBRANCH   3   5
ENDBRANCH   2   3
ENDBRANCH   1   2
BRANCH   1  30
ATOM     30  C   UNL     1       4.460   0.897  -0.669  1.00  0.00     0.202 C 
BRANCH  30  31
ATOM     31  O   UNL     1       4.016   2.174  -0.216  1.00  0.00    -0.374 OA
BRANCH  31  32
ATOM     32  C   UNL     1       2.772   2.671  -0.725  1.00  0.00     0.202 C 
BRANCH  32  33
ATOM     33  C   UNL     1       2.817   3.324  -2.094  1.00  0.00     0.261 C 
BRANCH  33  34
ATOM     34  O   UNL     1       3.029   2.333  -3.083  1.00  0.00    -0.460 OA
BRANCH  34  35
ATOM     35  C   UNL     1       4.293   2.175  -3.505  1.00  0.00     0.338 C 
ATOM     36  O   UNL     1       5.306   2.726  -3.072  1.00  0.00    -0.246 OA
BRANCH  35  37
ATOM     37  C   UNL     1       4.256   1.294  -4.669  1.00  0.00     0.060 A 
ATOM     38  C   UNL     1       5.399   1.288  -5.469  1.00  0.00     0.016 A 
ATOM     39  C   UNL     1       3.015   0.812  -5.120  1.00  0.00     0.016 A 
ATOM     40  C   UNL     1       5.230   1.086  -6.815  1.00  0.00     0.010 A 
ATOM     41  C   UNL     1       2.840   0.655  -6.467  1.00  0.00     0.010 A 
ATOM     42  C   UNL     1       3.931   0.894  -7.295  1.00  0.00    -0.014 A 
BRANCH  42  43
ATOM     43  C   UNL     1       3.729   0.949  -8.719  1.00  0.00     0.031 A 
ATOM     44  C   UNL     1       4.027  -0.323  -9.399  1.00  0.00     0.074 A 
ATOM     45  C   UNL     1       3.206   2.038  -9.308  1.00  0.00     0.049 A 
ATOM     46  N   UNL     1       4.958  -0.565 -10.258  1.00  0.00    -0.248 NA
ATOM     47  C   UNL     1       3.288  -1.513  -8.947  1.00  0.00     0.031 C 
ATOM     48  C   UNL     1       2.587   3.207  -8.677  1.00  0.00     0.029 A 
ATOM     49  N   UNL     1       3.026   2.270 -10.632  1.00  0.00    -0.354 N 
ATOM     50  C   UNL     1       4.803  -1.903 -10.592  1.00  0.00     0.074 A 
ATOM     51  C   UNL     1       3.904  -2.477  -9.626  1.00  0.00     0.031 C 
ATOM     52  C   UNL     1       1.911   3.908  -9.617  1.00  0.00     0.029 A 
ATOM     53  C   UNL     1       2.150   3.303 -10.917  1.00  0.00     0.049 A 
ATOM     54  H   UNL     1       3.481   1.747 -11.331  1.00  0.00     0.167 HD
ATOM     55  C   UNL     1       5.211  -2.381 -11.795  1.00  0.00     0.037 A 
ATOM     56  C   UNL     1       1.599   3.553 -12.130  1.00  0.00     0.037 A 
ATOM     57  C   UNL     1       6.181  -1.517 -12.412  1.00  0.00     0.049 A 
ATOM     58  C   UNL     1       2.412   2.830 -13.147  1.00  0.00     0.074 A 
ATOM     59  C   UNL     1       7.434  -1.066 -12.043  1.00  0.00     0.029 A 
ATOM     60  N   UNL     1       5.761  -0.673 -13.410  1.00  0.00    -0.354 N 
ATOM     61  N   UNL     1       3.635   3.148 -13.469  1.00  0.00    -0.248 NA
ATOM     62  C   UNL     1       2.016   1.469 -13.486  1.00  0.00     0.031 C 
ATOM     63  C   UNL     1       7.494   0.284 -12.496  1.00  0.00     0.029 A 
ATOM     64  C   UNL     1       6.296   0.565 -13.152  1.00  0.00     0.049 A 
ATOM     65  H   UNL     1       5.184  -0.911 -14.171  1.00  0.00     0.167 HD
ATOM     66  C   UNL     1       4.282   1.935 -13.663  1.00  0.00     0.074 A 
ATOM     67  C   UNL     1       3.215   0.944 -13.751  1.00  0.00     0.031 C 
ATOM     68  C   UNL     1       5.624   1.810 -13.447  1.00  0.00     0.037 A 
BRANCH  55  69
ATOM     69  C   UNL     1       4.457  -3.448 -12.538  1.00  0.00     0.064 A 
ATOM     70  C   UNL     1       5.056  -4.083 -13.637  1.00  0.00     0.173 A 
ATOM     71  C   UNL     1       3.073  -3.687 -12.369  1.00  0.00     0.173 A 
ATOM     72  F   UNL     1       6.353  -3.882 -13.915  1.00  0.00    -0.203 F 
ATOM     73  C   UNL     1       4.315  -4.872 -14.520  1.00  0.00     0.198 A 
ATOM     74  C   UNL     1       2.352  -4.527 -13.212  1.00  0.00     0.198 A 
ATOM     75  F   UNL     1       2.342  -3.035 -11.456  1.00  0.00    -0.203 F 
ATOM     76  F   UNL     1       4.901  -5.367 -15.618  1.00  0.00    -0.200 F 
ATOM     77  C   UNL     1       2.967  -5.098 -14.304  1.00  0.00     0.200 A 
ATOM     78  F   UNL     1       1.042  -4.711 -12.996  1.00  0.00    -0.200 F 
ATOM     79  F   UNL     1       2.248  -5.819 -15.174  1.00  0.00    -0.200 F 
ENDBRANCH  55  69
BRANCH  56  80
ATOM     80  C   UNL     1       0.248   4.083 -12.425  1.00  0.00     0.064 A 
ATOM     81  C   UNL     1      -0.072   4.574 -13.701  1.00  0.00     0.173 A 
ATOM     82  C   UNL     1      -0.834   3.877 -11.545  1.00  0.00     0.173 A 
ATOM     83  F   UNL     1       0.893   4.754 -14.614  1.00  0.00    -0.203 F 
ATOM     84  C   UNL     1      -1.395   4.820 -14.081  1.00  0.00     0.198 A 
ATOM     85  C   UNL     1      -2.152   4.135 -11.921  1.00  0.00     0.198 A 
ATOM     86  F   UNL     1      -0.646   3.331 -10.335  1.00  0.00    -0.203 F 
ATOM     87  F   UNL     1      -1.667   5.227 -15.329  1.00  0.00    -0.200 F 
ATOM     88  C   UNL     1      -2.434   4.593 -13.194  1.00  0.00     0.200 A 
ATOM     89  F   UNL     1      -3.150   3.876 -11.064  1.00  0.00    -0.200 F 
ATOM     90  F   UNL     1      -3.706   4.773 -13.576  1.00  0.00    -0.200 F 
ENDBRANCH  56  80
BRANCH  68  91
ATOM     91  C   UNL     1       6.416   3.074 -13.250  1.00  0.00     0.064 A 
ATOM     92  C   UNL     1       6.216   3.963 -12.180  1.00  0.00     0.173 A 
ATOM     93  C   UNL     1       7.506   3.321 -14.096  1.00  0.00     0.173 A 
ATOM     94  F   UNL     1       5.267   3.737 -11.264  1.00  0.00    -0.203 F 
ATOM     95  C   UNL     1       7.036   5.077 -12.000  1.00  0.00     0.198 A 
ATOM     96  C   UNL     1       8.347   4.411 -13.891  1.00  0.00     0.198 A 
ATOM     97  F   UNL     1       7.784   2.472 -15.098  1.00  0.00    -0.203 F 
ATOM     98  F   UNL     1       6.812   5.918 -10.979  1.00  0.00    -0.200 F 
ATOM     99  C   UNL     1       8.105   5.295 -12.852  1.00  0.00     0.200 A 
ATOM    100  F   UNL     1       9.412   4.589 -14.685  1.00  0.00    -0.200 F 
ATOM    101  F   UNL     1       8.919   6.341 -12.654  1.00  0.00    -0.200 F 
ENDBRANCH  68  91
ENDBRANCH  42  43
ENDBRANCH  35  37
ENDBRANCH  34  35
ENDBRANCH  33  34
ENDBRANCH  32  33
ENDBRANCH  31  32
ENDBRANCH  30  31
ENDBRANCH   1  30
TORSDOF 19
