REMARK SMILES Cn1ccc(C(=O)N[C@H]2CCCCC[C@H]2C(=O)OCCOCCOC(=O)c2ccc(-c3c4nc(c(-c5c(F)c(F)c(F)c(F)c5F)c5ccc([nH]5)c(-c5c(F)c(F)c(F)c(F)c5F)c5nc(c(-c6c(F)c(F)c(F)c(F)c6F)c6ccc3[nH]6)C=C5)C=C4)cc2)cc1=O
REMARK SMILES IDX 20 1 19 2 18 3 16 4 17 5 15 6 9 7 8 8 6 9 7 10 5 12 1 13
REMARK SMILES IDX 2 14 3 15 91 16 4 17 90 18 92 19 10 20 11 21 14 23 13 24
REMARK SMILES IDX 12 25 21 27 22 28 23 29 24 30 25 31 26 32 27 33 28 34 89 35
REMARK SMILES IDX 29 36 88 37 30 38 31 39 32 40 82 41 33 42 87 43 81 44 83 45
REMARK SMILES IDX 34 46 86 47 80 48 79 49 35 51 67 52 47 53 66 54 48 55 51 56
REMARK SMILES IDX 65 57 84 58 49 59 50 60 64 62 85 63 52 64 36 65 37 66 45 67
REMARK SMILES IDX 38 68 39 69 43 70 46 71 40 72 41 73 44 74 42 75 68 76 69 77
REMARK SMILES IDX 77 78 70 79 71 80 75 81 78 82 72 83 73 84 76 85 74 86 53 87
REMARK SMILES IDX 54 88 62 89 55 90 56 91 60 92 63 93 57 94 58 95 61 96 59 97
REMARK H PARENT 8 11 83 50 51 61
REMARK Flexibility Score: 90.00
ROOT
ATOM      1  C   UNL     1      -3.167   3.375  -1.849  1.00  0.00     0.202 C 
ENDROOT
BRANCH   1   2
ATOM      2  C   UNL     1      -2.720   3.110  -0.411  1.00  0.00     0.261 C 
BRANCH   2   3
ATOM      3  O   UNL     1      -1.347   3.468  -0.148  1.00  0.00    -0.463 OA
BRANCH   3   4
ATOM      4  C   UNL     1      -0.545   2.447   0.239  1.00  0.00     0.311 C 
ATOM      5  O   UNL     1      -0.840   1.260   0.136  1.00  0.00    -0.252 OA
BRANCH   4   6
ATOM      6  C   UNL     1       0.731   2.883   0.942  1.00  0.00     0.121 C 
BRANCH   6   7
ATOM      7  C   UNL     1       1.365   4.267   0.672  1.00  0.00     0.096 C 
BRANCH   7   8
ATOM      8  N   UNL     1       1.472   4.605  -0.759  1.00  0.00    -0.348 N 
ATOM      9  C   UNL     1       2.235   5.536  -1.419  1.00  0.00     0.251 C 
ATOM     10  O   UNL     1       2.239   5.555  -2.648  1.00  0.00    -0.269 OA
ATOM     11  H   UNL     1       0.893   4.067  -1.346  1.00  0.00     0.164 HD
BRANCH   9  12
ATOM     12  C   UNL     1       2.905   6.622  -0.649  1.00  0.00     0.046 A 
ATOM     13  C   UNL     1       3.679   9.655   2.162  1.00  0.00     0.153 C 
ATOM     14  N   UNL     1       3.512   8.637   1.138  1.00  0.00    -0.319 N 
ATOM     15  C   UNL     1       2.755   8.933   0.021  1.00  0.00     0.089 A 
ATOM     16  C   UNL     1       4.151   7.407   1.296  1.00  0.00     0.251 A 
ATOM     17  C   UNL     1       2.479   7.986  -0.881  1.00  0.00     0.032 A 
ATOM     18  C   UNL     1       3.808   6.351   0.302  1.00  0.00     0.085 A 
ATOM     19  O   UNL     1       4.904   7.123   2.223  1.00  0.00    -0.269 OA
ENDBRANCH   9  12
ENDBRANCH   7   8
BRANCH   7  20
ATOM     20  C   UNL     1       0.929   5.435   1.578  1.00  0.00     0.026 C 
BRANCH  20  21
ATOM     21  C   UNL     1      -0.500   5.486   2.086  1.00  0.00     0.002 CG0
ATOM     22  G   UNL     1      -0.734   4.623   3.317  1.00  0.00     0.000 G0
ENDBRANCH  20  21
ENDBRANCH   7  20
ENDBRANCH   6   7
BRANCH   6  23
ATOM     23  C   UNL     1       0.585   2.569   2.442  1.00  0.00     0.017 C 
BRANCH  23  24
ATOM     24  C   UNL     1      -0.680   3.116   3.110  1.00  0.00     0.001 C 
BRANCH  24  25
ATOM     25  C   UNL     1      -0.734   4.623   3.317  1.00  0.00     0.000 CG0
ATOM     26  G   UNL     1      -0.500   5.486   2.086  1.00  0.00     0.000 G0
ENDBRANCH  24  25
ENDBRANCH  23  24
ENDBRANCH   6  23
ENDBRANCH   4   6
ENDBRANCH   3   4
ENDBRANCH   2   3
ENDBRANCH   1   2
BRANCH   1  27
ATOM     27  O   UNL     1      -2.592   2.541  -2.849  1.00  0.00    -0.374 OA
BRANCH  27  28
ATOM     28  C   UNL     1      -1.208   2.721  -3.146  1.00  0.00     0.202 C 
BRANCH  28  29
ATOM     29  C   UNL     1      -0.848   4.032  -3.850  1.00  0.00     0.261 C 
BRANCH  29  30
ATOM     30  O   UNL     1      -1.102   5.176  -3.011  1.00  0.00    -0.460 OA
BRANCH  30  31
ATOM     31  C   UNL     1      -1.694   6.210  -3.658  1.00  0.00     0.338 C 
ATOM     32  O   UNL     1      -1.930   6.306  -4.850  1.00  0.00    -0.246 OA
BRANCH  31  33
ATOM     33  C   UNL     1      -2.174   7.220  -2.700  1.00  0.00     0.060 A 
ATOM     34  C   UNL     1      -3.554   7.351  -2.518  1.00  0.00     0.016 A 
ATOM     35  C   UNL     1      -1.296   8.155  -2.152  1.00  0.00     0.016 A 
ATOM     36  C   UNL     1      -4.062   8.457  -1.833  1.00  0.00     0.010 A 
ATOM     37  C   UNL     1      -1.806   9.260  -1.457  1.00  0.00     0.010 A 
ATOM     38  C   UNL     1      -3.195   9.442  -1.335  1.00  0.00    -0.014 A 
BRANCH  38  39
ATOM     39  C   UNL     1      -3.766  10.713  -0.815  1.00  0.00     0.031 A 
ATOM     40  C   UNL     1      -3.772  11.942  -1.688  1.00  0.00     0.074 A 
ATOM     41  C   UNL     1      -4.332  10.761   0.404  1.00  0.00     0.049 A 
ATOM     42  N   UNL     1      -4.283  13.126  -1.451  1.00  0.00    -0.248 NA
ATOM     43  C   UNL     1      -3.117  11.826  -3.001  1.00  0.00     0.031 C 
ATOM     44  C   UNL     1      -4.401   9.646   1.346  1.00  0.00     0.029 A 
ATOM     45  N   UNL     1      -4.967  11.791   1.055  1.00  0.00    -0.354 N 
ATOM     46  C   UNL     1      -4.014  13.890  -2.579  1.00  0.00     0.074 A 
ATOM     47  C   UNL     1      -3.265  13.050  -3.489  1.00  0.00     0.031 C 
ATOM     48  C   UNL     1      -5.046  10.050   2.454  1.00  0.00     0.029 A 
ATOM     49  C   UNL     1      -5.423  11.455   2.305  1.00  0.00     0.049 A 
ATOM     50  H   UNL     1      -5.083  12.686   0.661  1.00  0.00     0.167 HD
ATOM     51  C   UNL     1      -4.372  15.170  -2.841  1.00  0.00     0.037 A 
ATOM     52  C   UNL     1      -6.070  12.196   3.226  1.00  0.00     0.037 A 
ATOM     53  C   UNL     1      -5.140  16.006  -1.956  1.00  0.00     0.049 A 
ATOM     54  C   UNL     1      -6.433  13.625   2.916  1.00  0.00     0.074 A 
ATOM     55  C   UNL     1      -5.596  17.296  -2.167  1.00  0.00     0.029 A 
ATOM     56  N   UNL     1      -5.562  15.636  -0.689  1.00  0.00    -0.354 N 
ATOM     57  N   UNL     1      -6.225  14.314   1.821  1.00  0.00    -0.248 NA
ATOM     58  C   UNL     1      -7.129  14.377   3.972  1.00  0.00     0.031 C 
ATOM     59  C   UNL     1      -6.257  17.723  -1.010  1.00  0.00     0.029 A 
ATOM     60  C   UNL     1      -6.248  16.684  -0.096  1.00  0.00     0.049 A 
ATOM     61  H   UNL     1      -5.399  14.759  -0.272  1.00  0.00     0.167 HD
ATOM     62  C   UNL     1      -6.784  15.566   2.046  1.00  0.00     0.074 A 
ATOM     63  C   UNL     1      -7.356  15.538   3.375  1.00  0.00     0.031 C 
ATOM     64  C   UNL     1      -6.817  16.644   1.226  1.00  0.00     0.037 A 
BRANCH  51  65
ATOM     65  C   UNL     1      -3.940  15.764  -4.149  1.00  0.00     0.064 A 
ATOM     66  C   UNL     1      -4.575  15.426  -5.353  1.00  0.00     0.173 A 
ATOM     67  C   UNL     1      -2.938  16.745  -4.184  1.00  0.00     0.173 A 
ATOM     68  F   UNL     1      -5.534  14.488  -5.369  1.00  0.00    -0.203 F 
ATOM     69  C   UNL     1      -4.215  16.043  -6.548  1.00  0.00     0.198 A 
ATOM     70  C   UNL     1      -2.596  17.375  -5.378  1.00  0.00     0.198 A 
ATOM     71  F   UNL     1      -2.307  17.108  -3.058  1.00  0.00    -0.203 F 
ATOM     72  F   UNL     1      -4.820  15.691  -7.691  1.00  0.00    -0.200 F 
ATOM     73  C   UNL     1      -3.233  17.023  -6.558  1.00  0.00     0.200 A 
ATOM     74  F   UNL     1      -1.655  18.330  -5.384  1.00  0.00    -0.200 F 
ATOM     75  F   UNL     1      -2.900  17.629  -7.706  1.00  0.00    -0.200 F 
ENDBRANCH  51  65
BRANCH  52  76
ATOM     76  C   UNL     1      -6.423  11.605   4.542  1.00  0.00     0.064 A 
ATOM     77  C   UNL     1      -7.757  11.359   4.894  1.00  0.00     0.173 A 
ATOM     78  C   UNL     1      -5.432  11.313   5.491  1.00  0.00     0.173 A 
ATOM     79  F   UNL     1      -8.741  11.648   4.029  1.00  0.00    -0.203 F 
ATOM     80  C   UNL     1      -8.089  10.867   6.154  1.00  0.00     0.198 A 
ATOM     81  C   UNL     1      -5.763  10.795   6.740  1.00  0.00     0.198 A 
ATOM     82  F   UNL     1      -4.141  11.533   5.202  1.00  0.00    -0.203 F 
ATOM     83  F   UNL     1      -9.376  10.692   6.485  1.00  0.00    -0.200 F 
ATOM     84  C   UNL     1      -7.092  10.582   7.075  1.00  0.00     0.200 A 
ATOM     85  F   UNL     1      -4.796  10.513   7.624  1.00  0.00    -0.200 F 
ATOM     86  F   UNL     1      -7.412  10.113   8.289  1.00  0.00    -0.200 F 
ENDBRANCH  52  76
BRANCH  64  87
ATOM     87  C   UNL     1      -7.510  17.875   1.732  1.00  0.00     0.064 A 
ATOM     88  C   UNL     1      -6.938  18.681   2.727  1.00  0.00     0.173 A 
ATOM     89  C   UNL     1      -8.747  18.268   1.198  1.00  0.00     0.173 A 
ATOM     90  F   UNL     1      -5.764  18.339   3.279  1.00  0.00    -0.203 F 
ATOM     91  C   UNL     1      -7.590  19.821   3.187  1.00  0.00     0.198 A 
ATOM     92  C   UNL     1      -9.384  19.424   1.642  1.00  0.00     0.198 A 
ATOM     93  F   UNL     1      -9.333  17.535   0.239  1.00  0.00    -0.203 F 
ATOM     94  F   UNL     1      -7.047  20.550   4.172  1.00  0.00    -0.200 F 
ATOM     95  C   UNL     1      -8.809  20.195   2.642  1.00  0.00     0.200 A 
ATOM     96  F   UNL     1     -10.557  19.789   1.107  1.00  0.00    -0.200 F 
ATOM     97  F   UNL     1      -9.435  21.293   3.085  1.00  0.00    -0.200 F 
ENDBRANCH  64  87
ENDBRANCH  38  39
ENDBRANCH  31  33
ENDBRANCH  30  31
ENDBRANCH  29  30
ENDBRANCH  28  29
ENDBRANCH  27  28
ENDBRANCH   1  27
TORSDOF 16
