REMARK SMILES O=C(OCCOCCOC(=O)[C@@H](F)Sc1ccccc1O)c1ccc(-c2c3nc(c(-c4c(F)c(F)c(F)c(F)c4F)c4ccc([nH]4)c(-c4c(F)c(F)c(F)c(F)c4F)c4nc(c(-c5c(F)c(F)c(F)c(F)c5F)c5ccc2[nH]5)C=C4)C=C3)cc1
REMARK SMILES IDX 7 1 6 2 5 3 4 4 3 5 2 6 1 7 22 8 23 9 84 10 24 11 83 12
REMARK SMILES IDX 25 13 26 14 27 15 77 16 28 17 82 18 76 19 78 20 29 21 81 22
REMARK SMILES IDX 75 23 74 24 30 26 62 27 42 28 61 29 43 30 46 31 60 32 79 33
REMARK SMILES IDX 44 34 45 35 59 37 80 38 47 39 31 40 32 41 40 42 33 43 34 44
REMARK SMILES IDX 38 45 41 46 35 47 36 48 39 49 37 50 63 51 64 52 72 53 65 54
REMARK SMILES IDX 66 55 70 56 73 57 67 58 68 59 71 60 69 61 48 62 49 63 57 64
REMARK SMILES IDX 50 65 51 66 55 67 58 68 52 69 53 70 56 71 54 72 8 73 9 74
REMARK SMILES IDX 10 75 11 76 12 77 13 78 14 79 15 80 16 81 20 82 17 83 19 84
REMARK SMILES IDX 18 85 21 86
REMARK H PARENT 78 25 46 36 21 87
REMARK Flexibility Score: inf
ROOT
ATOM      1  C   UNL     1       2.795  -0.704   1.698  1.00  0.00     0.202 C 
ENDROOT
BRANCH   1   2
ATOM      2  O   UNL     1       4.174  -0.413   1.433  1.00  0.00    -0.374 OA
BRANCH   2   3
ATOM      3  C   UNL     1       4.471   0.962   1.171  1.00  0.00     0.202 C 
BRANCH   3   4
ATOM      4  C   UNL     1       4.223   1.405  -0.279  1.00  0.00     0.261 C 
BRANCH   4   5
ATOM      5  O   UNL     1       2.855   1.183  -0.671  1.00  0.00    -0.460 OA
BRANCH   5   6
ATOM      6  C   UNL     1       2.330   0.165  -1.392  1.00  0.00     0.338 C 
ATOM      7  O   UNL     1       1.131   0.199  -1.665  1.00  0.00    -0.246 OA
BRANCH   6   8
ATOM      8  C   UNL     1       3.106  -1.034  -1.841  1.00  0.00     0.060 A 
ATOM      9  C   UNL     1       4.305  -1.465  -1.276  1.00  0.00     0.016 A 
ATOM     10  C   UNL     1       2.519  -1.851  -2.825  1.00  0.00     0.016 A 
ATOM     11  C   UNL     1       4.894  -2.663  -1.624  1.00  0.00     0.010 A 
ATOM     12  C   UNL     1       3.106  -3.067  -3.193  1.00  0.00     0.010 A 
ATOM     13  C   UNL     1       4.289  -3.474  -2.572  1.00  0.00    -0.014 A 
BRANCH  13  14
ATOM     14  C   UNL     1       5.015  -4.694  -2.932  1.00  0.00     0.031 A 
ATOM     15  C   UNL     1       5.891  -4.651  -4.138  1.00  0.00     0.074 A 
ATOM     16  C   UNL     1       5.024  -5.722  -2.066  1.00  0.00     0.049 A 
ATOM     17  N   UNL     1       6.621  -5.596  -4.660  1.00  0.00    -0.248 NA
ATOM     18  C   UNL     1       5.981  -3.357  -4.839  1.00  0.00     0.031 C 
ATOM     19  C   UNL     1       4.324  -5.743  -0.776  1.00  0.00     0.029 A 
ATOM     20  N   UNL     1       5.666  -6.927  -2.115  1.00  0.00    -0.354 N 
ATOM     21  C   UNL     1       7.228  -5.023  -5.767  1.00  0.00     0.074 A 
ATOM     22  C   UNL     1       6.802  -3.645  -5.836  1.00  0.00     0.031 C 
ATOM     23  C   UNL     1       4.577  -6.909  -0.159  1.00  0.00     0.029 A 
ATOM     24  C   UNL     1       5.389  -7.738  -1.041  1.00  0.00     0.049 A 
ATOM     25  H   UNL     1       6.269  -7.189  -2.848  1.00  0.00     0.167 HD
ATOM     26  C   UNL     1       8.052  -5.624  -6.652  1.00  0.00     0.037 A 
ATOM     27  C   UNL     1       5.718  -9.026  -0.839  1.00  0.00     0.037 A 
ATOM     28  C   UNL     1       8.449  -7.000  -6.536  1.00  0.00     0.049 A 
ATOM     29  C   UNL     1       6.537  -9.702  -1.909  1.00  0.00     0.074 A 
ATOM     30  C   UNL     1       9.236  -7.749  -7.388  1.00  0.00     0.029 A 
ATOM     31  N   UNL     1       8.075  -7.834  -5.489  1.00  0.00    -0.354 N 
ATOM     32  N   UNL     1       7.064  -9.187  -2.997  1.00  0.00    -0.248 NA
ATOM     33  C   UNL     1       6.791 -11.137  -1.742  1.00  0.00     0.031 C 
ATOM     34  C   UNL     1       9.286  -9.054  -6.889  1.00  0.00     0.029 A 
ATOM     35  C   UNL     1       8.584  -9.103  -5.692  1.00  0.00     0.049 A 
ATOM     36  H   UNL     1       7.529  -7.562  -4.716  1.00  0.00     0.167 HD
ATOM     37  C   UNL     1       7.721 -10.227  -3.635  1.00  0.00     0.074 A 
ATOM     38  C   UNL     1       7.553 -11.397  -2.794  1.00  0.00     0.031 C 
ATOM     39  C   UNL     1       8.393 -10.230  -4.813  1.00  0.00     0.037 A 
BRANCH  26  40
ATOM     40  C   UNL     1       8.481  -4.833  -7.848  1.00  0.00     0.064 A 
ATOM     41  C   UNL     1       9.419  -3.795  -7.766  1.00  0.00     0.173 A 
ATOM     42  C   UNL     1       7.933  -5.127  -9.106  1.00  0.00     0.173 A 
ATOM     43  F   UNL     1       9.946  -3.451  -6.581  1.00  0.00    -0.203 F 
ATOM     44  C   UNL     1       9.786  -3.074  -8.900  1.00  0.00     0.198 A 
ATOM     45  C   UNL     1       8.320  -4.421 -10.240  1.00  0.00     0.198 A 
ATOM     46  F   UNL     1       7.017  -6.099  -9.233  1.00  0.00    -0.203 F 
ATOM     47  F   UNL     1      10.653  -2.057  -8.795  1.00  0.00    -0.200 F 
ATOM     48  C   UNL     1       9.243  -3.393 -10.137  1.00  0.00     0.200 A 
ATOM     49  F   UNL     1       7.793  -4.732 -11.433  1.00  0.00    -0.200 F 
ATOM     50  F   UNL     1       9.602  -2.701 -11.227  1.00  0.00    -0.200 F 
ENDBRANCH  26  40
BRANCH  27  51
ATOM     51  C   UNL     1       5.202  -9.777   0.338  1.00  0.00     0.064 A 
ATOM     52  C   UNL     1       6.066 -10.372   1.268  1.00  0.00     0.173 A 
ATOM     53  C   UNL     1       3.823  -9.974   0.523  1.00  0.00     0.173 A 
ATOM     54  F   UNL     1       7.393 -10.236   1.131  1.00  0.00    -0.203 F 
ATOM     55  C   UNL     1       5.576 -11.164   2.307  1.00  0.00     0.198 A 
ATOM     56  C   UNL     1       3.332 -10.732   1.585  1.00  0.00     0.198 A 
ATOM     57  F   UNL     1       2.943  -9.435  -0.334  1.00  0.00    -0.203 F 
ATOM     58  F   UNL     1       6.430 -11.781   3.135  1.00  0.00    -0.200 F 
ATOM     59  C   UNL     1       4.210 -11.341   2.466  1.00  0.00     0.200 A 
ATOM     60  F   UNL     1       2.010 -10.887   1.740  1.00  0.00    -0.200 F 
ATOM     61  F   UNL     1       3.741 -12.112   3.457  1.00  0.00    -0.200 F 
ENDBRANCH  27  51
BRANCH  39  62
ATOM     62  C   UNL     1       9.008 -11.529  -5.234  1.00  0.00     0.064 A 
ATOM     63  C   UNL     1       8.222 -12.601  -5.681  1.00  0.00     0.173 A 
ATOM     64  C   UNL     1      10.402 -11.680  -5.243  1.00  0.00     0.173 A 
ATOM     65  F   UNL     1       6.884 -12.506  -5.674  1.00  0.00    -0.203 F 
ATOM     66  C   UNL     1       8.812 -13.788  -6.100  1.00  0.00     0.198 A 
ATOM     67  C   UNL     1      10.989 -12.855  -5.698  1.00  0.00     0.198 A 
ATOM     68  F   UNL     1      11.194 -10.677  -4.833  1.00  0.00    -0.203 F 
ATOM     69  F   UNL     1       8.042 -14.818  -6.476  1.00  0.00    -0.200 F 
ATOM     70  C   UNL     1      10.194 -13.910  -6.119  1.00  0.00     0.200 A 
ATOM     71  F   UNL     1      12.324 -12.964  -5.734  1.00  0.00    -0.200 F 
ATOM     72  F   UNL     1      10.760 -15.050  -6.538  1.00  0.00    -0.200 F 
ENDBRANCH  39  62
ENDBRANCH  13  14
ENDBRANCH   6   8
ENDBRANCH   5   6
ENDBRANCH   4   5
ENDBRANCH   3   4
ENDBRANCH   2   3
ENDBRANCH   1   2
BRANCH   1  73
ATOM     73  C   UNL     1       2.684  -1.254   3.106  1.00  0.00     0.261 C 
BRANCH  73  74
ATOM     74  O   UNL     1       3.086  -0.183   3.961  1.00  0.00    -0.460 OA
BRANCH  74  75
ATOM     75  C   UNL     1       4.346  -0.222   4.481  1.00  0.00     0.351 C 
ATOM     76  O   UNL     1       5.085  -1.195   4.464  1.00  0.00    -0.248 OA
BRANCH  75  77
ATOM     77  C   UNL     1       4.721   1.149   5.025  1.00  0.00     0.338 C 
ATOM     78  F   UNL     1       4.356   2.161   4.174  1.00  0.00    -0.222 F 
BRANCH  77  79
ATOM     79  S   UNL     1       4.011   1.468   6.672  1.00  0.00    -0.073 SA
BRANCH  79  80
ATOM     80  C   UNL     1       2.269   1.410   6.258  1.00  0.00     0.052 A 
ATOM     81  C   UNL     1       1.636   2.560   5.774  1.00  0.00     0.019 A 
ATOM     82  C   UNL     1       1.538   0.213   6.329  1.00  0.00     0.129 A 
ATOM     83  C   UNL     1       0.302   2.509   5.358  1.00  0.00     0.001 A 
ATOM     84  C   UNL     1       0.208   0.158   5.911  1.00  0.00     0.047 A 
ATOM     85  C   UNL     1      -0.408   1.310   5.424  1.00  0.00     0.004 A 
BRANCH  82  86
ATOM     86  O   UNL     1       2.166  -0.937   6.731  1.00  0.00    -0.507 OA
ATOM     87  H   UNL     1       3.059  -0.909   7.013  1.00  0.00     0.293 HD
ENDBRANCH  82  86
ENDBRANCH  79  80
ENDBRANCH  77  79
ENDBRANCH  75  77
ENDBRANCH  74  75
ENDBRANCH  73  74
ENDBRANCH   1  73
TORSDOF 17
