REMARK SMILES [NH3+][C@H]1C=C[C@H](C(=O)N2CCCc3c(C(=O)OCCOCCOC(=O)c4ccc(-c5c6nc(c(-c7c(F)c(F)c(F)c(F)c7F)c7ccc([nH]7)c(-c7c(F)c(F)c(F)c(F)c7F)c7nc(c(-c8c(F)c(F)c(F)c(F)c8F)c8ccc5[nH]8)C=C7)C=C6)cc4)cccc32)C1
REMARK SMILES IDX 18 1 17 2 16 3 14 4 15 5 13 6 8 7 9 8 91 9 10 10 12 11 90 12
REMARK SMILES IDX 11 13 89 14 88 15 6 16 7 17 5 18 2 19 3 20 92 21 4 22 1 23
REMARK SMILES IDX 19 27 20 28 21 29 22 30 23 31 24 32 25 33 26 34 87 35 27 36
REMARK SMILES IDX 86 37 28 38 29 39 30 40 80 41 31 42 85 43 79 44 81 45 32 46
REMARK SMILES IDX 84 47 78 48 77 49 33 51 65 52 45 53 64 54 46 55 49 56 63 57
REMARK SMILES IDX 82 58 47 59 48 60 62 62 83 63 50 64 34 65 35 66 43 67 36 68
REMARK SMILES IDX 37 69 41 70 44 71 38 72 39 73 42 74 40 75 66 76 67 77 75 78
REMARK SMILES IDX 68 79 69 80 73 81 76 82 70 83 71 84 74 85 72 86 51 87 52 88
REMARK SMILES IDX 60 89 53 90 54 91 58 92 61 93 55 94 56 95 59 96 57 97
REMARK H PARENT 1 24 1 25 1 26 81 50 49 61
REMARK Flexibility Score: inf
ROOT
ATOM      1  C   UNL     1      -6.383 -10.775  -0.569  1.00  0.00     0.202 C 
ENDROOT
BRANCH   1   2
ATOM      2  C   UNL     1      -5.056 -10.973  -1.303  1.00  0.00     0.261 C 
BRANCH   2   3
ATOM      3  O   UNL     1      -4.240  -9.803  -1.125  1.00  0.00    -0.460 OA
BRANCH   3   4
ATOM      4  C   UNL     1      -3.725  -9.268  -2.252  1.00  0.00     0.338 C 
ATOM      5  O   UNL     1      -3.697  -9.793  -3.357  1.00  0.00    -0.246 OA
BRANCH   4   6
ATOM      6  C   UNL     1      -3.371  -7.843  -2.031  1.00  0.00     0.065 A 
ATOM      7  N   UNL     1      -1.287  -5.502   0.006  1.00  0.00    -0.312 N 
ATOM      8  C   UNL     1      -0.547  -6.491   0.779  1.00  0.00     0.126 C 
ATOM      9  C   UNL     1      -2.253  -5.987  -0.933  1.00  0.00     0.048 A 
ATOM     10  C   UNL     1      -1.499  -7.528   1.338  1.00  0.00     0.027 C 
ATOM     11  C   UNL     1      -2.621  -7.353  -0.936  1.00  0.00    -0.010 A 
ATOM     12  C   UNL     1      -2.746  -5.132  -1.936  1.00  0.00     0.027 A 
ATOM     13  C   UNL     1      -2.196  -8.260   0.197  1.00  0.00     0.040 C 
ATOM     14  C   UNL     1      -3.540  -5.615  -2.970  1.00  0.00     0.003 A 
ATOM     15  C   UNL     1      -3.828  -6.970  -3.033  1.00  0.00     0.016 A 
BRANCH   7  16
ATOM     16  C   UNL     1      -1.047  -4.139   0.174  1.00  0.00     0.234 C 
ATOM     17  O   UNL     1      -1.952  -3.306   0.257  1.00  0.00    -0.274 OA
BRANCH  16  18
ATOM     18  C   UNL     1       0.429  -3.718   0.094  1.00  0.00     0.108 C 
ATOM     19  C   UNL     1       0.418  -1.304  -0.259  1.00  0.00     0.205 C 
ATOM     20  C   UNL     1       0.731  -2.031  -1.524  1.00  0.00     0.033 C 
ATOM     21  C   UNL     1       0.690  -2.382   0.803  1.00  0.00     0.087 C 
ATOM     22  C   UNL     1       0.738  -3.358  -1.337  1.00  0.00    -0.012 C 
BRANCH  19  23
ATOM     23  N   UNL     1       1.250  -0.128  -0.090  1.00  0.00    -0.352 N 
ATOM     24  H   UNL     1       1.030   0.552  -0.818  1.00  0.00     0.345 HD
ATOM     25  H   UNL     1       2.233  -0.393  -0.160  1.00  0.00     0.345 HD
ATOM     26  H   UNL     1       1.074   0.285   0.826  1.00  0.00     0.345 HD
ENDBRANCH  19  23
ENDBRANCH  16  18
ENDBRANCH   7  16
ENDBRANCH   4   6
ENDBRANCH   3   4
ENDBRANCH   2   3
ENDBRANCH   1   2
BRANCH   1  27
ATOM     27  O   UNL     1      -7.268  -9.821  -1.163  1.00  0.00    -0.374 OA
BRANCH  27  28
ATOM     28  C   UNL     1      -6.973  -8.439  -0.956  1.00  0.00     0.202 C 
BRANCH  28  29
ATOM     29  C   UNL     1      -7.470  -7.842   0.364  1.00  0.00     0.261 C 
BRANCH  29  30
ATOM     30  O   UNL     1      -6.831  -8.449   1.501  1.00  0.00    -0.460 OA
BRANCH  30  31
ATOM     31  C   UNL     1      -7.622  -9.291   2.202  1.00  0.00     0.338 C 
ATOM     32  O   UNL     1      -8.814  -9.510   2.026  1.00  0.00    -0.246 OA
BRANCH  31  33
ATOM     33  C   UNL     1      -6.823 -10.075   3.160  1.00  0.00     0.060 A 
ATOM     34  C   UNL     1      -7.053 -11.455   3.199  1.00  0.00     0.016 A 
ATOM     35  C   UNL     1      -5.948  -9.474   4.069  1.00  0.00     0.016 A 
ATOM     36  C   UNL     1      -6.476 -12.229   4.200  1.00  0.00     0.010 A 
ATOM     37  C   UNL     1      -5.369 -10.254   5.078  1.00  0.00     0.010 A 
ATOM     38  C   UNL     1      -5.676 -11.623   5.178  1.00  0.00    -0.014 A 
BRANCH  38  39
ATOM     39  C   UNL     1      -5.338 -12.399   6.395  1.00  0.00     0.031 A 
ATOM     40  C   UNL     1      -6.169 -12.206   7.634  1.00  0.00     0.074 A 
ATOM     41  C   UNL     1      -4.356 -13.316   6.379  1.00  0.00     0.049 A 
ATOM     42  N   UNL     1      -6.103 -12.823   8.786  1.00  0.00    -0.248 NA
ATOM     43  C   UNL     1      -7.217 -11.176   7.563  1.00  0.00     0.031 C 
ATOM     44  C   UNL     1      -3.494 -13.607   5.236  1.00  0.00     0.029 A 
ATOM     45  N   UNL     1      -3.925 -14.175   7.358  1.00  0.00    -0.354 N 
ATOM     46  C   UNL     1      -7.099 -12.260   9.573  1.00  0.00     0.074 A 
ATOM     47  C   UNL     1      -7.725 -11.220   8.784  1.00  0.00     0.031 C 
ATOM     48  C   UNL     1      -2.628 -14.575   5.582  1.00  0.00     0.029 A 
ATOM     49  C   UNL     1      -2.868 -14.960   6.973  1.00  0.00     0.049 A 
ATOM     50  H   UNL     1      -4.335 -14.222   8.252  1.00  0.00     0.167 HD
ATOM     51  C   UNL     1      -7.472 -12.589  10.833  1.00  0.00     0.037 A 
ATOM     52  C   UNL     1      -2.172 -15.880   7.667  1.00  0.00     0.037 A 
ATOM     53  C   UNL     1      -6.849 -13.621  11.619  1.00  0.00     0.049 A 
ATOM     54  C   UNL     1      -2.583 -16.212   9.077  1.00  0.00     0.074 A 
ATOM     55  C   UNL     1      -7.165 -14.046  12.897  1.00  0.00     0.029 A 
ATOM     56  N   UNL     1      -5.772 -14.389  11.198  1.00  0.00    -0.354 N 
ATOM     57  N   UNL     1      -3.553 -15.705   9.798  1.00  0.00    -0.248 NA
ATOM     58  C   UNL     1      -1.812 -17.259   9.762  1.00  0.00     0.031 C 
ATOM     59  C   UNL     1      -6.249 -15.037  13.268  1.00  0.00     0.029 A 
ATOM     60  C   UNL     1      -5.396 -15.268  12.201  1.00  0.00     0.049 A 
ATOM     61  H   UNL     1      -5.339 -14.318  10.317  1.00  0.00     0.167 HD
ATOM     62  C   UNL     1      -3.525 -16.383  11.010  1.00  0.00     0.074 A 
ATOM     63  C   UNL     1      -2.450 -17.350  10.921  1.00  0.00     0.031 C 
ATOM     64  C   UNL     1      -4.319 -16.221  12.098  1.00  0.00     0.037 A 
BRANCH  51  65
ATOM     65  C   UNL     1      -8.594 -11.799  11.442  1.00  0.00     0.064 A 
ATOM     66  C   UNL     1      -9.917 -11.931  10.994  1.00  0.00     0.173 A 
ATOM     67  C   UNL     1      -8.341 -10.895  12.484  1.00  0.00     0.173 A 
ATOM     68  F   UNL     1     -10.209 -12.770   9.989  1.00  0.00    -0.203 F 
ATOM     69  C   UNL     1     -10.939 -11.158  11.540  1.00  0.00     0.198 A 
ATOM     70  C   UNL     1      -9.371 -10.146  13.049  1.00  0.00     0.198 A 
ATOM     71  F   UNL     1      -7.095 -10.733  12.953  1.00  0.00    -0.203 F 
ATOM     72  F   UNL     1     -12.185 -11.257  11.055  1.00  0.00    -0.200 F 
ATOM     73  C   UNL     1     -10.666 -10.270  12.569  1.00  0.00     0.200 A 
ATOM     74  F   UNL     1      -9.107  -9.295  14.050  1.00  0.00    -0.200 F 
ATOM     75  F   UNL     1     -11.649  -9.524  13.092  1.00  0.00    -0.200 F 
ENDBRANCH  51  65
BRANCH  52  76
ATOM     76  C   UNL     1      -1.016 -16.555   7.025  1.00  0.00     0.064 A 
ATOM     77  C   UNL     1      -1.075 -17.904   6.651  1.00  0.00     0.173 A 
ATOM     78  C   UNL     1       0.169 -15.853   6.759  1.00  0.00     0.173 A 
ATOM     79  F   UNL     1      -2.179 -18.622   6.904  1.00  0.00    -0.203 F 
ATOM     80  C   UNL     1       0.012 -18.528   6.041  1.00  0.00     0.198 A 
ATOM     81  C   UNL     1       1.245 -16.471   6.127  1.00  0.00     0.198 A 
ATOM     82  F   UNL     1       0.273 -14.559   7.097  1.00  0.00    -0.203 F 
ATOM     83  F   UNL     1      -0.057 -19.828   5.722  1.00  0.00    -0.200 F 
ATOM     84  C   UNL     1       1.168 -17.809   5.773  1.00  0.00     0.200 A 
ATOM     85  F   UNL     1       2.354 -15.769   5.858  1.00  0.00    -0.200 F 
ATOM     86  F   UNL     1       2.208 -18.407   5.177  1.00  0.00    -0.200 F 
ENDBRANCH  52  76
BRANCH  64  87
ATOM     87  C   UNL     1      -4.071 -17.125  13.272  1.00  0.00     0.064 A 
ATOM     88  C   UNL     1      -2.939 -16.979  14.087  1.00  0.00     0.173 A 
ATOM     89  C   UNL     1      -4.994 -18.130  13.603  1.00  0.00     0.173 A 
ATOM     90  F   UNL     1      -2.020 -16.043  13.805  1.00  0.00    -0.203 F 
ATOM     91  C   UNL     1      -2.725 -17.824  15.174  1.00  0.00     0.198 A 
ATOM     92  C   UNL     1      -4.791 -18.953  14.707  1.00  0.00     0.198 A 
ATOM     93  F   UNL     1      -6.096 -18.306  12.860  1.00  0.00    -0.203 F 
ATOM     94  F   UNL     1      -1.612 -17.698  15.909  1.00  0.00    -0.200 F 
ATOM     95  C   UNL     1      -3.654 -18.806  15.486  1.00  0.00     0.200 A 
ATOM     96  F   UNL     1      -5.696 -19.893  15.014  1.00  0.00    -0.200 F 
ATOM     97  F   UNL     1      -3.448 -19.616  16.533  1.00  0.00    -0.200 F 
ENDBRANCH  64  87
ENDBRANCH  38  39
ENDBRANCH  31  33
ENDBRANCH  30  31
ENDBRANCH  29  30
ENDBRANCH  28  29
ENDBRANCH  27  28
ENDBRANCH   1  27
TORSDOF 17
