REMARK SMILES CCc1c(Cl)ccc2c1C=C(C(=O)OCCOCCOC(=O)c1ccc(-c3c4nc(c(-c5c(F)c(F)c(F)c(F)c5F)c5ccc([nH]5)c(-c5c(F)c(F)c(F)c(F)c5F)c5nc(c(-c6c(F)c(F)c(F)c(F)c6F)c6ccc3[nH]6)C=C5)C=C4)cc1)[C@@H](C(F)(F)F)O2
REMARK SMILES IDX 18 1 17 2 16 3 15 4 14 5 12 6 13 7 11 8 3 9 4 10 9 11 5 12
REMARK SMILES IDX 6 13 8 14 10 15 7 16 91 17 86 18 2 19 1 20 87 21 88 22 89 23
REMARK SMILES IDX 90 24 19 25 20 26 21 27 22 28 23 29 24 30 85 31 25 32 84 33
REMARK SMILES IDX 26 34 27 35 28 36 78 37 29 38 83 39 77 40 79 41 30 42 82 43
REMARK SMILES IDX 76 44 75 45 31 47 63 48 43 49 62 50 44 51 47 52 61 53 80 54
REMARK SMILES IDX 45 55 46 56 60 58 81 59 48 60 32 61 33 62 41 63 34 64 35 65
REMARK SMILES IDX 39 66 42 67 36 68 37 69 40 70 38 71 64 72 65 73 73 74 66 75
REMARK SMILES IDX 67 76 71 77 74 78 68 79 69 80 72 81 70 82 49 83 50 84 58 85
REMARK SMILES IDX 51 86 52 87 56 88 59 89 53 90 54 91 57 92 55 93
REMARK H PARENT 79 46 47 57
REMARK Flexibility Score: inf
ROOT
ATOM      1  C   UNL     1       1.219  -4.013   5.673  1.00  0.00     0.202 C 
ENDROOT
BRANCH   1   2
ATOM      2  O   UNL     1       2.165  -5.076   5.573  1.00  0.00    -0.374 OA
BRANCH   2   3
ATOM      3  C   UNL     1       3.323  -5.039   6.401  1.00  0.00     0.202 C 
BRANCH   3   4
ATOM      4  C   UNL     1       4.432  -4.047   6.037  1.00  0.00     0.261 C 
BRANCH   4   5
ATOM      5  O   UNL     1       3.949  -2.700   5.936  1.00  0.00    -0.460 OA
BRANCH   5   6
ATOM      6  C   UNL     1       3.939  -2.199   4.676  1.00  0.00     0.338 C 
ATOM      7  O   UNL     1       4.370  -2.739   3.672  1.00  0.00    -0.246 OA
BRANCH   6   8
ATOM      8  C   UNL     1       3.205  -0.918   4.656  1.00  0.00     0.087 C 
ATOM      9  C   UNL     1       0.804   0.840   2.405  1.00  0.00    -0.019 A 
ATOM     10  C   UNL     1       0.314   2.160   2.286  1.00  0.00     0.045 A 
ATOM     11  C   UNL     1       1.684   0.548   3.481  1.00  0.00     0.022 A 
ATOM     12  Cl  UNL     1      -0.729   2.650   0.994  1.00  0.00    -0.084 Cl
ATOM     13  C   UNL     1       0.647   3.141   3.222  1.00  0.00     0.024 A 
ATOM     14  C   UNL     1       1.950   1.530   4.449  1.00  0.00     0.128 A 
ATOM     15  C   UNL     1       2.385  -0.727   3.613  1.00  0.00     0.027 C 
ATOM     16  C   UNL     1       1.440   2.818   4.316  1.00  0.00     0.048 A 
ATOM     17  O   UNL     1       2.691   1.327   5.579  1.00  0.00    -0.475 OA
ATOM     18  C   UNL     1       3.413   0.083   5.753  1.00  0.00     0.316 C 
BRANCH   9  19
ATOM     19  C   UNL     1       0.367  -0.224   1.412  1.00  0.00     0.034 C 
ATOM     20  C   UNL     1       1.135  -0.187   0.099  1.00  0.00     0.009 C 
ENDBRANCH   9  19
BRANCH  18  21
ATOM     21  C   UNL     1       4.893   0.430   5.976  1.00  0.00     0.430 C 
ATOM     22  F   UNL     1       5.033   1.387   6.926  1.00  0.00    -0.167 F 
ATOM     23  F   UNL     1       5.607  -0.639   6.402  1.00  0.00    -0.167 F 
ATOM     24  F   UNL     1       5.481   0.887   4.848  1.00  0.00    -0.167 F 
ENDBRANCH  18  21
ENDBRANCH   6   8
ENDBRANCH   5   6
ENDBRANCH   4   5
ENDBRANCH   3   4
ENDBRANCH   2   3
ENDBRANCH   1   2
BRANCH   1  25
ATOM     25  C   UNL     1       0.362  -3.913   6.942  1.00  0.00     0.261 C 
BRANCH  25  26
ATOM     26  O   UNL     1       1.135  -3.667   8.128  1.00  0.00    -0.460 OA
BRANCH  26  27
ATOM     27  C   UNL     1       1.203  -4.711   8.991  1.00  0.00     0.338 C 
ATOM     28  O   UNL     1       0.671  -5.805   8.879  1.00  0.00    -0.246 OA
BRANCH  27  29
ATOM     29  C   UNL     1       2.197  -4.412  10.037  1.00  0.00     0.060 A 
ATOM     30  C   UNL     1       2.078  -3.279  10.841  1.00  0.00     0.016 A 
ATOM     31  C   UNL     1       3.247  -5.320  10.234  1.00  0.00     0.016 A 
ATOM     32  C   UNL     1       3.006  -3.067  11.862  1.00  0.00     0.010 A 
ATOM     33  C   UNL     1       4.172  -5.106  11.255  1.00  0.00     0.010 A 
ATOM     34  C   UNL     1       4.049  -3.986  12.088  1.00  0.00    -0.014 A 
BRANCH  34  35
ATOM     35  C   UNL     1       4.932  -3.829  13.270  1.00  0.00     0.031 A 
ATOM     36  C   UNL     1       6.355  -3.383  13.131  1.00  0.00     0.074 A 
ATOM     37  C   UNL     1       4.426  -4.100  14.489  1.00  0.00     0.049 A 
ATOM     38  N   UNL     1       7.227  -3.111  14.070  1.00  0.00    -0.248 NA
ATOM     39  C   UNL     1       6.873  -3.228  11.764  1.00  0.00     0.031 C 
ATOM     40  C   UNL     1       3.068  -4.582  14.741  1.00  0.00     0.029 A 
ATOM     41  N   UNL     1       4.983  -3.997  15.738  1.00  0.00    -0.354 N 
ATOM     42  C   UNL     1       8.386  -2.726  13.412  1.00  0.00     0.074 A 
ATOM     43  C   UNL     1       8.127  -2.859  11.993  1.00  0.00     0.031 C 
ATOM     44  C   UNL     1       2.881  -4.690  16.064  1.00  0.00     0.029 A 
ATOM     45  C   UNL     1       4.114  -4.317  16.753  1.00  0.00     0.049 A 
ATOM     46  H   UNL     1       5.915  -3.719  15.893  1.00  0.00     0.167 HD
ATOM     47  C   UNL     1       9.548  -2.279  13.947  1.00  0.00     0.037 A 
ATOM     48  C   UNL     1       4.288  -4.304  18.088  1.00  0.00     0.037 A 
ATOM     49  C   UNL     1       9.803  -2.168  15.361  1.00  0.00     0.049 A 
ATOM     50  C   UNL     1       5.608  -3.858  18.654  1.00  0.00     0.074 A 
ATOM     51  C   UNL     1      10.938  -1.694  15.997  1.00  0.00     0.029 A 
ATOM     52  N   UNL     1       8.918  -2.547  16.360  1.00  0.00    -0.354 N 
ATOM     53  N   UNL     1       6.669  -3.416  18.024  1.00  0.00    -0.248 NA
ATOM     54  C   UNL     1       5.753  -3.905  20.115  1.00  0.00     0.031 C 
ATOM     55  C   UNL     1      10.764  -1.843  17.376  1.00  0.00     0.029 A 
ATOM     56  C   UNL     1       9.496  -2.351  17.606  1.00  0.00     0.049 A 
ATOM     57  H   UNL     1       8.013  -2.904  16.207  1.00  0.00     0.167 HD
ATOM     58  C   UNL     1       7.599  -3.114  19.009  1.00  0.00     0.074 A 
ATOM     59  C   UNL     1       6.970  -3.402  20.281  1.00  0.00     0.031 C 
ATOM     60  C   UNL     1       8.863  -2.642  18.868  1.00  0.00     0.037 A 
BRANCH  47  61
ATOM     61  C   UNL     1      10.638  -1.857  13.002  1.00  0.00     0.064 A 
ATOM     62  C   UNL     1      10.519  -0.694  12.226  1.00  0.00     0.173 A 
ATOM     63  C   UNL     1      11.843  -2.572  12.930  1.00  0.00     0.173 A 
ATOM     64  F   UNL     1       9.386   0.024  12.255  1.00  0.00    -0.203 F 
ATOM     65  C   UNL     1      11.558  -0.273  11.400  1.00  0.00     0.198 A 
ATOM     66  C   UNL     1      12.892  -2.131  12.126  1.00  0.00     0.198 A 
ATOM     67  F   UNL     1      12.015  -3.685  13.659  1.00  0.00    -0.203 F 
ATOM     68  F   UNL     1      11.407   0.822  10.642  1.00  0.00    -0.200 F 
ATOM     69  C   UNL     1      12.746  -0.986  11.358  1.00  0.00     0.200 A 
ATOM     70  F   UNL     1      14.047  -2.810  12.101  1.00  0.00    -0.200 F 
ATOM     71  F   UNL     1      13.752  -0.569  10.576  1.00  0.00    -0.200 F 
ENDBRANCH  47  61
BRANCH  48  72
ATOM     72  C   UNL     1       3.159  -4.685  18.976  1.00  0.00     0.064 A 
ATOM     73  C   UNL     1       2.519  -3.727  19.774  1.00  0.00     0.173 A 
ATOM     74  C   UNL     1       2.676  -6.001  19.022  1.00  0.00     0.173 A 
ATOM     75  F   UNL     1       2.956  -2.459  19.778  1.00  0.00    -0.203 F 
ATOM     76  C   UNL     1       1.442  -4.072  20.588  1.00  0.00     0.198 A 
ATOM     77  C   UNL     1       1.581  -6.339  19.813  1.00  0.00     0.198 A 
ATOM     78  F   UNL     1       3.252  -6.954  18.274  1.00  0.00    -0.203 F 
ATOM     79  F   UNL     1       0.868  -3.143  21.365  1.00  0.00    -0.200 F 
ATOM     80  C   UNL     1       0.968  -5.375  20.599  1.00  0.00     0.200 A 
ATOM     81  F   UNL     1       1.115  -7.595  19.807  1.00  0.00    -0.200 F 
ATOM     82  F   UNL     1      -0.078  -5.703  21.370  1.00  0.00    -0.200 F 
ENDBRANCH  48  72
BRANCH  60  83
ATOM     83  C   UNL     1       9.661  -2.398  20.118  1.00  0.00     0.064 A 
ATOM     84  C   UNL     1      10.150  -3.459  20.894  1.00  0.00     0.173 A 
ATOM     85  C   UNL     1      10.011  -1.092  20.497  1.00  0.00     0.173 A 
ATOM     86  F   UNL     1       9.832  -4.725  20.584  1.00  0.00    -0.203 F 
ATOM     87  C   UNL     1      10.950  -3.221  22.009  1.00  0.00     0.198 A 
ATOM     88  C   UNL     1      10.838  -0.861  21.593  1.00  0.00     0.198 A 
ATOM     89  F   UNL     1       9.576  -0.041  19.785  1.00  0.00    -0.203 F 
ATOM     90  F   UNL     1      11.377  -4.249  22.755  1.00  0.00    -0.200 F 
ATOM     91  C   UNL     1      11.304  -1.924  22.350  1.00  0.00     0.200 A 
ATOM     92  F   UNL     1      11.194   0.392  21.909  1.00  0.00    -0.200 F 
ATOM     93  F   UNL     1      12.093  -1.700  23.409  1.00  0.00    -0.200 F 
ENDBRANCH  60  83
ENDBRANCH  34  35
ENDBRANCH  27  29
ENDBRANCH  26  27
ENDBRANCH  25  26
ENDBRANCH   1  25
TORSDOF 16
