REMARK SMILES COc1ccc(C(=O)N(C)CCC(=O)OCCOCCOC(=O)c2ccc(-c3c4nc(c(-c5c(F)c(F)c(F)c(F)c5F)c5ccc([nH]5)c(-c5c(F)c(F)c(F)c(F)c5F)c5nc(c(-c6c(F)c(F)c(F)c(F)c6F)c6ccc3[nH]6)C=C5)C=C4)cc2)cc1O
REMARK SMILES IDX 16 1 15 2 13 3 14 4 12 5 11 6 9 7 10 8 7 9 8 10 6 11 3 12
REMARK SMILES IDX 4 13 88 14 5 15 87 16 2 17 1 18 89 19 17 21 18 22 19 23
REMARK SMILES IDX 20 24 21 25 22 26 23 27 24 28 25 29 86 30 26 31 85 32 27 33
REMARK SMILES IDX 28 34 29 35 79 36 30 37 84 38 78 39 80 40 31 41 83 42 77 43
REMARK SMILES IDX 76 44 32 46 64 47 44 48 63 49 45 50 48 51 62 52 81 53 46 54
REMARK SMILES IDX 47 55 61 57 82 58 49 59 33 60 34 61 42 62 35 63 36 64 40 65
REMARK SMILES IDX 43 66 37 67 38 68 41 69 39 70 65 71 66 72 74 73 67 74 68 75
REMARK SMILES IDX 72 76 75 77 69 78 70 79 73 80 71 81 50 82 51 83 59 84 52 85
REMARK SMILES IDX 53 86 57 87 60 88 54 89 55 90 58 91 56 92
REMARK H PARENT 89 20 80 45 48 56
REMARK Flexibility Score: inf
ROOT
ATOM      1  C   UNL     1       1.012  -5.136   6.991  1.00  0.00     0.261 C 
ENDROOT
BRANCH   1   2
ATOM      2  O   UNL     1       1.398  -5.903   5.830  1.00  0.00    -0.463 OA
BRANCH   2   3
ATOM      3  C   UNL     1       1.516  -7.245   5.995  1.00  0.00     0.307 C 
ATOM      4  O   UNL     1       1.389  -7.835   7.060  1.00  0.00    -0.252 OA
BRANCH   3   5
ATOM      5  C   UNL     1       1.886  -7.951   4.709  1.00  0.00     0.144 C 
BRANCH   5   6
ATOM      6  C   UNL     1       0.790  -7.992   3.639  1.00  0.00     0.131 C 
BRANCH   6   7
ATOM      7  N   UNL     1       0.943  -6.942   2.619  1.00  0.00    -0.341 N 
ATOM      8  C   UNL     1       1.614  -7.326   1.391  1.00  0.00     0.147 C 
BRANCH   7   9
ATOM      9  C   UNL     1       0.319  -5.723   2.858  1.00  0.00     0.253 C 
ATOM     10  O   UNL     1      -0.507  -5.596   3.760  1.00  0.00    -0.269 OA
BRANCH   9  11
ATOM     11  C   UNL     1       0.679  -4.469   2.162  1.00  0.00     0.043 A 
ATOM     12  C   UNL     1       1.205  -1.914   1.092  1.00  0.00     0.160 A 
ATOM     13  C   UNL     1       1.165  -2.115   2.469  1.00  0.00     0.051 A 
ATOM     14  C   UNL     1       1.043  -3.024   0.262  1.00  0.00     0.158 A 
ATOM     15  C   UNL     1       0.899  -3.371   3.003  1.00  0.00     0.018 A 
ATOM     16  C   UNL     1       0.731  -4.287   0.782  1.00  0.00     0.064 A 
BRANCH  12  17
ATOM     17  O   UNL     1       1.458  -0.630   0.712  1.00  0.00    -0.493 OA
ATOM     18  C   UNL     1       0.866  -0.153  -0.493  1.00  0.00     0.278 C 
ENDBRANCH  12  17
BRANCH  14  19
ATOM     19  O   UNL     1       1.257  -2.960  -1.086  1.00  0.00    -0.504 OA
ATOM     20  H   UNL     1       1.469  -2.141  -1.488  1.00  0.00     0.293 HD
ENDBRANCH  14  19
ENDBRANCH   9  11
ENDBRANCH   7   9
ENDBRANCH   6   7
ENDBRANCH   5   6
ENDBRANCH   3   5
ENDBRANCH   2   3
ENDBRANCH   1   2
BRANCH   1  21
ATOM     21  C   UNL     1      -0.478  -4.774   6.982  1.00  0.00     0.202 C 
BRANCH  21  22
ATOM     22  O   UNL     1      -1.357  -5.812   7.423  1.00  0.00    -0.374 OA
BRANCH  22  23
ATOM     23  C   UNL     1      -1.786  -6.713   6.404  1.00  0.00     0.202 C 
BRANCH  23  24
ATOM     24  C   UNL     1      -3.066  -6.309   5.654  1.00  0.00     0.261 C 
BRANCH  24  25
ATOM     25  O   UNL     1      -2.917  -5.099   4.889  1.00  0.00    -0.460 OA
BRANCH  25  26
ATOM     26  C   UNL     1      -3.272  -3.954   5.516  1.00  0.00     0.338 C 
ATOM     27  O   UNL     1      -3.850  -3.854   6.580  1.00  0.00    -0.246 OA
BRANCH  26  28
ATOM     28  C   UNL     1      -2.729  -2.774   4.787  1.00  0.00     0.060 A 
ATOM     29  C   UNL     1      -2.299  -1.680   5.552  1.00  0.00     0.016 A 
ATOM     30  C   UNL     1      -2.667  -2.705   3.395  1.00  0.00     0.016 A 
ATOM     31  C   UNL     1      -1.866  -0.496   4.939  1.00  0.00     0.010 A 
ATOM     32  C   UNL     1      -2.224  -1.522   2.783  1.00  0.00     0.010 A 
ATOM     33  C   UNL     1      -1.856  -0.390   3.545  1.00  0.00    -0.014 A 
BRANCH  33  34
ATOM     34  C   UNL     1      -1.629   0.914   2.848  1.00  0.00     0.031 A 
ATOM     35  C   UNL     1      -2.783   1.528   2.098  1.00  0.00     0.074 A 
ATOM     36  C   UNL     1      -0.433   1.537   2.811  1.00  0.00     0.049 A 
ATOM     37  N   UNL     1      -2.796   2.537   1.263  1.00  0.00    -0.248 NA
ATOM     38  C   UNL     1      -4.107   0.929   2.337  1.00  0.00     0.031 C 
ATOM     39  C   UNL     1       0.759   1.160   3.560  1.00  0.00     0.029 A 
ATOM     40  N   UNL     1      -0.002   2.581   2.018  1.00  0.00    -0.354 N 
ATOM     41  C   UNL     1      -4.128   2.716   0.914  1.00  0.00     0.074 A 
ATOM     42  C   UNL     1      -4.878   1.648   1.538  1.00  0.00     0.031 C 
ATOM     43  C   UNL     1       1.821   1.819   3.062  1.00  0.00     0.029 A 
ATOM     44  C   UNL     1       1.369   2.705   1.993  1.00  0.00     0.049 A 
ATOM     45  H   UNL     1      -0.611   3.175   1.522  1.00  0.00     0.167 HD
ATOM     46  C   UNL     1      -4.687   3.714   0.189  1.00  0.00     0.037 A 
ATOM     47  C   UNL     1       2.172   3.415   1.175  1.00  0.00     0.037 A 
ATOM     48  C   UNL     1      -3.946   4.775  -0.436  1.00  0.00     0.049 A 
ATOM     49  C   UNL     1       1.562   4.388   0.202  1.00  0.00     0.074 A 
ATOM     50  C   UNL     1      -4.424   5.867  -1.140  1.00  0.00     0.029 A 
ATOM     51  N   UNL     1      -2.563   4.867  -0.449  1.00  0.00    -0.354 N 
ATOM     52  N   UNL     1       0.300   4.604  -0.069  1.00  0.00    -0.248 NA
ATOM     53  C   UNL     1       2.488   5.266  -0.531  1.00  0.00     0.031 C 
ATOM     54  C   UNL     1      -3.329   6.580  -1.637  1.00  0.00     0.029 A 
ATOM     55  C   UNL     1      -2.170   5.974  -1.183  1.00  0.00     0.049 A 
ATOM     56  H   UNL     1      -1.951   4.238  -0.002  1.00  0.00     0.167 HD
ATOM     57  C   UNL     1       0.274   5.705  -0.916  1.00  0.00     0.074 A 
ATOM     58  C   UNL     1       1.650   6.079  -1.159  1.00  0.00     0.031 C 
ATOM     59  C   UNL     1      -0.802   6.368  -1.404  1.00  0.00     0.037 A 
BRANCH  46  60
ATOM     60  C   UNL     1      -6.182   3.712   0.052  1.00  0.00     0.064 A 
ATOM     61  C   UNL     1      -7.017   3.955   1.154  1.00  0.00     0.173 A 
ATOM     62  C   UNL     1      -6.787   3.500  -1.195  1.00  0.00     0.173 A 
ATOM     63  F   UNL     1      -6.489   4.159   2.371  1.00  0.00    -0.203 F 
ATOM     64  C   UNL     1      -8.402   3.948   1.020  1.00  0.00     0.198 A 
ATOM     65  C   UNL     1      -8.172   3.529  -1.332  1.00  0.00     0.198 A 
ATOM     66  F   UNL     1      -6.035   3.274  -2.283  1.00  0.00    -0.203 F 
ATOM     67  F   UNL     1      -9.179   4.126   2.098  1.00  0.00    -0.200 F 
ATOM     68  C   UNL     1      -8.979   3.742  -0.224  1.00  0.00     0.200 A 
ATOM     69  F   UNL     1      -8.728   3.347  -2.538  1.00  0.00    -0.200 F 
ATOM     70  F   UNL     1     -10.312   3.742  -0.354  1.00  0.00    -0.200 F 
ENDBRANCH  46  60
BRANCH  47  71
ATOM     71  C   UNL     1       3.649   3.264   1.251  1.00  0.00     0.064 A 
ATOM     72  C   UNL     1       4.448   4.254   1.837  1.00  0.00     0.173 A 
ATOM     73  C   UNL     1       4.296   2.156   0.683  1.00  0.00     0.173 A 
ATOM     74  F   UNL     1       3.877   5.351   2.355  1.00  0.00    -0.203 F 
ATOM     75  C   UNL     1       5.838   4.155   1.832  1.00  0.00     0.198 A 
ATOM     76  C   UNL     1       5.686   2.045   0.701  1.00  0.00     0.198 A 
ATOM     77  F   UNL     1       3.584   1.197   0.076  1.00  0.00    -0.203 F 
ATOM     78  F   UNL     1       6.579   5.146   2.345  1.00  0.00    -0.200 F 
ATOM     79  C   UNL     1       6.456   3.049   1.268  1.00  0.00     0.200 A 
ATOM     80  F   UNL     1       6.280   0.979   0.147  1.00  0.00    -0.200 F 
ATOM     81  F   UNL     1       7.793   2.962   1.252  1.00  0.00    -0.200 F 
ENDBRANCH  47  71
BRANCH  59  82
ATOM     82  C   UNL     1      -0.560   7.637  -2.171  1.00  0.00     0.064 A 
ATOM     83  C   UNL     1      -0.013   7.641  -3.461  1.00  0.00     0.173 A 
ATOM     84  C   UNL     1      -0.951   8.869  -1.620  1.00  0.00     0.173 A 
ATOM     85  F   UNL     1       0.393   6.495  -4.026  1.00  0.00    -0.203 F 
ATOM     86  C   UNL     1       0.146   8.833  -4.165  1.00  0.00     0.198 A 
ATOM     87  C   UNL     1      -0.822  10.053  -2.339  1.00  0.00     0.198 A 
ATOM     88  F   UNL     1      -1.483   8.921  -0.389  1.00  0.00    -0.203 F 
ATOM     89  F   UNL     1       0.708   8.819  -5.381  1.00  0.00    -0.200 F 
ATOM     90  C   UNL     1      -0.269  10.035  -3.609  1.00  0.00     0.200 A 
ATOM     91  F   UNL     1      -1.240  11.209  -1.806  1.00  0.00    -0.200 F 
ATOM     92  F   UNL     1      -0.132  11.177  -4.298  1.00  0.00    -0.200 F 
ENDBRANCH  59  82
ENDBRANCH  33  34
ENDBRANCH  26  28
ENDBRANCH  25  26
ENDBRANCH  24  25
ENDBRANCH  23  24
ENDBRANCH  22  23
ENDBRANCH  21  22
ENDBRANCH   1  21
TORSDOF 20
