REMARK SMILES C[C@H]1Oc2ccccc2C=C1/C=C/C(=O)N[C@H](C(=O)OCCOCCOC(=O)c1ccc(-c2c3nc(c(-c4c(F)c(F)c(F)c(F)c4F)c4ccc([nH]4)c(-c4c(F)c(F)c(F)c(F)c4F)c4nc(c(-c5c(F)c(F)c(F)c(F)c5F)c5ccc2[nH]5)C=C4)C=C3)cc1)c1ccccc1
REMARK SMILES IDX 22 1 21 2 20 3 18 4 19 5 17 6 16 7 14 8 15 9 13 11 12 12
REMARK SMILES IDX 11 13 1 14 2 15 3 16 4 17 10 18 5 19 9 20 6 21 8 22 7 23
REMARK SMILES IDX 92 24 93 25 97 26 94 27 96 28 95 29 23 30 24 31 25 32 26 33
REMARK SMILES IDX 27 34 28 35 29 36 30 37 91 38 31 39 90 40 32 41 33 42 34 43
REMARK SMILES IDX 84 44 35 45 89 46 83 47 85 48 36 49 88 50 82 51 81 52 37 54
REMARK SMILES IDX 69 55 49 56 68 57 50 58 53 59 67 60 86 61 51 62 52 63 66 65
REMARK SMILES IDX 87 66 54 67 38 68 39 69 47 70 40 71 41 72 45 73 48 74 42 75
REMARK SMILES IDX 43 76 46 77 44 78 70 79 71 80 79 81 72 82 73 83 77 84 80 85
REMARK SMILES IDX 74 86 75 87 78 88 76 89 55 90 56 91 64 92 57 93 58 94 62 95
REMARK SMILES IDX 65 96 59 97 60 98 63 99 61 100
REMARK H PARENT 16 10 85 53 53 64
REMARK Flexibility Score: inf
ROOT
ATOM      1  C   UNL     1       4.718  -0.231   6.686  1.00  0.00     0.202 C 
ENDROOT
BRANCH   1   2
ATOM      2  C   UNL     1       5.181  -0.965   5.424  1.00  0.00     0.261 C 
BRANCH   2   3
ATOM      3  O   UNL     1       4.087  -1.132   4.510  1.00  0.00    -0.461 OA
BRANCH   3   4
ATOM      4  C   UNL     1       3.680  -2.417   4.276  1.00  0.00     0.333 C 
ATOM      5  O   UNL     1       4.280  -3.424   4.629  1.00  0.00    -0.249 OA
BRANCH   4   6
ATOM      6  C   UNL     1       2.382  -2.410   3.447  1.00  0.00     0.223 C 
BRANCH   6   7
ATOM      7  N   UNL     1       2.627  -3.201   2.244  1.00  0.00    -0.335 N 
ATOM      8  C   UNL     1       1.919  -3.372   1.105  1.00  0.00     0.244 C 
ATOM      9  O   UNL     1       2.367  -4.129   0.244  1.00  0.00    -0.270 OA
ATOM     10  H   UNL     1       3.471  -3.707   2.266  1.00  0.00     0.165 HD
BRANCH   8  11
ATOM     11  C   UNL     1       0.583  -2.765   0.884  1.00  0.00     0.071 C 
ATOM     12  C   UNL     1       0.162  -1.549   1.263  1.00  0.00     0.013 C 
BRANCH  12  13
ATOM     13  C   UNL     1      -1.150  -0.958   1.005  1.00  0.00    -0.007 C 
ATOM     14  C   UNL     1      -0.655   1.276   2.151  1.00  0.00     0.058 C 
ATOM     15  C   UNL     1      -1.638   0.108   1.989  1.00  0.00     0.200 C 
ATOM     16  O   UNL     1      -2.925   0.702   1.734  1.00  0.00    -0.485 OA
ATOM     17  C   UNL     1      -3.586   0.368   0.592  1.00  0.00     0.127 A 
ATOM     18  C   UNL     1      -1.877  -1.281  -0.075  1.00  0.00     0.019 C 
ATOM     19  C   UNL     1      -4.779   1.054   0.353  1.00  0.00     0.047 A 
ATOM     20  C   UNL     1      -3.137  -0.594  -0.310  1.00  0.00     0.017 A 
ATOM     21  C   UNL     1      -5.526   0.783  -0.792  1.00  0.00     0.004 A 
ATOM     22  C   UNL     1      -3.895  -0.873  -1.453  1.00  0.00     0.012 A 
ATOM     23  C   UNL     1      -5.085  -0.183  -1.694  1.00  0.00     0.001 A 
ENDBRANCH  12  13
ENDBRANCH   8  11
ENDBRANCH   6   7
BRANCH   6  24
ATOM     24  C   UNL     1       1.177  -2.909   4.231  1.00  0.00    -0.014 A 
ATOM     25  C   UNL     1       1.021  -4.267   4.545  1.00  0.00     0.006 A 
ATOM     26  C   UNL     1       0.167  -2.015   4.629  1.00  0.00     0.006 A 
ATOM     27  C   UNL     1      -0.130  -4.720   5.195  1.00  0.00     0.000 A 
ATOM     28  C   UNL     1      -0.983  -2.468   5.279  1.00  0.00     0.000 A 
ATOM     29  C   UNL     1      -1.135  -3.824   5.552  1.00  0.00     0.000 A 
ENDBRANCH   6  24
ENDBRANCH   4   6
ENDBRANCH   3   4
ENDBRANCH   2   3
ENDBRANCH   1   2
BRANCH   1  30
ATOM     30  O   UNL     1       3.728  -0.891   7.473  1.00  0.00    -0.374 OA
BRANCH  30  31
ATOM     31  C   UNL     1       2.380  -0.833   7.009  1.00  0.00     0.202 C 
BRANCH  31  32
ATOM     32  C   UNL     1       1.593   0.445   7.317  1.00  0.00     0.261 C 
BRANCH  32  33
ATOM     33  O   UNL     1       2.091   1.567   6.565  1.00  0.00    -0.460 OA
BRANCH  33  34
ATOM     34  C   UNL     1       2.792   2.471   7.290  1.00  0.00     0.338 C 
ATOM     35  O   UNL     1       2.977   2.469   8.498  1.00  0.00    -0.246 OA
BRANCH  34  36
ATOM     36  C   UNL     1       3.504   3.383   6.376  1.00  0.00     0.060 A 
ATOM     37  C   UNL     1       2.841   4.072   5.359  1.00  0.00     0.016 A 
ATOM     38  C   UNL     1       4.879   3.561   6.578  1.00  0.00     0.016 A 
ATOM     39  C   UNL     1       3.559   4.965   4.558  1.00  0.00     0.010 A 
ATOM     40  C   UNL     1       5.592   4.452   5.778  1.00  0.00     0.010 A 
ATOM     41  C   UNL     1       4.934   5.174   4.774  1.00  0.00    -0.014 A 
BRANCH  41  42
ATOM     42  C   UNL     1       5.665   6.227   4.029  1.00  0.00     0.031 A 
ATOM     43  C   UNL     1       6.665   5.879   2.969  1.00  0.00     0.074 A 
ATOM     44  C   UNL     1       5.448   7.515   4.356  1.00  0.00     0.049 A 
ATOM     45  N   UNL     1       7.389   6.676   2.223  1.00  0.00    -0.248 NA
ATOM     46  C   UNL     1       6.891   4.449   2.717  1.00  0.00     0.031 C 
ATOM     47  C   UNL     1       4.526   7.968   5.399  1.00  0.00     0.029 A 
ATOM     48  N   UNL     1       5.982   8.673   3.854  1.00  0.00    -0.354 N 
ATOM     49  C   UNL     1       8.144   5.849   1.404  1.00  0.00     0.074 A 
ATOM     50  C   UNL     1       7.828   4.486   1.779  1.00  0.00     0.031 C 
ATOM     51  C   UNL     1       4.540   9.309   5.441  1.00  0.00     0.029 A 
ATOM     52  C   UNL     1       5.497   9.807   4.457  1.00  0.00     0.049 A 
ATOM     53  H   UNL     1       6.650   8.690   3.130  1.00  0.00     0.167 HD
ATOM     54  C   UNL     1       9.005   6.200   0.419  1.00  0.00     0.037 A 
ATOM     55  C   UNL     1       5.793  11.103   4.245  1.00  0.00     0.037 A 
ATOM     56  C   UNL     1       9.323   7.561   0.064  1.00  0.00     0.049 A 
ATOM     57  C   UNL     1       6.790  11.463   3.179  1.00  0.00     0.074 A 
ATOM     58  C   UNL     1      10.154   8.017  -0.945  1.00  0.00     0.029 A 
ATOM     59  N   UNL     1       8.838   8.687   0.716  1.00  0.00    -0.354 N 
ATOM     60  N   UNL     1       7.445  10.676   2.360  1.00  0.00    -0.248 NA
ATOM     61  C   UNL     1       7.086  12.891   3.004  1.00  0.00     0.031 C 
ATOM     62  C   UNL     1      10.220   9.412  -0.865  1.00  0.00     0.029 A 
ATOM     63  C   UNL     1       9.380   9.833   0.154  1.00  0.00     0.049 A 
ATOM     64  H   UNL     1       8.202   8.673   1.468  1.00  0.00     0.167 HD
ATOM     65  C   UNL     1       8.219  11.510   1.565  1.00  0.00     0.074 A 
ATOM     66  C   UNL     1       7.928  12.867   1.980  1.00  0.00     0.031 C 
ATOM     67  C   UNL     1       9.097  11.180   0.585  1.00  0.00     0.037 A 
BRANCH  54  68
ATOM     68  C   UNL     1       9.669   5.097  -0.356  1.00  0.00     0.064 A 
ATOM     69  C   UNL     1       8.944   4.286  -1.243  1.00  0.00     0.173 A 
ATOM     70  C   UNL     1      11.054   4.891  -0.266  1.00  0.00     0.173 A 
ATOM     71  F   UNL     1       7.616   4.435  -1.362  1.00  0.00    -0.203 F 
ATOM     72  C   UNL     1       9.578   3.299  -1.994  1.00  0.00     0.198 A 
ATOM     73  C   UNL     1      11.689   3.924  -1.041  1.00  0.00     0.198 A 
ATOM     74  F   UNL     1      11.797   5.643   0.561  1.00  0.00    -0.203 F 
ATOM     75  F   UNL     1       8.858   2.511  -2.805  1.00  0.00    -0.200 F 
ATOM     76  C   UNL     1      10.950   3.125  -1.900  1.00  0.00     0.200 A 
ATOM     77  F   UNL     1      13.018   3.768  -0.960  1.00  0.00    -0.200 F 
ATOM     78  F   UNL     1      11.560   2.184  -2.634  1.00  0.00    -0.200 F 
ENDBRANCH  54  68
BRANCH  55  79
ATOM     79  C   UNL     1       5.108  12.151   5.045  1.00  0.00     0.064 A 
ATOM     80  C   UNL     1       4.175  13.012   4.453  1.00  0.00     0.173 A 
ATOM     81  C   UNL     1       5.345  12.292   6.421  1.00  0.00     0.173 A 
ATOM     82  F   UNL     1       3.929  12.929   3.137  1.00  0.00    -0.203 F 
ATOM     83  C   UNL     1       3.509  13.978   5.204  1.00  0.00     0.198 A 
ATOM     84  C   UNL     1       4.656  13.238   7.177  1.00  0.00     0.198 A 
ATOM     85  F   UNL     1       6.226  11.490   7.037  1.00  0.00    -0.203 F 
ATOM     86  F   UNL     1       2.645  14.809   4.606  1.00  0.00    -0.200 F 
ATOM     87  C   UNL     1       3.742  14.083   6.567  1.00  0.00     0.200 A 
ATOM     88  F   UNL     1       4.872  13.324   8.497  1.00  0.00    -0.200 F 
ATOM     89  F   UNL     1       3.088  15.000   7.292  1.00  0.00    -0.200 F 
ENDBRANCH  55  79
BRANCH  67  90
ATOM     90  C   UNL     1       9.813  12.306  -0.108  1.00  0.00     0.064 A 
ATOM     91  C   UNL     1      10.786  13.072   0.552  1.00  0.00     0.173 A 
ATOM     92  C   UNL     1       9.559  12.595  -1.458  1.00  0.00     0.173 A 
ATOM     93  F   UNL     1      11.059  12.847   1.847  1.00  0.00    -0.203 F 
ATOM     94  C   UNL     1      11.457  14.101  -0.104  1.00  0.00     0.198 A 
ATOM     95  C   UNL     1      10.257  13.600  -2.121  1.00  0.00     0.198 A 
ATOM     96  F   UNL     1       8.644  11.889  -2.140  1.00  0.00    -0.203 F 
ATOM     97  F   UNL     1      12.345  14.851   0.562  1.00  0.00    -0.200 F 
ATOM     98  C   UNL     1      11.199  14.358  -1.442  1.00  0.00     0.200 A 
ATOM     99  F   UNL     1      10.019  13.835  -3.419  1.00  0.00    -0.200 F 
ATOM    100  F   UNL     1      11.854  15.340  -2.076  1.00  0.00    -0.200 F 
ENDBRANCH  67  90
ENDBRANCH  41  42
ENDBRANCH  34  36
ENDBRANCH  33  34
ENDBRANCH  32  33
ENDBRANCH  31  32
ENDBRANCH  30  31
ENDBRANCH   1  30
TORSDOF 18
