REMARK SMILES O=C(OCCOCCOC(=O)c1c(-c2ccc(Cl)cc2)noc1CO[C@@H]1CCCCO1)c1ccc(-c2c3nc(c(-c4c(F)c(F)c(F)c(F)c4F)c4ccc([nH]4)c(-c4c(F)c(F)c(F)c(F)c4F)c4nc(c(-c5c(F)c(F)c(F)c(F)c5F)c5ccc2[nH]5)C=C4)C=C3)cc1
REMARK SMILES IDX 7 1 6 2 5 3 4 4 3 5 2 6 1 7 32 8 33 9 94 10 34 11 93 12
REMARK SMILES IDX 35 13 36 14 37 15 87 16 38 17 92 18 86 19 88 20 39 21 91 22
REMARK SMILES IDX 85 23 84 24 40 26 72 27 52 28 71 29 53 30 56 31 70 32 89 33
REMARK SMILES IDX 54 34 55 35 69 37 90 38 57 39 41 40 42 41 50 42 43 43 44 44
REMARK SMILES IDX 48 45 51 46 45 47 46 48 49 49 47 50 73 51 74 52 82 53 75 54
REMARK SMILES IDX 76 55 80 56 83 57 77 58 78 59 81 60 79 61 58 62 59 63 67 64
REMARK SMILES IDX 60 65 61 66 65 67 68 68 62 69 63 70 66 71 64 72 8 73 9 74
REMARK SMILES IDX 10 75 11 76 12 77 13 78 23 79 21 80 22 81 14 82 15 83 20 84
REMARK SMILES IDX 16 85 19 86 17 87 18 88 24 89 25 90 26 91 27 92 31 93 28 94
REMARK SMILES IDX 30 95 29 96
REMARK H PARENT 88 25 56 36
REMARK Flexibility Score: inf
ROOT
ATOM      1  C   UNL     1       2.399  -0.230  -1.877  1.00  0.00     0.202 C 
ENDROOT
BRANCH   1   2
ATOM      2  O   UNL     1       3.606   0.172  -1.229  1.00  0.00    -0.374 OA
BRANCH   2   3
ATOM      3  C   UNL     1       3.965  -0.543  -0.060  1.00  0.00     0.202 C 
BRANCH   3   4
ATOM      4  C   UNL     1       3.107  -0.322   1.192  1.00  0.00     0.261 C 
BRANCH   4   5
ATOM      5  O   UNL     1       1.744   0.064   0.919  1.00  0.00    -0.460 OA
BRANCH   5   6
ATOM      6  C   UNL     1       1.247   1.286   1.261  1.00  0.00     0.338 C 
ATOM      7  O   UNL     1       0.062   1.459   1.510  1.00  0.00    -0.246 OA
BRANCH   6   8
ATOM      8  C   UNL     1       2.184   2.432   1.279  1.00  0.00     0.060 A 
ATOM      9  C   UNL     1       3.076   2.600   0.232  1.00  0.00     0.016 A 
ATOM     10  C   UNL     1       2.161   3.376   2.302  1.00  0.00     0.016 A 
ATOM     11  C   UNL     1       4.101   3.516   0.297  1.00  0.00     0.010 A 
ATOM     12  C   UNL     1       3.069   4.443   2.267  1.00  0.00     0.010 A 
ATOM     13  C   UNL     1       4.064   4.504   1.272  1.00  0.00    -0.014 A 
BRANCH  13  14
ATOM     14  C   UNL     1       5.070   5.588   1.215  1.00  0.00     0.031 A 
ATOM     15  C   UNL     1       5.942   5.825   2.405  1.00  0.00     0.074 A 
ATOM     16  C   UNL     1       5.235   6.302   0.082  1.00  0.00     0.049 A 
ATOM     17  N   UNL     1       6.685   6.858   2.693  1.00  0.00    -0.248 NA
ATOM     18  C   UNL     1       5.962   4.761   3.422  1.00  0.00     0.031 C 
ATOM     19  C   UNL     1       4.524   6.075  -1.181  1.00  0.00     0.029 A 
ATOM     20  N   UNL     1       6.077   7.343  -0.209  1.00  0.00    -0.354 N 
ATOM     21  C   UNL     1       7.183   6.613   3.965  1.00  0.00     0.074 A 
ATOM     22  C   UNL     1       6.684   5.320   4.380  1.00  0.00     0.031 C 
ATOM     23  C   UNL     1       5.016   6.888  -2.125  1.00  0.00     0.029 A 
ATOM     24  C   UNL     1       5.961   7.799  -1.501  1.00  0.00     0.049 A 
ATOM     25  H   UNL     1       6.705   7.728   0.445  1.00  0.00     0.167 HD
ATOM     26  C   UNL     1       7.960   7.427   4.715  1.00  0.00     0.037 A 
ATOM     27  C   UNL     1       6.504   8.878  -2.093  1.00  0.00     0.037 A 
ATOM     28  C   UNL     1       8.469   8.683   4.232  1.00  0.00     0.049 A 
ATOM     29  C   UNL     1       7.337   9.786  -1.234  1.00  0.00     0.074 A 
ATOM     30  C   UNL     1       9.207   9.642   4.897  1.00  0.00     0.029 A 
ATOM     31  N   UNL     1       8.298   9.138   2.928  1.00  0.00    -0.354 N 
ATOM     32  N   UNL     1       7.684   9.640   0.024  1.00  0.00    -0.248 NA
ATOM     33  C   UNL     1       7.813  11.026  -1.853  1.00  0.00     0.031 C 
ATOM     34  C   UNL     1       9.461  10.690   4.002  1.00  0.00     0.029 A 
ATOM     35  C   UNL     1       8.917  10.365   2.767  1.00  0.00     0.049 A 
ATOM     36  H   UNL     1       7.809   8.657   2.222  1.00  0.00     0.167 HD
ATOM     37  C   UNL     1       8.416  10.769   0.351  1.00  0.00     0.074 A 
ATOM     38  C   UNL     1       8.487  11.577  -0.853  1.00  0.00     0.031 C 
ATOM     39  C   UNL     1       8.966  11.121   1.540  1.00  0.00     0.037 A 
BRANCH  26  40
ATOM     40  C   UNL     1       8.198   7.013   6.138  1.00  0.00     0.064 A 
ATOM     41  C   UNL     1       9.007   5.918   6.476  1.00  0.00     0.173 A 
ATOM     42  C   UNL     1       7.531   7.679   7.178  1.00  0.00     0.173 A 
ATOM     43  F   UNL     1       9.642   5.226   5.518  1.00  0.00    -0.203 F 
ATOM     44  C   UNL     1       9.098   5.475   7.795  1.00  0.00     0.198 A 
ATOM     45  C   UNL     1       7.648   7.252   8.498  1.00  0.00     0.198 A 
ATOM     46  F   UNL     1       6.739   8.728   6.911  1.00  0.00    -0.203 F 
ATOM     47  F   UNL     1       9.810   4.376   8.084  1.00  0.00    -0.200 F 
ATOM     48  C   UNL     1       8.419   6.141   8.804  1.00  0.00     0.200 A 
ATOM     49  F   UNL     1       6.990   7.898   9.471  1.00  0.00    -0.200 F 
ATOM     50  F   UNL     1       8.488   5.699  10.068  1.00  0.00    -0.200 F 
ENDBRANCH  26  40
BRANCH  27  51
ATOM     51  C   UNL     1       6.209   9.188  -3.519  1.00  0.00     0.064 A 
ATOM     52  C   UNL     1       7.222   9.163  -4.487  1.00  0.00     0.173 A 
ATOM     53  C   UNL     1       4.908   9.491  -3.954  1.00  0.00     0.173 A 
ATOM     54  F   UNL     1       8.486   8.902  -4.125  1.00  0.00    -0.203 F 
ATOM     55  C   UNL     1       6.947   9.430  -5.828  1.00  0.00     0.198 A 
ATOM     56  C   UNL     1       4.628   9.724  -5.299  1.00  0.00     0.198 A 
ATOM     57  F   UNL     1       3.896   9.533  -3.074  1.00  0.00    -0.203 F 
ATOM     58  F   UNL     1       7.942   9.433  -6.726  1.00  0.00    -0.200 F 
ATOM     59  C   UNL     1       5.649   9.700  -6.235  1.00  0.00     0.200 A 
ATOM     60  F   UNL     1       3.368   9.963  -5.688  1.00  0.00    -0.200 F 
ATOM     61  F   UNL     1       5.383   9.940  -7.526  1.00  0.00    -0.200 F 
ENDBRANCH  27  51
BRANCH  39  62
ATOM     62  C   UNL     1       9.715  12.415   1.568  1.00  0.00     0.064 A 
ATOM     63  C   UNL     1       9.045  13.646   1.584  1.00  0.00     0.173 A 
ATOM     64  C   UNL     1      11.115  12.416   1.622  1.00  0.00     0.173 A 
ATOM     65  F   UNL     1       7.706  13.689   1.512  1.00  0.00    -0.203 F 
ATOM     66  C   UNL     1       9.757  14.840   1.639  1.00  0.00     0.198 A 
ATOM     67  C   UNL     1      11.822  13.611   1.703  1.00  0.00     0.198 A 
ATOM     68  F   UNL     1      11.794  11.259   1.609  1.00  0.00    -0.203 F 
ATOM     69  F   UNL     1       9.103  16.009   1.614  1.00  0.00    -0.200 F 
ATOM     70  C   UNL     1      11.143  14.820   1.706  1.00  0.00     0.200 A 
ATOM     71  F   UNL     1      13.160  13.591   1.776  1.00  0.00    -0.200 F 
ATOM     72  F   UNL     1      11.827  15.971   1.768  1.00  0.00    -0.200 F 
ENDBRANCH  39  62
ENDBRANCH  13  14
ENDBRANCH   6   8
ENDBRANCH   5   6
ENDBRANCH   4   5
ENDBRANCH   3   4
ENDBRANCH   2   3
ENDBRANCH   1   2
BRANCH   1  73
ATOM     73  C   UNL     1       2.699  -0.358  -3.367  1.00  0.00     0.261 C 
BRANCH  73  74
ATOM     74  O   UNL     1       3.270  -1.654  -3.584  1.00  0.00    -0.459 OA
BRANCH  74  75
ATOM     75  C   UNL     1       4.565  -1.828  -3.188  1.00  0.00     0.344 C 
ATOM     76  O   UNL     1       5.380  -0.938  -3.018  1.00  0.00    -0.246 OA
BRANCH  75  77
ATOM     77  C   UNL     1       4.808  -3.213  -2.875  1.00  0.00     0.133 A 
ATOM     78  C   UNL     1       5.654  -3.788  -1.883  1.00  0.00     0.128 A 
ATOM     79  C   UNL     1       4.232  -4.294  -3.507  1.00  0.00     0.177 A 
ATOM     80  N   UNL     1       5.509  -5.122  -1.860  1.00  0.00    -0.079 NA
ATOM     81  O   UNL     1       4.640  -5.434  -2.889  1.00  0.00    -0.357 OA
BRANCH  78  82
ATOM     82  C   UNL     1       6.543  -3.119  -0.938  1.00  0.00     0.005 A 
ATOM     83  C   UNL     1       6.233  -3.081   0.429  1.00  0.00     0.012 A 
ATOM     84  C   UNL     1       7.708  -2.486  -1.389  1.00  0.00     0.012 A 
ATOM     85  C   UNL     1       7.042  -2.361   1.317  1.00  0.00     0.021 A 
ATOM     86  C   UNL     1       8.524  -1.780  -0.501  1.00  0.00     0.021 A 
ATOM     87  C   UNL     1       8.178  -1.706   0.845  1.00  0.00     0.041 A 
ATOM     88  Cl  UNL     1       9.153  -0.793   1.929  1.00  0.00    -0.084 Cl
ENDBRANCH  78  82
BRANCH  79  89
ATOM     89  C   UNL     1       3.363  -4.456  -4.702  1.00  0.00     0.242 C 
BRANCH  89  90
ATOM     90  O   UNL     1       4.174  -4.975  -5.751  1.00  0.00    -0.345 OA
BRANCH  90  91
ATOM     91  C   UNL     1       4.806  -4.006  -6.600  1.00  0.00     0.250 C 
ATOM     92  C   UNL     1       6.197  -4.566  -6.924  1.00  0.00     0.062 C 
ATOM     93  O   UNL     1       4.837  -2.693  -6.038  1.00  0.00    -0.353 OA
ATOM     94  C   UNL     1       7.148  -4.257  -5.774  1.00  0.00     0.008 C 
ATOM     95  C   UNL     1       6.068  -1.997  -6.187  1.00  0.00     0.163 C 
ATOM     96  C   UNL     1       7.215  -2.753  -5.527  1.00  0.00     0.029 C 
ENDBRANCH  90  91
ENDBRANCH  89  90
ENDBRANCH  79  89
ENDBRANCH  75  77
ENDBRANCH  74  75
ENDBRANCH  73  74
ENDBRANCH   1  73
TORSDOF 18
