REMARK SMILES O=C(OCCOCCOC(=O)C1CC[NH+]([C@@H]2CC(=O)N(c3ccc(Oc4ccccc4)cc3)C2=O)CC1)c1ccc(-c2c3nc(c(-c4c(F)c(F)c(F)c(F)c4F)c4ccc([nH]4)c(-c4c(F)c(F)c(F)c(F)c4F)c4nc(c(-c5c(F)c(F)c(F)c(F)c5F)c5ccc2[nH]5)C=C4)C=C3)cc1
REMARK SMILES IDX 7 1 6 2 5 3 4 4 3 5 2 6 1 7 38 8 39 9 100 10 40 11 99 12
REMARK SMILES IDX 41 13 42 14 43 15 93 16 44 17 98 18 92 19 94 20 45 21 97 22
REMARK SMILES IDX 91 23 90 24 46 26 78 27 58 28 77 29 59 30 62 31 76 32 95 33
REMARK SMILES IDX 60 34 61 35 75 37 96 38 63 39 47 40 48 41 56 42 49 43 50 44
REMARK SMILES IDX 54 45 57 46 51 47 52 48 55 49 53 50 79 51 80 52 88 53 81 54
REMARK SMILES IDX 82 55 86 56 89 57 83 58 84 59 87 60 85 61 64 62 65 63 73 64
REMARK SMILES IDX 66 65 67 66 71 67 74 68 68 69 69 70 72 71 70 72 8 73 9 74
REMARK SMILES IDX 10 75 11 76 12 77 13 78 37 79 14 80 36 81 15 82 16 84 17 85
REMARK SMILES IDX 34 86 18 87 20 88 35 89 19 90 21 91 22 92 33 93 23 94 32 95
REMARK SMILES IDX 24 96 25 97 26 98 27 99 31 100 28 101 30 102 29 103
REMARK H PARENT 94 25 62 36 15 83
REMARK Flexibility Score: inf
ROOT
ATOM      1  C   UNL     1       2.374  -1.840   0.016  1.00  0.00     0.202 C 
ENDROOT
BRANCH   1   2
ATOM      2  O   UNL     1       3.719  -1.361  -0.016  1.00  0.00    -0.374 OA
BRANCH   2   3
ATOM      3  C   UNL     1       4.220  -0.754   1.176  1.00  0.00     0.202 C 
BRANCH   3   4
ATOM      4  C   UNL     1       4.058   0.765   1.240  1.00  0.00     0.261 C 
BRANCH   4   5
ATOM      5  O   UNL     1       2.702   1.139   0.984  1.00  0.00    -0.460 OA
BRANCH   5   6
ATOM      6  C   UNL     1       2.145   1.317  -0.237  1.00  0.00     0.338 C 
ATOM      7  O   UNL     1       0.922   1.407  -0.322  1.00  0.00    -0.246 OA
BRANCH   6   8
ATOM      8  C   UNL     1       2.943   1.466  -1.492  1.00  0.00     0.060 A 
ATOM      9  C   UNL     1       4.139   0.802  -1.781  1.00  0.00     0.016 A 
ATOM     10  C   UNL     1       2.380   2.271  -2.494  1.00  0.00     0.016 A 
ATOM     11  C   UNL     1       4.764   0.917  -3.003  1.00  0.00     0.010 A 
ATOM     12  C   UNL     1       2.998   2.394  -3.738  1.00  0.00     0.010 A 
ATOM     13  C   UNL     1       4.191   1.708  -3.985  1.00  0.00    -0.014 A 
BRANCH  13  14
ATOM     14  C   UNL     1       4.971   1.897  -5.207  1.00  0.00     0.031 A 
ATOM     15  C   UNL     1       5.752   3.158  -5.335  1.00  0.00     0.074 A 
ATOM     16  C   UNL     1       5.080   0.879  -6.076  1.00  0.00     0.049 A 
ATOM     17  N   UNL     1       6.449   3.601  -6.342  1.00  0.00    -0.248 NA
ATOM     18  C   UNL     1       5.758   4.041  -4.155  1.00  0.00     0.031 C 
ATOM     19  C   UNL     1       4.471  -0.443  -5.905  1.00  0.00     0.029 A 
ATOM     20  N   UNL     1       5.758   0.788  -7.257  1.00  0.00    -0.354 N 
ATOM     21  C   UNL     1       6.937   4.833  -5.936  1.00  0.00     0.074 A 
ATOM     22  C   UNL     1       6.468   5.068  -4.590  1.00  0.00     0.031 C 
ATOM     23  C   UNL     1       4.798  -1.212  -6.954  1.00  0.00     0.029 A 
ATOM     24  C   UNL     1       5.564  -0.409  -7.899  1.00  0.00     0.049 A 
ATOM     25  H   UNL     1       6.327   1.508  -7.613  1.00  0.00     0.167 HD
ATOM     26  C   UNL     1       7.693   5.691  -6.655  1.00  0.00     0.037 A 
ATOM     27  C   UNL     1       5.918  -0.772  -9.144  1.00  0.00     0.037 A 
ATOM     28  C   UNL     1       8.123   5.401  -7.996  1.00  0.00     0.049 A 
ATOM     29  C   UNL     1       6.669   0.239  -9.967  1.00  0.00     0.074 A 
ATOM     30  C   UNL     1       8.841   6.192  -8.869  1.00  0.00     0.029 A 
ATOM     31  N   UNL     1       7.856   4.204  -8.656  1.00  0.00    -0.354 N 
ATOM     32  N   UNL     1       7.068   1.445  -9.628  1.00  0.00    -0.248 NA
ATOM     33  C   UNL     1       7.005  -0.142 -11.341  1.00  0.00     0.031 C 
ATOM     34  C   UNL     1       8.955   5.497 -10.079  1.00  0.00     0.029 A 
ATOM     35  C   UNL     1       8.370   4.245  -9.939  1.00  0.00     0.049 A 
ATOM     36  H   UNL     1       7.372   3.441  -8.267  1.00  0.00     0.167 HD
ATOM     37  C   UNL     1       7.716   1.963 -10.738  1.00  0.00     0.074 A 
ATOM     38  C   UNL     1       7.669   0.928 -11.757  1.00  0.00     0.031 C 
ATOM     39  C   UNL     1       8.296   3.178 -10.909  1.00  0.00     0.037 A 
BRANCH  26  40
ATOM     40  C   UNL     1       7.976   7.028  -6.037  1.00  0.00     0.064 A 
ATOM     41  C   UNL     1       8.800   7.178  -4.910  1.00  0.00     0.173 A 
ATOM     42  C   UNL     1       7.335   8.174  -6.533  1.00  0.00     0.173 A 
ATOM     43  F   UNL     1       9.408   6.110  -4.372  1.00  0.00    -0.203 F 
ATOM     44  C   UNL     1       8.933   8.413  -4.278  1.00  0.00     0.198 A 
ATOM     45  C   UNL     1       7.497   9.412  -5.919  1.00  0.00     0.198 A 
ATOM     46  F   UNL     1       6.525   8.087  -7.599  1.00  0.00    -0.203 F 
ATOM     47  F   UNL     1       9.655   8.513  -3.153  1.00  0.00    -0.200 F 
ATOM     48  C   UNL     1       8.283   9.528  -4.784  1.00  0.00     0.200 A 
ATOM     49  F   UNL     1       6.868  10.489  -6.411  1.00  0.00    -0.200 F 
ATOM     50  F   UNL     1       8.396  10.711  -4.163  1.00  0.00    -0.200 F 
ENDBRANCH  26  40
BRANCH  27  51
ATOM     51  C   UNL     1       5.496  -2.091  -9.682  1.00  0.00     0.064 A 
ATOM     52  C   UNL     1       6.429  -3.083 -10.010  1.00  0.00     0.173 A 
ATOM     53  C   UNL     1       4.136  -2.397  -9.861  1.00  0.00     0.173 A 
ATOM     54  F   UNL     1       7.740  -2.839  -9.877  1.00  0.00    -0.203 F 
ATOM     55  C   UNL     1       6.020  -4.322 -10.505  1.00  0.00     0.198 A 
ATOM     56  C   UNL     1       3.727  -3.646 -10.324  1.00  0.00     0.198 A 
ATOM     57  F   UNL     1       3.197  -1.486  -9.564  1.00  0.00    -0.203 F 
ATOM     58  F   UNL     1       6.935  -5.239 -10.848  1.00  0.00    -0.200 F 
ATOM     59  C   UNL     1       4.670  -4.605 -10.653  1.00  0.00     0.200 A 
ATOM     60  F   UNL     1       2.420  -3.917 -10.448  1.00  0.00    -0.200 F 
ATOM     61  F   UNL     1       4.278  -5.799 -11.119  1.00  0.00    -0.200 F 
ENDBRANCH  27  51
BRANCH  39  62
ATOM     62  C   UNL     1       8.953   3.430 -12.232  1.00  0.00     0.064 A 
ATOM     63  C   UNL     1       8.204   3.653 -13.395  1.00  0.00     0.173 A 
ATOM     64  C   UNL     1      10.351   3.523 -12.313  1.00  0.00     0.173 A 
ATOM     65  F   UNL     1       6.866   3.558 -13.366  1.00  0.00    -0.203 F 
ATOM     66  C   UNL     1       8.834   3.947 -14.599  1.00  0.00     0.198 A 
ATOM     67  C   UNL     1      10.974   3.852 -13.511  1.00  0.00     0.198 A 
ATOM     68  F   UNL     1      11.107   3.325 -11.223  1.00  0.00    -0.203 F 
ATOM     69  F   UNL     1       8.104   4.118 -15.710  1.00  0.00    -0.200 F 
ATOM     70  C   UNL     1      10.216   4.058 -14.653  1.00  0.00     0.200 A 
ATOM     71  F   UNL     1      12.307   3.978 -13.556  1.00  0.00    -0.200 F 
ATOM     72  F   UNL     1      10.819   4.362 -15.810  1.00  0.00    -0.200 F 
ENDBRANCH  39  62
ENDBRANCH  13  14
ENDBRANCH   6   8
ENDBRANCH   5   6
ENDBRANCH   4   5
ENDBRANCH   3   4
ENDBRANCH   2   3
ENDBRANCH   1   2
BRANCH   1  73
ATOM     73  C   UNL     1       2.369  -3.366  -0.040  1.00  0.00     0.261 C 
BRANCH  73  74
ATOM     74  O   UNL     1       3.001  -3.854   1.153  1.00  0.00    -0.463 OA
BRANCH  74  75
ATOM     75  C   UNL     1       4.361  -3.896   1.080  1.00  0.00     0.309 C 
ATOM     76  O   UNL     1       5.007  -3.873   0.041  1.00  0.00    -0.252 OA
BRANCH  75  77
ATOM     77  C   UNL     1       4.948  -3.978   2.481  1.00  0.00     0.110 C 
ATOM     78  C   UNL     1       6.266  -3.221   2.665  1.00  0.00     0.077 C 
ATOM     79  C   UNL     1       5.198  -5.435   2.799  1.00  0.00     0.077 C 
ATOM     80  C   UNL     1       7.375  -3.752   1.763  1.00  0.00     0.263 C 
ATOM     81  C   UNL     1       6.276  -5.989   1.872  1.00  0.00     0.263 C 
ATOM     82  N   UNL     1       7.522  -5.205   1.846  1.00  0.00    -0.324 N 
ATOM     83  H   UNL     1       7.897  -5.368   2.781  1.00  0.00     0.348 HD
BRANCH  82  84
ATOM     84  C   UNL     1       8.507  -5.706   0.851  1.00  0.00     0.284 C 
ATOM     85  C   UNL     1       8.227  -5.447  -0.632  1.00  0.00     0.176 C 
ATOM     86  C   UNL     1       8.610  -7.217   0.940  1.00  0.00     0.292 C 
ATOM     87  C   UNL     1       8.038  -6.803  -1.233  1.00  0.00     0.240 C 
ATOM     88  N   UNL     1       8.162  -7.745  -0.249  1.00  0.00    -0.245 N 
ATOM     89  O   UNL     1       9.004  -7.825   1.925  1.00  0.00    -0.267 OA
ATOM     90  O   UNL     1       7.785  -6.972  -2.424  1.00  0.00    -0.274 OA
BRANCH  88  91
ATOM     91  C   UNL     1       7.895  -9.116  -0.411  1.00  0.00     0.052 A 
ATOM     92  C   UNL     1       7.194  -9.809   0.587  1.00  0.00     0.031 A 
ATOM     93  C   UNL     1       8.311  -9.796  -1.554  1.00  0.00     0.031 A 
ATOM     94  C   UNL     1       6.947 -11.174   0.460  1.00  0.00     0.049 A 
ATOM     95  C   UNL     1       8.098 -11.171  -1.662  1.00  0.00     0.049 A 
ATOM     96  C   UNL     1       7.435 -11.867  -0.645  1.00  0.00     0.127 A 
BRANCH  96  97
ATOM     97  O   UNL     1       7.195 -13.224  -0.636  1.00  0.00    -0.457 OA
BRANCH  97  98
ATOM     98  C   UNL     1       7.872 -13.990  -1.550  1.00  0.00     0.127 A 
ATOM     99  C   UNL     1       7.133 -14.588  -2.568  1.00  0.00     0.047 A 
ATOM    100  C   UNL     1       9.252 -14.180  -1.458  1.00  0.00     0.047 A 
ATOM    101  C   UNL     1       7.789 -15.338  -3.540  1.00  0.00     0.004 A 
ATOM    102  C   UNL     1       9.906 -14.923  -2.438  1.00  0.00     0.004 A 
ATOM    103  C   UNL     1       9.175 -15.495  -3.481  1.00  0.00     0.000 A 
ENDBRANCH  97  98
ENDBRANCH  96  97
ENDBRANCH  88  91
ENDBRANCH  82  84
ENDBRANCH  75  77
ENDBRANCH  74  75
ENDBRANCH  73  74
ENDBRANCH   1  73
TORSDOF 18
