REMARK SMILES O=C(OCCOCCOC(=O)c1ccc(-c2c3nc(c(-c4c(F)c(F)c(F)c(F)c4F)c4ccc([nH]4)c(-c4c(F)c(F)c(F)c(F)c4F)c4nc(c(-c5c(F)c(F)c(F)c(F)c5F)c5ccc2[nH]5)C=C4)C=C3)cc1)/C(=C/c1ccccc1Cl)NC(=O)c1ccccc1
REMARK SMILES IDX 6 1 5 2 4 3 3 4 2 5 1 6 75 7 76 8 84 9 85 10 86 12 87 13
REMARK SMILES IDX 88 14 92 15 89 16 91 17 90 18 77 19 78 20 82 21 79 22 81 23
REMARK SMILES IDX 83 24 80 25 7 26 8 27 9 28 10 29 11 30 12 31 13 32 74 33
REMARK SMILES IDX 14 34 73 35 15 36 16 37 17 38 67 39 18 40 72 41 66 42 68 43
REMARK SMILES IDX 19 44 71 45 65 46 64 47 20 49 52 50 32 51 51 52 33 53 36 54
REMARK SMILES IDX 50 55 69 56 34 57 35 58 49 60 70 61 37 62 21 63 22 64 30 65
REMARK SMILES IDX 23 66 24 67 28 68 31 69 25 70 26 71 29 72 27 73 53 74 54 75
REMARK SMILES IDX 62 76 55 77 56 78 60 79 63 80 57 81 58 82 61 83 59 84 38 85
REMARK SMILES IDX 39 86 47 87 40 88 41 89 45 90 48 91 42 92 43 93 46 94 44 95
REMARK H PARENT 84 11 68 48 36 59
REMARK Flexibility Score: inf
ROOT
ATOM      1  O   UNL     1       2.319   2.535  -1.028  1.00  0.00    -0.374 OA
ENDROOT
BRANCH   1   2
ATOM      2  C   UNL     1       2.846   1.214  -1.022  1.00  0.00     0.202 C 
BRANCH   2   3
ATOM      3  C   UNL     1       1.804   0.146  -0.667  1.00  0.00     0.261 C 
BRANCH   3   4
ATOM      4  O   UNL     1       1.567   0.049   0.743  1.00  0.00    -0.459 OA
BRANCH   4   5
ATOM      5  C   UNL     1       2.459  -0.745   1.401  1.00  0.00     0.354 C 
ATOM      6  O   UNL     1       2.272  -1.922   1.659  1.00  0.00    -0.244 OA
BRANCH   5   7
ATOM      7  C   UNL     1       3.593   0.070   1.943  1.00  0.00     0.128 C 
ATOM      8  C   UNL     1       3.166   1.138   2.651  1.00  0.00     0.043 C 
BRANCH   7   9
ATOM      9  N   UNL     1       4.915  -0.271   1.750  1.00  0.00    -0.316 N 
ATOM     10  C   UNL     1       5.556  -1.224   0.979  1.00  0.00     0.255 C 
ATOM     11  H   UNL     1       5.537   0.283   2.275  1.00  0.00     0.170 HD
ATOM     12  O   UNL     1       6.777  -1.357   1.065  1.00  0.00    -0.269 OA
BRANCH  10  13
ATOM     13  C   UNL     1       4.868  -2.041  -0.038  1.00  0.00     0.040 A 
ATOM     14  C   UNL     1       4.554  -3.377   0.222  1.00  0.00     0.014 A 
ATOM     15  C   UNL     1       4.679  -1.524  -1.322  1.00  0.00     0.014 A 
ATOM     16  C   UNL     1       3.946  -4.156  -0.768  1.00  0.00     0.001 A 
ATOM     17  C   UNL     1       4.035  -2.292  -2.296  1.00  0.00     0.001 A 
ATOM     18  C   UNL     1       3.654  -3.603  -2.013  1.00  0.00     0.000 A 
ENDBRANCH  10  13
ENDBRANCH   7   9
BRANCH   8  19
ATOM     19  C   UNL     1       3.811   2.286   3.325  1.00  0.00    -0.005 A 
ATOM     20  C   UNL     1       3.174   2.706   4.513  1.00  0.00     0.010 A 
ATOM     21  C   UNL     1       4.825   3.108   2.805  1.00  0.00     0.048 A 
ATOM     22  C   UNL     1       3.520   3.900   5.152  1.00  0.00     0.001 A 
ATOM     23  C   UNL     1       5.176   4.302   3.456  1.00  0.00     0.021 A 
ATOM     24  Cl  UNL     1       5.649   2.771   1.326  1.00  0.00    -0.084 Cl
ATOM     25  C   UNL     1       4.519   4.702   4.619  1.00  0.00     0.002 A 
ENDBRANCH   8  19
ENDBRANCH   5   7
ENDBRANCH   4   5
ENDBRANCH   3   4
ENDBRANCH   2   3
ENDBRANCH   1   2
BRANCH   1  26
ATOM     26  C   UNL     1       1.643   2.895  -2.235  1.00  0.00     0.202 C 
BRANCH  26  27
ATOM     27  C   UNL     1       2.589   3.246  -3.394  1.00  0.00     0.261 C 
BRANCH  27  28
ATOM     28  O   UNL     1       3.105   2.062  -4.050  1.00  0.00    -0.460 OA
BRANCH  28  29
ATOM     29  C   UNL     1       4.458   1.933  -4.093  1.00  0.00     0.338 C 
ATOM     30  O   UNL     1       5.274   2.699  -3.606  1.00  0.00    -0.246 OA
BRANCH  29  31
ATOM     31  C   UNL     1       4.853   0.656  -4.750  1.00  0.00     0.060 A 
ATOM     32  C   UNL     1       6.080   0.070  -4.400  1.00  0.00     0.016 A 
ATOM     33  C   UNL     1       4.056   0.042  -5.720  1.00  0.00     0.016 A 
ATOM     34  C   UNL     1       6.510  -1.117  -5.012  1.00  0.00     0.010 A 
ATOM     35  C   UNL     1       4.491  -1.138  -6.340  1.00  0.00     0.010 A 
ATOM     36  C   UNL     1       5.726  -1.723  -6.001  1.00  0.00    -0.014 A 
BRANCH  36  37
ATOM     37  C   UNL     1       6.197  -2.909  -6.767  1.00  0.00     0.031 A 
ATOM     38  C   UNL     1       6.815  -2.711  -8.120  1.00  0.00     0.074 A 
ATOM     39  C   UNL     1       6.004  -4.161  -6.312  1.00  0.00     0.049 A 
ATOM     40  N   UNL     1       7.125  -3.601  -9.028  1.00  0.00    -0.248 NA
ATOM     41  C   UNL     1       7.133  -1.325  -8.498  1.00  0.00     0.031 C 
ATOM     42  C   UNL     1       5.491  -4.502  -4.993  1.00  0.00     0.029 A 
ATOM     43  N   UNL     1       6.176  -5.380  -6.926  1.00  0.00    -0.354 N 
ATOM     44  C   UNL     1       7.675  -2.888 -10.082  1.00  0.00     0.074 A 
ATOM     45  C   UNL     1       7.636  -1.488  -9.714  1.00  0.00     0.031 C 
ATOM     46  C   UNL     1       5.306  -5.830  -4.917  1.00  0.00     0.029 A 
ATOM     47  C   UNL     1       5.680  -6.434  -6.193  1.00  0.00     0.049 A 
ATOM     48  H   UNL     1       6.610  -5.488  -7.802  1.00  0.00     0.167 HD
ATOM     49  C   UNL     1       8.174  -3.362 -11.247  1.00  0.00     0.037 A 
ATOM     50  C   UNL     1       5.513  -7.730  -6.526  1.00  0.00     0.037 A 
ATOM     51  C   UNL     1       8.220  -4.752 -11.615  1.00  0.00     0.049 A 
ATOM     52  C   UNL     1       5.962  -8.212  -7.881  1.00  0.00     0.074 A 
ATOM     53  C   UNL     1       8.770  -5.324 -12.750  1.00  0.00     0.029 A 
ATOM     54  N   UNL     1       7.681  -5.786 -10.867  1.00  0.00    -0.354 N 
ATOM     55  N   UNL     1       6.536  -7.541  -8.848  1.00  0.00    -0.248 NA
ATOM     56  C   UNL     1       5.745  -9.635  -8.189  1.00  0.00     0.031 C 
ATOM     57  C   UNL     1       8.510  -6.698 -12.717  1.00  0.00     0.029 A 
ATOM     58  C   UNL     1       7.840  -6.987 -11.540  1.00  0.00     0.049 A 
ATOM     59  H   UNL     1       7.249  -5.682  -9.988  1.00  0.00     0.167 HD
ATOM     60  C   UNL     1       6.782  -8.461  -9.858  1.00  0.00     0.074 A 
ATOM     61  C   UNL     1       6.299  -9.741  -9.389  1.00  0.00     0.031 C 
ATOM     62  C   UNL     1       7.362  -8.259 -11.066  1.00  0.00     0.037 A 
BRANCH  49  63
ATOM     63  C   UNL     1       8.700  -2.365 -12.232  1.00  0.00     0.064 A 
ATOM     64  C   UNL     1       9.938  -1.734 -12.049  1.00  0.00     0.173 A 
ATOM     65  C   UNL     1       7.985  -2.091 -13.407  1.00  0.00     0.173 A 
ATOM     66  F   UNL     1      10.651  -1.957 -10.934  1.00  0.00    -0.203 F 
ATOM     67  C   UNL     1      10.438  -0.854 -13.005  1.00  0.00     0.198 A 
ATOM     68  C   UNL     1       8.498  -1.227 -14.370  1.00  0.00     0.198 A 
ATOM     69  F   UNL     1       6.796  -2.673 -13.627  1.00  0.00    -0.203 F 
ATOM     70  F   UNL     1      11.612  -0.241 -12.800  1.00  0.00    -0.200 F 
ATOM     71  C   UNL     1       9.722  -0.609 -14.167  1.00  0.00     0.200 A 
ATOM     72  F   UNL     1       7.809  -0.998 -15.497  1.00  0.00    -0.200 F 
ATOM     73  F   UNL     1      10.211   0.228 -15.092  1.00  0.00    -0.200 F 
ENDBRANCH  49  63
BRANCH  50  74
ATOM     74  C   UNL     1       4.846  -8.669  -5.584  1.00  0.00     0.064 A 
ATOM     75  C   UNL     1       5.549  -9.726  -4.992  1.00  0.00     0.173 A 
ATOM     76  C   UNL     1       3.472  -8.568  -5.315  1.00  0.00     0.173 A 
ATOM     77  F   UNL     1       6.857  -9.883  -5.244  1.00  0.00    -0.203 F 
ATOM     78  C   UNL     1       4.899 -10.665  -4.192  1.00  0.00     0.198 A 
ATOM     79  C   UNL     1       2.829  -9.492  -4.495  1.00  0.00     0.198 A 
ATOM     80  F   UNL     1       2.750  -7.579  -5.862  1.00  0.00    -0.203 F 
ATOM     81  F   UNL     1       5.583 -11.703  -3.692  1.00  0.00    -0.200 F 
ATOM     82  C   UNL     1       3.540 -10.547  -3.944  1.00  0.00     0.200 A 
ATOM     83  F   UNL     1       1.516  -9.372  -4.254  1.00  0.00    -0.200 F 
ATOM     84  F   UNL     1       2.913 -11.459  -3.188  1.00  0.00    -0.200 F 
ENDBRANCH  50  74
BRANCH  62  85
ATOM     85  C   UNL     1       7.532  -9.450 -11.963  1.00  0.00     0.064 A 
ATOM     86  C   UNL     1       6.440 -10.029 -12.626  1.00  0.00     0.173 A 
ATOM     87  C   UNL     1       8.806  -9.985 -12.203  1.00  0.00     0.173 A 
ATOM     88  F   UNL     1       5.199  -9.566 -12.415  1.00  0.00    -0.203 F 
ATOM     89  C   UNL     1       6.618 -11.108 -13.488  1.00  0.00     0.198 A 
ATOM     90  C   UNL     1       8.983 -11.046 -13.087  1.00  0.00     0.198 A 
ATOM     91  F   UNL     1       9.884  -9.464 -11.596  1.00  0.00    -0.203 F 
ATOM     92  F   UNL     1       5.556 -11.669 -14.083  1.00  0.00    -0.200 F 
ATOM     93  C   UNL     1       7.889 -11.610 -13.725  1.00  0.00     0.200 A 
ATOM     94  F   UNL     1      10.214 -11.521 -13.324  1.00  0.00    -0.200 F 
ATOM     95  F   UNL     1       8.059 -12.640 -14.565  1.00  0.00    -0.200 F 
ENDBRANCH  62  85
ENDBRANCH  36  37
ENDBRANCH  29  31
ENDBRANCH  28  29
ENDBRANCH  27  28
ENDBRANCH  26  27
ENDBRANCH   1  26
TORSDOF 17
