REMARK SMILES CN(C)c1nccnc1N1CCC(Oc2ccc3ccccc3c2)(C(=O)OCCOCCOC(=O)c2ccc(-c3c4nc(c(-c5c(F)c(F)c(F)c(F)c5F)c5ccc([nH]5)c(-c5c(F)c(F)c(F)c(F)c5F)c5nc(c(-c6c(F)c(F)c(F)c(F)c6F)c6ccc3[nH]6)C=C5)C=C4)cc2)CC1
REMARK SMILES IDX 30 1 29 2 28 3 27 4 25 5 26 6 13 7 10 8 11 9 100 10 12 11
REMARK SMILES IDX 99 12 9 13 4 14 5 15 6 16 8 17 7 18 2 19 1 20 3 21 14 22
REMARK SMILES IDX 15 23 16 24 24 25 17 26 23 27 18 28 22 29 19 30 21 31 20 32
REMARK SMILES IDX 31 33 32 34 33 35 34 36 35 37 36 38 37 39 98 40 38 41 97 42
REMARK SMILES IDX 39 43 40 44 41 45 91 46 42 47 96 48 90 49 92 50 43 51 95 52
REMARK SMILES IDX 89 53 88 54 44 56 76 57 56 58 75 59 57 60 60 61 74 62 93 63
REMARK SMILES IDX 58 64 59 65 73 67 94 68 61 69 45 70 46 71 54 72 47 73 48 74
REMARK SMILES IDX 52 75 55 76 49 77 50 78 53 79 51 80 77 81 78 82 86 83 79 84
REMARK SMILES IDX 80 85 84 86 87 87 81 88 82 89 85 90 83 91 62 92 63 93 71 94
REMARK SMILES IDX 64 95 65 96 69 97 72 98 66 99 67 100 70 101 68 102
REMARK H PARENT 92 55 60 66
REMARK Flexibility Score: inf
ROOT
ATOM      1  O   UNL     1      -5.098   2.993   1.880  1.00  0.00    -0.374 OA
ENDROOT
BRANCH   1   2
ATOM      2  C   UNL     1      -6.245   2.567   2.618  1.00  0.00     0.202 C 
BRANCH   2   3
ATOM      3  C   UNL     1      -6.726   1.125   2.421  1.00  0.00     0.261 C 
BRANCH   3   4
ATOM      4  O   UNL     1      -5.877   0.171   3.094  1.00  0.00    -0.460 OA
BRANCH   4   5
ATOM      5  C   UNL     1      -5.350  -0.828   2.323  1.00  0.00     0.350 C 
ATOM      6  O   UNL     1      -5.554  -0.930   1.117  1.00  0.00    -0.247 OA
BRANCH   5   7
ATOM      7  C   UNL     1      -4.487  -1.826   3.133  1.00  0.00     0.209 C 
ATOM      8  N   UNL     1      -1.610  -1.202   3.095  1.00  0.00    -0.353 N 
ATOM      9  C   UNL     1      -2.276  -1.417   4.382  1.00  0.00     0.123 C 
ATOM     10  C   UNL     1      -2.328  -1.512   1.858  1.00  0.00     0.123 C 
ATOM     11  C   UNL     1      -3.777  -1.137   4.320  1.00  0.00     0.082 C 
ATOM     12  C   UNL     1      -3.478  -2.470   2.154  1.00  0.00     0.082 C 
BRANCH   8  13
ATOM     13  C   UNL     1      -0.233  -1.521   3.076  1.00  0.00     0.171 A 
ATOM     14  C   UNL     1       0.668  -1.067   2.049  1.00  0.00     0.171 A 
ATOM     15  N   UNL     1       1.950  -1.524   1.993  1.00  0.00    -0.234 NA
ATOM     16  C   UNL     1       2.337  -2.374   2.963  1.00  0.00     0.134 A 
ATOM     17  N   UNL     1       0.215  -2.350   4.059  1.00  0.00    -0.234 NA
ATOM     18  C   UNL     1       1.494  -2.769   3.976  1.00  0.00     0.134 A 
BRANCH  14  19
ATOM     19  N   UNL     1       0.300  -0.093   1.097  1.00  0.00    -0.360 N 
ATOM     20  C   UNL     1       1.093  -0.099  -0.126  1.00  0.00     0.145 C 
ATOM     21  C   UNL     1       0.082   1.216   1.697  1.00  0.00     0.145 C 
ENDBRANCH  14  19
ENDBRANCH   8  13
BRANCH   7  22
ATOM     22  O   UNL     1      -5.551  -2.702   3.604  1.00  0.00    -0.475 OA
BRANCH  22  23
ATOM     23  C   UNL     1      -5.205  -4.001   3.836  1.00  0.00     0.121 A 
ATOM     24  C   UNL     1      -4.677  -4.378   5.063  1.00  0.00     0.047 A 
ATOM     25  C   UNL     1      -5.478  -4.957   2.857  1.00  0.00     0.055 A 
ATOM     26  C   UNL     1      -4.349  -5.715   5.292  1.00  0.00     0.012 A 
ATOM     27  C   UNL     1      -5.152  -6.306   3.072  1.00  0.00    -0.015 A 
ATOM     28  C   UNL     1      -4.571  -6.687   4.304  1.00  0.00    -0.018 A 
ATOM     29  C   UNL     1      -5.389  -7.288   2.094  1.00  0.00     0.009 A 
ATOM     30  C   UNL     1      -4.234  -8.033   4.519  1.00  0.00     0.009 A 
ATOM     31  C   UNL     1      -5.049  -8.622   2.326  1.00  0.00     0.001 A 
ATOM     32  C   UNL     1      -4.470  -8.994   3.536  1.00  0.00     0.001 A 
ENDBRANCH  22  23
ENDBRANCH   7  22
ENDBRANCH   5   7
ENDBRANCH   4   5
ENDBRANCH   3   4
ENDBRANCH   2   3
ENDBRANCH   1   2
BRANCH   1  33
ATOM     33  C   UNL     1      -3.882   2.280   2.066  1.00  0.00     0.202 C 
BRANCH  33  34
ATOM     34  C   UNL     1      -3.109   2.528   3.369  1.00  0.00     0.261 C 
BRANCH  34  35
ATOM     35  O   UNL     1      -3.943   2.645   4.526  1.00  0.00    -0.460 OA
BRANCH  35  36
ATOM     36  C   UNL     1      -4.005   3.898   5.035  1.00  0.00     0.338 C 
ATOM     37  O   UNL     1      -3.372   4.879   4.692  1.00  0.00    -0.246 OA
BRANCH  36  38
ATOM     38  C   UNL     1      -5.092   3.969   6.021  1.00  0.00     0.060 A 
ATOM     39  C   UNL     1      -6.146   4.845   5.747  1.00  0.00     0.016 A 
ATOM     40  C   UNL     1      -5.038   3.262   7.225  1.00  0.00     0.016 A 
ATOM     41  C   UNL     1      -7.132   5.058   6.705  1.00  0.00     0.010 A 
ATOM     42  C   UNL     1      -6.028   3.482   8.188  1.00  0.00     0.010 A 
ATOM     43  C   UNL     1      -7.058   4.407   7.944  1.00  0.00    -0.014 A 
BRANCH  43  44
ATOM     44  C   UNL     1      -7.996   4.813   9.016  1.00  0.00     0.031 A 
ATOM     45  C   UNL     1      -7.549   5.813  10.044  1.00  0.00     0.074 A 
ATOM     46  C   UNL     1      -9.255   4.343   9.028  1.00  0.00     0.049 A 
ATOM     47  N   UNL     1      -8.231   6.370  11.012  1.00  0.00    -0.248 NA
ATOM     48  C   UNL     1      -6.144   6.245   9.971  1.00  0.00     0.031 C 
ATOM     49  C   UNL     1      -9.803   3.381   8.075  1.00  0.00     0.029 A 
ATOM     50  N   UNL     1     -10.302   4.622   9.869  1.00  0.00    -0.354 N 
ATOM     51  C   UNL     1      -7.344   7.221  11.658  1.00  0.00     0.074 A 
ATOM     52  C   UNL     1      -6.064   7.080  10.997  1.00  0.00     0.031 C 
ATOM     53  C   UNL     1     -11.090   3.148   8.385  1.00  0.00     0.029 A 
ATOM     54  C   UNL     1     -11.449   3.935   9.563  1.00  0.00     0.049 A 
ATOM     55  H   UNL     1     -10.237   5.255  10.621  1.00  0.00     0.167 HD
ATOM     56  C   UNL     1      -7.580   8.054  12.699  1.00  0.00     0.037 A 
ATOM     57  C   UNL     1     -12.651   3.939  10.171  1.00  0.00     0.037 A 
ATOM     58  C   UNL     1      -8.854   8.192  13.354  1.00  0.00     0.049 A 
ATOM     59  C   UNL     1     -12.879   4.849  11.349  1.00  0.00     0.074 A 
ATOM     60  C   UNL     1      -9.204   9.033  14.395  1.00  0.00     0.029 A 
ATOM     61  N   UNL     1      -9.987   7.457  13.036  1.00  0.00    -0.354 N 
ATOM     62  N   UNL     1     -12.050   5.691  11.918  1.00  0.00    -0.248 NA
ATOM     63  C   UNL     1     -14.214   4.816  11.962  1.00  0.00     0.031 C 
ATOM     64  C   UNL     1     -10.535   8.772  14.740  1.00  0.00     0.029 A 
ATOM     65  C   UNL     1     -11.029   7.804  13.880  1.00  0.00     0.049 A 
ATOM     66  H   UNL     1     -10.042   6.787  12.316  1.00  0.00     0.167 HD
ATOM     67  C   UNL     1     -12.765   6.301  12.940  1.00  0.00     0.074 A 
ATOM     68  C   UNL     1     -14.103   5.746  12.900  1.00  0.00     0.031 C 
ATOM     69  C   UNL     1     -12.352   7.236  13.831  1.00  0.00     0.037 A 
BRANCH  56  70
ATOM     70  C   UNL     1      -6.426   8.867  13.207  1.00  0.00     0.064 A 
ATOM     71  C   UNL     1      -5.905   9.946  12.477  1.00  0.00     0.173 A 
ATOM     72  C   UNL     1      -5.850   8.579  14.453  1.00  0.00     0.173 A 
ATOM     73  F   UNL     1      -6.412  10.254  11.273  1.00  0.00    -0.203 F 
ATOM     74  C   UNL     1      -4.833  10.690  12.964  1.00  0.00     0.198 A 
ATOM     75  C   UNL     1      -4.795   9.341  14.949  1.00  0.00     0.198 A 
ATOM     76  F   UNL     1      -6.312   7.560  15.193  1.00  0.00    -0.203 F 
ATOM     77  F   UNL     1      -4.323  11.688  12.229  1.00  0.00    -0.200 F 
ATOM     78  C   UNL     1      -4.283  10.391  14.201  1.00  0.00     0.200 A 
ATOM     79  F   UNL     1      -4.272   9.057  16.150  1.00  0.00    -0.200 F 
ATOM     80  F   UNL     1      -3.254  11.110  14.671  1.00  0.00    -0.200 F 
ENDBRANCH  56  70
BRANCH  57  81
ATOM     81  C   UNL     1     -13.734   3.056   9.667  1.00  0.00     0.064 A 
ATOM     82  C   UNL     1     -14.865   3.583   9.029  1.00  0.00     0.173 A 
ATOM     83  C   UNL     1     -13.657   1.664   9.816  1.00  0.00     0.173 A 
ATOM     84  F   UNL     1     -14.994   4.910   8.884  1.00  0.00    -0.203 F 
ATOM     85  C   UNL     1     -15.885   2.751   8.572  1.00  0.00     0.198 A 
ATOM     86  C   UNL     1     -14.665   0.831   9.336  1.00  0.00     0.198 A 
ATOM     87  F   UNL     1     -12.595   1.111  10.421  1.00  0.00    -0.203 F 
ATOM     88  F   UNL     1     -16.975   3.283   8.002  1.00  0.00    -0.200 F 
ATOM     89  C   UNL     1     -15.781   1.376   8.720  1.00  0.00     0.200 A 
ATOM     90  F   UNL     1     -14.555  -0.497   9.471  1.00  0.00    -0.200 F 
ATOM     91  F   UNL     1     -16.761   0.577   8.276  1.00  0.00    -0.200 F 
ENDBRANCH  57  81
BRANCH  69  92
ATOM     92  C   UNL     1     -13.364   7.727  14.826  1.00  0.00     0.064 A 
ATOM     93  C   UNL     1     -13.802   6.920  15.886  1.00  0.00     0.173 A 
ATOM     94  C   UNL     1     -13.878   9.030  14.735  1.00  0.00     0.173 A 
ATOM     95  F   UNL     1     -13.351   5.663  16.009  1.00  0.00    -0.203 F 
ATOM     96  C   UNL     1     -14.740   7.390  16.802  1.00  0.00     0.198 A 
ATOM     97  C   UNL     1     -14.794   9.505  15.669  1.00  0.00     0.198 A 
ATOM     98  F   UNL     1     -13.486   9.844  13.744  1.00  0.00    -0.203 F 
ATOM     99  F   UNL     1     -15.182   6.584  17.778  1.00  0.00    -0.200 F 
ATOM    100  C   UNL     1     -15.230   8.683  16.697  1.00  0.00     0.200 A 
ATOM    101  F   UNL     1     -15.257  10.759  15.573  1.00  0.00    -0.200 F 
ATOM    102  F   UNL     1     -16.131   9.134  17.581  1.00  0.00    -0.200 F 
ENDBRANCH  69  92
ENDBRANCH  43  44
ENDBRANCH  36  38
ENDBRANCH  35  36
ENDBRANCH  34  35
ENDBRANCH  33  34
ENDBRANCH   1  33
TORSDOF 18
