REMARK SMILES C[C@@H]1CN(C(=O)NC(=O)CCCCC(=O)OCCOCCOC(=O)c2ccc(-c3c4nc(c(-c5c(F)c(F)c(F)c(F)c5F)c5ccc([nH]5)c(-c5c(F)c(F)c(F)c(F)c5F)c5nc(c(-c6c(F)c(F)c(F)c(F)c6F)c6ccc3[nH]6)C=C5)C=C4)cc2)CCO1
REMARK SMILES IDX 17 1 16 2 14 3 15 4 13 5 12 6 11 7 10 8 8 9 5 10 6 11 7 12
REMARK SMILES IDX 9 14 4 15 1 16 2 17 3 18 90 19 89 20 88 21 18 22 19 23 20 24
REMARK SMILES IDX 21 25 22 26 23 27 24 28 25 29 26 30 87 31 27 32 86 33 28 34
REMARK SMILES IDX 29 35 30 36 80 37 31 38 85 39 79 40 81 41 32 42 84 43 78 44
REMARK SMILES IDX 77 45 33 47 65 48 45 49 64 50 46 51 49 52 63 53 82 54 47 55
REMARK SMILES IDX 48 56 62 58 83 59 50 60 34 61 35 62 43 63 36 64 37 65 41 66
REMARK SMILES IDX 44 67 38 68 39 69 42 70 40 71 66 72 67 73 75 74 68 75 69 76
REMARK SMILES IDX 73 77 76 78 70 79 71 80 74 81 72 82 51 83 52 84 60 85 53 86
REMARK SMILES IDX 54 87 58 88 61 89 55 90 56 91 59 92 57 93
REMARK H PARENT 7 13 81 46 49 57
REMARK Flexibility Score: inf
ROOT
ATOM      1  C   UNL     1       0.970   1.579  -2.073  1.00  0.00     0.261 C 
ENDROOT
BRANCH   1   2
ATOM      2  O   UNL     1       0.393   0.256  -2.018  1.00  0.00    -0.463 OA
BRANCH   2   3
ATOM      3  C   UNL     1      -0.801   0.180  -1.382  1.00  0.00     0.305 C 
ATOM      4  O   UNL     1      -1.383   1.145  -0.896  1.00  0.00    -0.252 OA
BRANCH   3   5
ATOM      5  C   UNL     1      -1.465  -1.180  -1.421  1.00  0.00     0.123 C 
BRANCH   5   6
ATOM      6  C   UNL     1      -0.754  -2.427  -1.929  1.00  0.00     0.012 C 
BRANCH   6   7
ATOM      7  C   UNL     1       0.601  -2.831  -1.353  1.00  0.00     0.010 C 
BRANCH   7   8
ATOM      8  C   UNL     1       0.739  -3.420   0.054  1.00  0.00     0.100 C 
BRANCH   8   9
ATOM      9  C   UNL     1      -0.466  -3.969   0.777  1.00  0.00     0.227 C 
ATOM     10  C   UNL     1      -1.766  -2.009   2.038  1.00  0.00     0.324 C 
ATOM     11  O   UNL     1      -2.961  -1.965   2.351  1.00  0.00    -0.248 OA
ATOM     12  N   UNL     1      -1.313  -3.244   1.605  1.00  0.00    -0.278 N 
ATOM     13  H   UNL     1      -1.825  -3.912   2.117  1.00  0.00     0.174 HD
ATOM     14  O   UNL     1      -0.747  -5.166   0.626  1.00  0.00    -0.275 OA
BRANCH  10  15
ATOM     15  N   UNL     1      -0.985  -0.887   2.059  1.00  0.00    -0.320 N 
ATOM     16  C   UNL     1       2.546   0.434   1.481  1.00  0.00     0.040 C 
ATOM     17  C   UNL     1       1.171   0.438   2.143  1.00  0.00     0.134 C 
ATOM     18  C   UNL     1       0.433  -0.850   1.785  1.00  0.00     0.153 C 
ATOM     19  O   UNL     1       0.445   1.563   1.646  1.00  0.00    -0.375 OA
ATOM     20  C   UNL     1      -0.820   1.648   2.312  1.00  0.00     0.182 C 
ATOM     21  C   UNL     1      -1.692   0.403   2.118  1.00  0.00     0.150 C 
ENDBRANCH  10  15
ENDBRANCH   8   9
ENDBRANCH   7   8
ENDBRANCH   6   7
ENDBRANCH   5   6
ENDBRANCH   3   5
ENDBRANCH   2   3
ENDBRANCH   1   2
BRANCH   1  22
ATOM     22  C   UNL     1       0.995   2.189  -3.482  1.00  0.00     0.202 C 
BRANCH  22  23
ATOM     23  O   UNL     1      -0.233   2.442  -4.153  1.00  0.00    -0.374 OA
BRANCH  23  24
ATOM     24  C   UNL     1      -1.143   1.372  -4.370  1.00  0.00     0.202 C 
BRANCH  24  25
ATOM     25  C   UNL     1      -0.687   0.164  -5.205  1.00  0.00     0.261 C 
BRANCH  25  26
ATOM     26  O   UNL     1       0.537  -0.446  -4.754  1.00  0.00    -0.460 OA
BRANCH  26  27
ATOM     27  C   UNL     1       1.557  -0.380  -5.643  1.00  0.00     0.338 C 
ATOM     28  O   UNL     1       1.526   0.078  -6.773  1.00  0.00    -0.246 OA
BRANCH  27  29
ATOM     29  C   UNL     1       2.828  -0.813  -5.033  1.00  0.00     0.060 A 
ATOM     30  C   UNL     1       3.869   0.124  -4.989  1.00  0.00     0.016 A 
ATOM     31  C   UNL     1       3.062  -2.150  -4.709  1.00  0.00     0.016 A 
ATOM     32  C   UNL     1       5.166  -0.286  -4.693  1.00  0.00     0.010 A 
ATOM     33  C   UNL     1       4.371  -2.564  -4.426  1.00  0.00     0.010 A 
ATOM     34  C   UNL     1       5.434  -1.643  -4.472  1.00  0.00    -0.014 A 
BRANCH  34  35
ATOM     35  C   UNL     1       6.846  -2.103  -4.507  1.00  0.00     0.031 A 
ATOM     36  C   UNL     1       7.399  -2.644  -5.800  1.00  0.00     0.074 A 
ATOM     37  C   UNL     1       7.646  -1.969  -3.436  1.00  0.00     0.049 A 
ATOM     38  N   UNL     1       8.598  -3.095  -6.068  1.00  0.00    -0.248 NA
ATOM     39  C   UNL     1       6.476  -2.675  -6.947  1.00  0.00     0.031 C 
ATOM     40  C   UNL     1       7.248  -1.403  -2.150  1.00  0.00     0.029 A 
ATOM     41  N   UNL     1       8.968  -2.299  -3.265  1.00  0.00    -0.354 N 
ATOM     42  C   UNL     1       8.572  -3.465  -7.407  1.00  0.00     0.074 A 
ATOM     43  C   UNL     1       7.234  -3.210  -7.893  1.00  0.00     0.031 C 
ATOM     44  C   UNL     1       8.302  -1.433  -1.316  1.00  0.00     0.029 A 
ATOM     45  C   UNL     1       9.439  -2.045  -2.001  1.00  0.00     0.049 A 
ATOM     46  H   UNL     1       9.525  -2.680  -3.981  1.00  0.00     0.167 HD
ATOM     47  C   UNL     1       9.577  -3.964  -8.166  1.00  0.00     0.037 A 
ATOM     48  C   UNL     1      10.646  -2.297  -1.457  1.00  0.00     0.037 A 
ATOM     49  C   UNL     1      10.912  -4.206  -7.689  1.00  0.00     0.049 A 
ATOM     50  C   UNL     1      11.725  -2.921  -2.305  1.00  0.00     0.074 A 
ATOM     51  C   UNL     1      12.003  -4.695  -8.387  1.00  0.00     0.029 A 
ATOM     52  N   UNL     1      11.338  -3.977  -6.390  1.00  0.00    -0.354 N 
ATOM     53  N   UNL     1      11.695  -3.253  -3.573  1.00  0.00    -0.248 NA
ATOM     54  C   UNL     1      13.008  -3.203  -1.645  1.00  0.00     0.031 C 
ATOM     55  C   UNL     1      13.077  -4.805  -7.498  1.00  0.00     0.029 A 
ATOM     56  C   UNL     1      12.668  -4.340  -6.259  1.00  0.00     0.049 A 
ATOM     57  H   UNL     1      10.777  -3.611  -5.668  1.00  0.00     0.167 HD
ATOM     58  C   UNL     1      12.957  -3.753  -3.868  1.00  0.00     0.074 A 
ATOM     59  C   UNL     1      13.735  -3.671  -2.650  1.00  0.00     0.031 C 
ATOM     60  C   UNL     1      13.430  -4.239  -5.042  1.00  0.00     0.037 A 
BRANCH  47  61
ATOM     61  C   UNL     1       9.268  -4.307  -9.593  1.00  0.00     0.064 A 
ATOM     62  C   UNL     1       9.104  -3.315 -10.571  1.00  0.00     0.173 A 
ATOM     63  C   UNL     1       9.192  -5.648  -9.997  1.00  0.00     0.173 A 
ATOM     64  F   UNL     1       9.155  -2.018 -10.231  1.00  0.00    -0.203 F 
ATOM     65  C   UNL     1       8.861  -3.654 -11.899  1.00  0.00     0.198 A 
ATOM     66  C   UNL     1       8.973  -5.984 -11.330  1.00  0.00     0.198 A 
ATOM     67  F   UNL     1       9.345  -6.634  -9.100  1.00  0.00    -0.203 F 
ATOM     68  F   UNL     1       8.677  -2.691 -12.813  1.00  0.00    -0.200 F 
ATOM     69  C   UNL     1       8.804  -4.987 -12.279  1.00  0.00     0.200 A 
ATOM     70  F   UNL     1       8.929  -7.272 -11.697  1.00  0.00    -0.200 F 
ATOM     71  F   UNL     1       8.583  -5.311 -13.561  1.00  0.00    -0.200 F 
ENDBRANCH  47  61
BRANCH  48  72
ATOM     72  C   UNL     1      10.899  -1.983  -0.026  1.00  0.00     0.064 A 
ATOM     73  C   UNL     1      11.803  -0.981   0.350  1.00  0.00     0.173 A 
ATOM     74  C   UNL     1      10.265  -2.707   0.995  1.00  0.00     0.173 A 
ATOM     75  F   UNL     1      12.454  -0.279  -0.590  1.00  0.00    -0.203 F 
ATOM     76  C   UNL     1      12.080  -0.729   1.692  1.00  0.00     0.198 A 
ATOM     77  C   UNL     1      10.521  -2.435   2.336  1.00  0.00     0.198 A 
ATOM     78  F   UNL     1       9.394  -3.679   0.688  1.00  0.00    -0.203 F 
ATOM     79  F   UNL     1      12.986   0.201   2.024  1.00  0.00    -0.200 F 
ATOM     80  C   UNL     1      11.435  -1.452   2.684  1.00  0.00     0.200 A 
ATOM     81  F   UNL     1       9.887  -3.129   3.291  1.00  0.00    -0.200 F 
ATOM     82  F   UNL     1      11.702  -1.210   3.975  1.00  0.00    -0.200 F 
ENDBRANCH  48  72
BRANCH  60  83
ATOM     83  C   UNL     1      14.863  -4.684  -5.078  1.00  0.00     0.064 A 
ATOM     84  C   UNL     1      15.279  -5.872  -4.460  1.00  0.00     0.173 A 
ATOM     85  C   UNL     1      15.821  -3.935  -5.778  1.00  0.00     0.173 A 
ATOM     86  F   UNL     1      14.403  -6.615  -3.768  1.00  0.00    -0.203 F 
ATOM     87  C   UNL     1      16.608  -6.282  -4.522  1.00  0.00     0.198 A 
ATOM     88  C   UNL     1      17.143  -4.362  -5.861  1.00  0.00     0.198 A 
ATOM     89  F   UNL     1      15.472  -2.795  -6.393  1.00  0.00    -0.203 F 
ATOM     90  F   UNL     1      16.993  -7.398  -3.888  1.00  0.00    -0.200 F 
ATOM     91  C   UNL     1      17.537  -5.531  -5.228  1.00  0.00     0.200 A 
ATOM     92  F   UNL     1      18.037  -3.642  -6.554  1.00  0.00    -0.200 F 
ATOM     93  F   UNL     1      18.814  -5.931  -5.292  1.00  0.00    -0.200 F 
ENDBRANCH  60  83
ENDBRANCH  34  35
ENDBRANCH  27  29
ENDBRANCH  26  27
ENDBRANCH  25  26
ENDBRANCH  24  25
ENDBRANCH  23  24
ENDBRANCH  22  23
ENDBRANCH   1  22
TORSDOF 19
