REMARK SMILES CCc1nc2sc(C(=O)NCC(=O)OCCOCCOC(=O)c3ccc(-c4c5nc(c(-c6c(F)c(F)c(F)c(F)c6F)c6ccc([nH]6)c(-c6c(F)c(F)c(F)c(F)c6F)c6nc(c(-c7c(F)c(F)c(F)c(F)c7F)c7ccc4[nH]7)C=C6)C=C5)cc3)c(N)c2c(C(F)(F)F)c1C
REMARK SMILES IDX 16 1 15 2 14 3 12 4 13 5 11 6 10 7 8 8 9 9 7 11 3 12 4 13
REMARK SMILES IDX 94 14 5 15 89 16 95 17 6 18 88 19 86 20 2 21 1 22 90 23
REMARK SMILES IDX 91 24 92 25 93 26 87 27 17 30 18 31 19 32 20 33 21 34 22 35
REMARK SMILES IDX 23 36 24 37 85 38 25 39 84 40 26 41 27 42 28 43 78 44 29 45
REMARK SMILES IDX 83 46 77 47 79 48 30 49 82 50 76 51 75 52 31 54 63 55 43 56
REMARK SMILES IDX 62 57 44 58 47 59 61 60 80 61 45 62 46 63 60 65 81 66 48 67
REMARK SMILES IDX 32 68 33 69 41 70 34 71 35 72 39 73 42 74 36 75 37 76 40 77
REMARK SMILES IDX 38 78 64 79 65 80 73 81 66 82 67 83 71 84 74 85 68 86 69 87
REMARK SMILES IDX 72 88 70 89 49 90 50 91 58 92 51 93 52 94 56 95 59 96 53 97
REMARK SMILES IDX 54 98 57 99 55 100
REMARK H PARENT 10 10 87 28 87 29 79 53 47 64
REMARK Flexibility Score: inf
ROOT
ATOM      1  C   UNL     1       6.892  -4.884  -8.823  1.00  0.00     0.202 C 
ENDROOT
BRANCH   1   2
ATOM      2  C   UNL     1       6.030  -4.123  -7.811  1.00  0.00     0.261 C 
BRANCH   2   3
ATOM      3  O   UNL     1       4.742  -4.721  -7.586  1.00  0.00    -0.462 OA
BRANCH   3   4
ATOM      4  C   UNL     1       3.701  -4.066  -8.168  1.00  0.00     0.325 C 
ATOM      5  O   UNL     1       3.821  -3.049  -8.848  1.00  0.00    -0.250 OA
BRANCH   4   6
ATOM      6  C   UNL     1       2.379  -4.831  -8.069  1.00  0.00     0.239 C 
BRANCH   6   7
ATOM      7  N   UNL     1       2.178  -5.704  -6.931  1.00  0.00    -0.340 N 
ATOM      8  C   UNL     1       1.690  -5.458  -5.669  1.00  0.00     0.264 C 
ATOM      9  O   UNL     1       1.442  -6.495  -5.042  1.00  0.00    -0.268 OA
ATOM     10  H   UNL     1       2.438  -6.640  -7.089  1.00  0.00     0.164 HD
BRANCH   8  11
ATOM     11  C   UNL     1       1.501  -4.120  -5.098  1.00  0.00     0.118 A 
ATOM     12  C   UNL     1       0.743  -0.389  -2.289  1.00  0.00     0.045 A 
ATOM     13  N   UNL     1       0.521  -1.723  -2.302  1.00  0.00    -0.242 NA
ATOM     14  C   UNL     1       1.397   0.310  -3.320  1.00  0.00    -0.017 A 
ATOM     15  C   UNL     1       0.945  -2.378  -3.392  1.00  0.00     0.127 A 
ATOM     16  C   UNL     1       1.771  -0.404  -4.490  1.00  0.00     0.073 A 
ATOM     17  C   UNL     1       1.701   1.784  -3.235  1.00  0.00     0.047 C 
ATOM     18  S   UNL     1       0.779  -4.063  -3.517  1.00  0.00    -0.108 S 
ATOM     19  C   UNL     1       1.534  -1.811  -4.500  1.00  0.00     0.048 A 
ATOM     20  C   UNL     1       1.782  -2.822  -5.488  1.00  0.00     0.066 A 
BRANCH  12  21
ATOM     21  C   UNL     1       0.177   0.284  -1.059  1.00  0.00     0.053 C 
ATOM     22  C   UNL     1       0.898  -0.153   0.207  1.00  0.00     0.011 C 
ENDBRANCH  12  21
BRANCH  16  23
ATOM     23  C   UNL     1       2.402   0.253  -5.701  1.00  0.00     0.417 C 
ATOM     24  F   UNL     1       3.626  -0.280  -5.999  1.00  0.00    -0.166 F 
ATOM     25  F   UNL     1       1.646   0.089  -6.829  1.00  0.00    -0.166 F 
ATOM     26  F   UNL     1       2.614   1.593  -5.623  1.00  0.00    -0.166 F 
ENDBRANCH  16  23
BRANCH  20  27
ATOM     27  N   UNL     1       2.284  -2.450  -6.675  1.00  0.00    -0.397 N 
ATOM     28  H   UNL     1       2.463  -3.126  -7.368  1.00  0.00     0.156 HD
ATOM     29  H   UNL     1       2.474  -1.500  -6.853  1.00  0.00     0.156 HD
ENDBRANCH  20  27
ENDBRANCH   8  11
ENDBRANCH   6   7
ENDBRANCH   4   6
ENDBRANCH   3   4
ENDBRANCH   2   3
ENDBRANCH   1   2
BRANCH   1  30
ATOM     30  O   UNL     1       6.489  -5.019 -10.184  1.00  0.00    -0.374 OA
BRANCH  30  31
ATOM     31  C   UNL     1       5.206  -5.489 -10.572  1.00  0.00     0.202 C 
BRANCH  31  32
ATOM     32  C   UNL     1       4.767  -6.914 -10.239  1.00  0.00     0.261 C 
BRANCH  32  33
ATOM     33  O   UNL     1       5.020  -7.261  -8.890  1.00  0.00    -0.460 OA
BRANCH  33  34
ATOM     34  C   UNL     1       6.216  -7.873  -8.733  1.00  0.00     0.338 C 
ATOM     35  O   UNL     1       7.056  -8.080  -9.588  1.00  0.00    -0.246 OA
BRANCH  34  36
ATOM     36  C   UNL     1       6.338  -8.360  -7.353  1.00  0.00     0.060 A 
ATOM     37  C   UNL     1       7.519  -9.054  -7.081  1.00  0.00     0.016 A 
ATOM     38  C   UNL     1       5.175  -8.521  -6.594  1.00  0.00     0.016 A 
ATOM     39  C   UNL     1       7.426 -10.181  -6.306  1.00  0.00     0.010 A 
ATOM     40  C   UNL     1       5.080  -9.648  -5.826  1.00  0.00     0.010 A 
ATOM     41  C   UNL     1       6.165 -10.524  -5.819  1.00  0.00    -0.014 A 
BRANCH  41  42
ATOM     42  C   UNL     1       5.961 -11.870  -5.339  1.00  0.00     0.031 A 
ATOM     43  C   UNL     1       6.388 -12.048  -3.938  1.00  0.00     0.074 A 
ATOM     44  C   UNL     1       5.309 -12.766  -6.106  1.00  0.00     0.049 A 
ATOM     45  N   UNL     1       7.318 -12.818  -3.480  1.00  0.00    -0.248 NA
ATOM     46  C   UNL     1       5.834 -11.109  -2.946  1.00  0.00     0.031 C 
ATOM     47  C   UNL     1       4.641 -12.553  -7.396  1.00  0.00     0.029 A 
ATOM     48  N   UNL     1       4.995 -14.056  -5.816  1.00  0.00    -0.354 N 
ATOM     49  C   UNL     1       7.332 -12.587  -2.110  1.00  0.00     0.074 A 
ATOM     50  C   UNL     1       6.571 -11.390  -1.875  1.00  0.00     0.031 C 
ATOM     51  C   UNL     1       3.807 -13.590  -7.646  1.00  0.00     0.029 A 
ATOM     52  C   UNL     1       3.975 -14.584  -6.604  1.00  0.00     0.049 A 
ATOM     53  H   UNL     1       5.449 -14.573  -5.111  1.00  0.00     0.167 HD
ATOM     54  C   UNL     1       7.728 -13.539  -1.227  1.00  0.00     0.037 A 
ATOM     55  C   UNL     1       3.259 -15.693  -6.284  1.00  0.00     0.037 A 
ATOM     56  C   UNL     1       8.484 -14.582  -1.859  1.00  0.00     0.049 A 
ATOM     57  C   UNL     1       4.055 -16.436  -5.263  1.00  0.00     0.074 A 
ATOM     58  C   UNL     1       9.699 -14.620  -2.514  1.00  0.00     0.029 A 
ATOM     59  N   UNL     1       7.815 -15.721  -2.237  1.00  0.00    -0.354 N 
ATOM     60  N   UNL     1       5.205 -17.000  -5.516  1.00  0.00    -0.248 NA
ATOM     61  C   UNL     1       3.813 -16.104  -3.865  1.00  0.00     0.031 C 
ATOM     62  C   UNL     1       9.503 -15.515  -3.606  1.00  0.00     0.029 A 
ATOM     63  C   UNL     1       8.207 -16.023  -3.518  1.00  0.00     0.049 A 
ATOM     64  H   UNL     1       7.173 -16.228  -1.690  1.00  0.00     0.167 HD
ATOM     65  C   UNL     1       5.988 -16.724  -4.401  1.00  0.00     0.074 A 
ATOM     66  C   UNL     1       5.061 -16.203  -3.400  1.00  0.00     0.031 C 
ATOM     67  C   UNL     1       7.349 -16.663  -4.487  1.00  0.00     0.037 A 
BRANCH  54  68
ATOM     68  C   UNL     1       7.118 -13.666   0.135  1.00  0.00     0.064 A 
ATOM     69  C   UNL     1       7.787 -14.375   1.142  1.00  0.00     0.173 A 
ATOM     70  C   UNL     1       5.778 -13.310   0.412  1.00  0.00     0.173 A 
ATOM     71  F   UNL     1       9.044 -14.804   0.951  1.00  0.00    -0.203 F 
ATOM     72  C   UNL     1       7.152 -14.713   2.340  1.00  0.00     0.198 A 
ATOM     73  C   UNL     1       5.170 -13.588   1.629  1.00  0.00     0.198 A 
ATOM     74  F   UNL     1       4.982 -12.773  -0.523  1.00  0.00    -0.203 F 
ATOM     75  F   UNL     1       7.790 -15.473   3.239  1.00  0.00    -0.200 F 
ATOM     76  C   UNL     1       5.849 -14.311   2.586  1.00  0.00     0.200 A 
ATOM     77  F   UNL     1       3.901 -13.210   1.836  1.00  0.00    -0.200 F 
ATOM     78  F   UNL     1       5.230 -14.664   3.720  1.00  0.00    -0.200 F 
ENDBRANCH  54  68
BRANCH  55  79
ATOM     79  C   UNL     1       1.796 -15.897  -6.443  1.00  0.00     0.064 A 
ATOM     80  C   UNL     1       1.227 -17.176  -6.320  1.00  0.00     0.173 A 
ATOM     81  C   UNL     1       0.896 -14.812  -6.431  1.00  0.00     0.173 A 
ATOM     82  F   UNL     1       2.014 -18.261  -6.275  1.00  0.00    -0.203 F 
ATOM     83  C   UNL     1      -0.154 -17.355  -6.168  1.00  0.00     0.198 A 
ATOM     84  C   UNL     1      -0.480 -14.992  -6.285  1.00  0.00     0.198 A 
ATOM     85  F   UNL     1       1.341 -13.548  -6.462  1.00  0.00    -0.203 F 
ATOM     86  F   UNL     1      -0.655 -18.586  -5.993  1.00  0.00    -0.200 F 
ATOM     87  C   UNL     1      -1.004 -16.262  -6.140  1.00  0.00     0.200 A 
ATOM     88  F   UNL     1      -1.286 -13.922  -6.222  1.00  0.00    -0.200 F 
ATOM     89  F   UNL     1      -2.318 -16.427  -5.931  1.00  0.00    -0.200 F 
ENDBRANCH  55  79
BRANCH  67  90
ATOM     90  C   UNL     1       7.988 -17.088  -5.782  1.00  0.00     0.064 A 
ATOM     91  C   UNL     1       7.800 -16.418  -7.004  1.00  0.00     0.173 A 
ATOM     92  C   UNL     1       8.952 -18.104  -5.749  1.00  0.00     0.173 A 
ATOM     93  F   UNL     1       6.972 -15.370  -7.093  1.00  0.00    -0.203 F 
ATOM     94  C   UNL     1       8.517 -16.775  -8.146  1.00  0.00     0.198 A 
ATOM     95  C   UNL     1       9.693 -18.434  -6.880  1.00  0.00     0.198 A 
ATOM     96  F   UNL     1       9.216 -18.739  -4.597  1.00  0.00    -0.203 F 
ATOM     97  F   UNL     1       8.315 -16.122  -9.300  1.00  0.00    -0.200 F 
ATOM     98  C   UNL     1       9.469 -17.778  -8.080  1.00  0.00     0.200 A 
ATOM     99  F   UNL     1      10.649 -19.369  -6.798  1.00  0.00    -0.200 F 
ATOM    100  F   UNL     1      10.194 -18.092  -9.163  1.00  0.00    -0.200 F 
ENDBRANCH  67  90
ENDBRANCH  41  42
ENDBRANCH  34  36
ENDBRANCH  33  34
ENDBRANCH  32  33
ENDBRANCH  31  32
ENDBRANCH  30  31
ENDBRANCH   1  30
TORSDOF 19
