REMARK SMILES NS(=O)(=O)c1ccc(N2N=C(C(=O)OCCOCCOC(=O)c3ccc(-c4c5nc(c(-c6c(F)c(F)c(F)c(F)c6F)c6ccc([nH]6)c(-c6c(F)c(F)c(F)c(F)c6F)c6nc(c(-c7c(F)c(F)c(F)c(F)c7F)c7ccc4[nH]7)C=C6)C=C5)cc3)C[C@H]2c2ccco2)cc1
REMARK SMILES IDX 16 1 15 2 14 3 12 4 13 5 11 6 9 7 10 8 87 9 86 10 8 11 5 12
REMARK SMILES IDX 6 13 94 14 7 15 93 16 2 17 3 18 4 19 1 20 88 23 89 24 92 25
REMARK SMILES IDX 90 26 91 27 17 28 18 29 19 30 20 31 21 32 22 33 23 34 24 35
REMARK SMILES IDX 85 36 25 37 84 38 26 39 27 40 28 41 78 42 29 43 83 44 77 45
REMARK SMILES IDX 79 46 30 47 82 48 76 49 75 50 31 52 63 53 43 54 62 55 44 56
REMARK SMILES IDX 47 57 61 58 80 59 45 60 46 61 60 63 81 64 48 65 32 66 33 67
REMARK SMILES IDX 41 68 34 69 35 70 39 71 42 72 36 73 37 74 40 75 38 76 64 77
REMARK SMILES IDX 65 78 73 79 66 80 67 81 71 82 74 83 68 84 69 85 72 86 70 87
REMARK SMILES IDX 49 88 50 89 58 90 51 91 52 92 56 93 59 94 53 95 54 96 57 97
REMARK SMILES IDX 55 98
REMARK H PARENT 1 21 1 22 79 51 47 62
REMARK Flexibility Score: inf
ROOT
ATOM      1  C   UNL     1       6.762  10.233  -3.467  1.00  0.00     0.202 C 
ENDROOT
BRANCH   1   2
ATOM      2  C   UNL     1       5.315  10.530  -3.867  1.00  0.00     0.261 C 
BRANCH   2   3
ATOM      3  O   UNL     1       4.408   9.925  -2.935  1.00  0.00    -0.459 OA
BRANCH   3   4
ATOM      4  C   UNL     1       3.466   9.137  -3.494  1.00  0.00     0.354 C 
ATOM      5  O   UNL     1       3.148   9.066  -4.665  1.00  0.00    -0.245 OA
BRANCH   4   6
ATOM      6  C   UNL     1       2.912   8.215  -2.440  1.00  0.00     0.148 C 
ATOM      7  N   UNL     1       2.228   6.454  -1.483  1.00  0.00    -0.254 N 
ATOM      8  N   UNL     1       2.801   6.935  -2.625  1.00  0.00    -0.169 NA
ATOM      9  C   UNL     1       1.682   7.530  -0.636  1.00  0.00     0.180 C 
ATOM     10  C   UNL     1       2.564   8.712  -1.074  1.00  0.00     0.101 C 
BRANCH   7  11
ATOM     11  C   UNL     1       1.808   5.133  -1.480  1.00  0.00     0.060 A 
ATOM     12  C   UNL     1       1.052   2.427  -1.567  1.00  0.00     0.082 A 
ATOM     13  C   UNL     1       2.323   2.775  -1.107  1.00  0.00     0.024 A 
ATOM     14  C   UNL     1       0.158   3.410  -1.988  1.00  0.00     0.024 A 
ATOM     15  C   UNL     1       2.692   4.124  -1.068  1.00  0.00     0.029 A 
ATOM     16  C   UNL     1       0.548   4.752  -1.960  1.00  0.00     0.029 A 
BRANCH  12  17
ATOM     17  S   UNL     1       0.568   0.730  -1.638  1.00  0.00     0.238 S 
ATOM     18  O   UNL     1       1.327   0.072  -2.673  1.00  0.00    -0.207 OA
ATOM     19  O   UNL     1      -0.873   0.645  -1.548  1.00  0.00    -0.207 OA
BRANCH  17  20
ATOM     20  N   UNL     1       1.126   0.103  -0.180  1.00  0.00    -0.225 NA
ATOM     21  H   UNL     1       0.891  -0.888  -0.124  1.00  0.00     0.137 HD
ATOM     22  H   UNL     1       0.686   0.601   0.595  1.00  0.00     0.137 HD
ENDBRANCH  17  20
ENDBRANCH  12  17
ENDBRANCH   7  11
BRANCH   9  23
ATOM     23  C   UNL     1       0.217   7.848  -0.775  1.00  0.00     0.128 A 
ATOM     24  C   UNL     1      -0.925   7.260  -0.266  1.00  0.00     0.048 A 
ATOM     25  O   UNL     1      -0.132   8.927  -1.541  1.00  0.00    -0.467 OA
ATOM     26  C   UNL     1      -2.022   8.003  -0.767  1.00  0.00     0.042 A 
ATOM     27  C   UNL     1      -1.484   9.015  -1.525  1.00  0.00     0.195 A 
ENDBRANCH   9  23
ENDBRANCH   4   6
ENDBRANCH   3   4
ENDBRANCH   2   3
ENDBRANCH   1   2
BRANCH   1  28
ATOM     28  O   UNL     1       7.135   8.857  -3.458  1.00  0.00    -0.374 OA
BRANCH  28  29
ATOM     29  C   UNL     1       6.713   8.059  -2.350  1.00  0.00     0.202 C 
BRANCH  29  30
ATOM     30  C   UNL     1       7.498   8.236  -1.044  1.00  0.00     0.261 C 
BRANCH  30  31
ATOM     31  O   UNL     1       7.353   9.557  -0.488  1.00  0.00    -0.460 OA
BRANCH  31  32
ATOM     32  C   UNL     1       8.482  10.308  -0.515  1.00  0.00     0.338 C 
ATOM     33  O   UNL     1       9.593   9.965  -0.880  1.00  0.00    -0.246 OA
BRANCH  32  34
ATOM     34  C   UNL     1       8.165  11.712  -0.188  1.00  0.00     0.060 A 
ATOM     35  C   UNL     1       8.568  12.695  -1.102  1.00  0.00     0.016 A 
ATOM     36  C   UNL     1       7.567  12.071   1.021  1.00  0.00     0.016 A 
ATOM     37  C   UNL     1       8.414  14.044  -0.789  1.00  0.00     0.010 A 
ATOM     38  C   UNL     1       7.420  13.427   1.336  1.00  0.00     0.010 A 
ATOM     39  C   UNL     1       7.872  14.420   0.447  1.00  0.00    -0.014 A 
BRANCH  39  40
ATOM     40  C   UNL     1       7.902  15.846   0.855  1.00  0.00     0.031 A 
ATOM     41  C   UNL     1       8.976  16.321   1.794  1.00  0.00     0.074 A 
ATOM     42  C   UNL     1       7.003  16.718   0.366  1.00  0.00     0.049 A 
ATOM     43  N   UNL     1       9.184  17.517   2.285  1.00  0.00    -0.248 NA
ATOM     44  C   UNL     1       9.947  15.310   2.242  1.00  0.00     0.031 C 
ATOM     45  C   UNL     1       5.936  16.389  -0.576  1.00  0.00     0.029 A 
ATOM     46  N   UNL     1       6.847  18.062   0.598  1.00  0.00    -0.354 N 
ATOM     47  C   UNL     1      10.304  17.403   3.099  1.00  0.00     0.074 A 
ATOM     48  C   UNL     1      10.711  16.014   3.064  1.00  0.00     0.031 C 
ATOM     49  C   UNL     1       5.229  17.502  -0.838  1.00  0.00     0.029 A 
ATOM     50  C   UNL     1       5.777  18.613  -0.062  1.00  0.00     0.049 A 
ATOM     51  H   UNL     1       7.445  18.582   1.183  1.00  0.00     0.167 HD
ATOM     52  C   UNL     1      10.942  18.370   3.801  1.00  0.00     0.037 A 
ATOM     53  C   UNL     1       5.287  19.867  -0.029  1.00  0.00     0.037 A 
ATOM     54  C   UNL     1      10.538  19.752   3.833  1.00  0.00     0.049 A 
ATOM     55  C   UNL     1       5.975  20.910   0.813  1.00  0.00     0.074 A 
ATOM     56  C   UNL     1      11.135  20.811   4.494  1.00  0.00     0.029 A 
ATOM     57  N   UNL     1       9.426  20.265   3.181  1.00  0.00    -0.354 N 
ATOM     58  N   UNL     1       7.051  20.801   1.553  1.00  0.00    -0.248 NA
ATOM     59  C   UNL     1       5.379  22.254   0.821  1.00  0.00     0.031 C 
ATOM     60  C   UNL     1      10.355  21.954   4.285  1.00  0.00     0.029 A 
ATOM     61  C   UNL     1       9.303  21.619   3.449  1.00  0.00     0.049 A 
ATOM     62  H   UNL     1       8.815  19.743   2.612  1.00  0.00     0.167 HD
ATOM     63  C   UNL     1       7.277  22.062   2.091  1.00  0.00     0.074 A 
ATOM     64  C   UNL     1       6.233  22.925   1.579  1.00  0.00     0.031 C 
ATOM     65  C   UNL     1       8.259  22.468   2.933  1.00  0.00     0.037 A 
BRANCH  52  66
ATOM     66  C   UNL     1      12.136  17.961   4.613  1.00  0.00     0.064 A 
ATOM     67  C   UNL     1      13.350  17.599   4.010  1.00  0.00     0.173 A 
ATOM     68  C   UNL     1      12.075  17.962   6.015  1.00  0.00     0.173 A 
ATOM     69  F   UNL     1      13.457  17.569   2.674  1.00  0.00    -0.203 F 
ATOM     70  C   UNL     1      14.449  17.227   4.780  1.00  0.00     0.198 A 
ATOM     71  C   UNL     1      13.184  17.618   6.782  1.00  0.00     0.198 A 
ATOM     72  F   UNL     1      10.939  18.305   6.642  1.00  0.00    -0.203 F 
ATOM     73  F   UNL     1      15.584  16.838   4.182  1.00  0.00    -0.200 F 
ATOM     74  C   UNL     1      14.368  17.243   6.165  1.00  0.00     0.200 A 
ATOM     75  F   UNL     1      13.107  17.645   8.120  1.00  0.00    -0.200 F 
ATOM     76  F   UNL     1      15.428  16.890   6.904  1.00  0.00    -0.200 F 
ENDBRANCH  52  66
BRANCH  53  77
ATOM     77  C   UNL     1       4.073  20.210  -0.816  1.00  0.00     0.064 A 
ATOM     78  C   UNL     1       4.145  21.073  -1.918  1.00  0.00     0.173 A 
ATOM     79  C   UNL     1       2.815  19.697  -0.469  1.00  0.00     0.173 A 
ATOM     80  F   UNL     1       5.322  21.610  -2.272  1.00  0.00    -0.203 F 
ATOM     81  C   UNL     1       3.001  21.423  -2.633  1.00  0.00     0.198 A 
ATOM     82  C   UNL     1       1.676  20.025  -1.202  1.00  0.00     0.198 A 
ATOM     83  F   UNL     1       2.692  18.869   0.579  1.00  0.00    -0.203 F 
ATOM     84  F   UNL     1       3.091  22.287  -3.654  1.00  0.00    -0.200 F 
ATOM     85  C   UNL     1       1.769  20.894  -2.279  1.00  0.00     0.200 A 
ATOM     86  F   UNL     1       0.490  19.503  -0.863  1.00  0.00    -0.200 F 
ATOM     87  F   UNL     1       0.670  21.229  -2.968  1.00  0.00    -0.200 F 
ENDBRANCH  53  77
BRANCH  65  88
ATOM     88  C   UNL     1       8.270  23.916   3.332  1.00  0.00     0.064 A 
ATOM     89  C   UNL     1       7.306  24.448   4.201  1.00  0.00     0.173 A 
ATOM     90  C   UNL     1       9.275  24.776   2.863  1.00  0.00     0.173 A 
ATOM     91  F   UNL     1       6.315  23.672   4.666  1.00  0.00    -0.203 F 
ATOM     92  C   UNL     1       7.331  25.793   4.563  1.00  0.00     0.198 A 
ATOM     93  C   UNL     1       9.316  26.112   3.252  1.00  0.00     0.198 A 
ATOM     94  F   UNL     1      10.226  24.317   2.036  1.00  0.00    -0.203 F 
ATOM     95  F   UNL     1       6.370  26.290   5.354  1.00  0.00    -0.200 F 
ATOM     96  C   UNL     1       8.340  26.622   4.095  1.00  0.00     0.200 A 
ATOM     97  F   UNL     1      10.299  26.908   2.809  1.00  0.00    -0.200 F 
ATOM     98  F   UNL     1       8.365  27.914   4.448  1.00  0.00    -0.200 F 
ENDBRANCH  65  88
ENDBRANCH  39  40
ENDBRANCH  32  34
ENDBRANCH  31  32
ENDBRANCH  30  31
ENDBRANCH  29  30
ENDBRANCH  28  29
ENDBRANCH   1  28
TORSDOF 18
