REMARK SMILES Cc1ccc2oc(CCCC(=O)OCCOCCOC(=O)c3ccc(-c4c5nc(c(-c6c(F)c(F)c(F)c(F)c6F)c6ccc([nH]6)c(-c6c(F)c(F)c(F)c(F)c6F)c6nc(c(-c7c(F)c(F)c(F)c(F)c7F)c7ccc4[nH]7)C=C6)C=C5)cc3)cc(=O)c2c1
REMARK SMILES IDX 15 1 14 2 13 3 11 4 12 5 10 6 9 7 8 8 7 9 1 10 2 11 3 12
REMARK SMILES IDX 89 13 4 14 88 15 5 16 86 17 6 18 85 19 87 20 16 21 17 22
REMARK SMILES IDX 18 23 19 24 20 25 21 26 22 27 23 28 84 29 24 30 83 31 25 32
REMARK SMILES IDX 26 33 27 34 77 35 28 36 82 37 76 38 78 39 29 40 81 41 75 42
REMARK SMILES IDX 74 43 30 45 62 46 42 47 61 48 43 49 46 50 60 51 79 52 44 53
REMARK SMILES IDX 45 54 59 56 80 57 47 58 31 59 32 60 40 61 33 62 34 63 38 64
REMARK SMILES IDX 41 65 35 66 36 67 39 68 37 69 63 70 64 71 72 72 65 73 66 74
REMARK SMILES IDX 70 75 73 76 67 77 68 78 71 79 69 80 48 81 49 82 57 83 50 84
REMARK SMILES IDX 51 85 55 86 58 87 52 88 53 89 56 90 54 91
REMARK H PARENT 78 44 46 55
REMARK Flexibility Score: inf
ROOT
ATOM      1  C   UNL     1       3.455  -5.830  -2.225  1.00  0.00     0.202 C 
ENDROOT
BRANCH   1   2
ATOM      2  C   UNL     1       2.128  -5.345  -1.640  1.00  0.00     0.261 C 
BRANCH   2   3
ATOM      3  O   UNL     1       2.385  -4.319  -0.664  1.00  0.00    -0.463 OA
BRANCH   3   4
ATOM      4  C   UNL     1       1.724  -4.418   0.512  1.00  0.00     0.305 C 
ATOM      5  O   UNL     1       0.821  -5.215   0.738  1.00  0.00    -0.252 OA
BRANCH   4   6
ATOM      6  C   UNL     1       2.217  -3.439   1.560  1.00  0.00     0.123 C 
BRANCH   6   7
ATOM      7  C   UNL     1       3.495  -2.627   1.302  1.00  0.00     0.020 C 
BRANCH   7   8
ATOM      8  C   UNL     1       3.552  -1.705   0.072  1.00  0.00     0.076 C 
BRANCH   8   9
ATOM      9  C   UNL     1       2.357  -0.808  -0.080  1.00  0.00     0.108 A 
ATOM     10  C   UNL     1      -3.820   1.111   0.035  1.00  0.00     0.044 C 
ATOM     11  C   UNL     1      -2.488   0.430  -0.069  1.00  0.00    -0.050 A 
ATOM     12  C   UNL     1      -2.402  -0.966  -0.171  1.00  0.00     0.007 A 
ATOM     13  C   UNL     1      -1.311   1.195  -0.068  1.00  0.00     0.019 A 
ATOM     14  C   UNL     1      -1.160  -1.592  -0.276  1.00  0.00     0.048 A 
ATOM     15  C   UNL     1      -0.071   0.560  -0.156  1.00  0.00     0.065 A 
ATOM     16  C   UNL     1       0.001  -0.824  -0.268  1.00  0.00     0.138 A 
ATOM     17  C   UNL     1       1.187   1.322  -0.092  1.00  0.00     0.192 A 
ATOM     18  O   UNL     1       1.189  -1.495  -0.364  1.00  0.00    -0.461 OA
ATOM     19  C   UNL     1       2.424   0.527   0.024  1.00  0.00     0.095 A 
ATOM     20  O   UNL     1       1.219   2.545  -0.088  1.00  0.00    -0.289 OA
ENDBRANCH   8   9
ENDBRANCH   7   8
ENDBRANCH   6   7
ENDBRANCH   4   6
ENDBRANCH   3   4
ENDBRANCH   2   3
ENDBRANCH   1   2
BRANCH   1  21
ATOM     21  O   UNL     1       4.264  -6.607  -1.339  1.00  0.00    -0.374 OA
BRANCH  21  22
ATOM     22  C   UNL     1       4.936  -5.912  -0.290  1.00  0.00     0.202 C 
BRANCH  22  23
ATOM     23  C   UNL     1       6.250  -5.224  -0.679  1.00  0.00     0.261 C 
BRANCH  23  24
ATOM     24  O   UNL     1       6.064  -4.204  -1.676  1.00  0.00    -0.460 OA
BRANCH  24  25
ATOM     25  C   UNL     1       6.547  -4.521  -2.900  1.00  0.00     0.338 C 
ATOM     26  O   UNL     1       7.182  -5.523  -3.210  1.00  0.00    -0.246 OA
BRANCH  25  27
ATOM     27  C   UNL     1       6.077  -3.557  -3.910  1.00  0.00     0.060 A 
ATOM     28  C   UNL     1       5.482  -4.077  -5.067  1.00  0.00     0.016 A 
ATOM     29  C   UNL     1       6.288  -2.183  -3.779  1.00  0.00     0.016 A 
ATOM     30  C   UNL     1       5.143  -3.231  -6.120  1.00  0.00     0.010 A 
ATOM     31  C   UNL     1       5.953  -1.334  -4.842  1.00  0.00     0.010 A 
ATOM     32  C   UNL     1       5.412  -1.859  -6.030  1.00  0.00    -0.014 A 
BRANCH  32  33
ATOM     33  C   UNL     1       5.258  -1.007  -7.234  1.00  0.00     0.031 A 
ATOM     34  C   UNL     1       6.470  -0.683  -8.063  1.00  0.00     0.074 A 
ATOM     35  C   UNL     1       4.047  -0.558  -7.609  1.00  0.00     0.049 A 
ATOM     36  N   UNL     1       6.569   0.057  -9.139  1.00  0.00    -0.248 NA
ATOM     37  C   UNL     1       7.742  -1.277  -7.622  1.00  0.00     0.031 C 
ATOM     38  C   UNL     1       2.792  -0.837  -6.916  1.00  0.00     0.029 A 
ATOM     39  N   UNL     1       3.679   0.235  -8.668  1.00  0.00    -0.354 N 
ATOM     40  C   UNL     1       7.910   0.022  -9.499  1.00  0.00     0.074 A 
ATOM     41  C   UNL     1       8.592  -0.790  -8.514  1.00  0.00     0.031 C 
ATOM     42  C   UNL     1       1.790  -0.216  -7.562  1.00  0.00     0.029 A 
ATOM     43  C   UNL     1       2.339   0.528  -8.695  1.00  0.00     0.049 A 
ATOM     44  H   UNL     1       4.317   0.562  -9.344  1.00  0.00     0.167 HD
ATOM     45  C   UNL     1       8.515   0.605 -10.561  1.00  0.00     0.037 A 
ATOM     46  C   UNL     1       1.640   1.325  -9.526  1.00  0.00     0.037 A 
ATOM     47  C   UNL     1       7.838   1.409 -11.543  1.00  0.00     0.049 A 
ATOM     48  C   UNL     1       2.352   2.027 -10.654  1.00  0.00     0.074 A 
ATOM     49  C   UNL     1       8.361   2.021 -12.669  1.00  0.00     0.029 A 
ATOM     50  N   UNL     1       6.487   1.721 -11.511  1.00  0.00    -0.354 N 
ATOM     51  N   UNL     1       3.613   1.966 -11.004  1.00  0.00    -0.248 NA
ATOM     52  C   UNL     1       1.538   2.910 -11.503  1.00  0.00     0.031 C 
ATOM     53  C   UNL     1       7.337   2.743 -13.291  1.00  0.00     0.029 A 
ATOM     54  C   UNL     1       6.165   2.542 -12.580  1.00  0.00     0.049 A 
ATOM     55  H   UNL     1       5.850   1.406 -10.829  1.00  0.00     0.167 HD
ATOM     56  C   UNL     1       3.741   2.782 -12.120  1.00  0.00     0.074 A 
ATOM     57  C   UNL     1       2.425   3.316 -12.401  1.00  0.00     0.031 C 
ATOM     58  C   UNL     1       4.850   3.065 -12.848  1.00  0.00     0.037 A 
BRANCH  45  59
ATOM     59  C   UNL     1       9.996   0.414 -10.704  1.00  0.00     0.064 A 
ATOM     60  C   UNL     1      10.544  -0.814 -11.104  1.00  0.00     0.173 A 
ATOM     61  C   UNL     1      10.874   1.483 -10.473  1.00  0.00     0.173 A 
ATOM     62  F   UNL     1       9.747  -1.870 -11.324  1.00  0.00    -0.203 F 
ATOM     63  C   UNL     1      11.921  -0.969 -11.247  1.00  0.00     0.198 A 
ATOM     64  C   UNL     1      12.248   1.331 -10.641  1.00  0.00     0.198 A 
ATOM     65  F   UNL     1      10.399   2.678 -10.091  1.00  0.00    -0.203 F 
ATOM     66  F   UNL     1      12.427  -2.162 -11.591  1.00  0.00    -0.200 F 
ATOM     67  C   UNL     1      12.770   0.104 -11.022  1.00  0.00     0.200 A 
ATOM     68  F   UNL     1      13.066   2.371 -10.433  1.00  0.00    -0.200 F 
ATOM     69  F   UNL     1      14.094  -0.046 -11.165  1.00  0.00    -0.200 F 
ENDBRANCH  45  59
BRANCH  46  70
ATOM     70  C   UNL     1       0.183   1.522  -9.314  1.00  0.00     0.064 A 
ATOM     71  C   UNL     1      -0.756   1.012 -10.220  1.00  0.00     0.173 A 
ATOM     72  C   UNL     1      -0.298   2.241  -8.210  1.00  0.00     0.173 A 
ATOM     73  F   UNL     1      -0.343   0.342 -11.306  1.00  0.00    -0.203 F 
ATOM     74  C   UNL     1      -2.121   1.226 -10.038  1.00  0.00     0.198 A 
ATOM     75  C   UNL     1      -1.664   2.432  -8.014  1.00  0.00     0.198 A 
ATOM     76  F   UNL     1       0.561   2.754  -7.317  1.00  0.00    -0.203 F 
ATOM     77  F   UNL     1      -2.996   0.766 -10.942  1.00  0.00    -0.200 F 
ATOM     78  C   UNL     1      -2.574   1.931  -8.932  1.00  0.00     0.200 A 
ATOM     79  F   UNL     1      -2.097   3.106  -6.941  1.00  0.00    -0.200 F 
ATOM     80  F   UNL     1      -3.886   2.135  -8.757  1.00  0.00    -0.200 F 
ENDBRANCH  46  70
BRANCH  58  81
ATOM     81  C   UNL     1       4.687   3.974 -14.031  1.00  0.00     0.064 A 
ATOM     82  C   UNL     1       4.476   5.352 -13.874  1.00  0.00     0.173 A 
ATOM     83  C   UNL     1       4.785   3.469 -15.336  1.00  0.00     0.173 A 
ATOM     84  F   UNL     1       4.360   5.881 -12.646  1.00  0.00    -0.203 F 
ATOM     85  C   UNL     1       4.348   6.187 -14.981  1.00  0.00     0.198 A 
ATOM     86  C   UNL     1       4.684   4.310 -16.440  1.00  0.00     0.198 A 
ATOM     87  F   UNL     1       4.993   2.159 -15.540  1.00  0.00    -0.203 F 
ATOM     88  F   UNL     1       4.105   7.493 -14.808  1.00  0.00    -0.200 F 
ATOM     89  C   UNL     1       4.460   5.667 -16.262  1.00  0.00     0.200 A 
ATOM     90  F   UNL     1       4.805   3.809 -17.677  1.00  0.00    -0.200 F 
ATOM     91  F   UNL     1       4.344   6.473 -17.326  1.00  0.00    -0.200 F 
ENDBRANCH  58  81
ENDBRANCH  32  33
ENDBRANCH  25  27
ENDBRANCH  24  25
ENDBRANCH  23  24
ENDBRANCH  22  23
ENDBRANCH  21  22
ENDBRANCH   1  21
TORSDOF 17
