REMARK SMILES O=C(NC(=S)Nc1ccccc1C(=O)OCCOCCOC(=O)c1ccc(-c2c3nc(c(-c4c(F)c(F)c(F)c(F)c4F)c4ccc([nH]4)c(-c4c(F)c(F)c(F)c(F)c4F)c4nc(c(-c5c(F)c(F)c(F)c(F)c5F)c5ccc2[nH]5)C=C4)C=C3)cc1)c1ccc2ccccc2c1
REMARK SMILES IDX 17 1 16 2 15 3 13 4 14 5 12 6 7 7 8 8 9 9 11 10 10 11 6 12
REMARK SMILES IDX 4 14 5 15 3 16 1 17 2 18 87 20 88 21 96 22 89 23 95 24 90 25
REMARK SMILES IDX 94 26 91 27 93 28 92 29 18 30 19 31 20 32 21 33 22 34 23 35
REMARK SMILES IDX 24 36 25 37 86 38 26 39 85 40 27 41 28 42 29 43 79 44 30 45
REMARK SMILES IDX 84 46 78 47 80 48 31 49 83 50 77 51 76 52 32 54 64 55 44 56
REMARK SMILES IDX 63 57 45 58 48 59 62 60 81 61 46 62 47 63 61 65 82 66 49 67
REMARK SMILES IDX 33 68 34 69 42 70 35 71 36 72 40 73 43 74 37 75 38 76 41 77
REMARK SMILES IDX 39 78 65 79 66 80 74 81 67 82 68 83 72 84 75 85 69 86 70 87
REMARK SMILES IDX 73 88 71 89 50 90 51 91 59 92 52 93 53 94 57 95 60 96 54 97
REMARK SMILES IDX 55 98 58 99 56 100
REMARK H PARENT 6 13 3 19 80 53 48 64
REMARK Flexibility Score: inf
ROOT
ATOM      1  C   UNL     1       2.916   2.966   3.025  1.00  0.00     0.202 C 
ENDROOT
BRANCH   1   2
ATOM      2  C   UNL     1       3.481   1.706   2.322  1.00  0.00     0.261 C 
BRANCH   2   3
ATOM      3  O   UNL     1       4.160   1.760   1.031  1.00  0.00    -0.460 OA
BRANCH   3   4
ATOM      4  C   UNL     1       3.251   1.807   0.010  1.00  0.00     0.340 C 
ATOM      5  O   UNL     1       2.135   2.221   0.303  1.00  0.00    -0.246 OA
BRANCH   4   6
ATOM      6  C   UNL     1       3.691   1.017  -1.433  1.00  0.00     0.083 A 
ATOM      7  C   UNL     1       4.821  -0.303  -0.939  1.00  0.00     0.055 A 
ATOM      8  C   UNL     1       5.238  -1.585  -2.104  1.00  0.00     0.027 A 
ATOM      9  C   UNL     1       4.522  -1.699  -3.728  1.00  0.00     0.002 A 
ATOM     10  C   UNL     1       2.894   0.834  -3.299  1.00  0.00     0.018 A 
ATOM     11  C   UNL     1       3.371  -0.539  -4.352  1.00  0.00     0.001 A 
BRANCH   7  12
ATOM     12  N   UNL     1       4.696  -0.854   0.344  1.00  0.00    -0.332 N 
ATOM     13  H   UNL     1       5.533  -0.956   0.852  1.00  0.00     0.169 HD
BRANCH  12  14
ATOM     14  C   UNL     1       3.567  -1.265   0.973  1.00  0.00     0.177 C 
ATOM     15  S   UNL     1       3.801  -2.162   2.378  1.00  0.00    -0.040 S 
BRANCH  14  16
ATOM     16  N   UNL     1       2.241  -1.036   0.570  1.00  0.00    -0.299 N 
ATOM     17  O   UNL     1       0.090  -0.448  -0.081  1.00  0.00    -0.269 OA
ATOM     18  C   UNL     1       1.285  -0.450  -0.361  1.00  0.00     0.257 C 
ATOM     19  H   UNL     1       1.689  -1.494   1.244  1.00  0.00     0.172 HD
BRANCH  18  20
ATOM     20  C   UNL     1       1.743   0.160  -1.639  1.00  0.00     0.040 A 
ATOM     21  C   UNL     1       3.187  -0.681  -2.207  1.00  0.00     0.014 A 
ATOM     22  C   UNL     1       1.684   1.934  -1.917  1.00  0.00     0.022 A 
ATOM     23  C   UNL     1       4.705   0.415  -2.957  1.00  0.00     0.009 A 
ATOM     24  C   UNL     1       3.061   2.923  -2.584  1.00  0.00    -0.018 A 
ATOM     25  C   UNL     1       4.545   2.172  -3.136  1.00  0.00    -0.018 A 
ATOM     26  C   UNL     1       3.107   4.311  -2.760  1.00  0.00     0.009 A 
ATOM     27  C   UNL     1       5.491   2.920  -3.821  1.00  0.00     0.009 A 
ATOM     28  C   UNL     1       4.176   4.950  -3.446  1.00  0.00     0.001 A 
ATOM     29  C   UNL     1       5.288   4.280  -3.998  1.00  0.00     0.001 A 
ENDBRANCH  18  20
ENDBRANCH  14  16
ENDBRANCH  12  14
ENDBRANCH   7  12
ENDBRANCH   4   6
ENDBRANCH   3   4
ENDBRANCH   2   3
ENDBRANCH   1   2
BRANCH   1  30
ATOM     30  O   UNL     1       2.506   4.139   2.360  1.00  0.00    -0.374 OA
BRANCH  30  31
ATOM     31  C   UNL     1       3.309   4.741   1.368  1.00  0.00     0.202 C 
BRANCH  31  32
ATOM     32  C   UNL     1       4.838   4.844   1.486  1.00  0.00     0.261 C 
BRANCH  32  33
ATOM     33  O   UNL     1       5.502   3.888   2.320  1.00  0.00    -0.460 OA
BRANCH  33  34
ATOM     34  C   UNL     1       5.743   4.310   3.582  1.00  0.00     0.338 C 
ATOM     35  O   UNL     1       5.458   5.391   4.069  1.00  0.00    -0.246 OA
BRANCH  34  36
ATOM     36  C   UNL     1       6.289   3.197   4.382  1.00  0.00     0.060 A 
ATOM     37  C   UNL     1       5.601   2.823   5.544  1.00  0.00     0.016 A 
ATOM     38  C   UNL     1       7.512   2.607   4.060  1.00  0.00     0.016 A 
ATOM     39  C   UNL     1       6.167   1.906   6.422  1.00  0.00     0.010 A 
ATOM     40  C   UNL     1       8.088   1.698   4.953  1.00  0.00     0.010 A 
ATOM     41  C   UNL     1       7.439   1.382   6.160  1.00  0.00    -0.014 A 
BRANCH  41  42
ATOM     42  C   UNL     1       8.136   0.641   7.239  1.00  0.00     0.031 A 
ATOM     43  C   UNL     1       9.192   1.343   8.049  1.00  0.00     0.074 A 
ATOM     44  C   UNL     1       7.771  -0.616   7.545  1.00  0.00     0.049 A 
ATOM     45  N   UNL     1       9.898   0.902   9.059  1.00  0.00    -0.248 NA
ATOM     46  C   UNL     1       9.493   2.733   7.669  1.00  0.00     0.031 C 
ATOM     47  C   UNL     1       6.733  -1.381   6.859  1.00  0.00     0.029 A 
ATOM     48  N   UNL     1       8.230  -1.464   8.521  1.00  0.00    -0.354 N 
ATOM     49  C   UNL     1      10.728   1.953   9.430  1.00  0.00     0.074 A 
ATOM     50  C   UNL     1      10.465   3.042   8.514  1.00  0.00     0.031 C 
ATOM     51  C   UNL     1       6.630  -2.589   7.437  1.00  0.00     0.029 A 
ATOM     52  C   UNL     1       7.618  -2.692   8.510  1.00  0.00     0.049 A 
ATOM     53  H   UNL     1       8.930  -1.216   9.166  1.00  0.00     0.167 HD
ATOM     54  C   UNL     1      11.620   2.007  10.448  1.00  0.00     0.037 A 
ATOM     55  C   UNL     1       7.843  -3.780   9.270  1.00  0.00     0.037 A 
ATOM     56  C   UNL     1      11.874   0.918  11.358  1.00  0.00     0.049 A 
ATOM     57  C   UNL     1       8.885  -3.713  10.357  1.00  0.00     0.074 A 
ATOM     58  C   UNL     1      12.742   0.878  12.435  1.00  0.00     0.029 A 
ATOM     59  N   UNL     1      11.268  -0.328  11.289  1.00  0.00    -0.354 N 
ATOM     60  N   UNL     1       9.647  -2.709  10.719  1.00  0.00    -0.248 NA
ATOM     61  C   UNL     1       9.090  -4.934  11.148  1.00  0.00     0.031 C 
ATOM     62  C   UNL     1      12.712  -0.413  12.974  1.00  0.00     0.029 A 
ATOM     63  C   UNL     1      11.769  -1.156  12.282  1.00  0.00     0.049 A 
ATOM     64  H   UNL     1      10.583  -0.587  10.631  1.00  0.00     0.167 HD
ATOM     65  C   UNL     1      10.399  -3.166  11.794  1.00  0.00     0.074 A 
ATOM     66  C   UNL     1       9.981  -4.530  12.041  1.00  0.00     0.031 C 
ATOM     67  C   UNL     1      11.350  -2.517  12.512  1.00  0.00     0.037 A 
BRANCH  54  68
ATOM     68  C   UNL     1      12.415   3.272  10.613  1.00  0.00     0.064 A 
ATOM     69  C   UNL     1      11.825   4.476  11.029  1.00  0.00     0.173 A 
ATOM     70  C   UNL     1      13.800   3.271  10.381  1.00  0.00     0.173 A 
ATOM     71  F   UNL     1      10.504   4.539  11.253  1.00  0.00    -0.203 F 
ATOM     72  C   UNL     1      12.585   5.635  11.178  1.00  0.00     0.198 A 
ATOM     73  C   UNL     1      14.562   4.422  10.565  1.00  0.00     0.198 A 
ATOM     74  F   UNL     1      14.419   2.148   9.985  1.00  0.00    -0.203 F 
ATOM     75  F   UNL     1      11.990   6.784  11.525  1.00  0.00    -0.200 F 
ATOM     76  C   UNL     1      13.953   5.605  10.954  1.00  0.00     0.200 A 
ATOM     77  F   UNL     1      15.887   4.386  10.363  1.00  0.00    -0.200 F 
ATOM     78  F   UNL     1      14.684   6.718  11.107  1.00  0.00    -0.200 F 
ENDBRANCH  54  68
BRANCH  55  79
ATOM     79  C   UNL     1       7.076  -5.029   9.023  1.00  0.00     0.064 A 
ATOM     80  C   UNL     1       6.176  -5.532   9.972  1.00  0.00     0.173 A 
ATOM     81  C   UNL     1       7.244  -5.758   7.835  1.00  0.00     0.173 A 
ATOM     82  F   UNL     1       5.998  -4.888  11.134  1.00  0.00    -0.203 F 
ATOM     83  C   UNL     1       5.492  -6.727   9.753  1.00  0.00     0.198 A 
ATOM     84  C   UNL     1       6.534  -6.933   7.602  1.00  0.00     0.198 A 
ATOM     85  F   UNL     1       8.096  -5.323   6.894  1.00  0.00    -0.203 F 
ATOM     86  F   UNL     1       4.681  -7.215  10.702  1.00  0.00    -0.200 F 
ATOM     87  C   UNL     1       5.666  -7.422   8.566  1.00  0.00     0.200 A 
ATOM     88  F   UNL     1       6.696  -7.593   6.448  1.00  0.00    -0.200 F 
ATOM     89  F   UNL     1       5.006  -8.569   8.356  1.00  0.00    -0.200 F 
ENDBRANCH  55  79
BRANCH  67  90
ATOM     90  C   UNL     1      11.977  -3.269  13.655  1.00  0.00     0.064 A 
ATOM     91  C   UNL     1      12.803  -4.384  13.445  1.00  0.00     0.173 A 
ATOM     92  C   UNL     1      11.748  -2.868  14.981  1.00  0.00     0.173 A 
ATOM     93  F   UNL     1      13.049  -4.818  12.199  1.00  0.00    -0.203 F 
ATOM     94  C   UNL     1      13.330  -5.099  14.518  1.00  0.00     0.198 A 
ATOM     95  C   UNL     1      12.311  -3.560  16.050  1.00  0.00     0.198 A 
ATOM     96  F   UNL     1      10.977  -1.801  15.242  1.00  0.00    -0.203 F 
ATOM     97  F   UNL     1      14.051  -6.206  14.293  1.00  0.00    -0.200 F 
ATOM     98  C   UNL     1      13.088  -4.684  15.818  1.00  0.00     0.200 A 
ATOM     99  F   UNL     1      12.091  -3.144  17.305  1.00  0.00    -0.200 F 
ATOM    100  F   UNL     1      13.593  -5.375  16.849  1.00  0.00    -0.200 F 
ENDBRANCH  67  90
ENDBRANCH  41  42
ENDBRANCH  34  36
ENDBRANCH  33  34
ENDBRANCH  32  33
ENDBRANCH  31  32
ENDBRANCH  30  31
ENDBRANCH   1  30
TORSDOF 18
