REMARK SMILES C[C@H](NC(=O)CCN1C(=O)/C(=C/c2ccc([N+](=O)[O-])cc2)SC1=S)C(=O)OCCOCCOC(=O)c1ccc(-c2c3nc(c(-c4c(F)c(F)c(F)c(F)c4F)c4ccc([nH]4)c(-c4c(F)c(F)c(F)c(F)c4F)c4nc(c(-c5c(F)c(F)c(F)c(F)c5F)c5ccc2[nH]5)C=C4)C=C3)cc1
REMARK SMILES IDX 28 1 27 2 25 3 26 4 2 5 1 6 3 7 4 8 5 10 6 11 7 12 8 13 9 14
REMARK SMILES IDX 23 15 10 16 11 17 22 18 24 19 12 20 13 21 14 22 21 23 15 24
REMARK SMILES IDX 20 25 16 26 17 27 18 28 19 29 29 30 30 31 31 32 32 33 33 34
REMARK SMILES IDX 34 35 35 36 36 37 37 38 98 39 38 40 97 41 39 42 40 43 41 44
REMARK SMILES IDX 91 45 42 46 96 47 90 48 92 49 43 50 95 51 89 52 88 53 44 55
REMARK SMILES IDX 76 56 56 57 75 58 57 59 60 60 74 61 93 62 58 63 59 64 73 66
REMARK SMILES IDX 94 67 61 68 45 69 46 70 54 71 47 72 48 73 52 74 55 75 49 76
REMARK SMILES IDX 50 77 53 78 51 79 77 80 78 81 86 82 79 83 80 84 84 85 87 86
REMARK SMILES IDX 81 87 82 88 85 89 83 90 62 91 63 92 71 93 64 94 65 95 69 96
REMARK SMILES IDX 72 97 66 98 67 99 70 100 68 101
REMARK H PARENT 3 9 92 54 60 65
REMARK Flexibility Score: inf
ROOT
ATOM      1  C   UNL     1      -2.389  -0.049  -1.317  1.00  0.00     0.261 C 
ENDROOT
BRANCH   1   2
ATOM      2  O   UNL     1      -0.972  -0.277  -1.276  1.00  0.00    -0.462 OA
BRANCH   2   3
ATOM      3  C   UNL     1      -0.340   0.792  -0.757  1.00  0.00     0.328 C 
ATOM      4  O   UNL     1      -0.882   1.538   0.044  1.00  0.00    -0.250 OA
BRANCH   3   5
ATOM      5  C   UNL     1       1.091   1.069  -1.163  1.00  0.00     0.189 C 
ATOM      6  C   UNL     1       1.465   0.849  -2.617  1.00  0.00     0.043 C 
BRANCH   5   7
ATOM      7  N   UNL     1       2.032   0.571  -0.186  1.00  0.00    -0.343 N 
ATOM      8  C   UNL     1       2.357   1.117   1.020  1.00  0.00     0.222 C 
ATOM      9  H   UNL     1       2.494  -0.265  -0.420  1.00  0.00     0.164 HD
ATOM     10  O   UNL     1       3.257   0.550   1.649  1.00  0.00    -0.275 OA
BRANCH   8  11
ATOM     11  C   UNL     1       1.587   2.286   1.658  1.00  0.00     0.122 C 
BRANCH  11  12
ATOM     12  C   UNL     1       1.556   3.675   0.983  1.00  0.00     0.137 C 
BRANCH  12  13
ATOM     13  N   UNL     1       0.330   4.070   0.231  1.00  0.00    -0.292 N 
ATOM     14  C   UNL     1      -0.941   3.965   0.795  1.00  0.00     0.266 C 
ATOM     15  C   UNL     1       0.347   4.695  -1.001  1.00  0.00     0.148 C 
ATOM     16  O   UNL     1      -1.185   3.796   1.982  1.00  0.00    -0.268 OA
ATOM     17  C   UNL     1      -1.996   4.069  -0.289  1.00  0.00     0.081 C 
ATOM     18  S   UNL     1      -1.281   4.778  -1.675  1.00  0.00    -0.054 SA
ATOM     19  S   UNL     1       1.661   5.287  -1.843  1.00  0.00    -0.052 S 
ATOM     20  C   UNL     1      -3.200   3.476  -0.164  1.00  0.00     0.029 C 
BRANCH  20  21
ATOM     21  C   UNL     1      -4.281   3.112  -1.133  1.00  0.00    -0.024 A 
ATOM     22  C   UNL     1      -5.518   2.690  -0.599  1.00  0.00     0.015 A 
ATOM     23  C   UNL     1      -4.072   2.891  -2.506  1.00  0.00     0.015 A 
ATOM     24  C   UNL     1      -6.472   2.009  -1.376  1.00  0.00     0.086 A 
ATOM     25  C   UNL     1      -5.019   2.211  -3.297  1.00  0.00     0.086 A 
ATOM     26  C   UNL     1      -6.205   1.747  -2.722  1.00  0.00     0.269 A 
BRANCH  26  27
ATOM     27  N   UNL     1      -7.128   0.915  -3.509  1.00  0.00     0.062 N 
ATOM     28  O   UNL     1      -8.144   0.485  -2.944  1.00  0.00    -0.258 OA
ATOM     29  O   UNL     1      -6.813   0.656  -4.680  1.00  0.00    -0.258 OA
ENDBRANCH  26  27
ENDBRANCH  20  21
ENDBRANCH  12  13
ENDBRANCH  11  12
ENDBRANCH   8  11
ENDBRANCH   5   7
ENDBRANCH   3   5
ENDBRANCH   2   3
ENDBRANCH   1   2
BRANCH   1  30
ATOM     30  C   UNL     1      -3.284  -0.139  -0.054  1.00  0.00     0.202 C 
BRANCH  30  31
ATOM     31  O   UNL     1      -2.902   0.305   1.226  1.00  0.00    -0.374 OA
BRANCH  31  32
ATOM     32  C   UNL     1      -1.927  -0.390   1.990  1.00  0.00     0.202 C 
BRANCH  32  33
ATOM     33  C   UNL     1      -1.682  -1.909   1.900  1.00  0.00     0.261 C 
BRANCH  33  34
ATOM     34  O   UNL     1      -1.961  -2.525   0.640  1.00  0.00    -0.460 OA
BRANCH  34  35
ATOM     35  C   UNL     1      -3.118  -3.237   0.585  1.00  0.00     0.338 C 
ATOM     36  O   UNL     1      -3.905  -3.452   1.493  1.00  0.00    -0.246 OA
BRANCH  35  37
ATOM     37  C   UNL     1      -3.429  -3.472  -0.839  1.00  0.00     0.060 A 
ATOM     38  C   UNL     1      -4.638  -2.975  -1.362  1.00  0.00     0.016 A 
ATOM     39  C   UNL     1      -2.509  -4.119  -1.661  1.00  0.00     0.016 A 
ATOM     40  C   UNL     1      -4.933  -3.126  -2.714  1.00  0.00     0.010 A 
ATOM     41  C   UNL     1      -2.828  -4.318  -3.001  1.00  0.00     0.010 A 
ATOM     42  C   UNL     1      -4.051  -3.849  -3.522  1.00  0.00    -0.014 A 
BRANCH  42  43
ATOM     43  C   UNL     1      -4.506  -4.391  -4.818  1.00  0.00     0.031 A 
ATOM     44  C   UNL     1      -5.082  -5.776  -4.809  1.00  0.00     0.074 A 
ATOM     45  C   UNL     1      -4.339  -3.721  -5.968  1.00  0.00     0.049 A 
ATOM     46  N   UNL     1      -5.337  -6.581  -5.804  1.00  0.00    -0.248 NA
ATOM     47  C   UNL     1      -5.383  -6.337  -3.481  1.00  0.00     0.031 C 
ATOM     48  C   UNL     1      -3.846  -2.353  -6.087  1.00  0.00     0.029 A 
ATOM     49  N   UNL     1      -4.532  -4.132  -7.263  1.00  0.00    -0.354 N 
ATOM     50  C   UNL     1      -5.799  -7.753  -5.221  1.00  0.00     0.074 A 
ATOM     51  C   UNL     1      -5.770  -7.562  -3.789  1.00  0.00     0.031 C 
ATOM     52  C   UNL     1      -3.729  -2.050  -7.392  1.00  0.00     0.029 A 
ATOM     53  C   UNL     1      -4.091  -3.222  -8.190  1.00  0.00     0.049 A 
ATOM     54  H   UNL     1      -4.946  -4.992  -7.502  1.00  0.00     0.167 HD
ATOM     55  C   UNL     1      -6.201  -8.891  -5.831  1.00  0.00     0.037 A 
ATOM     56  C   UNL     1      -3.949  -3.349  -9.524  1.00  0.00     0.037 A 
ATOM     57  C   UNL     1      -6.210  -9.067  -7.257  1.00  0.00     0.049 A 
ATOM     58  C   UNL     1      -4.337  -4.648 -10.187  1.00  0.00     0.074 A 
ATOM     59  C   UNL     1      -6.622 -10.165  -7.988  1.00  0.00     0.029 A 
ATOM     60  N   UNL     1      -5.766  -8.119  -8.169  1.00  0.00    -0.354 N 
ATOM     61  N   UNL     1      -4.790  -5.753  -9.643  1.00  0.00    -0.248 NA
ATOM     62  C   UNL     1      -4.192  -4.721 -11.648  1.00  0.00     0.031 C 
ATOM     63  C   UNL     1      -6.359  -9.910  -9.337  1.00  0.00     0.029 A 
ATOM     64  C   UNL     1      -5.859  -8.622  -9.455  1.00  0.00     0.049 A 
ATOM     65  H   UNL     1      -5.434  -7.222  -7.935  1.00  0.00     0.167 HD
ATOM     66  C   UNL     1      -5.016  -6.637 -10.691  1.00  0.00     0.074 A 
ATOM     67  C   UNL     1      -4.647  -5.940 -11.906  1.00  0.00     0.031 C 
ATOM     68  C   UNL     1      -5.494  -7.906 -10.653  1.00  0.00     0.037 A 
BRANCH  55  69
ATOM     69  C   UNL     1      -6.592 -10.041  -4.949  1.00  0.00     0.064 A 
ATOM     70  C   UNL     1      -7.730 -10.001  -4.129  1.00  0.00     0.173 A 
ATOM     71  C   UNL     1      -5.795 -11.195  -4.905  1.00  0.00     0.173 A 
ATOM     72  F   UNL     1      -8.516  -8.913  -4.116  1.00  0.00    -0.203 F 
ATOM     73  C   UNL     1      -8.028 -11.051  -3.264  1.00  0.00     0.198 A 
ATOM     74  C   UNL     1      -6.117 -12.259  -4.069  1.00  0.00     0.198 A 
ATOM     75  F   UNL     1      -4.694 -11.287  -5.667  1.00  0.00    -0.203 F 
ATOM     76  F   UNL     1      -9.075 -10.956  -2.433  1.00  0.00    -0.200 F 
ATOM     77  C   UNL     1      -7.225 -12.181  -3.239  1.00  0.00     0.200 A 
ATOM     78  F   UNL     1      -5.347 -13.356  -4.056  1.00  0.00    -0.200 F 
ATOM     79  F   UNL     1      -7.509 -13.189  -2.403  1.00  0.00    -0.200 F 
ENDBRANCH  55  69
BRANCH  56  80
ATOM     80  C   UNL     1      -3.378  -2.224 -10.309  1.00  0.00     0.064 A 
ATOM     81  C   UNL     1      -4.166  -1.488 -11.204  1.00  0.00     0.173 A 
ATOM     82  C   UNL     1      -2.034  -1.846 -10.161  1.00  0.00     0.173 A 
ATOM     83  F   UNL     1      -5.449  -1.827 -11.400  1.00  0.00    -0.203 F 
ATOM     84  C   UNL     1      -3.632  -0.420 -11.923  1.00  0.00     0.198 A 
ATOM     85  C   UNL     1      -1.509  -0.760 -10.859  1.00  0.00     0.198 A 
ATOM     86  F   UNL     1      -1.236  -2.517  -9.318  1.00  0.00    -0.203 F 
ATOM     87  F   UNL     1      -4.399   0.246 -12.796  1.00  0.00    -0.200 F 
ATOM     88  C   UNL     1      -2.308  -0.051 -11.743  1.00  0.00     0.200 A 
ATOM     89  F   UNL     1      -0.233  -0.398 -10.668  1.00  0.00    -0.200 F 
ATOM     90  F   UNL     1      -1.800   0.987 -12.422  1.00  0.00    -0.200 F 
ENDBRANCH  56  80
BRANCH  68  91
ATOM     91  C   UNL     1      -5.702  -8.618 -11.960  1.00  0.00     0.064 A 
ATOM     92  C   UNL     1      -4.628  -9.090 -12.727  1.00  0.00     0.173 A 
ATOM     93  C   UNL     1      -7.003  -8.912 -12.399  1.00  0.00     0.173 A 
ATOM     94  F   UNL     1      -3.366  -8.827 -12.358  1.00  0.00    -0.203 F 
ATOM     95  C   UNL     1      -4.850  -9.822 -13.892  1.00  0.00     0.198 A 
ATOM     96  C   UNL     1      -7.220  -9.671 -13.545  1.00  0.00     0.198 A 
ATOM     97  F   UNL     1      -8.065  -8.492 -11.695  1.00  0.00    -0.203 F 
ATOM     98  F   UNL     1      -3.810 -10.237 -14.629  1.00  0.00    -0.200 F 
ATOM     99  C   UNL     1      -6.144 -10.122 -14.293  1.00  0.00     0.200 A 
ATOM    100  F   UNL     1      -8.471  -9.977 -13.917  1.00  0.00    -0.200 F 
ATOM    101  F   UNL     1      -6.354 -10.846 -15.400  1.00  0.00    -0.200 F 
ENDBRANCH  68  91
ENDBRANCH  42  43
ENDBRANCH  35  37
ENDBRANCH  34  35
ENDBRANCH  33  34
ENDBRANCH  32  33
ENDBRANCH  31  32
ENDBRANCH  30  31
ENDBRANCH   1  30
TORSDOF 20
