REMARK SMILES Cc1cc(C)n(-c2nc(C)c(C)c(Oc3cccc(C(=O)OCCOCCOC(=O)c4ccc(-c5c6nc(c(-c7c(F)c(F)c(F)c(F)c7F)c7ccc([nH]7)c(-c7c(F)c(F)c(F)c(F)c7F)c7nc(c(-c8c(F)c(F)c(F)c(F)c8F)c8ccc5[nH]8)C=C7)C=C6)cc4)c3)n2)n1
REMARK SMILES IDX 24 1 23 2 22 3 20 4 21 5 19 6 15 7 16 8 94 9 17 10 18 11
REMARK SMILES IDX 14 12 13 13 7 14 8 15 95 16 9 17 10 18 11 19 12 20 6 21 1 22
REMARK SMILES IDX 2 23 3 24 96 25 4 26 5 27 25 28 26 29 27 30 28 31 29 32
REMARK SMILES IDX 30 33 31 34 32 35 93 36 33 37 92 38 34 39 35 40 36 41 86 42
REMARK SMILES IDX 37 43 91 44 85 45 87 46 38 47 90 48 84 49 83 50 39 52 71 53
REMARK SMILES IDX 51 54 70 55 52 56 55 57 69 58 88 59 53 60 54 61 68 63 89 64
REMARK SMILES IDX 56 65 40 66 41 67 49 68 42 69 43 70 47 71 50 72 44 73 45 74
REMARK SMILES IDX 48 75 46 76 72 77 73 78 81 79 74 80 75 81 79 82 82 83 76 84
REMARK SMILES IDX 77 85 80 86 78 87 57 88 58 89 66 90 59 91 60 92 64 93 67 94
REMARK SMILES IDX 61 95 62 96 65 97 63 98
REMARK H PARENT 87 51 55 62
REMARK Flexibility Score: inf
ROOT
ATOM      1  C   UNL     1      -7.215   3.705   0.462  1.00  0.00     0.202 C 
ENDROOT
BRANCH   1   2
ATOM      2  C   UNL     1      -5.815   3.104   0.616  1.00  0.00     0.261 C 
BRANCH   2   3
ATOM      3  O   UNL     1      -4.788   4.104   0.726  1.00  0.00    -0.460 OA
BRANCH   3   4
ATOM      4  C   UNL     1      -3.983   4.196  -0.364  1.00  0.00     0.338 C 
ATOM      5  O   UNL     1      -4.039   3.510  -1.371  1.00  0.00    -0.246 OA
BRANCH   4   6
ATOM      6  C   UNL     1      -3.138   5.406  -0.278  1.00  0.00     0.063 A 
ATOM      7  C   UNL     1      -1.551   6.814   0.858  1.00  0.00     0.130 A 
ATOM      8  C   UNL     1      -1.417   7.596  -0.292  1.00  0.00     0.047 A 
ATOM      9  C   UNL     1      -2.474   5.763   0.895  1.00  0.00     0.062 A 
ATOM     10  C   UNL     1      -2.138   7.281  -1.442  1.00  0.00     0.005 A 
ATOM     11  C   UNL     1      -2.976   6.169  -1.443  1.00  0.00     0.016 A 
BRANCH   7  12
ATOM     12  O   UNL     1      -0.751   7.165   1.921  1.00  0.00    -0.439 OA
BRANCH  12  13
ATOM     13  C   UNL     1      -0.063   6.157   2.598  1.00  0.00     0.227 A 
ATOM     14  C   UNL     1       0.384   3.938   2.906  1.00  0.00     0.254 A 
ATOM     15  N   UNL     1       0.972   4.171   4.098  1.00  0.00    -0.216 NA
ATOM     16  N   UNL     1      -0.102   4.903   2.115  1.00  0.00    -0.175 NA
ATOM     17  C   UNL     1       1.154   5.459   4.466  1.00  0.00     0.050 A 
ATOM     18  C   UNL     1       2.044   5.642   5.662  1.00  0.00     0.067 C 
ATOM     19  C   UNL     1       0.606   6.519   3.757  1.00  0.00     0.033 A 
ATOM     20  C   UNL     1       0.752   7.944   4.190  1.00  0.00     0.052 C 
BRANCH  14  21
ATOM     21  N   UNL     1       0.237   2.576   2.479  1.00  0.00    -0.203 N 
ATOM     22  C   UNL     1       0.789   0.102  -0.015  1.00  0.00     0.069 C 
ATOM     23  C   UNL     1       0.433   0.874   1.200  1.00  0.00     0.060 A 
ATOM     24  C   UNL     1       0.075   0.370   2.467  1.00  0.00     0.049 A 
ATOM     25  N   UNL     1       0.422   2.211   1.177  1.00  0.00    -0.170 NA
ATOM     26  C   UNL     1      -0.083   1.479   3.268  1.00  0.00     0.045 A 
ATOM     27  C   UNL     1      -0.573   1.594   4.664  1.00  0.00     0.067 C 
ENDBRANCH  14  21
ENDBRANCH  12  13
ENDBRANCH   7  12
ENDBRANCH   4   6
ENDBRANCH   3   4
ENDBRANCH   2   3
ENDBRANCH   1   2
BRANCH   1  28
ATOM     28  O   UNL     1      -7.511   4.471  -0.706  1.00  0.00    -0.374 OA
BRANCH  28  29
ATOM     29  C   UNL     1      -6.878   5.727  -0.914  1.00  0.00     0.202 C 
BRANCH  29  30
ATOM     30  C   UNL     1      -7.303   6.907  -0.052  1.00  0.00     0.261 C 
BRANCH  30  31
ATOM     31  O   UNL     1      -7.172   6.633   1.331  1.00  0.00    -0.460 OA
BRANCH  31  32
ATOM     32  C   UNL     1      -8.333   6.275   1.924  1.00  0.00     0.338 C 
ATOM     33  O   UNL     1      -9.382   5.971   1.391  1.00  0.00    -0.246 OA
BRANCH  32  34
ATOM     34  C   UNL     1      -8.181   6.448   3.370  1.00  0.00     0.060 A 
ATOM     35  C   UNL     1      -9.275   6.084   4.159  1.00  0.00     0.016 A 
ATOM     36  C   UNL     1      -7.145   7.263   3.848  1.00  0.00     0.016 A 
ATOM     37  C   UNL     1      -9.463   6.746   5.348  1.00  0.00     0.010 A 
ATOM     38  C   UNL     1      -7.347   7.944   5.017  1.00  0.00     0.010 A 
ATOM     39  C   UNL     1      -8.548   7.743   5.694  1.00  0.00    -0.014 A 
BRANCH  39  40
ATOM     40  C   UNL     1      -8.845   8.587   6.825  1.00  0.00     0.031 A 
ATOM     41  C   UNL     1      -8.518   7.946   8.115  1.00  0.00     0.074 A 
ATOM     42  C   UNL     1      -9.230   9.864   6.647  1.00  0.00     0.049 A 
ATOM     43  N   UNL     1      -9.330   7.611   9.061  1.00  0.00    -0.248 NA
ATOM     44  C   UNL     1      -7.141   7.452   8.297  1.00  0.00     0.031 C 
ATOM     45  C   UNL     1      -9.297  10.627   5.396  1.00  0.00     0.029 A 
ATOM     46  N   UNL     1      -9.545  10.795   7.585  1.00  0.00    -0.354 N 
ATOM     47  C   UNL     1      -8.529   7.041  10.042  1.00  0.00     0.074 A 
ATOM     48  C   UNL     1      -7.250   6.777   9.439  1.00  0.00     0.031 C 
ATOM     49  C   UNL     1      -9.406  11.945   5.681  1.00  0.00     0.029 A 
ATOM     50  C   UNL     1      -9.538  12.104   7.118  1.00  0.00     0.049 A 
ATOM     51  H   UNL     1      -9.759  10.562   8.517  1.00  0.00     0.167 HD
ATOM     52  C   UNL     1      -8.879   7.093  11.353  1.00  0.00     0.037 A 
ATOM     53  C   UNL     1      -9.534  13.211   7.903  1.00  0.00     0.037 A 
ATOM     54  C   UNL     1     -10.277   7.382  11.517  1.00  0.00     0.049 A 
ATOM     55  C   UNL     1      -9.993  12.786   9.254  1.00  0.00     0.074 A 
ATOM     56  C   UNL     1     -11.441   6.733  11.158  1.00  0.00     0.029 A 
ATOM     57  N   UNL     1     -10.633   8.681  11.780  1.00  0.00    -0.354 N 
ATOM     58  N   UNL     1     -11.206  12.380   9.514  1.00  0.00    -0.248 NA
ATOM     59  C   UNL     1      -8.976  12.362  10.206  1.00  0.00     0.031 C 
ATOM     60  C   UNL     1     -12.343   7.769  10.780  1.00  0.00     0.029 A 
ATOM     61  C   UNL     1     -11.705   8.993  10.985  1.00  0.00     0.049 A 
ATOM     62  H   UNL     1     -10.195   9.283  12.426  1.00  0.00     0.167 HD
ATOM     63  C   UNL     1     -11.044  11.324  10.401  1.00  0.00     0.074 A 
ATOM     64  C   UNL     1      -9.656  11.406  10.846  1.00  0.00     0.031 C 
ATOM     65  C   UNL     1     -11.962  10.316  10.463  1.00  0.00     0.037 A 
BRANCH  52  66
ATOM     66  C   UNL     1      -7.874   7.252  12.457  1.00  0.00     0.064 A 
ATOM     67  C   UNL     1      -8.262   7.021  13.787  1.00  0.00     0.173 A 
ATOM     68  C   UNL     1      -6.618   7.879  12.283  1.00  0.00     0.173 A 
ATOM     69  F   UNL     1      -9.457   6.478  14.062  1.00  0.00    -0.203 F 
ATOM     70  C   UNL     1      -7.463   7.417  14.862  1.00  0.00     0.198 A 
ATOM     71  C   UNL     1      -5.796   8.213  13.353  1.00  0.00     0.198 A 
ATOM     72  F   UNL     1      -6.190   8.294  11.084  1.00  0.00    -0.203 F 
ATOM     73  F   UNL     1      -7.918   7.278  16.114  1.00  0.00    -0.200 F 
ATOM     74  C   UNL     1      -6.229   8.007  14.644  1.00  0.00     0.200 A 
ATOM     75  F   UNL     1      -4.618   8.807  13.118  1.00  0.00    -0.200 F 
ATOM     76  F   UNL     1      -5.482   8.424  15.674  1.00  0.00    -0.200 F 
ENDBRANCH  52  66
BRANCH  53  77
ATOM     77  C   UNL     1      -8.803  14.487   7.689  1.00  0.00     0.064 A 
ATOM     78  C   UNL     1      -9.081  15.614   8.482  1.00  0.00     0.173 A 
ATOM     79  C   UNL     1      -7.627  14.545   6.916  1.00  0.00     0.173 A 
ATOM     80  F   UNL     1     -10.158  15.626   9.281  1.00  0.00    -0.203 F 
ATOM     81  C   UNL     1      -8.216  16.713   8.529  1.00  0.00     0.198 A 
ATOM     82  C   UNL     1      -6.769  15.646   6.957  1.00  0.00     0.198 A 
ATOM     83  F   UNL     1      -7.229  13.497   6.182  1.00  0.00    -0.203 F 
ATOM     84  F   UNL     1      -8.478  17.737   9.353  1.00  0.00    -0.200 F 
ATOM     85  C   UNL     1      -7.054  16.722   7.776  1.00  0.00     0.200 A 
ATOM     86  F   UNL     1      -5.629  15.626   6.250  1.00  0.00    -0.200 F 
ATOM     87  F   UNL     1      -6.190  17.742   7.871  1.00  0.00    -0.200 F 
ENDBRANCH  53  77
BRANCH  65  88
ATOM     88  C   UNL     1     -13.261  10.507   9.728  1.00  0.00     0.064 A 
ATOM     89  C   UNL     1     -13.364  10.605   8.329  1.00  0.00     0.173 A 
ATOM     90  C   UNL     1     -14.453  10.416  10.457  1.00  0.00     0.173 A 
ATOM     91  F   UNL     1     -12.271  10.601   7.556  1.00  0.00    -0.203 F 
ATOM     92  C   UNL     1     -14.606  10.643   7.696  1.00  0.00     0.198 A 
ATOM     93  C   UNL     1     -15.691  10.415   9.820  1.00  0.00     0.198 A 
ATOM     94  F   UNL     1     -14.414  10.266  11.790  1.00  0.00    -0.203 F 
ATOM     95  F   UNL     1     -14.678  10.740   6.360  1.00  0.00    -0.200 F 
ATOM     96  C   UNL     1     -15.768  10.536   8.442  1.00  0.00     0.200 A 
ATOM     97  F   UNL     1     -16.809  10.261  10.542  1.00  0.00    -0.200 F 
ATOM     98  F   UNL     1     -16.961  10.519   7.831  1.00  0.00    -0.200 F 
ENDBRANCH  65  88
ENDBRANCH  39  40
ENDBRANCH  32  34
ENDBRANCH  31  32
ENDBRANCH  30  31
ENDBRANCH  29  30
ENDBRANCH  28  29
ENDBRANCH   1  28
TORSDOF 17
