REMARK SMILES CC[NH2+][C@@]1(C(=O)OCCOCCOC(=O)c2ccc(-c3c4nc(c(-c5c(F)c(F)c(F)c(F)c5F)c5ccc([nH]5)c(-c5c(F)c(F)c(F)c(F)c5F)c5nc(c(-c6c(F)c(F)c(F)c(F)c6F)c6ccc3[nH]6)C=C5)C=C4)cc2)CC[C@H]([NH+]2CCC(C(C)(C)C)CC2)C1
REMARK SMILES IDX 10 1 9 2 8 3 7 4 5 5 6 6 4 7 79 8 92 9 80 10 81 11 3 12 2 15
REMARK SMILES IDX 1 16 82 17 83 18 91 19 84 21 90 22 85 23 86 24 87 25 88 26
REMARK SMILES IDX 89 27 11 28 12 29 13 30 14 31 15 32 16 33 17 34 78 35 18 36
REMARK SMILES IDX 77 37 19 38 20 39 21 40 71 41 22 42 76 43 70 44 72 45 23 46
REMARK SMILES IDX 75 47 69 48 68 49 24 51 56 52 36 53 55 54 37 55 40 56 54 57
REMARK SMILES IDX 73 58 38 59 39 60 53 62 74 63 41 64 25 65 26 66 34 67 27 68
REMARK SMILES IDX 28 69 32 70 35 71 29 72 30 73 33 74 31 75 57 76 58 77 66 78
REMARK SMILES IDX 59 79 60 80 64 81 67 82 61 83 62 84 65 85 63 86 42 87 43 88
REMARK SMILES IDX 51 89 44 90 45 91 49 92 52 93 46 94 47 95 50 96 48 97
REMARK H PARENT 3 13 3 14 82 20 72 50 40 61
REMARK Flexibility Score: inf
ROOT
ATOM      1  O   UNL     1       4.635  -0.228   4.657  1.00  0.00    -0.374 OA
ENDROOT
BRANCH   1   2
ATOM      2  C   UNL     1       4.160   0.614   5.710  1.00  0.00     0.202 C 
BRANCH   2   3
ATOM      3  C   UNL     1       3.326   1.808   5.244  1.00  0.00     0.261 C 
BRANCH   3   4
ATOM      4  O   UNL     1       2.041   1.316   4.815  1.00  0.00    -0.459 OA
BRANCH   4   5
ATOM      5  C   UNL     1       1.456   1.932   3.766  1.00  0.00     0.368 C 
ATOM      6  O   UNL     1       1.893   2.963   3.260  1.00  0.00    -0.245 OA
BRANCH   5   7
ATOM      7  C   UNL     1       0.254   1.115   3.157  1.00  0.00     0.200 C 
ATOM      8  C   UNL     1      -1.028   1.950   3.272  1.00  0.00     0.087 C 
ATOM      9  C   UNL     1      -0.124  -0.202   3.886  1.00  0.00     0.146 C 
ATOM     10  C   UNL     1      -1.720   1.518   4.558  1.00  0.00     0.072 C 
ATOM     11  C   UNL     1      -1.251   0.106   4.902  1.00  0.00     0.191 C 
BRANCH   7  12
ATOM     12  N   UNL     1       0.572   1.030   1.706  1.00  0.00    -0.332 N 
ATOM     13  H   UNL     1      -0.043   1.689   1.227  1.00  0.00     0.347 HD
ATOM     14  H   UNL     1       1.573   1.224   1.667  1.00  0.00     0.347 HD
BRANCH  12  15
ATOM     15  C   UNL     1       0.443  -0.240   1.024  1.00  0.00     0.257 C 
ATOM     16  C   UNL     1       0.997  -0.109  -0.388  1.00  0.00     0.071 C 
ENDBRANCH  12  15
ENDBRANCH   7  12
BRANCH  11  17
ATOM     17  N   UNL     1      -1.019  -0.255   6.314  1.00  0.00    -0.332 N 
ATOM     18  C   UNL     1      -2.102   0.046   7.255  1.00  0.00     0.262 C 
ATOM     19  C   UNL     1       0.242   0.114   6.933  1.00  0.00     0.262 C 
ATOM     20  H   UNL     1      -0.980  -1.262   6.154  1.00  0.00     0.348 HD
ATOM     21  C   UNL     1      -2.153   1.495   7.775  1.00  0.00     0.066 C 
ATOM     22  C   UNL     1       0.358   1.599   7.220  1.00  0.00     0.066 C 
ATOM     23  C   UNL     1      -0.781   2.160   8.081  1.00  0.00     0.005 C 
BRANCH  23  24
ATOM     24  C   UNL     1      -0.801   3.746   8.056  1.00  0.00    -0.035 C 
ATOM     25  C   UNL     1      -1.700   4.264   9.191  1.00  0.00     0.011 C 
ATOM     26  C   UNL     1       0.621   4.318   8.267  1.00  0.00     0.011 C 
ATOM     27  C   UNL     1      -1.318   4.355   6.732  1.00  0.00     0.011 C 
ENDBRANCH  23  24
ENDBRANCH  11  17
ENDBRANCH   5   7
ENDBRANCH   4   5
ENDBRANCH   3   4
ENDBRANCH   2   3
ENDBRANCH   1   2
BRANCH   1  28
ATOM     28  C   UNL     1       3.675  -1.044   3.989  1.00  0.00     0.202 C 
BRANCH  28  29
ATOM     29  C   UNL     1       3.341  -2.381   4.664  1.00  0.00     0.261 C 
BRANCH  29  30
ATOM     30  O   UNL     1       2.753  -2.237   5.970  1.00  0.00    -0.460 OA
BRANCH  30  31
ATOM     31  C   UNL     1       3.607  -2.425   7.002  1.00  0.00     0.338 C 
ATOM     32  O   UNL     1       4.799  -2.700   6.933  1.00  0.00    -0.246 OA
BRANCH  31  33
ATOM     33  C   UNL     1       2.952  -2.115   8.287  1.00  0.00     0.060 A 
ATOM     34  C   UNL     1       3.621  -1.253   9.165  1.00  0.00     0.016 A 
ATOM     35  C   UNL     1       1.754  -2.720   8.674  1.00  0.00     0.016 A 
ATOM     36  C   UNL     1       3.129  -1.042  10.453  1.00  0.00     0.010 A 
ATOM     37  C   UNL     1       1.256  -2.498   9.965  1.00  0.00     0.010 A 
ATOM     38  C   UNL     1       1.964  -1.694  10.879  1.00  0.00    -0.014 A 
BRANCH  38  39
ATOM     39  C   UNL     1       1.586  -1.661  12.318  1.00  0.00     0.031 A 
ATOM     40  C   UNL     1       1.828  -2.882  13.168  1.00  0.00     0.074 A 
ATOM     41  C   UNL     1       1.078  -0.550  12.882  1.00  0.00     0.049 A 
ATOM     42  N   UNL     1       1.563  -3.083  14.436  1.00  0.00    -0.248 NA
ATOM     43  C   UNL     1       2.449  -4.035  12.497  1.00  0.00     0.031 C 
ATOM     44  C   UNL     1       0.827   0.711  12.189  1.00  0.00     0.029 A 
ATOM     45  N   UNL     1       0.680  -0.308  14.176  1.00  0.00    -0.354 N 
ATOM     46  C   UNL     1       1.974  -4.383  14.708  1.00  0.00     0.074 A 
ATOM     47  C   UNL     1       2.469  -4.937  13.467  1.00  0.00     0.031 C 
ATOM     48  C   UNL     1       0.314   1.594  13.063  1.00  0.00     0.029 A 
ATOM     49  C   UNL     1       0.168   0.951  14.369  1.00  0.00     0.049 A 
ATOM     50  H   UNL     1       0.754  -0.976  14.896  1.00  0.00     0.167 HD
ATOM     51  C   UNL     1       1.954  -5.051  15.886  1.00  0.00     0.037 A 
ATOM     52  C   UNL     1      -0.375   1.514  15.468  1.00  0.00     0.037 A 
ATOM     53  C   UNL     1       1.474  -4.501  17.127  1.00  0.00     0.049 A 
ATOM     54  C   UNL     1      -0.448   0.726  16.753  1.00  0.00     0.074 A 
ATOM     55  C   UNL     1       1.443  -5.093  18.378  1.00  0.00     0.029 A 
ATOM     56  N   UNL     1       0.932  -3.233  17.273  1.00  0.00    -0.354 N 
ATOM     57  N   UNL     1      -0.027  -0.489  17.007  1.00  0.00    -0.248 NA
ATOM     58  C   UNL     1      -1.070   1.393  17.907  1.00  0.00     0.031 C 
ATOM     59  C   UNL     1       0.824  -4.209  19.267  1.00  0.00     0.029 A 
ATOM     60  C   UNL     1       0.533  -3.038  18.587  1.00  0.00     0.049 A 
ATOM     61  H   UNL     1       0.843  -2.570  16.551  1.00  0.00     0.167 HD
ATOM     62  C   UNL     1      -0.301  -0.718  18.351  1.00  0.00     0.074 A 
ATOM     63  C   UNL     1      -0.912   0.489  18.863  1.00  0.00     0.031 C 
ATOM     64  C   UNL     1      -0.066  -1.829  19.093  1.00  0.00     0.037 A 
BRANCH  51  65
ATOM     65  C   UNL     1       2.446  -6.471  15.889  1.00  0.00     0.064 A 
ATOM     66  C   UNL     1       3.802  -6.787  15.716  1.00  0.00     0.173 A 
ATOM     67  C   UNL     1       1.550  -7.529  16.111  1.00  0.00     0.173 A 
ATOM     68  F   UNL     1       4.698  -5.814  15.490  1.00  0.00    -0.203 F 
ATOM     69  C   UNL     1       4.238  -8.109  15.736  1.00  0.00     0.198 A 
ATOM     70  C   UNL     1       1.995  -8.847  16.164  1.00  0.00     0.198 A 
ATOM     71  F   UNL     1       0.243  -7.284  16.290  1.00  0.00    -0.203 F 
ATOM     72  F   UNL     1       5.530  -8.390  15.518  1.00  0.00    -0.200 F 
ATOM     73  C   UNL     1       3.336  -9.137  15.968  1.00  0.00     0.200 A 
ATOM     74  F   UNL     1       1.124  -9.837  16.406  1.00  0.00    -0.200 F 
ATOM     75  F   UNL     1       3.760 -10.408  15.998  1.00  0.00    -0.200 F 
ENDBRANCH  51  65
BRANCH  52  76
ATOM     76  C   UNL     1      -0.910   2.901  15.405  1.00  0.00     0.064 A 
ATOM     77  C   UNL     1      -0.315   3.943  16.130  1.00  0.00     0.173 A 
ATOM     78  C   UNL     1      -2.048   3.206  14.643  1.00  0.00     0.173 A 
ATOM     79  F   UNL     1       0.759   3.699  16.896  1.00  0.00    -0.203 F 
ATOM     80  C   UNL     1      -0.850   5.230  16.113  1.00  0.00     0.198 A 
ATOM     81  C   UNL     1      -2.563   4.500  14.601  1.00  0.00     0.198 A 
ATOM     82  F   UNL     1      -2.659   2.245  13.934  1.00  0.00    -0.203 F 
ATOM     83  F   UNL     1      -0.294   6.194  16.860  1.00  0.00    -0.200 F 
ATOM     84  C   UNL     1      -1.970   5.509  15.344  1.00  0.00     0.200 A 
ATOM     85  F   UNL     1      -3.637   4.766  13.845  1.00  0.00    -0.200 F 
ATOM     86  F   UNL     1      -2.483   6.746  15.327  1.00  0.00    -0.200 F 
ENDBRANCH  52  76
BRANCH  64  87
ATOM     87  C   UNL     1      -0.427  -1.783  20.553  1.00  0.00     0.064 A 
ATOM     88  C   UNL     1      -1.760  -1.763  20.988  1.00  0.00     0.173 A 
ATOM     89  C   UNL     1       0.579  -1.806  21.532  1.00  0.00     0.173 A 
ATOM     90  F   UNL     1      -2.761  -1.728  20.095  1.00  0.00    -0.203 F 
ATOM     91  C   UNL     1      -2.072  -1.737  22.345  1.00  0.00     0.198 A 
ATOM     92  C   UNL     1       0.264  -1.816  22.889  1.00  0.00     0.198 A 
ATOM     93  F   UNL     1       1.872  -1.836  21.174  1.00  0.00    -0.203 F 
ATOM     94  F   UNL     1      -3.352  -1.665  22.735  1.00  0.00    -0.200 F 
ATOM     95  C   UNL     1      -1.061  -1.772  23.294  1.00  0.00     0.200 A 
ATOM     96  F   UNL     1       1.242  -1.869  23.803  1.00  0.00    -0.200 F 
ATOM     97  F   UNL     1      -1.364  -1.757  24.600  1.00  0.00    -0.200 F 
ENDBRANCH  64  87
ENDBRANCH  38  39
ENDBRANCH  31  33
ENDBRANCH  30  31
ENDBRANCH  29  30
ENDBRANCH  28  29
ENDBRANCH   1  28
TORSDOF 18
