REMARK SMILES CS(=O)(=O)c1ccc(/C=C(/C(=O)OCCOCCOC(=O)c2ccc(-c3c4nc(c(-c5c(F)c(F)c(F)c(F)c5F)c5ccc([nH]5)c(-c5c(F)c(F)c(F)c(F)c5F)c5nc(c(-c6c(F)c(F)c(F)c(F)c6F)c6ccc3[nH]6)C=C5)C=C4)cc2)c2ccccc2)cc1
REMARK SMILES IDX 16 1 15 2 14 3 13 4 11 5 12 6 10 7 9 8 8 9 5 10 6 11 92 12
REMARK SMILES IDX 7 13 91 14 2 15 1 16 3 17 4 18 85 19 86 20 90 21 87 22 89 23
REMARK SMILES IDX 88 24 17 25 18 26 19 27 20 28 21 29 22 30 23 31 84 32 24 33
REMARK SMILES IDX 83 34 25 35 26 36 27 37 77 38 28 39 82 40 76 41 78 42 29 43
REMARK SMILES IDX 81 44 75 45 74 46 30 48 62 49 42 50 61 51 43 52 46 53 60 54
REMARK SMILES IDX 79 55 44 56 45 57 59 59 80 60 47 61 31 62 32 63 40 64 33 65
REMARK SMILES IDX 34 66 38 67 41 68 35 69 36 70 39 71 37 72 63 73 64 74 72 75
REMARK SMILES IDX 65 76 66 77 70 78 73 79 67 80 68 81 71 82 69 83 48 84 49 85
REMARK SMILES IDX 57 86 50 87 51 88 55 89 58 90 52 91 53 92 56 93 54 94
REMARK H PARENT 78 47 46 58
REMARK Flexibility Score: inf
ROOT
ATOM      1  O   UNL     1       2.859  10.167   4.869  1.00  0.00    -0.374 OA
ENDROOT
BRANCH   1   2
ATOM      2  C   UNL     1       3.063  10.939   3.689  1.00  0.00     0.202 C 
BRANCH   2   3
ATOM      3  C   UNL     1       3.820  10.302   2.520  1.00  0.00     0.261 C 
BRANCH   3   4
ATOM      4  O   UNL     1       3.204   9.085   2.067  1.00  0.00    -0.460 OA
BRANCH   4   5
ATOM      5  C   UNL     1       3.973   7.977   2.233  1.00  0.00     0.338 C 
ATOM      6  O   UNL     1       5.150   7.977   2.569  1.00  0.00    -0.246 OA
BRANCH   5   7
ATOM      7  C   UNL     1       3.189   6.709   2.076  1.00  0.00     0.067 C 
ATOM      8  C   UNL     1       2.212   6.615   1.142  1.00  0.00     0.024 C 
BRANCH   8   9
ATOM      9  C   UNL     1       1.511   5.391   0.675  1.00  0.00    -0.025 A 
ATOM     10  C   UNL     1       0.606   2.970  -0.445  1.00  0.00     0.067 A 
ATOM     11  C   UNL     1       0.857   3.049   0.920  1.00  0.00     0.021 A 
ATOM     12  C   UNL     1       0.697   4.116  -1.239  1.00  0.00     0.021 A 
ATOM     13  C   UNL     1       1.269   4.265   1.475  1.00  0.00     0.009 A 
ATOM     14  C   UNL     1       1.143   5.319  -0.678  1.00  0.00     0.009 A 
BRANCH  10  15
ATOM     15  S   UNL     1       0.247   1.419  -1.234  1.00  0.00     0.175 S 
ATOM     16  C   UNL     1       0.968   0.150  -0.224  1.00  0.00     0.163 C 
ATOM     17  O   UNL     1       0.976   1.415  -2.490  1.00  0.00    -0.224 OA
ATOM     18  O   UNL     1      -1.193   1.261  -1.199  1.00  0.00    -0.224 OA
ENDBRANCH  10  15
ENDBRANCH   8   9
BRANCH   7  19
ATOM     19  C   UNL     1       3.623   5.588   2.934  1.00  0.00    -0.011 A 
ATOM     20  C   UNL     1       3.215   5.548   4.278  1.00  0.00     0.009 A 
ATOM     21  C   UNL     1       4.412   4.550   2.429  1.00  0.00     0.009 A 
ATOM     22  C   UNL     1       3.577   4.482   5.099  1.00  0.00     0.001 A 
ATOM     23  C   UNL     1       4.764   3.478   3.251  1.00  0.00     0.001 A 
ATOM     24  C   UNL     1       4.347   3.445   4.582  1.00  0.00     0.000 A 
ENDBRANCH   7  19
ENDBRANCH   5   7
ENDBRANCH   4   5
ENDBRANCH   3   4
ENDBRANCH   2   3
ENDBRANCH   1   2
BRANCH   1  25
ATOM     25  C   UNL     1       1.927   9.091   4.809  1.00  0.00     0.202 C 
BRANCH  25  26
ATOM     26  C   UNL     1       0.427   9.410   4.773  1.00  0.00     0.261 C 
BRANCH  26  27
ATOM     27  O   UNL     1       0.052  10.263   3.682  1.00  0.00    -0.460 OA
BRANCH  27  28
ATOM     28  C   UNL     1      -0.245  11.536   4.038  1.00  0.00     0.338 C 
ATOM     29  O   UNL     1      -0.287  12.008   5.164  1.00  0.00    -0.246 OA
BRANCH  28  30
ATOM     30  C   UNL     1      -0.331  12.362   2.824  1.00  0.00     0.060 A 
ATOM     31  C   UNL     1       0.573  13.425   2.686  1.00  0.00     0.016 A 
ATOM     32  C   UNL     1      -1.296  12.113   1.849  1.00  0.00     0.016 A 
ATOM     33  C   UNL     1       0.514  14.248   1.565  1.00  0.00     0.010 A 
ATOM     34  C   UNL     1      -1.368  12.952   0.736  1.00  0.00     0.010 A 
ATOM     35  C   UNL     1      -0.473  14.029   0.596  1.00  0.00    -0.014 A 
BRANCH  35  36
ATOM     36  C   UNL     1      -0.643  14.983  -0.522  1.00  0.00     0.031 A 
ATOM     37  C   UNL     1      -1.739  16.004  -0.448  1.00  0.00     0.074 A 
ATOM     38  C   UNL     1       0.164  14.923  -1.595  1.00  0.00     0.049 A 
ATOM     39  N   UNL     1      -2.143  16.857  -1.353  1.00  0.00    -0.248 NA
ATOM     40  C   UNL     1      -2.484  16.067   0.819  1.00  0.00     0.031 C 
ATOM     41  C   UNL     1       1.292  14.008  -1.750  1.00  0.00     0.029 A 
ATOM     42  N   UNL     1       0.142  15.637  -2.766  1.00  0.00    -0.354 N 
ATOM     43  C   UNL     1      -3.193  17.553  -0.771  1.00  0.00     0.074 A 
ATOM     44  C   UNL     1      -3.384  17.003   0.554  1.00  0.00     0.031 C 
ATOM     45  C   UNL     1       1.847  14.204  -2.958  1.00  0.00     0.029 A 
ATOM     46  C   UNL     1       1.083  15.223  -3.675  1.00  0.00     0.049 A 
ATOM     47  H   UNL     1      -0.486  16.376  -2.937  1.00  0.00     0.167 HD
ATOM     48  C   UNL     1      -3.925  18.563  -1.297  1.00  0.00     0.037 A 
ATOM     49  C   UNL     1       1.276  15.600  -4.954  1.00  0.00     0.037 A 
ATOM     50  C   UNL     1      -3.731  19.093  -2.621  1.00  0.00     0.049 A 
ATOM     51  C   UNL     1       0.373  16.645  -5.556  1.00  0.00     0.074 A 
ATOM     52  C   UNL     1      -4.404  20.130  -3.243  1.00  0.00     0.029 A 
ATOM     53  N   UNL     1      -2.802  18.615  -3.534  1.00  0.00    -0.354 N 
ATOM     54  N   UNL     1      -0.601  17.321  -4.996  1.00  0.00    -0.248 NA
ATOM     55  C   UNL     1       0.590  16.973  -6.973  1.00  0.00     0.031 C 
ATOM     56  C   UNL     1      -3.928  20.235  -4.554  1.00  0.00     0.029 A 
ATOM     57  C   UNL     1      -2.914  19.306  -4.730  1.00  0.00     0.049 A 
ATOM     58  H   UNL     1      -2.158  17.891  -3.358  1.00  0.00     0.167 HD
ATOM     59  C   UNL     1      -1.096  18.168  -5.979  1.00  0.00     0.074 A 
ATOM     60  C   UNL     1      -0.304  17.932  -7.169  1.00  0.00     0.031 C 
ATOM     61  C   UNL     1      -2.117  19.058  -5.905  1.00  0.00     0.037 A 
BRANCH  48  62
ATOM     62  C   UNL     1      -5.028  19.132  -0.452  1.00  0.00     0.064 A 
ATOM     63  C   UNL     1      -4.763  19.887   0.702  1.00  0.00     0.173 A 
ATOM     64  C   UNL     1      -6.370  18.938  -0.812  1.00  0.00     0.173 A 
ATOM     65  F   UNL     1      -3.498  20.092   1.098  1.00  0.00    -0.203 F 
ATOM     66  C   UNL     1      -5.800  20.396   1.480  1.00  0.00     0.198 A 
ATOM     67  C   UNL     1      -7.404  19.477  -0.051  1.00  0.00     0.198 A 
ATOM     68  F   UNL     1      -6.681  18.229  -1.908  1.00  0.00    -0.203 F 
ATOM     69  F   UNL     1      -5.523  21.066   2.607  1.00  0.00    -0.200 F 
ATOM     70  C   UNL     1      -7.118  20.196   1.099  1.00  0.00     0.200 A 
ATOM     71  F   UNL     1      -8.677  19.295  -0.428  1.00  0.00    -0.200 F 
ATOM     72  F   UNL     1      -8.115  20.691   1.847  1.00  0.00    -0.200 F 
ENDBRANCH  48  62
BRANCH  49  73
ATOM     73  C   UNL     1       2.352  14.966  -5.760  1.00  0.00     0.064 A 
ATOM     74  C   UNL     1       3.463  15.706  -6.188  1.00  0.00     0.173 A 
ATOM     75  C   UNL     1       2.291  13.612  -6.126  1.00  0.00     0.173 A 
ATOM     76  F   UNL     1       3.555  17.009  -5.885  1.00  0.00    -0.203 F 
ATOM     77  C   UNL     1       4.463  15.121  -6.962  1.00  0.00     0.198 A 
ATOM     78  C   UNL     1       3.307  13.021  -6.874  1.00  0.00     0.198 A 
ATOM     79  F   UNL     1       1.248  12.859  -5.745  1.00  0.00    -0.203 F 
ATOM     80  F   UNL     1       5.492  15.863  -7.394  1.00  0.00    -0.200 F 
ATOM     81  C   UNL     1       4.388  13.777  -7.298  1.00  0.00     0.200 A 
ATOM     82  F   UNL     1       3.237  11.719  -7.184  1.00  0.00    -0.200 F 
ATOM     83  F   UNL     1       5.354  13.214  -8.036  1.00  0.00    -0.200 F 
ENDBRANCH  49  73
BRANCH  61  84
ATOM     84  C   UNL     1      -2.428  19.860  -7.137  1.00  0.00     0.064 A 
ATOM     85  C   UNL     1      -3.037  19.278  -8.258  1.00  0.00     0.173 A 
ATOM     86  C   UNL     1      -2.174  21.241  -7.170  1.00  0.00     0.173 A 
ATOM     87  F   UNL     1      -3.285  17.960  -8.283  1.00  0.00    -0.203 F 
ATOM     88  C   UNL     1      -3.367  20.045  -9.372  1.00  0.00     0.198 A 
ATOM     89  C   UNL     1      -2.535  22.010  -8.273  1.00  0.00     0.198 A 
ATOM     90  F   UNL     1      -1.599  21.848  -6.122  1.00  0.00    -0.203 F 
ATOM     91  F   UNL     1      -3.913  19.461 -10.448  1.00  0.00    -0.200 F 
ATOM     92  C   UNL     1      -3.126  21.411  -9.375  1.00  0.00     0.200 A 
ATOM     93  F   UNL     1      -2.316  23.332  -8.266  1.00  0.00    -0.200 F 
ATOM     94  F   UNL     1      -3.461  22.150 -10.441  1.00  0.00    -0.200 F 
ENDBRANCH  61  84
ENDBRANCH  35  36
ENDBRANCH  28  30
ENDBRANCH  27  28
ENDBRANCH  26  27
ENDBRANCH  25  26
ENDBRANCH   1  25
TORSDOF 17
