REMARK SMILES O=C(N/N=C\c1ccccc1C(=O)OCCOCCOC(=O)c1ccc(-c2c3nc(c(-c4c(F)c(F)c(F)c(F)c4F)c4ccc([nH]4)c(-c4c(F)c(F)c(F)c(F)c4F)c4nc(c(-c5c(F)c(F)c(F)c(F)c5F)c5ccc2[nH]5)C=C4)C=C3)cc1)C(=O)N1CCCCC1
REMARK SMILES IDX 16 1 15 2 14 3 12 4 13 5 11 6 6 7 7 8 8 9 10 10 9 11 5 12
REMARK SMILES IDX 4 13 3 14 1 15 2 16 86 18 87 19 88 20 89 21 93 22 90 23
REMARK SMILES IDX 92 24 91 25 17 26 18 27 19 28 20 29 21 30 22 31 23 32 24 33
REMARK SMILES IDX 85 34 25 35 84 36 26 37 27 38 28 39 78 40 29 41 83 42 77 43
REMARK SMILES IDX 79 44 30 45 82 46 76 47 75 48 31 50 63 51 43 52 62 53 44 54
REMARK SMILES IDX 47 55 61 56 80 57 45 58 46 59 60 61 81 62 48 63 32 64 33 65
REMARK SMILES IDX 41 66 34 67 35 68 39 69 42 70 36 71 37 72 40 73 38 74 64 75
REMARK SMILES IDX 65 76 73 77 66 78 67 79 71 80 74 81 68 82 69 83 72 84 70 85
REMARK SMILES IDX 49 86 50 87 58 88 51 89 52 90 56 91 59 92 53 93 54 94 57 95
REMARK SMILES IDX 55 96
REMARK H PARENT 3 17 79 49 47 60
REMARK Flexibility Score: inf
ROOT
ATOM      1  C   UNL     1       2.359  -4.497  -0.786  1.00  0.00     0.202 C 
ENDROOT
BRANCH   1   2
ATOM      2  C   UNL     1       1.720  -3.134  -1.062  1.00  0.00     0.261 C 
BRANCH   2   3
ATOM      3  O   UNL     1       2.526  -2.042  -0.577  1.00  0.00    -0.460 OA
BRANCH   3   4
ATOM      4  C   UNL     1       2.121  -1.521   0.603  1.00  0.00     0.338 C 
ATOM      5  O   UNL     1       1.253  -1.956   1.339  1.00  0.00    -0.246 OA
BRANCH   4   6
ATOM      6  C   UNL     1       2.951  -0.365   0.956  1.00  0.00     0.068 A 
ATOM      7  C   UNL     1       3.646   0.739  -0.294  1.00  0.00     0.009 A 
ATOM      8  C   UNL     1       4.308   2.409   0.175  1.00  0.00     0.010 A 
ATOM      9  C   UNL     1       4.203   2.939   1.911  1.00  0.00     0.001 A 
ATOM     10  C   UNL     1       2.853   0.174   2.676  1.00  0.00     0.016 A 
ATOM     11  C   UNL     1       3.457   1.847   3.147  1.00  0.00     0.001 A 
BRANCH   7  12
ATOM     12  C   UNL     1       3.123   0.591  -1.628  1.00  0.00     0.142 C 
ATOM     13  N   UNL     1       2.198   1.379  -2.054  1.00  0.00    -0.180 NA
BRANCH  13  14
ATOM     14  N   UNL     1       1.754   2.384  -1.234  1.00  0.00    -0.239 N 
ATOM     15  O   UNL     1       1.825   3.927   0.407  1.00  0.00    -0.262 OA
ATOM     16  C   UNL     1       2.097   2.770   0.068  1.00  0.00     0.329 C 
ATOM     17  H   UNL     1       1.055   2.945  -1.641  1.00  0.00     0.194 HD
BRANCH  16  18
ATOM     18  C   UNL     1       2.693   1.695   1.226  1.00  0.00     0.313 C 
ATOM     19  O   UNL     1       1.564   1.579   1.829  1.00  0.00    -0.263 OA
ATOM     20  N   UNL     1       4.494   0.910   1.569  1.00  0.00    -0.334 N 
ATOM     21  C   UNL     1       5.193   0.135   2.925  1.00  0.00     0.120 C 
ATOM     22  C   UNL     1       5.908   0.765   0.600  1.00  0.00     0.120 C 
ATOM     23  C   UNL     1       6.413   0.898   3.475  1.00  0.00     0.022 C 
ATOM     24  C   UNL     1       7.097   1.550   1.171  1.00  0.00     0.022 C 
ATOM     25  C   UNL     1       7.560   0.976   2.491  1.00  0.00     0.004 C 
ENDBRANCH  16  18
ENDBRANCH  13  14
ENDBRANCH   7  12
ENDBRANCH   4   6
ENDBRANCH   3   4
ENDBRANCH   2   3
ENDBRANCH   1   2
BRANCH   1  26
ATOM     26  O   UNL     1       2.226  -4.945   0.561  1.00  0.00    -0.374 OA
BRANCH  26  27
ATOM     27  C   UNL     1       3.248  -4.544   1.477  1.00  0.00     0.202 C 
BRANCH  27  28
ATOM     28  C   UNL     1       4.521  -5.379   1.353  1.00  0.00     0.261 C 
BRANCH  28  29
ATOM     29  O   UNL     1       5.299  -4.883   0.245  1.00  0.00    -0.460 OA
BRANCH  29  30
ATOM     30  C   UNL     1       5.810  -5.843  -0.554  1.00  0.00     0.338 C 
ATOM     31  O   UNL     1       5.842  -7.044  -0.351  1.00  0.00    -0.246 OA
BRANCH  30  32
ATOM     32  C   UNL     1       6.206  -5.244  -1.839  1.00  0.00     0.060 A 
ATOM     33  C   UNL     1       5.637  -5.781  -2.999  1.00  0.00     0.016 A 
ATOM     34  C   UNL     1       7.191  -4.255  -1.915  1.00  0.00     0.016 A 
ATOM     35  C   UNL     1       6.108  -5.385  -4.247  1.00  0.00     0.010 A 
ATOM     36  C   UNL     1       7.678  -3.873  -3.170  1.00  0.00     0.010 A 
ATOM     37  C   UNL     1       7.173  -4.476  -4.335  1.00  0.00    -0.014 A 
BRANCH  37  38
ATOM     38  C   UNL     1       7.899  -4.362  -5.620  1.00  0.00     0.031 A 
ATOM     39  C   UNL     1       8.951  -5.392  -5.935  1.00  0.00     0.074 A 
ATOM     40  C   UNL     1       7.601  -3.409  -6.518  1.00  0.00     0.049 A 
ATOM     41  N   UNL     1       9.652  -5.559  -7.027  1.00  0.00    -0.248 NA
ATOM     42  C   UNL     1       9.242  -6.376  -4.877  1.00  0.00     0.031 C 
ATOM     43  C   UNL     1       6.584  -2.374  -6.352  1.00  0.00     0.029 A 
ATOM     44  N   UNL     1       8.128  -3.172  -7.762  1.00  0.00    -0.354 N 
ATOM     45  C   UNL     1      10.437  -6.681  -6.801  1.00  0.00     0.074 A 
ATOM     46  C   UNL     1      10.154  -7.140  -5.459  1.00  0.00     0.031 C 
ATOM     47  C   UNL     1       6.560  -1.609  -7.458  1.00  0.00     0.029 A 
ATOM     48  C   UNL     1       7.561  -2.102  -8.405  1.00  0.00     0.049 A 
ATOM     49  H   UNL     1       8.845  -3.719  -8.157  1.00  0.00     0.167 HD
ATOM     50  C   UNL     1      11.308  -7.287  -7.640  1.00  0.00     0.037 A 
ATOM     51  C   UNL     1       7.821  -1.585  -9.620  1.00  0.00     0.037 A 
ATOM     52  C   UNL     1      11.621  -6.829  -8.963  1.00  0.00     0.049 A 
ATOM     53  C   UNL     1       8.867  -2.218 -10.497  1.00  0.00     0.074 A 
ATOM     54  C   UNL     1      12.491  -7.380  -9.887  1.00  0.00     0.029 A 
ATOM     55  N   UNL     1      11.079  -5.695  -9.545  1.00  0.00    -0.354 N 
ATOM     56  N   UNL     1       9.582  -3.295 -10.284  1.00  0.00    -0.248 NA
ATOM     57  C   UNL     1       9.142  -1.558 -11.782  1.00  0.00     0.031 C 
ATOM     58  C   UNL     1      12.493  -6.563 -11.024  1.00  0.00     0.029 A 
ATOM     59  C   UNL     1      11.613  -5.514 -10.808  1.00  0.00     0.049 A 
ATOM     60  H   UNL     1      10.413  -5.106  -9.123  1.00  0.00     0.167 HD
ATOM     61  C   UNL     1      10.378  -3.451 -11.410  1.00  0.00     0.074 A 
ATOM     62  C   UNL     1      10.061  -2.358 -12.306  1.00  0.00     0.031 C 
ATOM     63  C   UNL     1      11.287  -4.418 -11.680  1.00  0.00     0.037 A 
BRANCH  50  64
ATOM     64  C   UNL     1      11.984  -8.519  -7.135  1.00  0.00     0.064 A 
ATOM     65  C   UNL     1      11.352  -9.768  -7.212  1.00  0.00     0.173 A 
ATOM     66  C   UNL     1      13.267  -8.455  -6.577  1.00  0.00     0.173 A 
ATOM     67  F   UNL     1      10.116  -9.868  -7.723  1.00  0.00    -0.203 F 
ATOM     68  C   UNL     1      11.982 -10.915  -6.739  1.00  0.00     0.198 A 
ATOM     69  C   UNL     1      13.897  -9.605  -6.110  1.00  0.00     0.198 A 
ATOM     70  F   UNL     1      13.900  -7.277  -6.472  1.00  0.00    -0.203 F 
ATOM     71  F   UNL     1      11.355 -12.097  -6.801  1.00  0.00    -0.200 F 
ATOM     72  C   UNL     1      13.254 -10.833  -6.190  1.00  0.00     0.200 A 
ATOM     73  F   UNL     1      15.122  -9.525  -5.573  1.00  0.00    -0.200 F 
ATOM     74  F   UNL     1      13.858 -11.937  -5.729  1.00  0.00    -0.200 F 
ENDBRANCH  50  64
BRANCH  51  75
ATOM     75  C   UNL     1       7.075  -0.394 -10.088  1.00  0.00     0.064 A 
ATOM     76  C   UNL     1       6.027  -0.518 -11.008  1.00  0.00     0.173 A 
ATOM     77  C   UNL     1       7.406   0.889  -9.633  1.00  0.00     0.173 A 
ATOM     78  F   UNL     1       5.695  -1.727 -11.485  1.00  0.00    -0.203 F 
ATOM     79  C   UNL     1       5.337   0.604 -11.461  1.00  0.00     0.198 A 
ATOM     80  C   UNL     1       6.710   2.008 -10.079  1.00  0.00     0.198 A 
ATOM     81  F   UNL     1       8.410   1.052  -8.759  1.00  0.00    -0.203 F 
ATOM     82  F   UNL     1       4.352   0.465 -12.359  1.00  0.00    -0.200 F 
ATOM     83  C   UNL     1       5.677   1.865 -10.995  1.00  0.00     0.200 A 
ATOM     84  F   UNL     1       7.043   3.226  -9.629  1.00  0.00    -0.200 F 
ATOM     85  F   UNL     1       5.016   2.945 -11.435  1.00  0.00    -0.200 F 
ENDBRANCH  51  75
BRANCH  63  86
ATOM     86  C   UNL     1      12.000  -4.343 -12.992  1.00  0.00     0.064 A 
ATOM     87  C   UNL     1      13.127  -3.526 -13.154  1.00  0.00     0.173 A 
ATOM     88  C   UNL     1      11.587  -5.130 -14.075  1.00  0.00     0.173 A 
ATOM     89  F   UNL     1      13.547  -2.749 -12.145  1.00  0.00    -0.203 F 
ATOM     90  C   UNL     1      13.816  -3.497 -14.363  1.00  0.00     0.198 A 
ATOM     91  C   UNL     1      12.284  -5.105 -15.280  1.00  0.00     0.198 A 
ATOM     92  F   UNL     1      10.513  -5.925 -13.962  1.00  0.00    -0.203 F 
ATOM     93  F   UNL     1      14.882  -2.698 -14.505  1.00  0.00    -0.200 F 
ATOM     94  C   UNL     1      13.397  -4.288 -15.422  1.00  0.00     0.200 A 
ATOM     95  F   UNL     1      11.879  -5.870 -16.303  1.00  0.00    -0.200 F 
ATOM     96  F   UNL     1      14.063  -4.261 -16.585  1.00  0.00    -0.200 F 
ENDBRANCH  63  86
ENDBRANCH  37  38
ENDBRANCH  30  32
ENDBRANCH  29  30
ENDBRANCH  28  29
ENDBRANCH  27  28
ENDBRANCH  26  27
ENDBRANCH   1  26
TORSDOF 17
