REMARK SMILES C[C@@H]1[C@H](C(=O)OCCOCCOC(=O)c2ccc(-c3c4nc(c(-c5c(F)c(F)c(F)c(F)c5F)c5ccc([nH]5)c(-c5c(F)c(F)c(F)c(F)c5F)c5nc(c(-c6c(F)c(F)c(F)c(F)c6F)c6ccc3[nH]6)C=C5)C=C4)cc2)CC[N@@H+]1[C@@H](C)c1cc(F)cc(F)c1
REMARK SMILES IDX 9 1 8 2 7 3 6 4 4 5 5 6 3 7 1 8 2 9 80 10 78 11 79 12 81 14
REMARK SMILES IDX 82 15 83 16 84 17 90 18 85 19 88 20 86 21 87 22 89 23 10 24
REMARK SMILES IDX 11 25 12 26 13 27 14 28 15 29 16 30 77 31 17 32 76 33 18 34
REMARK SMILES IDX 19 35 20 36 70 37 21 38 75 39 69 40 71 41 22 42 74 43 68 44
REMARK SMILES IDX 67 45 23 47 55 48 35 49 54 50 36 51 39 52 53 53 72 54 37 55
REMARK SMILES IDX 38 56 52 58 73 59 40 60 24 61 25 62 33 63 26 64 27 65 31 66
REMARK SMILES IDX 34 67 28 68 29 69 32 70 30 71 56 72 57 73 65 74 58 75 59 76
REMARK SMILES IDX 63 77 66 78 60 79 61 80 64 81 62 82 41 83 42 84 50 85 43 86
REMARK SMILES IDX 44 87 48 88 51 89 45 90 46 91 49 92 47 93
REMARK H PARENT 80 13 71 46 39 57
REMARK Flexibility Score: inf
ROOT
ATOM      1  O   UNL     1       2.667   4.287  -1.062  1.00  0.00    -0.374 OA
ENDROOT
BRANCH   1   2
ATOM      2  C   UNL     1       2.591   4.300   0.362  1.00  0.00     0.202 C 
BRANCH   2   3
ATOM      3  C   UNL     1       1.183   4.243   0.959  1.00  0.00     0.261 C 
BRANCH   3   4
ATOM      4  O   UNL     1       0.668   2.900   0.887  1.00  0.00    -0.463 OA
BRANCH   4   5
ATOM      5  C   UNL     1      -0.212   2.646  -0.107  1.00  0.00     0.315 C 
ATOM      6  O   UNL     1      -0.718   3.504  -0.821  1.00  0.00    -0.252 OA
BRANCH   5   7
ATOM      7  C   UNL     1      -0.557   1.179  -0.244  1.00  0.00     0.162 C 
ATOM      8  C   UNL     1       1.726   0.356   0.737  1.00  0.00     0.076 C 
ATOM      9  C   UNL     1       0.491   0.052  -0.102  1.00  0.00     0.196 C 
ATOM     10  N   UNL     1      -0.307  -1.117   0.331  1.00  0.00    -0.326 N 
ATOM     11  C   UNL     1      -1.646   0.790   0.732  1.00  0.00     0.083 C 
ATOM     12  C   UNL     1      -1.687  -0.715   0.593  1.00  0.00     0.264 C 
ATOM     13  H   UNL     1      -0.261  -1.720  -0.491  1.00  0.00     0.348 HD
BRANCH  10  14
ATOM     14  C   UNL     1       0.250  -2.198   1.154  1.00  0.00     0.212 C 
ATOM     15  C   UNL     1       0.637  -1.792   2.591  1.00  0.00     0.081 C 
BRANCH  14  16
ATOM     16  C   UNL     1      -0.670  -3.430   1.148  1.00  0.00     0.015 A 
ATOM     17  C   UNL     1      -1.358  -3.867   2.295  1.00  0.00     0.049 A 
ATOM     18  C   UNL     1      -0.855  -4.158  -0.040  1.00  0.00     0.049 A 
ATOM     19  C   UNL     1      -2.156  -5.007   2.260  1.00  0.00     0.126 A 
ATOM     20  C   UNL     1      -1.672  -5.290  -0.055  1.00  0.00     0.126 A 
ATOM     21  F   UNL     1      -2.772  -5.406   3.380  1.00  0.00    -0.207 F 
ATOM     22  C   UNL     1      -2.318  -5.730   1.091  1.00  0.00     0.078 A 
ATOM     23  F   UNL     1      -1.834  -5.968  -1.198  1.00  0.00    -0.207 F 
ENDBRANCH  14  16
ENDBRANCH  10  14
ENDBRANCH   5   7
ENDBRANCH   4   5
ENDBRANCH   3   4
ENDBRANCH   2   3
ENDBRANCH   1   2
BRANCH   1  24
ATOM     24  C   UNL     1       2.713   3.017  -1.710  1.00  0.00     0.202 C 
BRANCH  24  25
ATOM     25  C   UNL     1       4.075   2.298  -1.714  1.00  0.00     0.261 C 
BRANCH  25  26
ATOM     26  O   UNL     1       4.537   1.957  -0.391  1.00  0.00    -0.460 OA
BRANCH  26  27
ATOM     27  C   UNL     1       5.480   2.785   0.117  1.00  0.00     0.338 C 
ATOM     28  O   UNL     1       6.038   3.705  -0.463  1.00  0.00    -0.246 OA
BRANCH  27  29
ATOM     29  C   UNL     1       5.630   2.568   1.573  1.00  0.00     0.060 A 
ATOM     30  C   UNL     1       5.664   3.708   2.387  1.00  0.00     0.016 A 
ATOM     31  C   UNL     1       5.788   1.299   2.138  1.00  0.00     0.016 A 
ATOM     32  C   UNL     1       5.927   3.592   3.751  1.00  0.00     0.010 A 
ATOM     33  C   UNL     1       6.054   1.185   3.510  1.00  0.00     0.010 A 
ATOM     34  C   UNL     1       6.169   2.334   4.317  1.00  0.00    -0.014 A 
BRANCH  34  35
ATOM     35  C   UNL     1       6.700   2.251   5.704  1.00  0.00     0.031 A 
ATOM     36  C   UNL     1       8.168   1.982   5.912  1.00  0.00     0.074 A 
ATOM     37  C   UNL     1       5.907   2.475   6.769  1.00  0.00     0.049 A 
ATOM     38  N   UNL     1       8.846   1.873   7.028  1.00  0.00    -0.248 NA
ATOM     39  C   UNL     1       8.980   1.813   4.698  1.00  0.00     0.031 C 
ATOM     40  C   UNL     1       4.482   2.791   6.708  1.00  0.00     0.029 A 
ATOM     41  N   UNL     1       6.195   2.472   8.112  1.00  0.00    -0.354 N 
ATOM     42  C   UNL     1      10.159   1.619   6.650  1.00  0.00     0.074 A 
ATOM     43  C   UNL     1      10.176   1.550   5.205  1.00  0.00     0.031 C 
ATOM     44  C   UNL     1       4.018   2.950   7.959  1.00  0.00     0.029 A 
ATOM     45  C   UNL     1       5.104   2.713   8.910  1.00  0.00     0.049 A 
ATOM     46  H   UNL     1       7.098   2.312   8.469  1.00  0.00     0.167 HD
ATOM     47  C   UNL     1      11.254   1.470   7.434  1.00  0.00     0.037 A 
ATOM     48  C   UNL     1       4.989   2.723  10.254  1.00  0.00     0.037 A 
ATOM     49  C   UNL     1      11.242   1.543   8.872  1.00  0.00     0.049 A 
ATOM     50  C   UNL     1       6.209   2.474  11.106  1.00  0.00     0.074 A 
ATOM     51  C   UNL     1      12.305   1.426   9.750  1.00  0.00     0.029 A 
ATOM     52  N   UNL     1      10.107   1.744   9.644  1.00  0.00    -0.354 N 
ATOM     53  N   UNL     1       7.450   2.263  10.739  1.00  0.00    -0.248 NA
ATOM     54  C   UNL     1       6.010   2.469  12.563  1.00  0.00     0.031 C 
ATOM     55  C   UNL     1      11.806   1.490  11.055  1.00  0.00     0.029 A 
ATOM     56  C   UNL     1      10.441   1.719  10.990  1.00  0.00     0.049 A 
ATOM     57  H   UNL     1       9.199   1.882   9.290  1.00  0.00     0.167 HD
ATOM     58  C   UNL     1       8.182   2.136  11.914  1.00  0.00     0.074 A 
ATOM     59  C   UNL     1       7.249   2.308  13.007  1.00  0.00     0.031 C 
ATOM     60  C   UNL     1       9.508   1.901  12.073  1.00  0.00     0.037 A 
BRANCH  47  61
ATOM     61  C   UNL     1      12.563   1.183   6.753  1.00  0.00     0.064 A 
ATOM     62  C   UNL     1      13.226   2.151   5.984  1.00  0.00     0.173 A 
ATOM     63  C   UNL     1      13.183  -0.067   6.910  1.00  0.00     0.173 A 
ATOM     64  F   UNL     1      12.672   3.357   5.792  1.00  0.00    -0.203 F 
ATOM     65  C   UNL     1      14.446   1.868   5.373  1.00  0.00     0.198 A 
ATOM     66  C   UNL     1      14.418  -0.334   6.327  1.00  0.00     0.198 A 
ATOM     67  F   UNL     1      12.596  -1.026   7.641  1.00  0.00    -0.203 F 
ATOM     68  F   UNL     1      15.036   2.791   4.601  1.00  0.00    -0.200 F 
ATOM     69  C   UNL     1      15.045   0.630   5.552  1.00  0.00     0.200 A 
ATOM     70  F   UNL     1      15.002  -1.525   6.514  1.00  0.00    -0.200 F 
ATOM     71  F   UNL     1      16.223   0.364   4.973  1.00  0.00    -0.200 F 
ENDBRANCH  47  61
BRANCH  48  72
ATOM     72  C   UNL     1       3.664   2.963  10.887  1.00  0.00     0.064 A 
ATOM     73  C   UNL     1       3.422   4.111  11.655  1.00  0.00     0.173 A 
ATOM     74  C   UNL     1       2.623   2.030  10.766  1.00  0.00     0.173 A 
ATOM     75  F   UNL     1       4.394   5.019  11.825  1.00  0.00    -0.203 F 
ATOM     76  C   UNL     1       2.200   4.305  12.295  1.00  0.00     0.198 A 
ATOM     77  C   UNL     1       1.390   2.242  11.379  1.00  0.00     0.198 A 
ATOM     78  F   UNL     1       2.802   0.913  10.046  1.00  0.00    -0.203 F 
ATOM     79  F   UNL     1       2.015   5.383  13.069  1.00  0.00    -0.200 F 
ATOM     80  C   UNL     1       1.182   3.374  12.151  1.00  0.00     0.200 A 
ATOM     81  F   UNL     1       0.406   1.345  11.225  1.00  0.00    -0.200 F 
ATOM     82  F   UNL     1       0.006   3.562  12.765  1.00  0.00    -0.200 F 
ENDBRANCH  48  72
BRANCH  60  83
ATOM     83  C   UNL     1      10.046   1.859  13.477  1.00  0.00     0.064 A 
ATOM     84  C   UNL     1       9.738   0.813  14.359  1.00  0.00     0.173 A 
ATOM     85  C   UNL     1      10.915   2.864  13.932  1.00  0.00     0.173 A 
ATOM     86  F   UNL     1       8.903  -0.166  13.980  1.00  0.00    -0.203 F 
ATOM     87  C   UNL     1      10.256   0.790  15.653  1.00  0.00     0.198 A 
ATOM     88  C   UNL     1      11.459   2.818  15.213  1.00  0.00     0.198 A 
ATOM     89  F   UNL     1      11.252   3.884  13.129  1.00  0.00    -0.203 F 
ATOM     90  F   UNL     1       9.904  -0.192  16.495  1.00  0.00    -0.200 F 
ATOM     91  C   UNL     1      11.121   1.787  16.076  1.00  0.00     0.200 A 
ATOM     92  F   UNL     1      12.310   3.773  15.613  1.00  0.00    -0.200 F 
ATOM     93  F   UNL     1      11.625   1.758  17.317  1.00  0.00    -0.200 F 
ENDBRANCH  60  83
ENDBRANCH  34  35
ENDBRANCH  27  29
ENDBRANCH  26  27
ENDBRANCH  25  26
ENDBRANCH  24  25
ENDBRANCH   1  24
TORSDOF 16
