REMARK SMILES CC1=C[C@@H]([C@@H]2N=N[C@H](S)N2/N=C/c2ccc(C(=O)OCCOCCOC(=O)c3ccc(-c4c5nc(c(-c6c(F)c(F)c(F)c(F)c6F)c6ccc([nH]6)c(-c6c(F)c(F)c(F)c(F)c6F)c6nc(c(-c7c(F)c(F)c(F)c(F)c7F)c7ccc4[nH]7)C=C6)C=C5)cc3)cc2)N=N1
REMARK SMILES IDX 21 1 20 2 19 3 17 4 18 5 16 6 13 7 14 8 92 9 15 10 91 11
REMARK SMILES IDX 12 12 11 13 10 14 5 15 6 16 7 17 8 18 4 19 1 20 2 21 3 22
REMARK SMILES IDX 94 23 93 24 9 25 22 27 23 28 24 29 25 30 26 31 27 32 28 33
REMARK SMILES IDX 29 34 90 35 30 36 89 37 31 38 32 39 33 40 83 41 34 42 88 43
REMARK SMILES IDX 82 44 84 45 35 46 87 47 81 48 80 49 36 51 68 52 48 53 67 54
REMARK SMILES IDX 49 55 52 56 66 57 85 58 50 59 51 60 65 62 86 63 53 64 37 65
REMARK SMILES IDX 38 66 46 67 39 68 40 69 44 70 47 71 41 72 42 73 45 74 43 75
REMARK SMILES IDX 69 76 70 77 78 78 71 79 72 80 76 81 79 82 73 83 74 84 77 85
REMARK SMILES IDX 75 86 54 87 55 88 63 89 56 90 57 91 61 92 64 93 58 94 59 95
REMARK SMILES IDX 62 96 60 97
REMARK H PARENT 9 26 84 50 52 61
REMARK Flexibility Score: inf
ROOT
ATOM      1  C   UNL     1       3.049  -7.417  12.709  1.00  0.00     0.202 C 
ENDROOT
BRANCH   1   2
ATOM      2  C   UNL     1       3.698  -6.615  11.578  1.00  0.00     0.261 C 
BRANCH   2   3
ATOM      3  O   UNL     1       2.740  -5.960  10.730  1.00  0.00    -0.460 OA
BRANCH   3   4
ATOM      4  C   UNL     1       2.638  -6.502   9.492  1.00  0.00     0.338 C 
ATOM      5  O   UNL     1       3.279  -7.439   9.046  1.00  0.00    -0.246 OA
BRANCH   4   6
ATOM      6  C   UNL     1       1.500  -5.917   8.754  1.00  0.00     0.060 A 
ATOM      7  C   UNL     1      -0.470  -4.916   7.071  1.00  0.00    -0.005 A 
ATOM      8  C   UNL     1      -0.266  -6.295   7.139  1.00  0.00     0.010 A 
ATOM      9  C   UNL     1       0.249  -4.042   7.896  1.00  0.00     0.010 A 
ATOM     10  C   UNL     1       0.733  -6.792   7.971  1.00  0.00     0.016 A 
ATOM     11  C   UNL     1       1.230  -4.545   8.756  1.00  0.00     0.016 A 
BRANCH   7  12
ATOM     12  C   UNL     1      -1.392  -4.412   6.038  1.00  0.00     0.141 C 
ATOM     13  N   UNL     1      -1.281  -3.208   5.579  1.00  0.00    -0.180 NA
BRANCH  13  14
ATOM     14  N   UNL     1      -2.120  -2.811   4.595  1.00  0.00    -0.233 NA
ATOM     15  C   UNL     1      -1.723  -1.748   3.667  1.00  0.00     0.274 C 
ATOM     16  N   UNL     1      -2.549  -1.884   2.441  1.00  0.00    -0.161 NA
ATOM     17  N   UNL     1      -3.302  -2.884   2.530  1.00  0.00    -0.153 NA
ATOM     18  C   UNL     1      -3.106  -3.566   3.828  1.00  0.00     0.298 C 
BRANCH  15  19
ATOM     19  C   UNL     1      -1.897  -0.349   4.302  1.00  0.00     0.201 C 
ATOM     20  C   UNL     1      -5.132   1.454   4.257  1.00  0.00     0.068 C 
ATOM     21  C   UNL     1      -3.756   0.907   4.155  1.00  0.00     0.058 C 
ATOM     22  C   UNL     1      -3.249  -0.092   4.872  1.00  0.00     0.031 C 
ATOM     23  N   UNL     1      -2.872   1.382   3.220  1.00  0.00    -0.160 NA
ATOM     24  N   UNL     1      -1.792   0.723   3.265  1.00  0.00    -0.177 NA
ENDBRANCH  15  19
BRANCH  18  25
ATOM     25  S   UNL     1      -4.631  -3.744   4.822  1.00  0.00    -0.128 SA
ATOM     26  H   UNL     1      -5.112  -2.511   5.139  1.00  0.00     0.106 HD
ENDBRANCH  18  25
ENDBRANCH  13  14
ENDBRANCH   7  12
ENDBRANCH   4   6
ENDBRANCH   3   4
ENDBRANCH   2   3
ENDBRANCH   1   2
BRANCH   1  27
ATOM     27  O   UNL     1       2.211  -8.519  12.367  1.00  0.00    -0.374 OA
BRANCH  27  28
ATOM     28  C   UNL     1       0.957  -8.290  11.736  1.00  0.00     0.202 C 
BRANCH  28  29
ATOM     29  C   UNL     1      -0.155  -7.645  12.548  1.00  0.00     0.261 C 
BRANCH  29  30
ATOM     30  O   UNL     1       0.204  -6.365  13.045  1.00  0.00    -0.460 OA
BRANCH  30  31
ATOM     31  C   UNL     1       0.510  -6.367  14.364  1.00  0.00     0.338 C 
ATOM     32  O   UNL     1       0.818  -7.321  15.052  1.00  0.00    -0.246 OA
BRANCH  31  33
ATOM     33  C   UNL     1       0.216  -5.037  14.904  1.00  0.00     0.060 A 
ATOM     34  C   UNL     1       0.353  -4.896  16.286  1.00  0.00     0.016 A 
ATOM     35  C   UNL     1      -0.478  -4.103  14.121  1.00  0.00     0.016 A 
ATOM     36  C   UNL     1      -0.407  -3.940  16.914  1.00  0.00     0.010 A 
ATOM     37  C   UNL     1      -1.248  -3.158  14.751  1.00  0.00     0.010 A 
ATOM     38  C   UNL     1      -1.267  -3.150  16.141  1.00  0.00    -0.014 A 
BRANCH  38  39
ATOM     39  C   UNL     1      -2.092  -2.187  16.831  1.00  0.00     0.031 A 
ATOM     40  C   UNL     1      -1.288  -1.067  17.357  1.00  0.00     0.074 A 
ATOM     41  C   UNL     1      -3.432  -2.284  16.902  1.00  0.00     0.049 A 
ATOM     42  N   UNL     1      -1.012  -0.830  18.594  1.00  0.00    -0.248 NA
ATOM     43  C   UNL     1      -0.522  -0.253  16.399  1.00  0.00     0.031 C 
ATOM     44  C   UNL     1      -4.315  -3.224  16.211  1.00  0.00     0.029 A 
ATOM     45  N   UNL     1      -4.304  -1.480  17.567  1.00  0.00    -0.354 N 
ATOM     46  C   UNL     1      -0.221   0.310  18.579  1.00  0.00     0.074 A 
ATOM     47  C   UNL     1       0.226   0.481  17.224  1.00  0.00     0.031 C 
ATOM     48  C   UNL     1      -5.593  -2.789  16.311  1.00  0.00     0.029 A 
ATOM     49  C   UNL     1      -5.630  -1.619  17.172  1.00  0.00     0.049 A 
ATOM     50  H   UNL     1      -4.021  -0.851  18.270  1.00  0.00     0.167 HD
ATOM     51  C   UNL     1      -0.282   1.185  19.618  1.00  0.00     0.037 A 
ATOM     52  C   UNL     1      -6.642  -0.767  17.480  1.00  0.00     0.037 A 
ATOM     53  C   UNL     1      -0.813   0.544  20.799  1.00  0.00     0.049 A 
ATOM     54  C   UNL     1      -6.216   0.005  18.679  1.00  0.00     0.074 A 
ATOM     55  C   UNL     1      -0.447  -0.555  21.553  1.00  0.00     0.029 A 
ATOM     56  N   UNL     1      -2.119   0.806  21.135  1.00  0.00    -0.354 N 
ATOM     57  N   UNL     1      -6.075  -0.524  19.862  1.00  0.00    -0.248 NA
ATOM     58  C   UNL     1      -5.486   1.245  18.458  1.00  0.00     0.031 C 
ATOM     59  C   UNL     1      -1.675  -1.175  21.930  1.00  0.00     0.029 A 
ATOM     60  C   UNL     1      -2.720  -0.382  21.455  1.00  0.00     0.049 A 
ATOM     61  H   UNL     1      -2.547   1.692  21.144  1.00  0.00     0.167 HD
ATOM     62  C   UNL     1      -4.911   0.043  20.360  1.00  0.00     0.074 A 
ATOM     63  C   UNL     1      -4.635   1.181  19.486  1.00  0.00     0.031 C 
ATOM     64  C   UNL     1      -4.122  -0.642  21.239  1.00  0.00     0.037 A 
BRANCH  51  65
ATOM     65  C   UNL     1      -0.318   2.683  19.426  1.00  0.00     0.064 A 
ATOM     66  C   UNL     1      -0.331   3.502  20.571  1.00  0.00     0.173 A 
ATOM     67  C   UNL     1      -0.673   3.325  18.217  1.00  0.00     0.173 A 
ATOM     68  F   UNL     1      -0.022   2.995  21.774  1.00  0.00    -0.203 F 
ATOM     69  C   UNL     1      -0.772   4.826  20.524  1.00  0.00     0.198 A 
ATOM     70  C   UNL     1      -1.060   4.661  18.166  1.00  0.00     0.198 A 
ATOM     71  F   UNL     1      -0.780   2.675  17.053  1.00  0.00    -0.203 F 
ATOM     72  F   UNL     1      -0.910   5.518  21.662  1.00  0.00    -0.200 F 
ATOM     73  C   UNL     1      -1.147   5.400  19.324  1.00  0.00     0.200 A 
ATOM     74  F   UNL     1      -1.437   5.190  16.994  1.00  0.00    -0.200 F 
ATOM     75  F   UNL     1      -1.641   6.644  19.287  1.00  0.00    -0.200 F 
ENDBRANCH  51  65
BRANCH  52  76
ATOM     76  C   UNL     1      -7.765  -0.321  16.615  1.00  0.00     0.064 A 
ATOM     77  C   UNL     1      -8.831   0.428  17.147  1.00  0.00     0.173 A 
ATOM     78  C   UNL     1      -7.676  -0.360  15.210  1.00  0.00     0.173 A 
ATOM     79  F   UNL     1      -8.968   0.557  18.475  1.00  0.00    -0.203 F 
ATOM     80  C   UNL     1      -9.726   1.123  16.325  1.00  0.00     0.198 A 
ATOM     81  C   UNL     1      -8.575   0.327  14.391  1.00  0.00     0.198 A 
ATOM     82  F   UNL     1      -6.659  -0.982  14.598  1.00  0.00    -0.203 F 
ATOM     83  F   UNL     1     -10.685   1.884  16.872  1.00  0.00    -0.200 F 
ATOM     84  C   UNL     1      -9.589   1.082  14.948  1.00  0.00     0.200 A 
ATOM     85  F   UNL     1      -8.408   0.308  13.061  1.00  0.00    -0.200 F 
ATOM     86  F   UNL     1     -10.403   1.800  14.162  1.00  0.00    -0.200 F 
ENDBRANCH  52  76
BRANCH  64  87
ATOM     87  C   UNL     1      -4.689  -1.881  21.871  1.00  0.00     0.064 A 
ATOM     88  C   UNL     1      -5.064  -3.035  21.162  1.00  0.00     0.173 A 
ATOM     89  C   UNL     1      -4.728  -1.942  23.270  1.00  0.00     0.173 A 
ATOM     90  F   UNL     1      -4.960  -3.091  19.827  1.00  0.00    -0.203 F 
ATOM     91  C   UNL     1      -5.503  -4.180  21.827  1.00  0.00     0.198 A 
ATOM     92  C   UNL     1      -5.128  -3.098  23.933  1.00  0.00     0.198 A 
ATOM     93  F   UNL     1      -4.330  -0.888  24.000  1.00  0.00    -0.203 F 
ATOM     94  F   UNL     1      -5.871  -5.265  21.130  1.00  0.00    -0.200 F 
ATOM     95  C   UNL     1      -5.527  -4.212  23.212  1.00  0.00     0.200 A 
ATOM     96  F   UNL     1      -5.103  -3.139  25.272  1.00  0.00    -0.200 F 
ATOM     97  F   UNL     1      -5.911  -5.324  23.854  1.00  0.00    -0.200 F 
ENDBRANCH  64  87
ENDBRANCH  38  39
ENDBRANCH  31  33
ENDBRANCH  30  31
ENDBRANCH  29  30
ENDBRANCH  28  29
ENDBRANCH  27  28
ENDBRANCH   1  27
TORSDOF 18
