REMARK SMILES CN1C(=O)C[C@@H](C(=O)OCCOCCOC(=O)c2ccc(-c3c4nc(c(-c5c(F)c(F)c(F)c(F)c5F)c5ccc([nH]5)c(-c5c(F)c(F)c(F)c(F)c5F)c5nc(c(-c6c(F)c(F)c(F)c(F)c6F)c6ccc3[nH]6)C=C5)C=C4)cc2)C12CCN(C(=O)c1cccc3ccccc13)CC2
REMARK SMILES IDX 13 1 12 2 11 3 10 4 9 5 7 6 8 7 6 8 1 9 2 10 3 11 81 12 4 13
REMARK SMILES IDX 5 14 82 15 98 16 83 17 97 18 84 19 85 20 86 21 87 22 88 23
REMARK SMILES IDX 96 24 89 25 91 26 95 27 90 28 92 29 94 30 93 31 14 32 15 33
REMARK SMILES IDX 16 34 17 35 18 36 19 37 80 38 20 39 79 40 21 41 22 42 23 43
REMARK SMILES IDX 73 44 24 45 78 46 72 47 74 48 25 49 77 50 71 51 70 52 26 54
REMARK SMILES IDX 58 55 38 56 57 57 39 58 42 59 56 60 75 61 40 62 41 63 55 65
REMARK SMILES IDX 76 66 43 67 27 68 28 69 36 70 29 71 30 72 34 73 37 74 31 75
REMARK SMILES IDX 32 76 35 77 33 78 59 79 60 80 68 81 61 82 62 83 66 84 69 85
REMARK SMILES IDX 63 86 64 87 67 88 65 89 44 90 45 91 53 92 46 93 47 94 51 95
REMARK SMILES IDX 54 96 48 97 49 98 52 99 50 100
REMARK H PARENT 74 53 42 64
REMARK Flexibility Score: inf
ROOT
ATOM      1  C   UNL     1       2.997  -2.328  -6.315  1.00  0.00     0.202 C 
ENDROOT
BRANCH   1   2
ATOM      2  O   UNL     1       2.655  -1.281  -7.219  1.00  0.00    -0.374 OA
BRANCH   2   3
ATOM      3  C   UNL     1       2.381   0.008  -6.677  1.00  0.00     0.202 C 
BRANCH   3   4
ATOM      4  C   UNL     1       1.099   0.175  -5.851  1.00  0.00     0.261 C 
BRANCH   4   5
ATOM      5  O   UNL     1       1.102  -0.449  -4.545  1.00  0.00    -0.463 OA
BRANCH   5   6
ATOM      6  C   UNL     1       0.255  -1.497  -4.407  1.00  0.00     0.311 C 
ATOM      7  O   UNL     1      -0.297  -2.058  -5.351  1.00  0.00    -0.252 OA
BRANCH   6   8
ATOM      8  C   UNL     1      -0.099  -1.884  -2.983  1.00  0.00     0.134 C 
ATOM      9  C   UNL     1       0.903   0.243  -0.030  1.00  0.00     0.147 C 
ATOM     10  N   UNL     1       0.318  -0.426  -1.181  1.00  0.00    -0.339 N 
ATOM     11  C   UNL     1      -0.934  -0.073  -1.656  1.00  0.00     0.223 C 
ATOM     12  C   UNL     1       0.830  -1.682  -1.756  1.00  0.00     0.060 C 
ATOM     13  O   UNL     1      -1.607   0.880  -1.302  1.00  0.00    -0.275 OA
ATOM     14  C   UNL     1      -1.381  -1.111  -2.643  1.00  0.00     0.118 C 
ATOM     15  C   UNL     1       2.342  -1.612  -2.043  1.00  0.00     0.051 C 
ATOM     16  C   UNL     1       0.594  -2.841  -0.733  1.00  0.00     0.051 C 
ATOM     17  C   UNL     1       2.907  -2.950  -2.509  1.00  0.00     0.122 C 
ATOM     18  C   UNL     1       1.281  -4.155  -1.113  1.00  0.00     0.122 C 
ATOM     19  N   UNL     1       2.680  -3.962  -1.490  1.00  0.00    -0.338 N 
ATOM     20  C   UNL     1       3.632  -4.851  -0.982  1.00  0.00     0.254 C 
ATOM     21  O   UNL     1       3.349  -5.703  -0.139  1.00  0.00    -0.269 OA
BRANCH  20  22
ATOM     22  C   UNL     1       5.023  -4.896  -1.508  1.00  0.00     0.047 A 
ATOM     23  C   UNL     1       5.375  -6.116  -2.114  1.00  0.00     0.014 A 
ATOM     24  C   UNL     1       6.001  -3.884  -1.300  1.00  0.00    -0.006 A 
ATOM     25  C   UNL     1       6.681  -6.354  -2.523  1.00  0.00     0.001 A 
ATOM     26  C   UNL     1       7.328  -4.145  -1.736  1.00  0.00    -0.018 A 
ATOM     27  C   UNL     1       5.758  -2.637  -0.676  1.00  0.00     0.009 A 
ATOM     28  C   UNL     1       7.651  -5.375  -2.329  1.00  0.00     0.009 A 
ATOM     29  C   UNL     1       8.333  -3.181  -1.560  1.00  0.00     0.009 A 
ATOM     30  C   UNL     1       6.761  -1.671  -0.546  1.00  0.00     0.001 A 
ATOM     31  C   UNL     1       8.049  -1.945  -0.985  1.00  0.00     0.001 A 
ENDBRANCH  20  22
ENDBRANCH   6   8
ENDBRANCH   5   6
ENDBRANCH   4   5
ENDBRANCH   3   4
ENDBRANCH   2   3
ENDBRANCH   1   2
BRANCH   1  32
ATOM     32  C   UNL     1       4.359  -2.196  -5.628  1.00  0.00     0.261 C 
BRANCH  32  33
ATOM     33  O   UNL     1       4.432  -0.994  -4.839  1.00  0.00    -0.460 OA
BRANCH  33  34
ATOM     34  C   UNL     1       5.660  -0.422  -4.844  1.00  0.00     0.338 C 
ATOM     35  O   UNL     1       6.709  -0.933  -5.192  1.00  0.00    -0.246 OA
BRANCH  34  36
ATOM     36  C   UNL     1       5.546   1.020  -4.564  1.00  0.00     0.060 A 
ATOM     37  C   UNL     1       5.687   1.899  -5.645  1.00  0.00     0.016 A 
ATOM     38  C   UNL     1       5.456   1.506  -3.259  1.00  0.00     0.016 A 
ATOM     39  C   UNL     1       5.805   3.269  -5.417  1.00  0.00     0.010 A 
ATOM     40  C   UNL     1       5.574   2.885  -3.033  1.00  0.00     0.010 A 
ATOM     41  C   UNL     1       5.796   3.768  -4.107  1.00  0.00    -0.014 A 
BRANCH  41  42
ATOM     42  C   UNL     1       6.172   5.188  -3.877  1.00  0.00     0.031 A 
ATOM     43  C   UNL     1       7.590   5.520  -3.493  1.00  0.00     0.074 A 
ATOM     44  C   UNL     1       5.283   6.177  -4.078  1.00  0.00     0.049 A 
ATOM     45  N   UNL     1       8.155   6.689  -3.324  1.00  0.00    -0.248 NA
ATOM     46  C   UNL     1       8.493   4.380  -3.273  1.00  0.00     0.031 C 
ATOM     47  C   UNL     1       3.889   5.987  -4.472  1.00  0.00     0.029 A 
ATOM     48  N   UNL     1       5.426   7.540  -3.986  1.00  0.00    -0.354 N 
ATOM     49  C   UNL     1       9.478   6.426  -2.990  1.00  0.00     0.074 A 
ATOM     50  C   UNL     1       9.622   4.987  -2.938  1.00  0.00     0.031 C 
ATOM     51  C   UNL     1       3.304   7.191  -4.594  1.00  0.00     0.029 A 
ATOM     52  C   UNL     1       4.276   8.234  -4.271  1.00  0.00     0.049 A 
ATOM     53  H   UNL     1       6.273   7.977  -3.740  1.00  0.00     0.167 HD
ATOM     54  C   UNL     1      10.485   7.304  -2.763  1.00  0.00     0.037 A 
ATOM     55  C   UNL     1       4.037   9.560  -4.269  1.00  0.00     0.037 A 
ATOM     56  C   UNL     1      10.341   8.736  -2.810  1.00  0.00     0.049 A 
ATOM     57  C   UNL     1       5.160  10.515  -3.956  1.00  0.00     0.074 A 
ATOM     58  C   UNL     1      11.307   9.708  -2.614  1.00  0.00     0.029 A 
ATOM     59  N   UNL     1       9.150   9.400  -3.063  1.00  0.00    -0.354 N 
ATOM     60  N   UNL     1       6.417  10.256  -3.690  1.00  0.00    -0.248 NA
ATOM     61  C   UNL     1       4.831  11.948  -3.955  1.00  0.00     0.031 C 
ATOM     62  C   UNL     1      10.690  10.961  -2.701  1.00  0.00     0.029 A 
ATOM     63  C   UNL     1       9.350  10.770  -3.001  1.00  0.00     0.049 A 
ATOM     64  H   UNL     1       8.290   8.963  -3.258  1.00  0.00     0.167 HD
ATOM     65  C   UNL     1       7.033  11.489  -3.515  1.00  0.00     0.074 A 
ATOM     66  C   UNL     1       6.015  12.498  -3.720  1.00  0.00     0.031 C 
ATOM     67  C   UNL     1       8.327  11.761  -3.212  1.00  0.00     0.037 A 
BRANCH  54  68
ATOM     68  C   UNL     1      11.834   6.738  -2.426  1.00  0.00     0.064 A 
ATOM     69  C   UNL     1      12.625   6.098  -3.392  1.00  0.00     0.173 A 
ATOM     70  C   UNL     1      12.357   6.866  -1.130  1.00  0.00     0.173 A 
ATOM     71  F   UNL     1      12.167   5.939  -4.643  1.00  0.00    -0.203 F 
ATOM     72  C   UNL     1      13.878   5.583  -3.066  1.00  0.00     0.198 A 
ATOM     73  C   UNL     1      13.620   6.374  -0.815  1.00  0.00     0.198 A 
ATOM     74  F   UNL     1      11.643   7.474  -0.170  1.00  0.00    -0.203 F 
ATOM     75  F   UNL     1      14.597   4.936  -3.994  1.00  0.00    -0.200 F 
ATOM     76  C   UNL     1      14.377   5.727  -1.780  1.00  0.00     0.200 A 
ATOM     77  F   UNL     1      14.105   6.522   0.426  1.00  0.00    -0.200 F 
ATOM     78  F   UNL     1      15.584   5.234  -1.469  1.00  0.00    -0.200 F 
ENDBRANCH  54  68
BRANCH  55  79
ATOM     79  C   UNL     1       2.675  10.068  -4.582  1.00  0.00     0.064 A 
ATOM     80  C   UNL     1       2.418  10.774  -5.765  1.00  0.00     0.173 A 
ATOM     81  C   UNL     1       1.605   9.867  -3.697  1.00  0.00     0.173 A 
ATOM     82  F   UNL     1       3.413  11.015  -6.630  1.00  0.00    -0.203 F 
ATOM     83  C   UNL     1       1.147  11.273  -6.043  1.00  0.00     0.198 A 
ATOM     84  C   UNL     1       0.329  10.343  -3.989  1.00  0.00     0.198 A 
ATOM     85  F   UNL     1       1.800   9.200  -2.550  1.00  0.00    -0.203 F 
ATOM     86  F   UNL     1       0.938  11.982  -7.161  1.00  0.00    -0.200 F 
ATOM     87  C   UNL     1       0.102  11.051  -5.159  1.00  0.00     0.200 A 
ATOM     88  F   UNL     1      -0.679  10.118  -3.135  1.00  0.00    -0.200 F 
ATOM     89  F   UNL     1      -1.121  11.528  -5.429  1.00  0.00    -0.200 F 
ENDBRANCH  55  79
BRANCH  67  90
ATOM     90  C   UNL     1       8.722  13.206  -3.110  1.00  0.00     0.064 A 
ATOM     91  C   UNL     1       8.326  14.001  -2.025  1.00  0.00     0.173 A 
ATOM     92  C   UNL     1       9.544  13.789  -4.087  1.00  0.00     0.173 A 
ATOM     93  F   UNL     1       7.529  13.495  -1.072  1.00  0.00    -0.203 F 
ATOM     94  C   UNL     1       8.719  15.334  -1.933  1.00  0.00     0.198 A 
ATOM     95  C   UNL     1       9.958  15.113  -3.978  1.00  0.00     0.198 A 
ATOM     96  F   UNL     1       9.957  13.069  -5.140  1.00  0.00    -0.203 F 
ATOM     97  F   UNL     1       8.293  16.088  -0.910  1.00  0.00    -0.200 F 
ATOM     98  C   UNL     1       9.540  15.887  -2.905  1.00  0.00     0.200 A 
ATOM     99  F   UNL     1      10.762  15.642  -4.910  1.00  0.00    -0.200 F 
ATOM    100  F   UNL     1       9.923  17.168  -2.812  1.00  0.00    -0.200 F 
ENDBRANCH  67  90
ENDBRANCH  41  42
ENDBRANCH  34  36
ENDBRANCH  33  34
ENDBRANCH  32  33
ENDBRANCH   1  32
TORSDOF 15
