REMARK SMILES Cc1ccc(C(F)(F)F)cc1-c1ccc(/C=C/C(=O)OCCOCCOC(=O)c2ccc(-c3c4nc(c(-c5c(F)c(F)c(F)c(F)c5F)c5ccc([nH]5)c(-c5c(F)c(F)c(F)c(F)c5F)c5nc(c(-c6c(F)c(F)c(F)c(F)c6F)c6ccc3[nH]6)C=C5)C=C4)cc2)s1
REMARK SMILES IDX 22 1 21 2 20 3 18 4 19 5 17 6 16 7 15 8 12 9 13 10 92 11
REMARK SMILES IDX 14 12 11 13 1 14 2 15 3 16 4 17 10 18 5 19 6 20 7 21 8 22
REMARK SMILES IDX 9 23 23 24 24 25 25 26 26 27 27 28 28 29 29 30 30 31 91 32
REMARK SMILES IDX 31 33 90 34 32 35 33 36 34 37 84 38 35 39 89 40 83 41 85 42
REMARK SMILES IDX 36 43 88 44 82 45 81 46 37 48 69 49 49 50 68 51 50 52 53 53
REMARK SMILES IDX 67 54 86 55 51 56 52 57 66 59 87 60 54 61 38 62 39 63 47 64
REMARK SMILES IDX 40 65 41 66 45 67 48 68 42 69 43 70 46 71 44 72 70 73 71 74
REMARK SMILES IDX 79 75 72 76 73 77 77 78 80 79 74 80 75 81 78 82 76 83 55 84
REMARK SMILES IDX 56 85 64 86 57 87 58 88 62 89 65 90 59 91 60 92 63 93 61 94
REMARK H PARENT 85 47 53 58
REMARK Flexibility Score: inf
ROOT
ATOM      1  C   UNL     1       1.767   9.138   0.696  1.00  0.00     0.202 C 
ENDROOT
BRANCH   1   2
ATOM      2  C   UNL     1       3.201   8.918   1.105  1.00  0.00     0.261 C 
BRANCH   2   3
ATOM      3  O   UNL     1       3.486   7.553   1.429  1.00  0.00    -0.460 OA
BRANCH   3   4
ATOM      4  C   UNL     1       2.795   6.978   2.456  1.00  0.00     0.330 C 
ATOM      5  O   UNL     1       2.562   7.441   3.545  1.00  0.00    -0.247 OA
BRANCH   4   6
ATOM      6  C   UNL     1       2.300   5.668   1.992  1.00  0.00     0.095 C 
ATOM      7  C   UNL     1       2.432   5.351   0.696  1.00  0.00     0.026 C 
BRANCH   7   8
ATOM      8  C   UNL     1       1.928   4.186   0.085  1.00  0.00     0.028 A 
ATOM      9  C   UNL     1       0.839   2.066  -0.473  1.00  0.00     0.035 A 
ATOM     10  C   UNL     1       1.633   2.509  -1.506  1.00  0.00     0.021 A 
ATOM     11  S   UNL     1       0.774   3.171   0.820  1.00  0.00    -0.136 S 
ATOM     12  C   UNL     1       2.258   3.739  -1.182  1.00  0.00     0.020 A 
BRANCH   9  13
ATOM     13  C   UNL     1       0.136   0.806  -0.326  1.00  0.00    -0.005 A 
ATOM     14  C   UNL     1       2.343  -0.454  -0.039  1.00  0.00     0.045 C 
ATOM     15  C   UNL     1       0.838  -0.393  -0.107  1.00  0.00    -0.042 A 
ATOM     16  C   UNL     1       0.106  -1.576   0.045  1.00  0.00     0.005 A 
ATOM     17  C   UNL     1      -1.292  -1.557   0.044  1.00  0.00     0.013 A 
ATOM     18  C   UNL     1      -1.266   0.819  -0.331  1.00  0.00     0.023 A 
ATOM     19  C   UNL     1      -1.994  -0.355  -0.122  1.00  0.00     0.056 A 
BRANCH  19  20
ATOM     20  C   UNL     1      -3.498  -0.321  -0.070  1.00  0.00     0.416 C 
ATOM     21  F   UNL     1      -4.070  -0.922  -1.149  1.00  0.00    -0.166 F 
ATOM     22  F   UNL     1      -3.998  -0.956   1.026  1.00  0.00    -0.166 F 
ATOM     23  F   UNL     1      -4.013   0.942  -0.031  1.00  0.00    -0.166 F 
ENDBRANCH  19  20
ENDBRANCH   9  13
ENDBRANCH   7   8
ENDBRANCH   4   6
ENDBRANCH   3   4
ENDBRANCH   2   3
ENDBRANCH   1   2
BRANCH   1  24
ATOM     24  O   UNL     1       0.999   9.146   1.889  1.00  0.00    -0.374 OA
BRANCH  24  25
ATOM     25  C   UNL     1      -0.375   9.467   1.738  1.00  0.00     0.202 C 
BRANCH  25  26
ATOM     26  C   UNL     1      -0.612  10.877   1.174  1.00  0.00     0.261 C 
BRANCH  26  27
ATOM     27  O   UNL     1      -0.036  11.856   2.065  1.00  0.00    -0.460 OA
BRANCH  27  28
ATOM     28  C   UNL     1       1.137  12.418   1.663  1.00  0.00     0.338 C 
ATOM     29  O   UNL     1       1.363  12.865   0.551  1.00  0.00    -0.246 OA
BRANCH  28  30
ATOM     30  C   UNL     1       2.198  12.140   2.676  1.00  0.00     0.060 A 
ATOM     31  C   UNL     1       3.553  12.381   2.368  1.00  0.00     0.016 A 
ATOM     32  C   UNL     1       1.871  11.342   3.769  1.00  0.00     0.016 A 
ATOM     33  C   UNL     1       4.572  11.696   3.055  1.00  0.00     0.010 A 
ATOM     34  C   UNL     1       2.864  10.597   4.366  1.00  0.00     0.010 A 
ATOM     35  C   UNL     1       4.217  10.733   3.997  1.00  0.00    -0.014 A 
BRANCH  35  36
ATOM     36  C   UNL     1       5.087   9.715   4.602  1.00  0.00     0.031 A 
ATOM     37  C   UNL     1       5.126   9.644   6.085  1.00  0.00     0.074 A 
ATOM     38  C   UNL     1       5.511   8.640   3.887  1.00  0.00     0.049 A 
ATOM     39  N   UNL     1       5.780   8.755   6.745  1.00  0.00    -0.248 NA
ATOM     40  C   UNL     1       4.453  10.597   6.966  1.00  0.00     0.031 C 
ATOM     41  C   UNL     1       5.708   7.273   4.389  1.00  0.00     0.029 A 
ATOM     42  N   UNL     1       5.858   8.521   2.530  1.00  0.00    -0.354 N 
ATOM     43  C   UNL     1       5.350   8.783   8.047  1.00  0.00     0.074 A 
ATOM     44  C   UNL     1       4.631  10.025   8.162  1.00  0.00     0.031 C 
ATOM     45  C   UNL     1       6.390   6.550   3.488  1.00  0.00     0.029 A 
ATOM     46  C   UNL     1       6.785   7.459   2.435  1.00  0.00     0.049 A 
ATOM     47  H   UNL     1       5.520   9.073   1.788  1.00  0.00     0.167 HD
ATOM     48  C   UNL     1       5.585   7.680   8.813  1.00  0.00     0.037 A 
ATOM     49  C   UNL     1       8.040   7.643   1.946  1.00  0.00     0.037 A 
ATOM     50  C   UNL     1       6.497   6.762   8.114  1.00  0.00     0.049 A 
ATOM     51  C   UNL     1       9.056   7.316   3.000  1.00  0.00     0.074 A 
ATOM     52  C   UNL     1       6.356   5.522   7.514  1.00  0.00     0.029 A 
ATOM     53  N   UNL     1       7.740   7.250   7.708  1.00  0.00    -0.354 N 
ATOM     54  N   UNL     1       8.747   7.273   4.267  1.00  0.00    -0.248 NA
ATOM     55  C   UNL     1      10.444   6.948   2.755  1.00  0.00     0.031 C 
ATOM     56  C   UNL     1       7.511   5.296   6.707  1.00  0.00     0.029 A 
ATOM     57  C   UNL     1       8.369   6.377   6.845  1.00  0.00     0.049 A 
ATOM     58  H   UNL     1       8.121   8.109   8.002  1.00  0.00     0.167 HD
ATOM     59  C   UNL     1       9.811   6.836   4.992  1.00  0.00     0.074 A 
ATOM     60  C   UNL     1      10.862   6.668   4.005  1.00  0.00     0.031 C 
ATOM     61  C   UNL     1       9.714   6.660   6.342  1.00  0.00     0.037 A 
BRANCH  48  62
ATOM     62  C   UNL     1       4.934   7.344  10.144  1.00  0.00     0.064 A 
ATOM     63  C   UNL     1       5.289   6.157  10.827  1.00  0.00     0.173 A 
ATOM     64  C   UNL     1       3.915   8.089  10.777  1.00  0.00     0.173 A 
ATOM     65  F   UNL     1       6.219   5.324  10.341  1.00  0.00    -0.203 F 
ATOM     66  C   UNL     1       4.692   5.768  12.034  1.00  0.00     0.198 A 
ATOM     67  C   UNL     1       3.352   7.723  12.005  1.00  0.00     0.198 A 
ATOM     68  F   UNL     1       3.377   9.178  10.227  1.00  0.00    -0.203 F 
ATOM     69  F   UNL     1       5.051   4.613  12.612  1.00  0.00    -0.200 F 
ATOM     70  C   UNL     1       3.735   6.560  12.632  1.00  0.00     0.200 A 
ATOM     71  F   UNL     1       2.416   8.506  12.562  1.00  0.00    -0.200 F 
ATOM     72  F   UNL     1       3.175   6.199  13.794  1.00  0.00    -0.200 F 
ENDBRANCH  48  62
BRANCH  49  73
ATOM     73  C   UNL     1       8.053   8.681   0.878  1.00  0.00     0.064 A 
ATOM     74  C   UNL     1       7.390   8.320  -0.318  1.00  0.00     0.173 A 
ATOM     75  C   UNL     1       8.085  10.044   1.209  1.00  0.00     0.173 A 
ATOM     76  F   UNL     1       7.326   7.028  -0.681  1.00  0.00    -0.203 F 
ATOM     77  C   UNL     1       6.623   9.242  -1.027  1.00  0.00     0.198 A 
ATOM     78  C   UNL     1       7.324  10.968   0.483  1.00  0.00     0.198 A 
ATOM     79  F   UNL     1       8.696  10.452   2.330  1.00  0.00    -0.203 F 
ATOM     80  F   UNL     1       5.849   8.829  -2.042  1.00  0.00    -0.200 F 
ATOM     81  C   UNL     1       6.555  10.556  -0.597  1.00  0.00     0.200 A 
ATOM     82  F   UNL     1       7.236  12.239   0.903  1.00  0.00    -0.200 F 
ATOM     83  F   UNL     1       5.695  11.406  -1.179  1.00  0.00    -0.200 F 
ENDBRANCH  49  73
BRANCH  61  84
ATOM     84  C   UNL     1      10.874   6.681   7.309  1.00  0.00     0.064 A 
ATOM     85  C   UNL     1      12.143   7.202   6.998  1.00  0.00     0.173 A 
ATOM     86  C   UNL     1      10.682   6.339   8.671  1.00  0.00     0.173 A 
ATOM     87  F   UNL     1      12.431   7.687   5.785  1.00  0.00    -0.203 F 
ATOM     88  C   UNL     1      13.155   7.309   7.954  1.00  0.00     0.198 A 
ATOM     89  C   UNL     1      11.669   6.522   9.636  1.00  0.00     0.198 A 
ATOM     90  F   UNL     1       9.517   5.856   9.125  1.00  0.00    -0.203 F 
ATOM     91  F   UNL     1      14.360   7.767   7.588  1.00  0.00    -0.200 F 
ATOM     92  C   UNL     1      12.914   6.988   9.274  1.00  0.00     0.200 A 
ATOM     93  F   UNL     1      11.393   6.270  10.924  1.00  0.00    -0.200 F 
ATOM     94  F   UNL     1      13.870   7.150  10.197  1.00  0.00    -0.200 F 
ENDBRANCH  61  84
ENDBRANCH  35  36
ENDBRANCH  28  30
ENDBRANCH  27  28
ENDBRANCH  26  27
ENDBRANCH  25  26
ENDBRANCH  24  25
ENDBRANCH   1  24
TORSDOF 17
