REMARK SMILES O=C1C[C@@H]([N@@H+]2[C@@H](C(=O)OCCOCCOC(=O)c3ccc(-c4c5nc(c(-c6c(F)c(F)c(F)c(F)c6F)c6ccc([nH]6)c(-c6c(F)c(F)c(F)c(F)c6F)c6nc(c(-c7c(F)c(F)c(F)c(F)c7F)c7ccc4[nH]7)C=C6)C=C5)cc3)CC[C@@H]3CCCC[C@H]32)C(=O)N1
REMARK SMILES IDX 13 1 12 2 11 3 10 4 9 5 7 6 8 7 6 8 5 9 88 10 81 12 83 13
REMARK SMILES IDX 87 14 82 15 84 16 86 17 85 18 4 19 1 20 2 21 3 22 91 23
REMARK SMILES IDX 89 24 90 26 14 27 15 28 16 29 17 30 18 31 19 32 80 33 20 34
REMARK SMILES IDX 79 35 21 36 22 37 23 38 73 39 24 40 78 41 72 42 74 43 25 44
REMARK SMILES IDX 77 45 71 46 70 47 26 49 58 50 38 51 57 52 39 53 42 54 56 55
REMARK SMILES IDX 75 56 40 57 41 58 55 60 76 61 43 62 27 63 28 64 36 65 29 66
REMARK SMILES IDX 30 67 34 68 37 69 31 70 32 71 35 72 33 73 59 74 60 75 68 76
REMARK SMILES IDX 61 77 62 78 66 79 69 80 63 81 64 82 67 83 65 84 44 85 45 86
REMARK SMILES IDX 53 87 46 88 47 89 51 90 54 91 48 92 49 93 52 94 50 95
REMARK H PARENT 5 11 91 25 74 48 42 59
REMARK Flexibility Score: inf
ROOT
ATOM      1  C   UNL     1       0.413   1.816  -4.718  1.00  0.00     0.202 C 
ENDROOT
BRANCH   1   2
ATOM      2  O   UNL     1       0.783   2.906  -3.877  1.00  0.00    -0.374 OA
BRANCH   2   3
ATOM      3  C   UNL     1       2.057   2.872  -3.241  1.00  0.00     0.202 C 
BRANCH   3   4
ATOM      4  C   UNL     1       2.227   1.981  -2.008  1.00  0.00     0.261 C 
BRANCH   4   5
ATOM      5  O   UNL     1       2.030   0.586  -2.277  1.00  0.00    -0.459 OA
BRANCH   5   6
ATOM      6  C   UNL     1       0.783   0.134  -1.988  1.00  0.00     0.365 C 
ATOM      7  O   UNL     1      -0.156   0.845  -1.641  1.00  0.00    -0.245 OA
BRANCH   6   8
ATOM      8  C   UNL     1       0.631  -1.379  -2.106  1.00  0.00     0.295 C 
ATOM      9  N   UNL     1       1.085  -2.139  -0.891  1.00  0.00    -0.310 N 
ATOM     10  C   UNL     1       0.804  -3.600  -1.082  1.00  0.00     0.188 C 
ATOM     11  H   UNL     1       2.090  -1.988  -0.803  1.00  0.00     0.349 HD
ATOM     12  C   UNL     1       1.302  -1.877  -3.391  1.00  0.00     0.078 C 
ATOM     13  C   UNL     1       1.378  -4.154  -2.421  1.00  0.00     0.048 C 
ATOM     14  C   UNL     1       1.370  -4.489   0.055  1.00  0.00     0.065 C 
ATOM     15  C   UNL     1       0.938  -3.329  -3.626  1.00  0.00     0.016 C 
ATOM     16  C   UNL     1       0.972  -5.620  -2.629  1.00  0.00     0.010 C 
ATOM     17  C   UNL     1       1.026  -5.966  -0.141  1.00  0.00     0.006 C 
ATOM     18  C   UNL     1       1.477  -6.497  -1.493  1.00  0.00     0.001 C 
BRANCH   9  19
ATOM     19  C   UNL     1       0.504  -1.633   0.399  1.00  0.00     0.284 C 
ATOM     20  O   UNL     1      -2.376   0.352   1.166  1.00  0.00    -0.274 OA
ATOM     21  C   UNL     1      -1.277  -0.136   0.982  1.00  0.00     0.233 C 
ATOM     22  C   UNL     1      -1.022  -1.538   0.509  1.00  0.00     0.176 C 
ATOM     23  N   UNL     1      -0.092   0.497   1.174  1.00  0.00    -0.291 N 
ATOM     24  C   UNL     1       0.989  -0.249   0.826  1.00  0.00     0.285 C 
ATOM     25  H   UNL     1      -0.021   1.411   1.533  1.00  0.00     0.173 HD
ATOM     26  O   UNL     1       2.145   0.146   0.860  1.00  0.00    -0.268 OA
ENDBRANCH   9  19
ENDBRANCH   6   8
ENDBRANCH   5   6
ENDBRANCH   4   5
ENDBRANCH   3   4
ENDBRANCH   2   3
ENDBRANCH   1   2
BRANCH   1  27
ATOM     27  C   UNL     1       1.102   1.707  -6.081  1.00  0.00     0.261 C 
BRANCH  27  28
ATOM     28  O   UNL     1       2.508   1.429  -5.953  1.00  0.00    -0.460 OA
BRANCH  28  29
ATOM     29  C   UNL     1       3.315   2.435  -6.365  1.00  0.00     0.338 C 
ATOM     30  O   UNL     1       2.983   3.477  -6.910  1.00  0.00    -0.246 OA
BRANCH  29  31
ATOM     31  C   UNL     1       4.694   2.208  -5.899  1.00  0.00     0.060 A 
ATOM     32  C   UNL     1       5.305   3.246  -5.182  1.00  0.00     0.016 A 
ATOM     33  C   UNL     1       5.409   1.059  -6.239  1.00  0.00     0.016 A 
ATOM     34  C   UNL     1       6.657   3.173  -4.867  1.00  0.00     0.010 A 
ATOM     35  C   UNL     1       6.772   0.992  -5.931  1.00  0.00     0.010 A 
ATOM     36  C   UNL     1       7.409   2.070  -5.289  1.00  0.00    -0.014 A 
BRANCH  36  37
ATOM     37  C   UNL     1       8.887   2.145  -5.230  1.00  0.00     0.031 A 
ATOM     38  C   UNL     1       9.638   2.537  -6.473  1.00  0.00     0.074 A 
ATOM     39  C   UNL     1       9.544   1.923  -4.079  1.00  0.00     0.049 A 
ATOM     40  N   UNL     1      10.927   2.653  -6.666  1.00  0.00    -0.248 NA
ATOM     41  C   UNL     1       8.823   2.841  -7.661  1.00  0.00     0.031 C 
ATOM     42  C   UNL     1       8.919   1.591  -2.802  1.00  0.00     0.029 A 
ATOM     43  N   UNL     1      10.888   1.945  -3.805  1.00  0.00    -0.354 N 
ATOM     44  C   UNL     1      11.077   3.032  -7.994  1.00  0.00     0.074 A 
ATOM     45  C   UNL     1       9.752   3.101  -8.569  1.00  0.00     0.031 C 
ATOM     46  C   UNL     1       9.881   1.432  -1.876  1.00  0.00     0.029 A 
ATOM     47  C   UNL     1      11.187   1.620  -2.506  1.00  0.00     0.049 A 
ATOM     48  H   UNL     1      11.572   2.172  -4.476  1.00  0.00     0.167 HD
ATOM     49  C   UNL     1      12.218   3.306  -8.669  1.00  0.00     0.037 A 
ATOM     50  C   UNL     1      12.383   1.472  -1.904  1.00  0.00     0.037 A 
ATOM     51  C   UNL     1      13.533   3.245  -8.089  1.00  0.00     0.049 A 
ATOM     52  C   UNL     1      13.642   1.711  -2.698  1.00  0.00     0.074 A 
ATOM     53  C   UNL     1      14.752   3.526  -8.681  1.00  0.00     0.029 A 
ATOM     54  N   UNL     1      13.800   2.869  -6.780  1.00  0.00    -0.354 N 
ATOM     55  N   UNL     1      13.776   2.089  -3.946  1.00  0.00    -0.248 NA
ATOM     56  C   UNL     1      14.916   1.502  -1.996  1.00  0.00     0.031 C 
ATOM     57  C   UNL     1      15.760   3.269  -7.746  1.00  0.00     0.029 A 
ATOM     58  C   UNL     1      15.167   2.882  -6.555  1.00  0.00     0.049 A 
ATOM     59  H   UNL     1      13.119   2.629  -6.111  1.00  0.00     0.167 HD
ATOM     60  C   UNL     1      15.143   2.194  -4.171  1.00  0.00     0.074 A 
ATOM     61  C   UNL     1      15.796   1.849  -2.925  1.00  0.00     0.031 C 
ATOM     62  C   UNL     1      15.799   2.545  -5.304  1.00  0.00     0.037 A 
BRANCH  49  63
ATOM     63  C   UNL     1      12.096   3.666 -10.121  1.00  0.00     0.064 A 
ATOM     64  C   UNL     1      11.567   4.896 -10.538  1.00  0.00     0.173 A 
ATOM     65  C   UNL     1      12.545   2.776 -11.109  1.00  0.00     0.173 A 
ATOM     66  F   UNL     1      11.109   5.775  -9.634  1.00  0.00    -0.203 F 
ATOM     67  C   UNL     1      11.469   5.212 -11.891  1.00  0.00     0.198 A 
ATOM     68  C   UNL     1      12.472   3.107 -12.459  1.00  0.00     0.198 A 
ATOM     69  F   UNL     1      13.062   1.587 -10.764  1.00  0.00    -0.203 F 
ATOM     70  F   UNL     1      10.918   6.374 -12.268  1.00  0.00    -0.200 F 
ATOM     71  C   UNL     1      11.928   4.321 -12.849  1.00  0.00     0.200 A 
ATOM     72  F   UNL     1      12.927   2.249 -13.383  1.00  0.00    -0.200 F 
ATOM     73  F   UNL     1      11.840   4.629 -14.151  1.00  0.00    -0.200 F 
ENDBRANCH  49  63
BRANCH  50  74
ATOM     74  C   UNL     1      12.450   1.067  -0.476  1.00  0.00     0.064 A 
ATOM     75  C   UNL     1      12.921   1.950   0.506  1.00  0.00     0.173 A 
ATOM     76  C   UNL     1      12.064  -0.218  -0.066  1.00  0.00     0.173 A 
ATOM     77  F   UNL     1      13.328   3.180   0.160  1.00  0.00    -0.203 F 
ATOM     78  C   UNL     1      13.017   1.558   1.839  1.00  0.00     0.198 A 
ATOM     79  C   UNL     1      12.134  -0.599   1.272  1.00  0.00     0.198 A 
ATOM     80  F   UNL     1      11.611  -1.102  -0.967  1.00  0.00    -0.203 F 
ATOM     81  F   UNL     1      13.515   2.406   2.750  1.00  0.00    -0.200 F 
ATOM     82  C   UNL     1      12.618   0.286   2.222  1.00  0.00     0.200 A 
ATOM     83  F   UNL     1      11.738  -1.826   1.638  1.00  0.00    -0.200 F 
ATOM     84  F   UNL     1      12.710  -0.090   3.505  1.00  0.00    -0.200 F 
ENDBRANCH  50  74
BRANCH  62  85
ATOM     85  C   UNL     1      17.297   2.612  -5.242  1.00  0.00     0.064 A 
ATOM     86  C   UNL     1      18.085   1.455  -5.162  1.00  0.00     0.173 A 
ATOM     87  C   UNL     1      17.954   3.852  -5.307  1.00  0.00     0.173 A 
ATOM     88  F   UNL     1      17.506   0.248  -5.084  1.00  0.00    -0.203 F 
ATOM     89  C   UNL     1      19.475   1.538  -5.124  1.00  0.00     0.198 A 
ATOM     90  C   UNL     1      19.343   3.928  -5.299  1.00  0.00     0.198 A 
ATOM     91  F   UNL     1      17.247   4.988  -5.392  1.00  0.00    -0.203 F 
ATOM     92  F   UNL     1      20.207   0.422  -5.000  1.00  0.00    -0.200 F 
ATOM     93  C   UNL     1      20.103   2.772  -5.200  1.00  0.00     0.200 A 
ATOM     94  F   UNL     1      19.948   5.121  -5.388  1.00  0.00    -0.200 F 
ATOM     95  F   UNL     1      21.440   2.848  -5.171  1.00  0.00    -0.200 F 
ENDBRANCH  62  85
ENDBRANCH  36  37
ENDBRANCH  29  31
ENDBRANCH  28  29
ENDBRANCH  27  28
ENDBRANCH   1  27
TORSDOF 15
