REMARK SMILES O=C(COc1ccccc1/C=C1\C(=O)Nc2ccccc21)OCCOCCOC(=O)c1ccc(-c2c3nc(c(-c4c(F)c(F)c(F)c(F)c4F)c4ccc([nH]4)c(-c4c(F)c(F)c(F)c(F)c4F)c4nc(c(-c5c(F)c(F)c(F)c(F)c5F)c5ccc2[nH]5)C=C4)C=C3)cc1
REMARK SMILES IDX 24 1 23 2 22 3 2 4 1 5 3 6 4 7 5 8 6 9 10 10 7 11 9 12 8 13
REMARK SMILES IDX 11 14 12 15 13 16 21 17 14 18 15 19 16 20 20 21 17 23 19 24
REMARK SMILES IDX 18 25 25 26 26 27 27 28 28 29 29 30 30 31 31 32 32 33 93 34
REMARK SMILES IDX 33 35 92 36 34 37 35 38 36 39 86 40 37 41 91 42 85 43 87 44
REMARK SMILES IDX 38 45 90 46 84 47 83 48 39 50 71 51 51 52 70 53 52 54 55 55
REMARK SMILES IDX 69 56 88 57 53 58 54 59 68 61 89 62 56 63 40 64 41 65 49 66
REMARK SMILES IDX 42 67 43 68 47 69 50 70 44 71 45 72 48 73 46 74 72 75 73 76
REMARK SMILES IDX 81 77 74 78 75 79 79 80 82 81 76 82 77 83 80 84 78 85 57 86
REMARK SMILES IDX 58 87 66 88 59 89 60 90 64 91 67 92 61 93 62 94 65 95 63 96
REMARK H PARENT 15 22 87 49 55 60
REMARK Flexibility Score: inf
ROOT
ATOM      1  C   UNL     1       5.085   1.065  -0.217  1.00  0.00     0.202 C 
ENDROOT
BRANCH   1   2
ATOM      2  C   UNL     1       4.179  -0.041  -0.770  1.00  0.00     0.261 C 
BRANCH   2   3
ATOM      3  O   UNL     1       2.775   0.255  -0.839  1.00  0.00    -0.461 OA
BRANCH   3   4
ATOM      4  C   UNL     1       1.872   0.117   0.164  1.00  0.00     0.344 C 
ATOM      5  O   UNL     1       0.705   0.454  -0.035  1.00  0.00    -0.248 OA
BRANCH   4   6
ATOM      6  C   UNL     1       2.325  -0.347   1.539  1.00  0.00     0.351 C 
BRANCH   6   7
ATOM      7  O   UNL     1       3.366  -1.295   1.557  1.00  0.00    -0.481 OA
BRANCH   7   8
ATOM      8  C   UNL     1       2.985  -2.577   1.826  1.00  0.00     0.127 A 
ATOM      9  C   UNL     1       3.527  -3.072   3.021  1.00  0.00     0.047 A 
ATOM     10  C   UNL     1       2.260  -3.408   0.949  1.00  0.00     0.017 A 
ATOM     11  C   UNL     1       3.360  -4.405   3.370  1.00  0.00     0.004 A 
ATOM     12  C   UNL     1       2.211  -4.772   1.276  1.00  0.00     0.012 A 
ATOM     13  C   UNL     1       2.720  -5.261   2.484  1.00  0.00     0.001 A 
BRANCH  10  14
ATOM     14  C   UNL     1       1.582  -2.941  -0.289  1.00  0.00     0.026 C 
ATOM     15  C   UNL     1       0.306  -3.200  -0.648  1.00  0.00     0.050 C 
ATOM     16  C   UNL     1      -0.672  -4.086   0.100  1.00  0.00     0.256 C 
ATOM     17  C   UNL     1      -0.414  -2.746  -1.861  1.00  0.00     0.011 A 
ATOM     18  O   UNL     1      -0.583  -4.573   1.213  1.00  0.00    -0.269 OA
ATOM     19  N   UNL     1      -1.748  -4.244  -0.746  1.00  0.00    -0.321 N 
ATOM     20  C   UNL     1      -1.631  -3.443  -1.870  1.00  0.00     0.049 A 
ATOM     21  C   UNL     1      -0.182  -1.792  -2.838  1.00  0.00     0.011 A 
ATOM     22  H   UNL     1      -2.505  -4.849  -0.573  1.00  0.00     0.170 HD
ATOM     23  C   UNL     1      -2.609  -3.272  -2.831  1.00  0.00     0.027 A 
ATOM     24  C   UNL     1      -1.177  -1.574  -3.811  1.00  0.00     0.001 A 
ATOM     25  C   UNL     1      -2.375  -2.314  -3.812  1.00  0.00     0.002 A 
ENDBRANCH  10  14
ENDBRANCH   7   8
ENDBRANCH   6   7
ENDBRANCH   4   6
ENDBRANCH   3   4
ENDBRANCH   2   3
ENDBRANCH   1   2
BRANCH   1  26
ATOM     26  O   UNL     1       4.573   2.030   0.680  1.00  0.00    -0.374 OA
BRANCH  26  27
ATOM     27  C   UNL     1       3.479   2.867   0.334  1.00  0.00     0.202 C 
BRANCH  27  28
ATOM     28  C   UNL     1       3.263   3.479  -1.059  1.00  0.00     0.261 C 
BRANCH  28  29
ATOM     29  O   UNL     1       3.645   2.682  -2.181  1.00  0.00    -0.460 OA
BRANCH  29  30
ATOM     30  C   UNL     1       4.797   3.070  -2.773  1.00  0.00     0.338 C 
ATOM     31  O   UNL     1       5.569   3.939  -2.411  1.00  0.00    -0.246 OA
BRANCH  30  32
ATOM     32  C   UNL     1       5.075   2.176  -3.904  1.00  0.00     0.060 A 
ATOM     33  C   UNL     1       6.221   1.374  -3.859  1.00  0.00     0.016 A 
ATOM     34  C   UNL     1       4.261   2.211  -5.035  1.00  0.00     0.016 A 
ATOM     35  C   UNL     1       6.577   0.619  -4.971  1.00  0.00     0.010 A 
ATOM     36  C   UNL     1       4.626   1.463  -6.153  1.00  0.00     0.010 A 
ATOM     37  C   UNL     1       5.800   0.690  -6.134  1.00  0.00    -0.014 A 
BRANCH  37  38
ATOM     38  C   UNL     1       6.274   0.059  -7.384  1.00  0.00     0.031 A 
ATOM     39  C   UNL     1       6.883   0.927  -8.446  1.00  0.00     0.074 A 
ATOM     40  C   UNL     1       6.130  -1.264  -7.569  1.00  0.00     0.049 A 
ATOM     41  N   UNL     1       7.237   0.621  -9.666  1.00  0.00    -0.248 NA
ATOM     42  C   UNL     1       7.114   2.337  -8.087  1.00  0.00     0.031 C 
ATOM     43  C   UNL     1       5.587  -2.197  -6.584  1.00  0.00     0.029 A 
ATOM     44  N   UNL     1       6.402  -2.045  -8.662  1.00  0.00    -0.354 N 
ATOM     45  C   UNL     1       7.708   1.800 -10.228  1.00  0.00     0.074 A 
ATOM     46  C   UNL     1       7.583   2.832  -9.223  1.00  0.00     0.031 C 
ATOM     47  C   UNL     1       5.538  -3.424  -7.129  1.00  0.00     0.029 A 
ATOM     48  C   UNL     1       5.999  -3.349  -8.513  1.00  0.00     0.049 A 
ATOM     49  H   UNL     1       6.844  -1.705  -9.474  1.00  0.00     0.167 HD
ATOM     50  C   UNL     1       8.198   1.994 -11.475  1.00  0.00     0.037 A 
ATOM     51  C   UNL     1       5.963  -4.351  -9.412  1.00  0.00     0.037 A 
ATOM     52  C   UNL     1       8.325   0.950 -12.456  1.00  0.00     0.049 A 
ATOM     53  C   UNL     1       6.451  -4.088 -10.814  1.00  0.00     0.074 A 
ATOM     54  C   UNL     1       8.858   1.024 -13.730  1.00  0.00     0.029 A 
ATOM     55  N   UNL     1       7.898  -0.358 -12.275  1.00  0.00    -0.354 N 
ATOM     56  N   UNL     1       6.940  -2.985 -11.328  1.00  0.00    -0.248 NA
ATOM     57  C   UNL     1       6.379  -5.208 -11.763  1.00  0.00     0.031 C 
ATOM     58  C   UNL     1       8.687  -0.219 -14.345  1.00  0.00     0.029 A 
ATOM     59  C   UNL     1       8.113  -1.089 -13.431  1.00  0.00     0.049 A 
ATOM     60  H   UNL     1       7.502  -0.714 -11.447  1.00  0.00     0.167 HD
ATOM     61  C   UNL     1       7.257  -3.284 -12.647  1.00  0.00     0.074 A 
ATOM     62  C   UNL     1       6.922  -4.678 -12.850  1.00  0.00     0.031 C 
ATOM     63  C   UNL     1       7.777  -2.479 -13.606  1.00  0.00     0.037 A 
BRANCH  50  64
ATOM     64  C   UNL     1       8.595   3.387 -11.869  1.00  0.00     0.064 A 
ATOM     65  C   UNL     1       9.727   4.019 -11.334  1.00  0.00     0.173 A 
ATOM     66  C   UNL     1       7.860   4.077 -12.846  1.00  0.00     0.173 A 
ATOM     67  F   UNL     1      10.457   3.410 -10.388  1.00  0.00    -0.203 F 
ATOM     68  C   UNL     1      10.098   5.296 -11.750  1.00  0.00     0.198 A 
ATOM     69  C   UNL     1       8.251   5.339 -13.282  1.00  0.00     0.198 A 
ATOM     70  F   UNL     1       6.770   3.517 -13.393  1.00  0.00    -0.203 F 
ATOM     71  F   UNL     1      11.161   5.897 -11.197  1.00  0.00    -0.200 F 
ATOM     72  C   UNL     1       9.366   5.950 -12.730  1.00  0.00     0.200 A 
ATOM     73  F   UNL     1       7.551   5.962 -14.241  1.00  0.00    -0.200 F 
ATOM     74  F   UNL     1       9.734   7.172 -13.141  1.00  0.00    -0.200 F 
ENDBRANCH  50  64
BRANCH  51  75
ATOM     75  C   UNL     1       5.407  -5.676  -9.031  1.00  0.00     0.064 A 
ATOM     76  C   UNL     1       6.216  -6.820  -8.996  1.00  0.00     0.173 A 
ATOM     77  C   UNL     1       4.047  -5.833  -8.719  1.00  0.00     0.173 A 
ATOM     78  F   UNL     1       7.518  -6.728  -9.307  1.00  0.00    -0.203 F 
ATOM     79  C   UNL     1       5.683  -8.071  -8.693  1.00  0.00     0.198 A 
ATOM     80  C   UNL     1       3.522  -7.078  -8.382  1.00  0.00     0.198 A 
ATOM     81  F   UNL     1       3.227  -4.772  -8.736  1.00  0.00    -0.203 F 
ATOM     82  F   UNL     1       6.468  -9.157  -8.726  1.00  0.00    -0.200 F 
ATOM     83  C   UNL     1       4.338  -8.199  -8.381  1.00  0.00     0.200 A 
ATOM     84  F   UNL     1       2.225  -7.193  -8.065  1.00  0.00    -0.200 F 
ATOM     85  F   UNL     1       3.826  -9.402  -8.090  1.00  0.00    -0.200 F 
ENDBRANCH  51  75
BRANCH  63  86
ATOM     86  C   UNL     1       8.046  -3.089 -14.952  1.00  0.00     0.064 A 
ATOM     87  C   UNL     1       7.003  -3.438 -15.823  1.00  0.00     0.173 A 
ATOM     88  C   UNL     1       9.364  -3.263 -15.401  1.00  0.00     0.173 A 
ATOM     89  F   UNL     1       5.726  -3.306 -15.435  1.00  0.00    -0.203 F 
ATOM     90  C   UNL     1       7.272  -3.957 -17.087  1.00  0.00     0.198 A 
ATOM     91  C   UNL     1       9.628  -3.748 -16.678  1.00  0.00     0.198 A 
ATOM     92  F   UNL     1      10.397  -2.936 -14.609  1.00  0.00    -0.203 F 
ATOM     93  F   UNL     1       6.261  -4.324 -17.886  1.00  0.00    -0.200 F 
ATOM     94  C   UNL     1       8.583  -4.100 -17.517  1.00  0.00     0.200 A 
ATOM     95  F   UNL     1      10.895  -3.867 -17.099  1.00  0.00    -0.200 F 
ATOM     96  F   UNL     1       8.838  -4.582 -18.741  1.00  0.00    -0.200 F 
ENDBRANCH  63  86
ENDBRANCH  37  38
ENDBRANCH  30  32
ENDBRANCH  29  30
ENDBRANCH  28  29
ENDBRANCH  27  28
ENDBRANCH  26  27
ENDBRANCH   1  26
TORSDOF 17
