REMARK SMILES C[C@H](Sc1ccnc(C(=O)OCCOCCOC(=O)c2ccc(-c3c4nc(c(-c5c(F)c(F)c(F)c(F)c5F)c5ccc([nH]5)c(-c5c(F)c(F)c(F)c(F)c5F)c5nc(c(-c6c(F)c(F)c(F)c(F)c6F)c6ccc3[nH]6)C=C5)C=C4)cc2)c1)[C@@H](C)O
REMARK SMILES IDX 13 1 12 2 11 3 9 4 10 5 8 6 4 7 5 8 83 9 6 10 7 11 3 12 2 13
REMARK SMILES IDX 1 14 84 15 85 16 86 17 14 19 15 20 16 21 17 22 18 23 19 24
REMARK SMILES IDX 20 25 21 26 82 27 22 28 81 29 23 30 24 31 25 32 75 33 26 34
REMARK SMILES IDX 80 35 74 36 76 37 27 38 79 39 73 40 72 41 28 43 60 44 40 45
REMARK SMILES IDX 59 46 41 47 44 48 58 49 77 50 42 51 43 52 57 54 78 55 45 56
REMARK SMILES IDX 29 57 30 58 38 59 31 60 32 61 36 62 39 63 33 64 34 65 37 66
REMARK SMILES IDX 35 67 61 68 62 69 70 70 63 71 64 72 68 73 71 74 65 75 66 76
REMARK SMILES IDX 69 77 67 78 46 79 47 80 55 81 48 82 49 83 53 84 56 85 50 86
REMARK SMILES IDX 51 87 54 88 52 89
REMARK H PARENT 86 18 76 42 44 53
REMARK Flexibility Score: inf
ROOT
ATOM      1  C   UNL     1       0.808  -6.184   4.478  1.00  0.00     0.202 C 
ENDROOT
BRANCH   1   2
ATOM      2  C   UNL     1       2.103  -5.878   3.719  1.00  0.00     0.261 C 
BRANCH   2   3
ATOM      3  O   UNL     1       1.893  -4.814   2.773  1.00  0.00    -0.459 OA
BRANCH   3   4
ATOM      4  C   UNL     1       2.099  -5.152   1.472  1.00  0.00     0.357 C 
ATOM      5  O   UNL     1       2.651  -6.162   1.065  1.00  0.00    -0.244 OA
BRANCH   4   6
ATOM      6  C   UNL     1       1.412  -4.160   0.597  1.00  0.00     0.149 A 
ATOM      7  C   UNL     1       0.848  -1.918  -0.046  1.00  0.00     0.012 A 
ATOM      8  C   UNL     1       0.086  -2.464  -1.077  1.00  0.00     0.035 A 
ATOM      9  C   UNL     1       1.511  -2.793   0.824  1.00  0.00     0.051 A 
ATOM     10  C   UNL     1       0.032  -3.841  -1.217  1.00  0.00     0.113 A 
ATOM     11  N   UNL     1       0.678  -4.697  -0.410  1.00  0.00    -0.249 NA
BRANCH   7  12
ATOM     12  S   UNL     1       1.068  -0.169   0.268  1.00  0.00    -0.120 SA
BRANCH  12  13
ATOM     13  C   UNL     1       0.420   0.734  -1.214  1.00  0.00     0.077 C 
ATOM     14  C   UNL     1       1.067   0.280  -2.531  1.00  0.00     0.022 C 
BRANCH  13  15
ATOM     15  C   UNL     1      -1.126   0.851  -1.258  1.00  0.00     0.124 C 
ATOM     16  C   UNL     1      -1.720   1.593  -0.064  1.00  0.00     0.039 C 
BRANCH  15  17
ATOM     17  O   UNL     1      -1.535   1.538  -2.447  1.00  0.00    -0.392 OA
ATOM     18  H   UNL     1      -1.189   2.444  -2.432  1.00  0.00     0.210 HD
ENDBRANCH  15  17
ENDBRANCH  13  15
ENDBRANCH  12  13
ENDBRANCH   7  12
ENDBRANCH   4   6
ENDBRANCH   3   4
ENDBRANCH   2   3
ENDBRANCH   1   2
BRANCH   1  19
ATOM     19  O   UNL     1      -0.250  -6.730   3.690  1.00  0.00    -0.374 OA
BRANCH  19  20
ATOM     20  C   UNL     1      -1.042  -5.803   2.943  1.00  0.00     0.202 C 
BRANCH  20  21
ATOM     21  C   UNL     1      -2.159  -5.111   3.733  1.00  0.00     0.261 C 
BRANCH  21  22
ATOM     22  O   UNL     1      -1.626  -4.205   4.718  1.00  0.00    -0.460 OA
BRANCH  22  23
ATOM     23  C   UNL     1      -1.793  -4.595   6.003  1.00  0.00     0.338 C 
ATOM     24  O   UNL     1      -2.425  -5.558   6.412  1.00  0.00    -0.246 OA
BRANCH  23  25
ATOM     25  C   UNL     1      -0.947  -3.775   6.890  1.00  0.00     0.060 A 
ATOM     26  C   UNL     1      -0.111  -4.449   7.789  1.00  0.00     0.016 A 
ATOM     27  C   UNL     1      -1.015  -2.380   6.894  1.00  0.00     0.016 A 
ATOM     28  C   UNL     1       0.626  -3.733   8.729  1.00  0.00     0.010 A 
ATOM     29  C   UNL     1      -0.280  -1.662   7.845  1.00  0.00     0.010 A 
ATOM     30  C   UNL     1       0.516  -2.337   8.788  1.00  0.00    -0.014 A 
BRANCH  30  31
ATOM     31  C   UNL     1       1.123  -1.602   9.924  1.00  0.00     0.031 A 
ATOM     32  C   UNL     1       0.254  -1.205  11.084  1.00  0.00     0.074 A 
ATOM     33  C   UNL     1       2.435  -1.312   9.934  1.00  0.00     0.049 A 
ATOM     34  N   UNL     1       0.564  -0.536  12.166  1.00  0.00    -0.248 NA
ATOM     35  C   UNL     1      -1.157  -1.618  11.014  1.00  0.00     0.031 C 
ATOM     36  C   UNL     1       3.386  -1.673   8.885  1.00  0.00     0.029 A 
ATOM     37  N   UNL     1       3.191  -0.639  10.860  1.00  0.00    -0.354 N 
ATOM     38  C   UNL     1      -0.611  -0.443  12.901  1.00  0.00     0.074 A 
ATOM     39  C   UNL     1      -1.646  -1.097  12.130  1.00  0.00     0.031 C 
ATOM     40  C   UNL     1       4.601  -1.207   9.222  1.00  0.00     0.029 A 
ATOM     41  C   UNL     1       4.505  -0.491  10.493  1.00  0.00     0.049 A 
ATOM     42  H   UNL     1       2.826  -0.294  11.707  1.00  0.00     0.167 HD
ATOM     43  C   UNL     1      -0.805   0.127  14.114  1.00  0.00     0.037 A 
ATOM     44  C   UNL     1       5.510   0.164  11.106  1.00  0.00     0.037 A 
ATOM     45  C   UNL     1       0.226   0.775  14.881  1.00  0.00     0.049 A 
ATOM     46  C   UNL     1       5.255   0.846  12.425  1.00  0.00     0.074 A 
ATOM     47  C   UNL     1       0.134   1.362  16.131  1.00  0.00     0.029 A 
ATOM     48  N   UNL     1       1.540   0.930  14.463  1.00  0.00    -0.354 N 
ATOM     49  N   UNL     1       4.150   0.905  13.127  1.00  0.00    -0.248 NA
ATOM     50  C   UNL     1       6.390   1.552  13.037  1.00  0.00     0.031 C 
ATOM     51  C   UNL     1       1.379   1.915  16.448  1.00  0.00     0.029 A 
ATOM     52  C   UNL     1       2.261   1.627  15.419  1.00  0.00     0.049 A 
ATOM     53  H   UNL     1       1.905   0.594  13.613  1.00  0.00     0.167 HD
ATOM     54  C   UNL     1       4.461   1.626  14.272  1.00  0.00     0.074 A 
ATOM     55  C   UNL     1       5.863   1.977  14.176  1.00  0.00     0.031 C 
ATOM     56  C   UNL     1       3.658   1.965  15.311  1.00  0.00     0.037 A 
BRANCH  43  57
ATOM     57  C   UNL     1      -2.197   0.098  14.675  1.00  0.00     0.064 A 
ATOM     58  C   UNL     1      -2.778  -1.090  15.144  1.00  0.00     0.173 A 
ATOM     59  C   UNL     1      -2.950   1.278  14.764  1.00  0.00     0.173 A 
ATOM     60  F   UNL     1      -2.104  -2.247  15.069  1.00  0.00    -0.203 F 
ATOM     61  C   UNL     1      -4.074  -1.099  15.656  1.00  0.00     0.198 A 
ATOM     62  C   UNL     1      -4.234   1.269  15.302  1.00  0.00     0.198 A 
ATOM     63  F   UNL     1      -2.440   2.441  14.332  1.00  0.00    -0.203 F 
ATOM     64  F   UNL     1      -4.627  -2.253  16.053  1.00  0.00    -0.200 F 
ATOM     65  C   UNL     1      -4.798   0.081  15.739  1.00  0.00     0.200 A 
ATOM     66  F   UNL     1      -4.929   2.412  15.391  1.00  0.00    -0.200 F 
ATOM     67  F   UNL     1      -6.043   0.070  16.234  1.00  0.00    -0.200 F 
ENDBRANCH  43  57
BRANCH  44  68
ATOM     68  C   UNL     1       6.854   0.210  10.474  1.00  0.00     0.064 A 
ATOM     69  C   UNL     1       7.939  -0.480  11.029  1.00  0.00     0.173 A 
ATOM     70  C   UNL     1       7.079   0.951   9.304  1.00  0.00     0.173 A 
ATOM     71  F   UNL     1       7.779  -1.180  12.162  1.00  0.00    -0.203 F 
ATOM     72  C   UNL     1       9.203  -0.422  10.444  1.00  0.00     0.198 A 
ATOM     73  C   UNL     1       8.336   0.987   8.706  1.00  0.00     0.198 A 
ATOM     74  F   UNL     1       6.073   1.631   8.736  1.00  0.00    -0.203 F 
ATOM     75  F   UNL     1      10.233  -1.059  11.017  1.00  0.00    -0.200 F 
ATOM     76  C   UNL     1       9.399   0.305   9.280  1.00  0.00     0.200 A 
ATOM     77  F   UNL     1       8.518   1.682   7.575  1.00  0.00    -0.200 F 
ATOM     78  F   UNL     1      10.613   0.356   8.715  1.00  0.00    -0.200 F 
ENDBRANCH  44  68
BRANCH  56  79
ATOM     79  C   UNL     1       4.281   2.727  16.446  1.00  0.00     0.064 A 
ATOM     80  C   UNL     1       4.639   4.077  16.318  1.00  0.00     0.173 A 
ATOM     81  C   UNL     1       4.479   2.110  17.691  1.00  0.00     0.173 A 
ATOM     82  F   UNL     1       4.484   4.708  15.144  1.00  0.00    -0.203 F 
ATOM     83  C   UNL     1       5.194   4.774  17.388  1.00  0.00     0.198 A 
ATOM     84  C   UNL     1       5.007   2.818  18.766  1.00  0.00     0.198 A 
ATOM     85  F   UNL     1       4.146   0.823  17.868  1.00  0.00    -0.203 F 
ATOM     86  F   UNL     1       5.570   6.051  17.230  1.00  0.00    -0.200 F 
ATOM     87  C   UNL     1       5.371   4.147  18.612  1.00  0.00     0.200 A 
ATOM     88  F   UNL     1       5.164   2.214  19.952  1.00  0.00    -0.200 F 
ATOM     89  F   UNL     1       5.897   4.822  19.643  1.00  0.00    -0.200 F 
ENDBRANCH  56  79
ENDBRANCH  30  31
ENDBRANCH  23  25
ENDBRANCH  22  23
ENDBRANCH  21  22
ENDBRANCH  20  21
ENDBRANCH  19  20
ENDBRANCH   1  19
TORSDOF 18
