REMARK SMILES Cc1c(Cl)cc2c(c1C)O[C@H](C(F)(F)F)C(C(=O)OCCOCCOC(=O)c1ccc(-c3c4nc(c(-c5c(F)c(F)c(F)c(F)c5F)c5ccc([nH]5)c(-c5c(F)c(F)c(F)c(F)c5F)c5nc(c(-c6c(F)c(F)c(F)c(F)c6F)c6ccc3[nH]6)C=C5)C=C4)cc1)=C2
REMARK SMILES IDX 23 1 22 2 21 3 20 4 19 5 17 6 18 7 16 8 1 9 2 10 3 11 8 12
REMARK SMILES IDX 4 13 5 14 7 15 9 16 6 17 10 18 91 19 11 20 12 21 13 22 14 23
REMARK SMILES IDX 15 24 24 25 25 26 26 27 27 28 28 29 29 30 90 31 30 32 89 33
REMARK SMILES IDX 31 34 32 35 33 36 83 37 34 38 88 39 82 40 84 41 35 42 87 43
REMARK SMILES IDX 81 44 80 45 36 47 68 48 48 49 67 50 49 51 52 52 66 53 85 54
REMARK SMILES IDX 50 55 51 56 65 58 86 59 53 60 37 61 38 62 46 63 39 64 40 65
REMARK SMILES IDX 44 66 47 67 41 68 42 69 45 70 43 71 69 72 70 73 78 74 71 75
REMARK SMILES IDX 72 76 76 77 79 78 73 79 74 80 77 81 75 82 54 83 55 84 63 85
REMARK SMILES IDX 56 86 57 87 61 88 64 89 58 90 59 91 62 92 60 93
REMARK H PARENT 84 46 52 57
REMARK Flexibility Score: inf
ROOT
ATOM      1  C   UNL     1      -0.268   7.756   4.246  1.00  0.00     0.202 C 
ENDROOT
BRANCH   1   2
ATOM      2  O   UNL     1      -0.985   8.968   4.008  1.00  0.00    -0.374 OA
BRANCH   2   3
ATOM      3  C   UNL     1      -2.362   9.006   4.379  1.00  0.00     0.202 C 
BRANCH   3   4
ATOM      4  C   UNL     1      -3.342   8.352   3.402  1.00  0.00     0.261 C 
BRANCH   4   5
ATOM      5  O   UNL     1      -3.033   6.963   3.205  1.00  0.00    -0.460 OA
BRANCH   5   6
ATOM      6  C   UNL     1      -2.657   6.643   1.946  1.00  0.00     0.338 C 
ATOM      7  O   UNL     1      -2.693   7.370   0.963  1.00  0.00    -0.246 OA
BRANCH   6   8
ATOM      8  C   UNL     1      -2.068   5.293   1.925  1.00  0.00     0.087 C 
ATOM      9  C   UNL     1       1.021  -0.167   0.153  1.00  0.00     0.046 C 
ATOM     10  C   UNL     1       0.541   1.219   0.509  1.00  0.00    -0.026 A 
ATOM     11  C   UNL     1       1.158   2.347  -0.068  1.00  0.00     0.045 A 
ATOM     12  C   UNL     1      -0.585   1.418   1.351  1.00  0.00    -0.004 A 
ATOM     13  Cl  UNL     1       2.496   2.213  -1.159  1.00  0.00    -0.084 Cl
ATOM     14  C   UNL     1       0.691   3.636   0.190  1.00  0.00     0.032 A 
ATOM     15  C   UNL     1      -1.023   2.733   1.629  1.00  0.00     0.131 A 
ATOM     16  C   UNL     1      -1.337   0.267   1.976  1.00  0.00     0.049 C 
ATOM     17  C   UNL     1      -0.408   3.829   1.024  1.00  0.00     0.019 A 
ATOM     18  O   UNL     1      -2.064   2.870   2.510  1.00  0.00    -0.475 OA
ATOM     19  C   UNL     1      -0.957   5.161   1.192  1.00  0.00     0.027 C 
ATOM     20  C   UNL     1      -2.720   4.159   2.663  1.00  0.00     0.316 C 
BRANCH  20  21
ATOM     21  C   UNL     1      -4.203   3.985   2.303  1.00  0.00     0.430 C 
ATOM     22  F   UNL     1      -4.744   2.930   2.961  1.00  0.00    -0.167 F 
ATOM     23  F   UNL     1      -4.936   5.069   2.649  1.00  0.00    -0.167 F 
ATOM     24  F   UNL     1      -4.386   3.776   0.981  1.00  0.00    -0.167 F 
ENDBRANCH  20  21
ENDBRANCH   6   8
ENDBRANCH   5   6
ENDBRANCH   4   5
ENDBRANCH   3   4
ENDBRANCH   2   3
ENDBRANCH   1   2
BRANCH   1  25
ATOM     25  C   UNL     1       0.107   7.456   5.703  1.00  0.00     0.261 C 
BRANCH  25  26
ATOM     26  O   UNL     1      -1.051   7.135   6.497  1.00  0.00    -0.460 OA
BRANCH  26  27
ATOM     27  C   UNL     1      -1.309   8.003   7.503  1.00  0.00     0.338 C 
ATOM     28  O   UNL     1      -0.631   8.962   7.852  1.00  0.00    -0.246 OA
BRANCH  27  29
ATOM     29  C   UNL     1      -2.653   7.757   8.051  1.00  0.00     0.060 A 
ATOM     30  C   UNL     1      -3.564   8.820   8.036  1.00  0.00     0.016 A 
ATOM     31  C   UNL     1      -2.987   6.542   8.653  1.00  0.00     0.016 A 
ATOM     32  C   UNL     1      -4.799   8.690   8.666  1.00  0.00     0.010 A 
ATOM     33  C   UNL     1      -4.222   6.417   9.298  1.00  0.00     0.010 A 
ATOM     34  C   UNL     1      -5.117   7.501   9.337  1.00  0.00    -0.014 A 
BRANCH  34  35
ATOM     35  C   UNL     1      -6.315   7.461  10.209  1.00  0.00     0.031 A 
ATOM     36  C   UNL     1      -6.153   7.728  11.680  1.00  0.00     0.074 A 
ATOM     37  C   UNL     1      -7.536   7.245   9.690  1.00  0.00     0.049 A 
ATOM     38  N   UNL     1      -7.057   7.741  12.626  1.00  0.00    -0.248 NA
ATOM     39  C   UNL     1      -4.789   8.027  12.146  1.00  0.00     0.031 C 
ATOM     40  C   UNL     1      -7.824   7.031   8.274  1.00  0.00     0.029 A 
ATOM     41  N   UNL     1      -8.764   7.177  10.300  1.00  0.00    -0.354 N 
ATOM     42  C   UNL     1      -6.376   8.059  13.793  1.00  0.00     0.074 A 
ATOM     43  C   UNL     1      -4.978   8.196  13.447  1.00  0.00     0.031 C 
ATOM     44  C   UNL     1      -9.149   6.856   8.122  1.00  0.00     0.029 A 
ATOM     45  C   UNL     1      -9.795   6.918   9.432  1.00  0.00     0.049 A 
ATOM     46  H   UNL     1      -8.893   7.302  11.268  1.00  0.00     0.167 HD
ATOM     47  C   UNL     1      -6.875   8.235  15.039  1.00  0.00     0.037 A 
ATOM     48  C   UNL     1     -11.108   6.738   9.673  1.00  0.00     0.037 A 
ATOM     49  C   UNL     1      -8.264   8.093  15.384  1.00  0.00     0.049 A 
ATOM     50  C   UNL     1     -11.623   6.840  11.086  1.00  0.00     0.074 A 
ATOM     51  C   UNL     1      -8.865   8.246  16.621  1.00  0.00     0.029 A 
ATOM     52  N   UNL     1      -9.270   7.763  14.487  1.00  0.00    -0.354 N 
ATOM     53  N   UNL     1     -10.973   7.142  12.183  1.00  0.00    -0.248 NA
ATOM     54  C   UNL     1     -13.054   6.572  11.293  1.00  0.00     0.031 C 
ATOM     55  C   UNL     1     -10.228   7.966  16.482  1.00  0.00     0.029 A 
ATOM     56  C   UNL     1     -10.484   7.684  15.149  1.00  0.00     0.049 A 
ATOM     57  H   UNL     1      -9.139   7.608  13.524  1.00  0.00     0.167 HD
ATOM     58  C   UNL     1     -11.915   7.124  13.204  1.00  0.00     0.074 A 
ATOM     59  C   UNL     1     -13.186   6.792  12.594  1.00  0.00     0.031 C 
ATOM     60  C   UNL     1     -11.741   7.359  14.527  1.00  0.00     0.037 A 
BRANCH  47  61
ATOM     61  C   UNL     1      -5.913   8.594  16.130  1.00  0.00     0.064 A 
ATOM     62  C   UNL     1      -5.362   9.881  16.223  1.00  0.00     0.173 A 
ATOM     63  C   UNL     1      -5.589   7.665  17.130  1.00  0.00     0.173 A 
ATOM     64  F   UNL     1      -5.631  10.800  15.283  1.00  0.00    -0.203 F 
ATOM     65  C   UNL     1      -4.512  10.220  17.272  1.00  0.00     0.198 A 
ATOM     66  C   UNL     1      -4.758   8.015  18.190  1.00  0.00     0.198 A 
ATOM     67  F   UNL     1      -6.093   6.423  17.087  1.00  0.00    -0.203 F 
ATOM     68  F   UNL     1      -3.974  11.447  17.326  1.00  0.00    -0.200 F 
ATOM     69  C   UNL     1      -4.218   9.291  18.259  1.00  0.00     0.200 A 
ATOM     70  F   UNL     1      -4.484   7.120  19.149  1.00  0.00    -0.200 F 
ATOM     71  F   UNL     1      -3.413   9.624  19.277  1.00  0.00    -0.200 F 
ENDBRANCH  47  61
BRANCH  48  72
ATOM     72  C   UNL     1     -12.033   6.443   8.549  1.00  0.00     0.064 A 
ATOM     73  C   UNL     1     -12.988   7.382   8.135  1.00  0.00     0.173 A 
ATOM     74  C   UNL     1     -11.985   5.217   7.868  1.00  0.00     0.173 A 
ATOM     75  F   UNL     1     -13.090   8.557   8.773  1.00  0.00    -0.203 F 
ATOM     76  C   UNL     1     -13.865   7.103   7.089  1.00  0.00     0.198 A 
ATOM     77  C   UNL     1     -12.846   4.949   6.806  1.00  0.00     0.198 A 
ATOM     78  F   UNL     1     -11.093   4.283   8.230  1.00  0.00    -0.203 F 
ATOM     79  F   UNL     1     -14.793   8.003   6.738  1.00  0.00    -0.200 F 
ATOM     80  C   UNL     1     -13.789   5.890   6.421  1.00  0.00     0.200 A 
ATOM     81  F   UNL     1     -12.763   3.779   6.158  1.00  0.00    -0.200 F 
ATOM     82  F   UNL     1     -14.629   5.625   5.412  1.00  0.00    -0.200 F 
ENDBRANCH  48  72
BRANCH  60  83
ATOM     83  C   UNL     1     -12.950   7.288  15.413  1.00  0.00     0.064 A 
ATOM     84  C   UNL     1     -13.528   6.060  15.763  1.00  0.00     0.173 A 
ATOM     85  C   UNL     1     -13.485   8.454  15.981  1.00  0.00     0.173 A 
ATOM     86  F   UNL     1     -13.059   4.918  15.236  1.00  0.00    -0.203 F 
ATOM     87  C   UNL     1     -14.606   6.002  16.643  1.00  0.00     0.198 A 
ATOM     88  C   UNL     1     -14.546   8.390  16.881  1.00  0.00     0.198 A 
ATOM     89  F   UNL     1     -12.961   9.653  15.685  1.00  0.00    -0.203 F 
ATOM     90  F   UNL     1     -15.161   4.820  16.942  1.00  0.00    -0.200 F 
ATOM     91  C   UNL     1     -15.107   7.165  17.208  1.00  0.00     0.200 A 
ATOM     92  F   UNL     1     -15.018   9.514  17.438  1.00  0.00    -0.200 F 
ATOM     93  F   UNL     1     -16.133   7.106  18.069  1.00  0.00    -0.200 F 
ENDBRANCH  60  83
ENDBRANCH  34  35
ENDBRANCH  27  29
ENDBRANCH  26  27
ENDBRANCH  25  26
ENDBRANCH   1  25
TORSDOF 15
