REMARK SMILES Cc1cc(CNS(=O)(=O)c2ccc(C(=O)OCCOCCOC(=O)c3ccc(-c4c5nc(c(-c6c(F)c(F)c(F)c(F)c6F)c6ccc([nH]6)c(-c6c(F)c(F)c(F)c(F)c6F)c6nc(c(-c7c(F)c(F)c(F)c(F)c7F)c7ccc4[nH]7)C=C6)C=C5)cc3)cc2F)no1
REMARK SMILES IDX 18 1 17 2 16 3 14 4 15 5 13 6 10 7 11 8 89 9 12 10 88 11
REMARK SMILES IDX 90 12 7 13 8 14 9 15 6 16 5 18 4 19 1 20 2 21 3 22 92 23
REMARK SMILES IDX 91 24 19 25 20 26 21 27 22 28 23 29 24 30 25 31 26 32 87 33
REMARK SMILES IDX 27 34 86 35 28 36 29 37 30 38 80 39 31 40 85 41 79 42 81 43
REMARK SMILES IDX 32 44 84 45 78 46 77 47 33 49 65 50 45 51 64 52 46 53 49 54
REMARK SMILES IDX 63 55 82 56 47 57 48 58 62 60 83 61 50 62 34 63 35 64 43 65
REMARK SMILES IDX 36 66 37 67 41 68 44 69 38 70 39 71 42 72 40 73 66 74 67 75
REMARK SMILES IDX 75 76 68 77 69 78 73 79 76 80 70 81 71 82 74 83 72 84 51 85
REMARK SMILES IDX 52 86 60 87 53 88 54 89 58 90 61 91 55 92 56 93 59 94 57 95
REMARK H PARENT 6 17 81 48 49 59
REMARK Flexibility Score: inf
ROOT
ATOM      1  C   UNL     1      -8.965  -0.091  -5.951  1.00  0.00     0.202 C 
ENDROOT
BRANCH   1   2
ATOM      2  C   UNL     1      -9.714   0.155  -4.638  1.00  0.00     0.261 C 
BRANCH   2   3
ATOM      3  O   UNL     1      -8.824   0.045  -3.511  1.00  0.00    -0.460 OA
BRANCH   3   4
ATOM      4  C   UNL     1      -9.070  -1.008  -2.695  1.00  0.00     0.338 C 
ATOM      5  O   UNL     1     -10.025  -1.764  -2.743  1.00  0.00    -0.246 OA
BRANCH   4   6
ATOM      6  C   UNL     1      -7.923  -1.242  -1.787  1.00  0.00     0.063 A 
ATOM      7  C   UNL     1      -5.887  -1.840   0.028  1.00  0.00     0.118 A 
ATOM      8  C   UNL     1      -6.605  -2.880  -0.571  1.00  0.00     0.026 A 
ATOM      9  C   UNL     1      -6.157  -0.518  -0.310  1.00  0.00     0.144 A 
ATOM     10  C   UNL     1      -7.627  -2.577  -1.470  1.00  0.00     0.017 A 
ATOM     11  C   UNL     1      -7.165  -0.208  -1.227  1.00  0.00     0.056 A 
ATOM     12  F   UNL     1      -5.468   0.486   0.249  1.00  0.00    -0.205 F 
BRANCH   7  13
ATOM     13  S   UNL     1      -4.746  -2.216   1.321  1.00  0.00     0.243 S 
ATOM     14  O   UNL     1      -4.394  -3.612   1.185  1.00  0.00    -0.207 OA
ATOM     15  O   UNL     1      -5.318  -1.694   2.543  1.00  0.00    -0.207 OA
BRANCH  13  16
ATOM     16  N   UNL     1      -3.371  -1.341   0.999  1.00  0.00    -0.205 NA
ATOM     17  H   UNL     1      -3.657  -0.366   0.905  1.00  0.00     0.141 HD
BRANCH  16  18
ATOM     18  C   UNL     1      -2.567  -1.661  -0.174  1.00  0.00     0.158 C 
BRANCH  18  19
ATOM     19  C   UNL     1      -1.306  -0.863  -0.113  1.00  0.00     0.099 A 
ATOM     20  C   UNL     1       2.229   0.105   0.063  1.00  0.00     0.091 C 
ATOM     21  C   UNL     1       0.785  -0.178  -0.003  1.00  0.00     0.133 A 
ATOM     22  C   UNL     1       0.029  -1.324  -0.024  1.00  0.00     0.073 A 
ATOM     23  O   UNL     1      -0.039   0.902  -0.063  1.00  0.00    -0.361 OA
ATOM     24  N   UNL     1      -1.354   0.478  -0.137  1.00  0.00    -0.083 NA
ENDBRANCH  18  19
ENDBRANCH  16  18
ENDBRANCH  13  16
ENDBRANCH   7  13
ENDBRANCH   4   6
ENDBRANCH   3   4
ENDBRANCH   2   3
ENDBRANCH   1   2
BRANCH   1  25
ATOM     25  O   UNL     1      -8.454  -1.414  -6.118  1.00  0.00    -0.374 OA
BRANCH  25  26
ATOM     26  C   UNL     1      -7.184  -1.688  -5.523  1.00  0.00     0.202 C 
BRANCH  26  27
ATOM     27  C   UNL     1      -5.970  -1.245  -6.346  1.00  0.00     0.261 C 
BRANCH  27  28
ATOM     28  O   UNL     1      -5.857   0.191  -6.375  1.00  0.00    -0.460 OA
BRANCH  28  29
ATOM     29  C   UNL     1      -6.091   0.758  -7.582  1.00  0.00     0.338 C 
ATOM     30  O   UNL     1      -6.274   0.189  -8.645  1.00  0.00    -0.246 OA
BRANCH  29  31
ATOM     31  C   UNL     1      -6.271   2.215  -7.426  1.00  0.00     0.060 A 
ATOM     32  C   UNL     1      -7.385   2.795  -8.046  1.00  0.00     0.016 A 
ATOM     33  C   UNL     1      -5.345   3.009  -6.746  1.00  0.00     0.016 A 
ATOM     34  C   UNL     1      -7.550   4.178  -8.034  1.00  0.00     0.010 A 
ATOM     35  C   UNL     1      -5.507   4.399  -6.742  1.00  0.00     0.010 A 
ATOM     36  C   UNL     1      -6.591   4.991  -7.416  1.00  0.00    -0.014 A 
BRANCH  36  37
ATOM     37  C   UNL     1      -6.647   6.461  -7.602  1.00  0.00     0.031 A 
ATOM     38  C   UNL     1      -5.796   7.093  -8.667  1.00  0.00     0.074 A 
ATOM     39  C   UNL     1      -7.471   7.218  -6.858  1.00  0.00     0.049 A 
ATOM     40  N   UNL     1      -5.660   8.356  -8.980  1.00  0.00    -0.248 NA
ATOM     41  C   UNL     1      -4.991   6.178  -9.493  1.00  0.00     0.031 C 
ATOM     42  C   UNL     1      -8.381   6.716  -5.832  1.00  0.00     0.029 A 
ATOM     43  N   UNL     1      -7.673   8.576  -6.853  1.00  0.00    -0.354 N 
ATOM     44  C   UNL     1      -4.759   8.388 -10.035  1.00  0.00     0.074 A 
ATOM     45  C   UNL     1      -4.357   7.022 -10.294  1.00  0.00     0.031 C 
ATOM     46  C   UNL     1      -9.042   7.753  -5.291  1.00  0.00     0.029 A 
ATOM     47  C   UNL     1      -8.578   8.994  -5.910  1.00  0.00     0.049 A 
ATOM     48  H   UNL     1      -7.211   9.192  -7.468  1.00  0.00     0.167 HD
ATOM     49  C   UNL     1      -4.315   9.460 -10.732  1.00  0.00     0.037 A 
ATOM     50  C   UNL     1      -8.972  10.238  -5.574  1.00  0.00     0.037 A 
ATOM     51  C   UNL     1      -4.719  10.817 -10.478  1.00  0.00     0.049 A 
ATOM     52  C   UNL     1      -8.400  11.422  -6.309  1.00  0.00     0.074 A 
ATOM     53  C   UNL     1      -4.332  11.968 -11.142  1.00  0.00     0.029 A 
ATOM     54  N   UNL     1      -5.598  11.204  -9.479  1.00  0.00    -0.354 N 
ATOM     55  N   UNL     1      -7.552  11.444  -7.308  1.00  0.00    -0.248 NA
ATOM     56  C   UNL     1      -8.835  12.755  -5.866  1.00  0.00     0.031 C 
ATOM     57  C   UNL     1      -4.944  13.058 -10.515  1.00  0.00     0.029 A 
ATOM     58  C   UNL     1      -5.747  12.581  -9.492  1.00  0.00     0.049 A 
ATOM     59  H   UNL     1      -6.049  10.592  -8.854  1.00  0.00     0.167 HD
ATOM     60  C   UNL     1      -7.369  12.783  -7.627  1.00  0.00     0.074 A 
ATOM     61  C   UNL     1      -8.200  13.546  -6.721  1.00  0.00     0.031 C 
ATOM     62  C   UNL     1      -6.582  13.328  -8.586  1.00  0.00     0.037 A 
BRANCH  49  63
ATOM     63  C   UNL     1      -3.328   9.217 -11.834  1.00  0.00     0.064 A 
ATOM     64  C   UNL     1      -1.990   9.610 -11.687  1.00  0.00     0.173 A 
ATOM     65  C   UNL     1      -3.721   8.658 -13.058  1.00  0.00     0.173 A 
ATOM     66  F   UNL     1      -1.567  10.153 -10.536  1.00  0.00    -0.203 F 
ATOM     67  C   UNL     1      -1.083   9.465 -12.733  1.00  0.00     0.198 A 
ATOM     68  C   UNL     1      -2.806   8.492 -14.094  1.00  0.00     0.198 A 
ATOM     69  F   UNL     1      -4.987   8.254 -13.240  1.00  0.00    -0.203 F 
ATOM     70  F   UNL     1       0.184   9.873 -12.581  1.00  0.00    -0.200 F 
ATOM     71  C   UNL     1      -1.491   8.904 -13.934  1.00  0.00     0.200 A 
ATOM     72  F   UNL     1      -3.196   7.931 -15.247  1.00  0.00    -0.200 F 
ATOM     73  F   UNL     1      -0.615   8.758 -14.938  1.00  0.00    -0.200 F 
ENDBRANCH  49  63
BRANCH  50  74
ATOM     74  C   UNL     1      -9.959  10.425  -4.481  1.00  0.00     0.064 A 
ATOM     75  C   UNL     1      -9.620  10.168  -3.144  1.00  0.00     0.173 A 
ATOM     76  C   UNL     1     -11.266  10.851  -4.753  1.00  0.00     0.173 A 
ATOM     77  F   UNL     1      -8.381   9.762  -2.831  1.00  0.00    -0.203 F 
ATOM     78  C   UNL     1     -10.558  10.312  -2.124  1.00  0.00     0.198 A 
ATOM     79  C   UNL     1     -12.196  11.017  -3.729  1.00  0.00     0.198 A 
ATOM     80  F   UNL     1     -11.628  11.134  -6.013  1.00  0.00    -0.203 F 
ATOM     81  F   UNL     1     -10.216  10.032  -0.858  1.00  0.00    -0.200 F 
ATOM     82  C   UNL     1     -11.844  10.739  -2.417  1.00  0.00     0.200 A 
ATOM     83  F   UNL     1     -13.431  11.453  -4.013  1.00  0.00    -0.200 F 
ATOM     84  F   UNL     1     -12.743  10.887  -1.434  1.00  0.00    -0.200 F 
ENDBRANCH  50  74
BRANCH  62  85
ATOM     85  C   UNL     1      -6.587  14.821  -8.731  1.00  0.00     0.064 A 
ATOM     86  C   UNL     1      -7.191  15.425  -9.844  1.00  0.00     0.173 A 
ATOM     87  C   UNL     1      -5.912  15.645  -7.819  1.00  0.00     0.173 A 
ATOM     88  F   UNL     1      -7.841  14.678 -10.749  1.00  0.00    -0.203 F 
ATOM     89  C   UNL     1      -7.103  16.799 -10.048  1.00  0.00     0.198 A 
ATOM     90  C   UNL     1      -5.846  17.022  -8.014  1.00  0.00     0.198 A 
ATOM     91  F   UNL     1      -5.328  15.114  -6.734  1.00  0.00    -0.203 F 
ATOM     92  F   UNL     1      -7.656  17.350 -11.138  1.00  0.00    -0.200 F 
ATOM     93  C   UNL     1      -6.432  17.596  -9.133  1.00  0.00     0.200 A 
ATOM     94  F   UNL     1      -5.215  17.794  -7.120  1.00  0.00    -0.200 F 
ATOM     95  F   UNL     1      -6.349  18.919  -9.330  1.00  0.00    -0.200 F 
ENDBRANCH  62  85
ENDBRANCH  36  37
ENDBRANCH  29  31
ENDBRANCH  28  29
ENDBRANCH  27  28
ENDBRANCH  26  27
ENDBRANCH  25  26
ENDBRANCH   1  25
TORSDOF 18
