REMARK SMILES O=C(Nc1ccc(N2CCCN(c3ccc(Cl)nn3)CC2)c(C(=O)OCCOCCOC(=O)c2ccc(-c3c4nc(c(-c5c(F)c(F)c(F)c(F)c5F)c5ccc([nH]5)c(-c5c(F)c(F)c(F)c(F)c5F)c5nc(c(-c6c(F)c(F)c(F)c(F)c6F)c6ccc3[nH]6)C=C5)C=C4)cc2)c1)c1ccc(F)cc1
REMARK SMILES IDX 26 1 25 2 23 3 24 4 22 5 4 6 5 7 97 8 6 9 7 10 3 11 1 12
REMARK SMILES IDX 2 13 98 15 99 16 104 17 100 18 103 19 101 20 102 21 8 22
REMARK SMILES IDX 9 23 21 25 20 26 12 27 11 28 10 29 13 31 14 32 19 33 15 34
REMARK SMILES IDX 18 35 16 36 17 37 27 38 28 39 29 40 30 41 31 42 32 43 33 44
REMARK SMILES IDX 34 45 35 46 96 47 36 48 95 49 37 50 38 51 39 52 89 53 40 54
REMARK SMILES IDX 94 55 88 56 90 57 41 58 93 59 87 60 86 61 42 63 74 64 54 65
REMARK SMILES IDX 73 66 55 67 58 68 72 69 91 70 56 71 57 72 71 74 92 75 59 76
REMARK SMILES IDX 43 77 44 78 52 79 45 80 46 81 50 82 53 83 47 84 48 85 51 86
REMARK SMILES IDX 49 87 75 88 76 89 84 90 77 91 78 92 82 93 85 94 79 95 80 96
REMARK SMILES IDX 83 97 81 98 60 99 61 100 69 101 62 102 63 103 67 104 70 105
REMARK SMILES IDX 64 106 65 107 68 108 66 109
REMARK H PARENT 3 14 90 62 58 73
REMARK Flexibility Score: 80.00
ROOT
ATOM      1  C   UNL     1       7.767  -2.972  -2.005  1.00  0.00     0.261 C 
ENDROOT
BRANCH   1   2
ATOM      2  O   UNL     1       7.011  -1.785  -1.690  1.00  0.00    -0.460 OA
BRANCH   2   3
ATOM      3  C   UNL     1       7.574  -0.934  -0.790  1.00  0.00     0.340 C 
ATOM      4  O   UNL     1       8.589  -1.151  -0.150  1.00  0.00    -0.246 OA
BRANCH   3   5
ATOM      5  C   UNL     1       6.777   0.324  -0.717  1.00  0.00     0.085 A 
ATOM      6  C   UNL     1       4.544   1.263  -0.417  1.00  0.00     0.042 A 
ATOM      7  C   UNL     1       5.111   2.513  -0.193  1.00  0.00     0.028 A 
ATOM      8  C   UNL     1       5.378   0.199  -0.762  1.00  0.00     0.044 A 
ATOM      9  C   UNL     1       6.500   2.668  -0.236  1.00  0.00     0.029 A 
ATOM     10  C   UNL     1       7.361   1.587  -0.494  1.00  0.00     0.052 A 
BRANCH   6  11
ATOM     11  N   UNL     1       3.154   1.129  -0.241  1.00  0.00    -0.322 N 
ATOM     12  O   UNL     1       1.165   0.056  -0.052  1.00  0.00    -0.269 OA
ATOM     13  C   UNL     1       2.389   0.012   0.043  1.00  0.00     0.255 C 
ATOM     14  H   UNL     1       2.643   1.965  -0.336  1.00  0.00     0.170 HD
BRANCH  13  15
ATOM     15  C   UNL     1       3.026  -1.241   0.519  1.00  0.00     0.040 A 
ATOM     16  C   UNL     1       4.012  -1.220   1.520  1.00  0.00     0.017 A 
ATOM     17  C   UNL     1       2.686  -2.444  -0.110  1.00  0.00     0.017 A 
ATOM     18  C   UNL     1       4.744  -2.376   1.794  1.00  0.00     0.040 A 
ATOM     19  C   UNL     1       3.402  -3.603   0.190  1.00  0.00     0.040 A 
ATOM     20  C   UNL     1       4.440  -3.552   1.117  1.00  0.00     0.123 A 
ATOM     21  F   UNL     1       5.169  -4.651   1.349  1.00  0.00    -0.207 F 
ENDBRANCH  13  15
ENDBRANCH   6  11
BRANCH  10  22
ATOM     22  N   UNL     1       8.720   1.892  -0.565  1.00  0.00    -0.369 N 
BRANCH  22  23
ATOM     23  C   UNL     1       9.400   1.627  -1.835  1.00  0.00     0.118 CG0
ATOM     24  G   UNL     1      10.149   2.829  -2.399  1.00  0.00     0.000 G0
ENDBRANCH  22  23
BRANCH  22  25
ATOM     25  C   UNL     1       9.508   1.652   0.660  1.00  0.00     0.138 C 
BRANCH  25  26
ATOM     26  C   UNL     1      10.587   2.728   0.863  1.00  0.00     0.139 C 
BRANCH  26  27
ATOM     27  N   UNL     1      11.452   2.882  -0.312  1.00  0.00    -0.353 N 
BRANCH  27  28
ATOM     28  C   UNL     1      10.939   3.681  -1.413  1.00  0.00     0.120 C 
BRANCH  28  29
ATOM     29  C   UNL     1      10.149   2.829  -2.399  1.00  0.00     0.043 CG0
ATOM     30  G   UNL     1       9.400   1.627  -1.835  1.00  0.00     0.000 G0
ENDBRANCH  28  29
ENDBRANCH  27  28
BRANCH  27  31
ATOM     31  C   UNL     1      12.796   2.591  -0.239  1.00  0.00     0.151 A 
ATOM     32  C   UNL     1      13.233   1.370   0.266  1.00  0.00     0.052 A 
ATOM     33  N   UNL     1      13.710   3.489  -0.668  1.00  0.00    -0.131 NA
ATOM     34  C   UNL     1      14.597   1.093   0.346  1.00  0.00     0.047 A 
ATOM     35  N   UNL     1      15.062   3.241  -0.570  1.00  0.00    -0.137 NA
ATOM     36  C   UNL     1      15.475   2.067  -0.069  1.00  0.00     0.151 A 
ATOM     37  Cl  UNL     1      17.169   1.850   0.020  1.00  0.00    -0.060 Cl
ENDBRANCH  27  31
ENDBRANCH  26  27
ENDBRANCH  25  26
ENDBRANCH  22  25
ENDBRANCH  10  22
ENDBRANCH   3   5
ENDBRANCH   2   3
ENDBRANCH   1   2
BRANCH   1  38
ATOM     38  C   UNL     1       7.910  -3.116  -3.523  1.00  0.00     0.202 C 
BRANCH  38  39
ATOM     39  O   UNL     1       8.823  -2.235  -4.186  1.00  0.00    -0.374 OA
BRANCH  39  40
ATOM     40  C   UNL     1       8.546  -0.842  -4.125  1.00  0.00     0.202 C 
BRANCH  40  41
ATOM     41  C   UNL     1       7.507  -0.253  -5.089  1.00  0.00     0.261 C 
BRANCH  41  42
ATOM     42  O   UNL     1       6.389  -1.110  -5.313  1.00  0.00    -0.460 OA
BRANCH  42  43
ATOM     43  C   UNL     1       6.562  -1.943  -6.365  1.00  0.00     0.338 C 
ATOM     44  O   UNL     1       7.489  -1.963  -7.163  1.00  0.00    -0.246 OA
BRANCH  43  45
ATOM     45  C   UNL     1       5.516  -2.970  -6.331  1.00  0.00     0.060 A 
ATOM     46  C   UNL     1       5.923  -4.309  -6.299  1.00  0.00     0.016 A 
ATOM     47  C   UNL     1       4.164  -2.624  -6.371  1.00  0.00     0.016 A 
ATOM     48  C   UNL     1       4.971  -5.319  -6.358  1.00  0.00     0.010 A 
ATOM     49  C   UNL     1       3.211  -3.638  -6.441  1.00  0.00     0.010 A 
ATOM     50  C   UNL     1       3.615  -4.985  -6.474  1.00  0.00    -0.014 A 
BRANCH  50  51
ATOM     51  C   UNL     1       2.636  -6.039  -6.812  1.00  0.00     0.031 A 
ATOM     52  C   UNL     1       2.199  -6.174  -8.243  1.00  0.00     0.074 A 
ATOM     53  C   UNL     1       2.166  -6.867  -5.864  1.00  0.00     0.049 A 
ATOM     54  N   UNL     1       1.312  -6.977  -8.769  1.00  0.00    -0.248 NA
ATOM     55  C   UNL     1       2.849  -5.276  -9.213  1.00  0.00     0.031 C 
ATOM     56  C   UNL     1       2.562  -6.851  -4.457  1.00  0.00     0.029 A 
ATOM     57  N   UNL     1       1.246  -7.880  -5.946  1.00  0.00    -0.354 N 
ATOM     58  C   UNL     1       1.287  -6.673 -10.123  1.00  0.00     0.074 A 
ATOM     59  C   UNL     1       2.226  -5.594 -10.338  1.00  0.00     0.031 C 
ATOM     60  C   UNL     1       1.879  -7.805  -3.803  1.00  0.00     0.029 A 
ATOM     61  C   UNL     1       0.973  -8.470  -4.737  1.00  0.00     0.049 A 
ATOM     62  H   UNL     1       0.822  -8.157  -6.790  1.00  0.00     0.167 HD
ATOM     63  C   UNL     1       0.549  -7.250 -11.099  1.00  0.00     0.037 A 
ATOM     64  C   UNL     1       0.072  -9.422  -4.427  1.00  0.00     0.037 A 
ATOM     65  C   UNL     1      -0.375  -8.329 -10.873  1.00  0.00     0.049 A 
ATOM     66  C   UNL     1      -0.787  -9.998  -5.524  1.00  0.00     0.074 A 
ATOM     67  C   UNL     1      -1.155  -9.004 -11.793  1.00  0.00     0.029 A 
ATOM     68  N   UNL     1      -0.645  -8.886  -9.631  1.00  0.00    -0.354 N 
ATOM     69  N   UNL     1      -0.788  -9.727  -6.807  1.00  0.00    -0.248 NA
ATOM     70  C   UNL     1      -1.770 -11.016  -5.128  1.00  0.00     0.031 C 
ATOM     71  C   UNL     1      -1.942  -9.929 -11.101  1.00  0.00     0.029 A 
ATOM     72  C   UNL     1      -1.603  -9.878  -9.758  1.00  0.00     0.049 A 
ATOM     73  H   UNL     1      -0.220  -8.616  -8.785  1.00  0.00     0.167 HD
ATOM     74  C   UNL     1      -1.737 -10.567  -7.376  1.00  0.00     0.074 A 
ATOM     75  C   UNL     1      -2.287 -11.363  -6.299  1.00  0.00     0.031 C 
ATOM     76  C   UNL     1      -2.119 -10.674  -8.673  1.00  0.00     0.037 A 
BRANCH  63  77
ATOM     77  C   UNL     1       0.684  -6.710 -12.492  1.00  0.00     0.064 A 
ATOM     78  C   UNL     1       1.844  -6.909 -13.256  1.00  0.00     0.173 A 
ATOM     79  C   UNL     1      -0.383  -6.021 -13.089  1.00  0.00     0.173 A 
ATOM     80  F   UNL     1       2.900  -7.547 -12.728  1.00  0.00    -0.203 F 
ATOM     81  C   UNL     1       1.936  -6.423 -14.558  1.00  0.00     0.198 A 
ATOM     82  C   UNL     1      -0.299  -5.564 -14.401  1.00  0.00     0.198 A 
ATOM     83  F   UNL     1      -1.515  -5.803 -12.403  1.00  0.00    -0.203 F 
ATOM     84  F   UNL     1       3.069  -6.589 -15.255  1.00  0.00    -0.200 F 
ATOM     85  C   UNL     1       0.862  -5.760 -15.133  1.00  0.00     0.200 A 
ATOM     86  F   UNL     1      -1.343  -4.935 -14.958  1.00  0.00    -0.200 F 
ATOM     87  F   UNL     1       0.947  -5.306 -16.390  1.00  0.00    -0.200 F 
ENDBRANCH  63  77
BRANCH  64  88
ATOM     88  C   UNL     1      -0.076  -9.884  -3.021  1.00  0.00     0.064 A 
ATOM     89  C   UNL     1       0.249 -11.197  -2.654  1.00  0.00     0.173 A 
ATOM     90  C   UNL     1      -0.578  -9.035  -2.024  1.00  0.00     0.173 A 
ATOM     91  F   UNL     1       0.713 -12.055  -3.575  1.00  0.00    -0.203 F 
ATOM     92  C   UNL     1       0.050 -11.652  -1.351  1.00  0.00     0.198 A 
ATOM     93  C   UNL     1      -0.746  -9.481  -0.714  1.00  0.00     0.198 A 
ATOM     94  F   UNL     1      -0.903  -7.768  -2.320  1.00  0.00    -0.203 F 
ATOM     95  F   UNL     1       0.315 -12.928  -1.042  1.00  0.00    -0.200 F 
ATOM     96  C   UNL     1      -0.443 -10.792  -0.382  1.00  0.00     0.200 A 
ATOM     97  F   UNL     1      -1.208  -8.642   0.222  1.00  0.00    -0.200 F 
ATOM     98  F   UNL     1      -0.636 -11.230   0.870  1.00  0.00    -0.200 F 
ENDBRANCH  64  88
BRANCH  76  99
ATOM     99  C   UNL     1      -3.134 -11.727  -9.012  1.00  0.00     0.064 A 
ATOM    100  C   UNL     1      -4.479 -11.609  -8.633  1.00  0.00     0.173 A 
ATOM    101  C   UNL     1      -2.761 -12.845  -9.774  1.00  0.00     0.173 A 
ATOM    102  F   UNL     1      -4.884 -10.566  -7.893  1.00  0.00    -0.203 F 
ATOM    103  C   UNL     1      -5.408 -12.586  -8.983  1.00  0.00     0.198 A 
ATOM    104  C   UNL     1      -3.699 -13.801 -10.152  1.00  0.00     0.198 A 
ATOM    105  F   UNL     1      -1.489 -13.000 -10.171  1.00  0.00    -0.203 F 
ATOM    106  F   UNL     1      -6.678 -12.479  -8.568  1.00  0.00    -0.200 F 
ATOM    107  C   UNL     1      -5.019 -13.675  -9.749  1.00  0.00     0.200 A 
ATOM    108  F   UNL     1      -3.325 -14.843 -10.908  1.00  0.00    -0.200 F 
ATOM    109  F   UNL     1      -5.918 -14.608 -10.094  1.00  0.00    -0.200 F 
ENDBRANCH  76  99
ENDBRANCH  50  51
ENDBRANCH  43  45
ENDBRANCH  42  43
ENDBRANCH  41  42
ENDBRANCH  40  41
ENDBRANCH  39  40
ENDBRANCH  38  39
ENDBRANCH   1  38
TORSDOF 18
