REMARK SMILES CN1CC(=O)N(CC(=O)N2CCCC[C@H]2C(=O)OCCOCCOC(=O)c2ccc(-c3c4nc(c(-c5c(F)c(F)c(F)c(F)c5F)c5ccc([nH]5)c(-c5c(F)c(F)c(F)c(F)c5F)c5nc(c(-c6c(F)c(F)c(F)c(F)c6F)c6ccc3[nH]6)C=C5)C=C4)cc2)C1=O
REMARK SMILES IDX 20 1 19 2 18 3 16 4 17 5 15 6 10 7 11 8 12 9 14 10 13 11
REMARK SMILES IDX 8 12 9 13 7 14 6 15 1 16 2 17 3 18 90 19 4 20 91 21 5 22
REMARK SMILES IDX 21 23 22 24 23 25 24 26 25 27 26 28 27 29 28 30 89 31 29 32
REMARK SMILES IDX 88 33 30 34 31 35 32 36 82 37 33 38 87 39 81 40 83 41 34 42
REMARK SMILES IDX 86 43 80 44 79 45 35 47 67 48 47 49 66 50 48 51 51 52 65 53
REMARK SMILES IDX 84 54 49 55 50 56 64 58 85 59 52 60 36 61 37 62 45 63 38 64
REMARK SMILES IDX 39 65 43 66 46 67 40 68 41 69 44 70 42 71 68 72 69 73 77 74
REMARK SMILES IDX 70 75 71 76 75 77 78 78 72 79 73 80 76 81 74 82 53 83 54 84
REMARK SMILES IDX 62 85 55 86 56 87 60 88 63 89 57 90 58 91 61 92 59 93
REMARK H PARENT 83 46 51 57
REMARK Flexibility Score: inf
ROOT
ATOM      1  C   UNL     1      -4.473   0.286  -3.035  1.00  0.00     0.202 C 
ENDROOT
BRANCH   1   2
ATOM      2  C   UNL     1      -4.511  -0.623  -1.802  1.00  0.00     0.261 C 
BRANCH   2   3
ATOM      3  O   UNL     1      -3.341  -1.441  -1.670  1.00  0.00    -0.462 OA
BRANCH   3   4
ATOM      4  C   UNL     1      -3.525  -2.751  -1.998  1.00  0.00     0.328 C 
ATOM      5  O   UNL     1      -4.581  -3.218  -2.406  1.00  0.00    -0.250 OA
BRANCH   4   6
ATOM      6  C   UNL     1      -2.214  -3.549  -1.833  1.00  0.00     0.195 C 
ATOM      7  N   UNL     1      -2.480  -4.852  -1.208  1.00  0.00    -0.327 N 
ATOM      8  C   UNL     1      -3.178  -5.829  -2.067  1.00  0.00     0.120 C 
ATOM      9  C   UNL     1      -2.627  -5.931  -3.493  1.00  0.00     0.022 C 
ATOM     10  C   UNL     1      -1.455  -3.756  -3.146  1.00  0.00     0.037 C 
ATOM     11  C   UNL     1      -2.264  -4.592  -4.125  1.00  0.00     0.005 C 
BRANCH   7  12
ATOM     12  C   UNL     1      -2.400  -5.130   0.152  1.00  0.00     0.243 C 
ATOM     13  O   UNL     1      -2.873  -6.188   0.592  1.00  0.00    -0.273 OA
BRANCH  12  14
ATOM     14  C   UNL     1      -1.937  -4.088   1.194  1.00  0.00     0.230 C 
BRANCH  14  15
ATOM     15  N   UNL     1      -0.763  -3.276   0.955  1.00  0.00    -0.253 N 
ATOM     16  C   UNL     1       0.935  -0.132   0.430  1.00  0.00     0.149 C 
ATOM     17  N   UNL     1       0.541  -1.489   0.720  1.00  0.00    -0.318 N 
ATOM     18  C   UNL     1       1.472  -2.590   0.736  1.00  0.00     0.221 C 
ATOM     19  C   UNL     1      -0.765  -1.911   0.882  1.00  0.00     0.327 C 
ATOM     20  C   UNL     1       0.516  -3.755   0.931  1.00  0.00     0.250 C 
ATOM     21  O   UNL     1      -1.745  -1.185   0.912  1.00  0.00    -0.248 OA
ATOM     22  O   UNL     1       0.855  -4.925   1.030  1.00  0.00    -0.272 OA
ENDBRANCH  14  15
ENDBRANCH  12  14
ENDBRANCH   7  12
ENDBRANCH   4   6
ENDBRANCH   3   4
ENDBRANCH   2   3
ENDBRANCH   1   2
BRANCH   1  23
ATOM     23  O   UNL     1      -4.230  -0.310  -4.307  1.00  0.00    -0.374 OA
BRANCH  23  24
ATOM     24  C   UNL     1      -2.893  -0.709  -4.597  1.00  0.00     0.202 C 
BRANCH  24  25
ATOM     25  C   UNL     1      -1.884   0.379  -4.981  1.00  0.00     0.261 C 
BRANCH  25  26
ATOM     26  O   UNL     1      -1.652   1.301  -3.902  1.00  0.00    -0.460 OA
BRANCH  26  27
ATOM     27  C   UNL     1      -2.169   2.533  -4.100  1.00  0.00     0.338 C 
ATOM     28  O   UNL     1      -2.696   2.965  -5.120  1.00  0.00    -0.246 OA
BRANCH  27  29
ATOM     29  C   UNL     1      -2.197   3.275  -2.830  1.00  0.00     0.060 A 
ATOM     30  C   UNL     1      -3.430   3.801  -2.421  1.00  0.00     0.016 A 
ATOM     31  C   UNL     1      -1.038   3.508  -2.087  1.00  0.00     0.016 A 
ATOM     32  C   UNL     1      -3.501   4.612  -1.294  1.00  0.00     0.010 A 
ATOM     33  C   UNL     1      -1.108   4.336  -0.963  1.00  0.00     0.010 A 
ATOM     34  C   UNL     1      -2.332   4.921  -0.588  1.00  0.00    -0.014 A 
BRANCH  34  35
ATOM     35  C   UNL     1      -2.372   5.995   0.429  1.00  0.00     0.031 A 
ATOM     36  C   UNL     1      -1.942   7.379   0.031  1.00  0.00     0.074 A 
ATOM     37  C   UNL     1      -2.821   5.747   1.671  1.00  0.00     0.049 A 
ATOM     38  N   UNL     1      -1.868   8.467   0.753  1.00  0.00    -0.248 NA
ATOM     39  C   UNL     1      -1.539   7.561  -1.374  1.00  0.00     0.031 C 
ATOM     40  C   UNL     1      -3.300   4.453   2.152  1.00  0.00     0.029 A 
ATOM     41  N   UNL     1      -2.943   6.579   2.755  1.00  0.00    -0.354 N 
ATOM     42  C   UNL     1      -1.404   9.457  -0.104  1.00  0.00     0.074 A 
ATOM     43  C   UNL     1      -1.188   8.838  -1.393  1.00  0.00     0.031 C 
ATOM     44  C   UNL     1      -3.651   4.573   3.444  1.00  0.00     0.029 A 
ATOM     45  C   UNL     1      -3.394   5.943   3.885  1.00  0.00     0.049 A 
ATOM     46  H   UNL     1      -2.727   7.539   2.726  1.00  0.00     0.167 HD
ATOM     47  C   UNL     1      -1.187  10.766   0.162  1.00  0.00     0.037 A 
ATOM     48  C   UNL     1      -3.556   6.414   5.136  1.00  0.00     0.037 A 
ATOM     49  C   UNL     1      -1.415  11.376   1.445  1.00  0.00     0.049 A 
ATOM     50  C   UNL     1      -3.254   7.864   5.418  1.00  0.00     0.074 A 
ATOM     51  C   UNL     1      -1.252  12.699   1.813  1.00  0.00     0.029 A 
ATOM     52  N   UNL     1      -1.851  10.696   2.573  1.00  0.00    -0.354 N 
ATOM     53  N   UNL     1      -2.842   8.800   4.597  1.00  0.00    -0.248 NA
ATOM     54  C   UNL     1      -3.443   8.323   6.801  1.00  0.00     0.031 C 
ATOM     55  C   UNL     1      -1.540  12.810   3.177  1.00  0.00     0.029 A 
ATOM     56  C   UNL     1      -1.935  11.567   3.646  1.00  0.00     0.049 A 
ATOM     57  H   UNL     1      -2.069   9.736   2.606  1.00  0.00     0.167 HD
ATOM     58  C   UNL     1      -2.749   9.960   5.354  1.00  0.00     0.074 A 
ATOM     59  C   UNL     1      -3.163   9.614   6.698  1.00  0.00     0.031 C 
ATOM     60  C   UNL     1      -2.356  11.201   4.974  1.00  0.00     0.037 A 
BRANCH  47  61
ATOM     61  C   UNL     1      -0.652  11.624  -0.946  1.00  0.00     0.064 A 
ATOM     62  C   UNL     1      -1.446  12.001  -2.039  1.00  0.00     0.173 A 
ATOM     63  C   UNL     1       0.662  12.112  -0.890  1.00  0.00     0.173 A 
ATOM     64  F   UNL     1      -2.704  11.548  -2.149  1.00  0.00    -0.203 F 
ATOM     65  C   UNL     1      -0.938  12.820  -3.045  1.00  0.00     0.198 A 
ATOM     66  C   UNL     1       1.158  12.953  -1.882  1.00  0.00     0.198 A 
ATOM     67  F   UNL     1       1.463  11.781   0.134  1.00  0.00    -0.203 F 
ATOM     68  F   UNL     1      -1.701  13.136  -4.100  1.00  0.00    -0.200 F 
ATOM     69  C   UNL     1       0.360  13.302  -2.961  1.00  0.00     0.200 A 
ATOM     70  F   UNL     1       2.409  13.425  -1.794  1.00  0.00    -0.200 F 
ATOM     71  F   UNL     1       0.844  14.100  -3.923  1.00  0.00    -0.200 F 
ENDBRANCH  47  61
BRANCH  48  72
ATOM     72  C   UNL     1      -4.006   5.504   6.222  1.00  0.00     0.064 A 
ATOM     73  C   UNL     1      -5.257   5.663   6.832  1.00  0.00     0.173 A 
ATOM     74  C   UNL     1      -3.179   4.471   6.689  1.00  0.00     0.173 A 
ATOM     75  F   UNL     1      -6.073   6.652   6.438  1.00  0.00    -0.203 F 
ATOM     76  C   UNL     1      -5.656   4.838   7.883  1.00  0.00     0.198 A 
ATOM     77  C   UNL     1      -3.591   3.628   7.719  1.00  0.00     0.198 A 
ATOM     78  F   UNL     1      -1.970   4.277   6.142  1.00  0.00    -0.203 F 
ATOM     79  F   UNL     1      -6.835   5.046   8.483  1.00  0.00    -0.200 F 
ATOM     80  C   UNL     1      -4.825   3.818   8.321  1.00  0.00     0.200 A 
ATOM     81  F   UNL     1      -2.789   2.638   8.132  1.00  0.00    -0.200 F 
ATOM     82  F   UNL     1      -5.209   3.027   9.332  1.00  0.00    -0.200 F 
ENDBRANCH  48  72
BRANCH  60  83
ATOM     83  C   UNL     1      -2.386  12.282   6.016  1.00  0.00     0.064 A 
ATOM     84  C   UNL     1      -1.455  12.319   7.064  1.00  0.00     0.173 A 
ATOM     85  C   UNL     1      -3.332  13.315   5.940  1.00  0.00     0.173 A 
ATOM     86  F   UNL     1      -0.539  11.347   7.188  1.00  0.00    -0.203 F 
ATOM     87  C   UNL     1      -1.488  13.337   8.014  1.00  0.00     0.198 A 
ATOM     88  C   UNL     1      -3.342  14.348   6.873  1.00  0.00     0.198 A 
ATOM     89  F   UNL     1      -4.239  13.331   4.951  1.00  0.00    -0.203 F 
ATOM     90  F   UNL     1      -0.620  13.326   9.035  1.00  0.00    -0.200 F 
ATOM     91  C   UNL     1      -2.426  14.354   7.913  1.00  0.00     0.200 A 
ATOM     92  F   UNL     1      -4.239  15.338   6.765  1.00  0.00    -0.200 F 
ATOM     93  F   UNL     1      -2.451  15.336   8.824  1.00  0.00    -0.200 F 
ENDBRANCH  60  83
ENDBRANCH  34  35
ENDBRANCH  27  29
ENDBRANCH  26  27
ENDBRANCH  25  26
ENDBRANCH  24  25
ENDBRANCH  23  24
ENDBRANCH   1  23
TORSDOF 17
