REMARK SMILES COc1ccc([C@H]2CC(c3ccccc3)=NN2C(=O)CCCC(=O)OCCOCCOC(=O)c2ccc(-c3c4nc(c(-c5c(F)c(F)c(F)c(F)c5F)c5ccc([nH]5)c(-c5c(F)c(F)c(F)c(F)c5F)c5nc(c(-c6c(F)c(F)c(F)c(F)c6F)c6ccc3[nH]6)C=C5)C=C4)cc2)cc1
REMARK SMILES IDX 26 1 25 2 23 3 24 4 22 5 21 6 20 7 18 8 19 9 17 10 7 11 8 12
REMARK SMILES IDX 9 13 16 14 6 15 3 16 4 17 98 18 5 19 97 20 2 21 1 22 10 23
REMARK SMILES IDX 11 24 15 25 12 26 14 27 13 28 27 29 28 30 29 31 30 32 31 33
REMARK SMILES IDX 32 34 33 35 34 36 35 37 96 38 36 39 95 40 37 41 38 42 39 43
REMARK SMILES IDX 89 44 40 45 94 46 88 47 90 48 41 49 93 50 87 51 86 52 42 54
REMARK SMILES IDX 74 55 54 56 73 57 55 58 58 59 72 60 91 61 56 62 57 63 71 65
REMARK SMILES IDX 92 66 59 67 43 68 44 69 52 70 45 71 46 72 50 73 53 74 47 75
REMARK SMILES IDX 48 76 51 77 49 78 75 79 76 80 84 81 77 82 78 83 82 84 85 85
REMARK SMILES IDX 79 86 80 87 83 88 81 89 60 90 61 91 69 92 62 93 63 94 67 95
REMARK SMILES IDX 70 96 64 97 65 98 68 99 66 100
REMARK H PARENT 90 53 58 64
REMARK Flexibility Score: inf
ROOT
ATOM      1  C   UNL     1      -1.724  -5.730   4.669  1.00  0.00     0.261 C 
ENDROOT
BRANCH   1   2
ATOM      2  O   UNL     1      -0.700  -4.762   4.938  1.00  0.00    -0.463 OA
BRANCH   2   3
ATOM      3  C   UNL     1      -0.006  -4.380   3.840  1.00  0.00     0.305 C 
ATOM      4  O   UNL     1      -0.128  -4.909   2.743  1.00  0.00    -0.252 OA
BRANCH   3   5
ATOM      5  C   UNL     1       0.845  -3.155   4.092  1.00  0.00     0.123 C 
BRANCH   5   6
ATOM      6  C   UNL     1       1.872  -3.269   5.203  1.00  0.00     0.022 C 
BRANCH   6   7
ATOM      7  C   UNL     1       2.602  -4.603   5.272  1.00  0.00     0.103 C 
BRANCH   7   8
ATOM      8  C   UNL     1       3.912  -4.678   4.511  1.00  0.00     0.243 C 
ATOM      9  O   UNL     1       4.925  -4.165   4.994  1.00  0.00    -0.273 OA
BRANCH   8  10
ATOM     10  N   UNL     1       3.934  -5.476   3.380  1.00  0.00    -0.225 N 
ATOM     11  C   UNL     1       2.975  -5.551   2.261  1.00  0.00     0.147 C 
ATOM     12  C   UNL     1       3.469  -6.722   1.424  1.00  0.00     0.091 C 
ATOM     13  C   UNL     1       4.516  -7.263   2.350  1.00  0.00     0.071 C 
ATOM     14  N   UNL     1       4.792  -6.545   3.392  1.00  0.00    -0.174 NA
BRANCH  11  15
ATOM     15  C   UNL     1       2.833  -4.265   1.458  1.00  0.00    -0.023 A 
ATOM     16  C   UNL     1       2.168  -1.690   0.554  1.00  0.00     0.118 A 
ATOM     17  C   UNL     1       1.322  -2.758   0.270  1.00  0.00     0.047 A 
ATOM     18  C   UNL     1       3.402  -1.923   1.157  1.00  0.00     0.047 A 
ATOM     19  C   UNL     1       1.673  -4.048   0.688  1.00  0.00     0.010 A 
ATOM     20  C   UNL     1       3.745  -3.207   1.586  1.00  0.00     0.010 A 
BRANCH  16  21
ATOM     21  O   UNL     1       1.757  -0.389   0.476  1.00  0.00    -0.497 OA
ATOM     22  C   UNL     1       1.457   0.040  -0.844  1.00  0.00     0.278 C 
ENDBRANCH  16  21
ENDBRANCH  11  15
BRANCH  13  23
ATOM     23  C   UNL     1       5.152  -8.560   2.102  1.00  0.00    -0.002 A 
ATOM     24  C   UNL     1       5.284  -9.453   3.170  1.00  0.00     0.010 A 
ATOM     25  C   UNL     1       5.633  -8.886   0.834  1.00  0.00     0.010 A 
ATOM     26  C   UNL     1       5.905 -10.683   2.967  1.00  0.00     0.001 A 
ATOM     27  C   UNL     1       6.271 -10.111   0.643  1.00  0.00     0.001 A 
ATOM     28  C   UNL     1       6.406 -11.007   1.706  1.00  0.00     0.000 A 
ENDBRANCH  13  23
ENDBRANCH   8  10
ENDBRANCH   7   8
ENDBRANCH   6   7
ENDBRANCH   5   6
ENDBRANCH   3   5
ENDBRANCH   2   3
ENDBRANCH   1   2
BRANCH   1  29
ATOM     29  C   UNL     1      -3.103  -5.100   4.407  1.00  0.00     0.202 C 
BRANCH  29  30
ATOM     30  O   UNL     1      -3.252  -4.235   3.289  1.00  0.00    -0.374 OA
BRANCH  30  31
ATOM     31  C   UNL     1      -2.704  -2.916   3.316  1.00  0.00     0.202 C 
BRANCH  31  32
ATOM     32  C   UNL     1      -2.799  -2.075   4.601  1.00  0.00     0.261 C 
BRANCH  32  33
ATOM     33  O   UNL     1      -2.094  -2.672   5.707  1.00  0.00    -0.460 OA
BRANCH  33  34
ATOM     34  C   UNL     1      -2.759  -2.669   6.883  1.00  0.00     0.338 C 
ATOM     35  O   UNL     1      -3.790  -2.062   7.144  1.00  0.00    -0.246 OA
BRANCH  34  36
ATOM     36  C   UNL     1      -2.215  -3.700   7.787  1.00  0.00     0.060 A 
ATOM     37  C   UNL     1      -3.029  -4.809   8.053  1.00  0.00     0.016 A 
ATOM     38  C   UNL     1      -1.013  -3.523   8.476  1.00  0.00     0.016 A 
ATOM     39  C   UNL     1      -2.675  -5.716   9.047  1.00  0.00     0.010 A 
ATOM     40  C   UNL     1      -0.669  -4.424   9.495  1.00  0.00     0.010 A 
ATOM     41  C   UNL     1      -1.526  -5.493   9.817  1.00  0.00    -0.014 A 
BRANCH  41  42
ATOM     42  C   UNL     1      -1.394  -6.243  11.091  1.00  0.00     0.031 A 
ATOM     43  C   UNL     1      -2.002  -5.648  12.334  1.00  0.00     0.074 A 
ATOM     44  C   UNL     1      -0.861  -7.476  11.128  1.00  0.00     0.049 A 
ATOM     45  N   UNL     1      -2.123  -6.160  13.533  1.00  0.00    -0.248 NA
ATOM     46  C   UNL     1      -2.570  -4.296  12.198  1.00  0.00     0.031 C 
ATOM     47  C   UNL     1      -0.302  -8.188   9.982  1.00  0.00     0.029 A 
ATOM     48  N   UNL     1      -0.728  -8.356  12.173  1.00  0.00    -0.354 N 
ATOM     49  C   UNL     1      -2.794  -5.204  14.285  1.00  0.00     0.074 A 
ATOM     50  C   UNL     1      -3.022  -4.066  13.421  1.00  0.00     0.031 C 
ATOM     51  C   UNL     1       0.106  -9.404  10.384  1.00  0.00     0.029 A 
ATOM     52  C   UNL     1      -0.145  -9.547  11.818  1.00  0.00     0.049 A 
ATOM     53  H   UNL     1      -1.022  -8.152  13.090  1.00  0.00     0.167 HD
ATOM     54  C   UNL     1      -3.199  -5.271  15.575  1.00  0.00     0.037 A 
ATOM     55  C   UNL     1       0.150 -10.626  12.569  1.00  0.00     0.037 A 
ATOM     56  C   UNL     1      -2.953  -6.389  16.445  1.00  0.00     0.049 A 
ATOM     57  C   UNL     1      -0.206 -10.630  14.034  1.00  0.00     0.074 A 
ATOM     58  C   UNL     1      -3.306  -6.547  17.773  1.00  0.00     0.029 A 
ATOM     59  N   UNL     1      -2.275  -7.540  16.071  1.00  0.00    -0.354 N 
ATOM     60  N   UNL     1      -0.856  -9.731  14.732  1.00  0.00    -0.248 NA
ATOM     61  C   UNL     1       0.215 -11.804  14.814  1.00  0.00     0.031 C 
ATOM     62  C   UNL     1      -2.801  -7.775  18.216  1.00  0.00     0.029 A 
ATOM     63  C   UNL     1      -2.174  -8.402  17.151  1.00  0.00     0.049 A 
ATOM     64  H   UNL     1      -1.918  -7.718  15.171  1.00  0.00     0.167 HD
ATOM     65  C   UNL     1      -0.948 -10.240  16.022  1.00  0.00     0.074 A 
ATOM     66  C   UNL     1      -0.294 -11.532  16.008  1.00  0.00     0.031 C 
ATOM     67  C   UNL     1      -1.524  -9.687  17.118  1.00  0.00     0.037 A 
BRANCH  54  68
ATOM     68  C   UNL     1      -3.924  -4.078  16.126  1.00  0.00     0.064 A 
ATOM     69  C   UNL     1      -5.239  -3.776  15.742  1.00  0.00     0.173 A 
ATOM     70  C   UNL     1      -3.295  -3.226  17.045  1.00  0.00     0.173 A 
ATOM     71  F   UNL     1      -5.877  -4.552  14.851  1.00  0.00    -0.203 F 
ATOM     72  C   UNL     1      -5.888  -2.647  16.235  1.00  0.00     0.198 A 
ATOM     73  C   UNL     1      -3.956  -2.111  17.555  1.00  0.00     0.198 A 
ATOM     74  F   UNL     1      -2.039  -3.471  17.446  1.00  0.00    -0.203 F 
ATOM     75  F   UNL     1      -7.125  -2.349  15.814  1.00  0.00    -0.200 F 
ATOM     76  C   UNL     1      -5.247  -1.818  17.143  1.00  0.00     0.200 A 
ATOM     77  F   UNL     1      -3.339  -1.315  18.439  1.00  0.00    -0.200 F 
ATOM     78  F   UNL     1      -5.871  -0.729  17.614  1.00  0.00    -0.200 F 
ENDBRANCH  54  68
BRANCH  55  79
ATOM     79  C   UNL     1       0.815 -11.802  11.950  1.00  0.00     0.064 A 
ATOM     80  C   UNL     1       0.136 -13.019  11.796  1.00  0.00     0.173 A 
ATOM     81  C   UNL     1       2.147 -11.738  11.515  1.00  0.00     0.173 A 
ATOM     82  F   UNL     1      -1.129 -13.138  12.223  1.00  0.00    -0.203 F 
ATOM     83  C   UNL     1       0.767 -14.129  11.236  1.00  0.00     0.198 A 
ATOM     84  C   UNL     1       2.769 -12.841  10.934  1.00  0.00     0.198 A 
ATOM     85  F   UNL     1       2.842 -10.599  11.648  1.00  0.00    -0.203 F 
ATOM     86  F   UNL     1       0.107 -15.290  11.133  1.00  0.00    -0.200 F 
ATOM     87  C   UNL     1       2.080 -14.037  10.800  1.00  0.00     0.200 A 
ATOM     88  F   UNL     1       4.035 -12.745  10.506  1.00  0.00    -0.200 F 
ATOM     89  F   UNL     1       2.685 -15.103  10.257  1.00  0.00    -0.200 F 
ENDBRANCH  55  79
BRANCH  67  90
ATOM     90  C   UNL     1      -1.502 -10.489  18.387  1.00  0.00     0.064 A 
ATOM     91  C   UNL     1      -0.326 -10.651  19.133  1.00  0.00     0.173 A 
ATOM     92  C   UNL     1      -2.682 -11.063  18.885  1.00  0.00     0.173 A 
ATOM     93  F   UNL     1       0.830 -10.133  18.692  1.00  0.00    -0.203 F 
ATOM     94  C   UNL     1      -0.327 -11.378  20.321  1.00  0.00     0.198 A 
ATOM     95  C   UNL     1      -2.684 -11.766  20.086  1.00  0.00     0.198 A 
ATOM     96  F   UNL     1      -3.834 -10.931  18.212  1.00  0.00    -0.203 F 
ATOM     97  F   UNL     1       0.817 -11.556  20.997  1.00  0.00    -0.200 F 
ATOM     98  C   UNL     1      -1.507 -11.928  20.800  1.00  0.00     0.200 A 
ATOM     99  F   UNL     1      -3.828 -12.288  20.553  1.00  0.00    -0.200 F 
ATOM    100  F   UNL     1      -1.507 -12.622  21.947  1.00  0.00    -0.200 F 
ENDBRANCH  67  90
ENDBRANCH  41  42
ENDBRANCH  34  36
ENDBRANCH  33  34
ENDBRANCH  32  33
ENDBRANCH  31  32
ENDBRANCH  30  31
ENDBRANCH  29  30
ENDBRANCH   1  29
TORSDOF 21
