REMARK SMILES CC1(C)C(=O)N([C@H]2COC[C@@H]2C(=O)OCCOCCOC(=O)c2ccc(-c3c4nc(c(-c5c(F)c(F)c(F)c(F)c5F)c5ccc([nH]5)c(-c5c(F)c(F)c(F)c(F)c5F)c5nc(c(-c6c(F)c(F)c(F)c(F)c6F)c6ccc3[nH]6)C=C5)C=C4)cc2)S1(=O)=O
REMARK SMILES IDX 18 1 17 2 16 3 15 4 14 5 12 6 13 7 11 8 7 9 8 10 9 11 10 12
REMARK SMILES IDX 6 13 1 14 2 15 3 16 4 17 86 18 5 19 87 20 88 21 19 22 20 23
REMARK SMILES IDX 21 24 22 25 23 26 24 27 85 28 25 29 84 30 26 31 27 32 28 33
REMARK SMILES IDX 78 34 29 35 83 36 77 37 79 38 30 39 82 40 76 41 75 42 31 44
REMARK SMILES IDX 63 45 43 46 62 47 44 48 47 49 61 50 80 51 45 52 46 53 60 55
REMARK SMILES IDX 81 56 48 57 32 58 33 59 41 60 34 61 35 62 39 63 42 64 36 65
REMARK SMILES IDX 37 66 40 67 38 68 64 69 65 70 73 71 66 72 67 73 71 74 74 75
REMARK SMILES IDX 68 76 69 77 72 78 70 79 49 80 50 81 58 82 51 83 52 84 56 85
REMARK SMILES IDX 59 86 53 87 54 88 57 89 55 90
REMARK H PARENT 79 43 47 54
REMARK Flexibility Score: inf
ROOT
ATOM      1  C   UNL     1      -1.540   6.006   0.256  1.00  0.00     0.202 C 
ENDROOT
BRANCH   1   2
ATOM      2  O   UNL     1      -0.237   5.910   0.830  1.00  0.00    -0.374 OA
BRANCH   2   3
ATOM      3  C   UNL     1       0.881   6.316   0.045  1.00  0.00     0.202 C 
BRANCH   3   4
ATOM      4  C   UNL     1       1.307   5.395  -1.100  1.00  0.00     0.261 C 
BRANCH   4   5
ATOM      5  O   UNL     1       0.248   5.223  -2.055  1.00  0.00    -0.463 OA
BRANCH   5   6
ATOM      6  C   UNL     1      -0.213   3.953  -2.193  1.00  0.00     0.313 C 
ATOM      7  O   UNL     1       0.280   2.975  -1.642  1.00  0.00    -0.252 OA
BRANCH   6   8
ATOM      8  C   UNL     1      -1.507   3.886  -2.984  1.00  0.00     0.151 C 
ATOM      9  C   UNL     1      -1.584   2.523  -3.641  1.00  0.00     0.145 C 
ATOM     10  C   UNL     1      -0.796   2.776  -4.927  1.00  0.00     0.187 C 
ATOM     11  O   UNL     1      -0.983   4.157  -5.281  1.00  0.00    -0.378 OA
ATOM     12  C   UNL     1      -1.564   4.836  -4.160  1.00  0.00     0.177 C 
BRANCH   9  13
ATOM     13  N   UNL     1      -2.932   2.028  -3.987  1.00  0.00    -0.231 N 
ATOM     14  C   UNL     1      -5.752   0.340  -4.533  1.00  0.00     0.041 C 
ATOM     15  C   UNL     1      -4.724   0.790  -3.501  1.00  0.00     0.165 C 
ATOM     16  C   UNL     1      -4.963   0.103  -2.153  1.00  0.00     0.041 C 
ATOM     17  C   UNL     1      -3.273   0.665  -3.979  1.00  0.00     0.259 C 
ATOM     18  S   UNL     1      -4.395   2.518  -3.399  1.00  0.00     0.252 S 
ATOM     19  O   UNL     1      -2.519  -0.262  -4.219  1.00  0.00    -0.272 OA
ATOM     20  O   UNL     1      -5.066   3.285  -4.422  1.00  0.00    -0.205 OA
ATOM     21  O   UNL     1      -4.269   2.969  -2.035  1.00  0.00    -0.205 OA
ENDBRANCH   9  13
ENDBRANCH   6   8
ENDBRANCH   5   6
ENDBRANCH   4   5
ENDBRANCH   3   4
ENDBRANCH   2   3
ENDBRANCH   1   2
BRANCH   1  22
ATOM     22  C   UNL     1      -2.141   7.404   0.059  1.00  0.00     0.261 C 
BRANCH  22  23
ATOM     23  O   UNL     1      -1.395   8.212  -0.868  1.00  0.00    -0.460 OA
BRANCH  23  24
ATOM     24  C   UNL     1      -0.745   9.261  -0.304  1.00  0.00     0.338 C 
ATOM     25  O   UNL     1      -0.759   9.602   0.867  1.00  0.00    -0.246 OA
BRANCH  24  26
ATOM     26  C   UNL     1       0.166   9.873  -1.286  1.00  0.00     0.060 A 
ATOM     27  C   UNL     1       1.528   9.936  -0.961  1.00  0.00     0.016 A 
ATOM     28  C   UNL     1      -0.315  10.461  -2.455  1.00  0.00     0.016 A 
ATOM     29  C   UNL     1       2.411  10.627  -1.786  1.00  0.00     0.010 A 
ATOM     30  C   UNL     1       0.570  11.166  -3.276  1.00  0.00     0.010 A 
ATOM     31  C   UNL     1       1.929  11.280  -2.927  1.00  0.00    -0.014 A 
BRANCH  31  32
ATOM     32  C   UNL     1       2.812  12.210  -3.670  1.00  0.00     0.031 A 
ATOM     33  C   UNL     1       2.680  13.687  -3.426  1.00  0.00     0.074 A 
ATOM     34  C   UNL     1       3.728  11.745  -4.536  1.00  0.00     0.049 A 
ATOM     35  N   UNL     1       3.289  14.686  -4.012  1.00  0.00    -0.248 NA
ATOM     36  C   UNL     1       1.728  14.092  -2.380  1.00  0.00     0.031 C 
ATOM     37  C   UNL     1       3.979  10.334  -4.820  1.00  0.00     0.029 A 
ATOM     38  N   UNL     1       4.609  12.416  -5.347  1.00  0.00    -0.354 N 
ATOM     39  C   UNL     1       2.789  15.835  -3.414  1.00  0.00     0.074 A 
ATOM     40  C   UNL     1       1.804  15.413  -2.441  1.00  0.00     0.031 C 
ATOM     41  C   UNL     1       4.938  10.244  -5.758  1.00  0.00     0.029 A 
ATOM     42  C   UNL     1       5.338  11.590  -6.164  1.00  0.00     0.049 A 
ATOM     43  H   UNL     1       4.707  13.396  -5.343  1.00  0.00     0.167 HD
ATOM     44  C   UNL     1       3.128  17.125  -3.650  1.00  0.00     0.037 A 
ATOM     45  C   UNL     1       6.207  11.890  -7.149  1.00  0.00     0.037 A 
ATOM     46  C   UNL     1       4.107  17.537  -4.622  1.00  0.00     0.049 A 
ATOM     47  C   UNL     1       6.511  13.336  -7.449  1.00  0.00     0.074 A 
ATOM     48  C   UNL     1       4.530  18.817  -4.932  1.00  0.00     0.029 A 
ATOM     49  N   UNL     1       4.810  16.672  -5.448  1.00  0.00    -0.354 N 
ATOM     50  N   UNL     1       6.048  14.418  -6.869  1.00  0.00    -0.248 NA
ATOM     51  C   UNL     1       7.460  13.602  -8.539  1.00  0.00     0.031 C 
ATOM     52  C   UNL     1       5.450  18.731  -5.982  1.00  0.00     0.029 A 
ATOM     53  C   UNL     1       5.646  17.393  -6.285  1.00  0.00     0.049 A 
ATOM     54  H   UNL     1       4.728  15.691  -5.441  1.00  0.00     0.167 HD
ATOM     55  C   UNL     1       6.671  15.487  -7.500  1.00  0.00     0.074 A 
ATOM     56  C   UNL     1       7.552  14.924  -8.501  1.00  0.00     0.031 C 
ATOM     57  C   UNL     1       6.528  16.816  -7.268  1.00  0.00     0.037 A 
BRANCH  44  58
ATOM     58  C   UNL     1       2.414  18.185  -2.863  1.00  0.00     0.064 A 
ATOM     59  C   UNL     1       2.641  18.365  -1.490  1.00  0.00     0.173 A 
ATOM     60  C   UNL     1       1.510  19.051  -3.497  1.00  0.00     0.173 A 
ATOM     61  F   UNL     1       3.485  17.554  -0.834  1.00  0.00    -0.203 F 
ATOM     62  C   UNL     1       1.970  19.354  -0.776  1.00  0.00     0.198 A 
ATOM     63  C   UNL     1       0.864  20.059  -2.786  1.00  0.00     0.198 A 
ATOM     64  F   UNL     1       1.259  18.926  -4.809  1.00  0.00    -0.203 F 
ATOM     65  F   UNL     1       2.166  19.475   0.544  1.00  0.00    -0.200 F 
ATOM     66  C   UNL     1       1.088  20.205  -1.426  1.00  0.00     0.200 A 
ATOM     67  F   UNL     1       0.023  20.889  -3.419  1.00  0.00    -0.200 F 
ATOM     68  F   UNL     1       0.448  21.161  -0.739  1.00  0.00    -0.200 F 
ENDBRANCH  44  58
BRANCH  45  69
ATOM     69  C   UNL     1       6.838  10.800  -7.938  1.00  0.00     0.064 A 
ATOM     70  C   UNL     1       8.212  10.539  -7.845  1.00  0.00     0.173 A 
ATOM     71  C   UNL     1       6.081  10.005  -8.812  1.00  0.00     0.173 A 
ATOM     72  F   UNL     1       8.982  11.289  -7.042  1.00  0.00    -0.203 F 
ATOM     73  C   UNL     1       8.807   9.537  -8.608  1.00  0.00     0.198 A 
ATOM     74  C   UNL     1       6.673   8.984  -9.552  1.00  0.00     0.198 A 
ATOM     75  F   UNL     1       4.763  10.215  -8.940  1.00  0.00    -0.203 F 
ATOM     76  F   UNL     1      10.131   9.340  -8.535  1.00  0.00    -0.200 F 
ATOM     77  C   UNL     1       8.037   8.756  -9.456  1.00  0.00     0.200 A 
ATOM     78  F   UNL     1       5.921   8.223 -10.360  1.00  0.00    -0.200 F 
ATOM     79  F   UNL     1       8.610   7.790 -10.186  1.00  0.00    -0.200 F 
ENDBRANCH  45  69
BRANCH  57  80
ATOM     80  C   UNL     1       7.375  17.756  -8.078  1.00  0.00     0.064 A 
ATOM     81  C   UNL     1       7.130  17.987  -9.439  1.00  0.00     0.173 A 
ATOM     82  C   UNL     1       8.412  18.477  -7.466  1.00  0.00     0.173 A 
ATOM     83  F   UNL     1       6.159  17.313 -10.074  1.00  0.00    -0.203 F 
ATOM     84  C   UNL     1       7.906  18.890 -10.162  1.00  0.00     0.198 A 
ATOM     85  C   UNL     1       9.165  19.401  -8.184  1.00  0.00     0.198 A 
ATOM     86  F   UNL     1       8.684  18.299  -6.164  1.00  0.00    -0.203 F 
ATOM     87  F   UNL     1       7.682  19.063 -11.472  1.00  0.00    -0.200 F 
ATOM     88  C   UNL     1       8.916  19.602  -9.533  1.00  0.00     0.200 A 
ATOM     89  F   UNL     1      10.130  20.099  -7.570  1.00  0.00    -0.200 F 
ATOM     90  F   UNL     1       9.653  20.479 -10.229  1.00  0.00    -0.200 F 
ENDBRANCH  57  80
ENDBRANCH  31  32
ENDBRANCH  24  26
ENDBRANCH  23  24
ENDBRANCH  22  23
ENDBRANCH   1  22
TORSDOF 15
