REMARK SMILES Cc1ccc(NC(=O)C[N@H+]2CCC[C@@H](C(=O)OCCOCCOC(=O)c3ccc(-c4c5nc(c(-c6c(F)c(F)c(F)c(F)c6F)c6ccc([nH]6)c(-c6c(F)c(F)c(F)c(F)c6F)c6nc(c(-c7c(F)c(F)c(F)c(F)c7F)c7ccc4[nH]7)C=C6)C=C5)cc3)C2)cc1Cl
REMARK SMILES IDX 19 1 18 2 17 3 15 4 16 5 14 6 10 7 11 8 89 9 12 11 13 12
REMARK SMILES IDX 9 13 7 14 6 15 8 17 5 18 1 19 2 20 3 21 91 22 4 23 90 24
REMARK SMILES IDX 92 25 20 26 21 27 22 28 23 29 24 30 25 31 26 32 27 33 88 34
REMARK SMILES IDX 28 35 87 36 29 37 30 38 31 39 81 40 32 41 86 42 80 43 82 44
REMARK SMILES IDX 33 45 85 46 79 47 78 48 34 50 66 51 46 52 65 53 47 54 50 55
REMARK SMILES IDX 64 56 83 57 48 58 49 59 63 61 84 62 51 63 35 64 36 65 44 66
REMARK SMILES IDX 37 67 38 68 42 69 45 70 39 71 40 72 43 73 41 74 67 75 68 76
REMARK SMILES IDX 76 77 69 78 70 79 74 80 77 81 71 82 72 83 75 84 73 85 52 86
REMARK SMILES IDX 53 87 61 88 54 89 55 90 59 91 62 92 56 93 57 94 60 95 58 96
REMARK H PARENT 10 10 6 16 82 49 50 60
REMARK Flexibility Score: inf
ROOT
ATOM      1  C   UNL     1      -1.697   2.703  -3.594  1.00  0.00     0.202 C 
ENDROOT
BRANCH   1   2
ATOM      2  C   UNL     1      -0.740   2.116  -2.545  1.00  0.00     0.261 C 
BRANCH   2   3
ATOM      3  O   UNL     1      -0.044   0.912  -2.900  1.00  0.00    -0.463 OA
BRANCH   3   4
ATOM      4  C   UNL     1      -0.709  -0.208  -2.507  1.00  0.00     0.314 C 
ATOM      5  O   UNL     1      -1.865  -0.198  -2.092  1.00  0.00    -0.252 OA
BRANCH   4   6
ATOM      6  C   UNL     1       0.112  -1.481  -2.663  1.00  0.00     0.154 C 
ATOM      7  N   UNL     1       0.030  -3.666  -1.268  1.00  0.00    -0.326 N 
ATOM      8  C   UNL     1      -0.645  -4.318  -2.393  1.00  0.00     0.262 C 
ATOM      9  C   UNL     1      -0.088  -2.213  -1.333  1.00  0.00     0.278 C 
ATOM     10  H   UNL     1       1.017  -3.906  -1.351  1.00  0.00     0.348 HD
ATOM     11  C   UNL     1      -0.089  -3.775  -3.713  1.00  0.00     0.062 C 
ATOM     12  C   UNL     1      -0.390  -2.287  -3.860  1.00  0.00     0.027 C 
BRANCH   7  13
ATOM     13  C   UNL     1      -0.445  -4.179   0.058  1.00  0.00     0.363 C 
BRANCH  13  14
ATOM     14  C   UNL     1      -1.913  -3.867   0.430  1.00  0.00     0.279 C 
ATOM     15  N   UNL     1      -2.345  -2.696   1.005  1.00  0.00    -0.321 N 
ATOM     16  H   UNL     1      -3.306  -2.696   1.217  1.00  0.00     0.170 HD
ATOM     17  O   UNL     1      -2.797  -4.688   0.142  1.00  0.00    -0.268 OA
BRANCH  15  18
ATOM     18  C   UNL     1      -1.696  -1.494   1.356  1.00  0.00     0.042 A 
ATOM     19  C   UNL     1       0.308   2.333   1.247  1.00  0.00     0.046 C 
ATOM     20  C   UNL     1      -0.401   1.020   1.427  1.00  0.00    -0.032 A 
ATOM     21  C   UNL     1      -1.774   0.933   1.171  1.00  0.00     0.007 A 
ATOM     22  C   UNL     1       0.280  -0.154   1.772  1.00  0.00     0.046 A 
ATOM     23  C   UNL     1      -2.417  -0.311   1.150  1.00  0.00     0.026 A 
ATOM     24  C   UNL     1      -0.370  -1.398   1.764  1.00  0.00     0.047 A 
ATOM     25  Cl  UNL     1       1.973  -0.139   2.124  1.00  0.00    -0.084 Cl
ENDBRANCH  15  18
ENDBRANCH  13  14
ENDBRANCH   7  13
ENDBRANCH   4   6
ENDBRANCH   3   4
ENDBRANCH   2   3
ENDBRANCH   1   2
BRANCH   1  26
ATOM     26  O   UNL     1      -2.637   1.871  -4.255  1.00  0.00    -0.374 OA
BRANCH  26  27
ATOM     27  C   UNL     1      -2.179   0.858  -5.144  1.00  0.00     0.202 C 
BRANCH  27  28
ATOM     28  C   UNL     1      -1.313   1.244  -6.345  1.00  0.00     0.261 C 
BRANCH  28  29
ATOM     29  O   UNL     1      -0.093   1.910  -5.976  1.00  0.00    -0.460 OA
BRANCH  29  30
ATOM     30  C   UNL     1       0.014   3.171  -6.451  1.00  0.00     0.338 C 
ATOM     31  O   UNL     1      -0.776   3.760  -7.182  1.00  0.00    -0.246 OA
BRANCH  30  32
ATOM     32  C   UNL     1       1.153   3.870  -5.839  1.00  0.00     0.060 A 
ATOM     33  C   UNL     1       0.891   5.084  -5.188  1.00  0.00     0.016 A 
ATOM     34  C   UNL     1       2.463   3.432  -6.033  1.00  0.00     0.016 A 
ATOM     35  C   UNL     1       1.944   5.904  -4.795  1.00  0.00     0.010 A 
ATOM     36  C   UNL     1       3.520   4.263  -5.651  1.00  0.00     0.010 A 
ATOM     37  C   UNL     1       3.261   5.522  -5.079  1.00  0.00    -0.014 A 
BRANCH  37  38
ATOM     38  C   UNL     1       4.341   6.528  -4.957  1.00  0.00     0.031 A 
ATOM     39  C   UNL     1       4.759   7.290  -6.186  1.00  0.00     0.074 A 
ATOM     40  C   UNL     1       4.907   6.792  -3.768  1.00  0.00     0.049 A 
ATOM     41  N   UNL     1       5.694   8.195  -6.325  1.00  0.00    -0.248 NA
ATOM     42  C   UNL     1       4.022   6.991  -7.424  1.00  0.00     0.031 C 
ATOM     43  C   UNL     1       4.548   6.154  -2.504  1.00  0.00     0.029 A 
ATOM     44  N   UNL     1       5.909   7.668  -3.436  1.00  0.00    -0.354 N 
ATOM     45  C   UNL     1       5.660   8.568  -7.663  1.00  0.00     0.074 A 
ATOM     46  C   UNL     1       4.632   7.775  -8.300  1.00  0.00     0.031 C 
ATOM     47  C   UNL     1       5.331   6.651  -1.530  1.00  0.00     0.029 A 
ATOM     48  C   UNL     1       6.261   7.619  -2.111  1.00  0.00     0.049 A 
ATOM     49  H   UNL     1       6.335   8.273  -4.085  1.00  0.00     0.167 HD
ATOM     50  C   UNL     1       6.415   9.494  -8.300  1.00  0.00     0.037 A 
ATOM     51  C   UNL     1       7.239   8.268  -1.450  1.00  0.00     0.037 A 
ATOM     52  C   UNL     1       7.434  10.284  -7.662  1.00  0.00     0.049 A 
ATOM     53  C   UNL     1       8.111   9.244  -2.196  1.00  0.00     0.074 A 
ATOM     54  C   UNL     1       8.246  11.257  -8.216  1.00  0.00     0.029 A 
ATOM     55  N   UNL     1       7.784  10.184  -6.324  1.00  0.00    -0.354 N 
ATOM     56  N   UNL     1       8.063   9.603  -3.456  1.00  0.00    -0.248 NA
ATOM     57  C   UNL     1       9.172   9.909  -1.425  1.00  0.00     0.031 C 
ATOM     58  C   UNL     1       9.117  11.716  -7.222  1.00  0.00     0.029 A 
ATOM     59  C   UNL     1       8.815  11.063  -6.038  1.00  0.00     0.049 A 
ATOM     60  H   UNL     1       7.361   9.579  -5.673  1.00  0.00     0.167 HD
ATOM     61  C   UNL     1       9.064  10.552  -3.623  1.00  0.00     0.074 A 
ATOM     62  C   UNL     1       9.697  10.720  -2.332  1.00  0.00     0.031 C 
ATOM     63  C   UNL     1       9.425  11.224  -4.743  1.00  0.00     0.037 A 
BRANCH  50  64
ATOM     64  C   UNL     1       6.183   9.686  -9.769  1.00  0.00     0.064 A 
ATOM     65  C   UNL     1       5.037  10.332 -10.256  1.00  0.00     0.173 A 
ATOM     66  C   UNL     1       7.136   9.247 -10.700  1.00  0.00     0.173 A 
ATOM     67  F   UNL     1       4.089  10.757  -9.406  1.00  0.00    -0.203 F 
ATOM     68  C   UNL     1       4.844  10.514 -11.623  1.00  0.00     0.198 A 
ATOM     69  C   UNL     1       6.952   9.452 -12.065  1.00  0.00     0.198 A 
ATOM     70  F   UNL     1       8.249   8.624 -10.286  1.00  0.00    -0.203 F 
ATOM     71  F   UNL     1       3.724  11.098 -12.069  1.00  0.00    -0.200 F 
ATOM     72  C   UNL     1       5.804  10.080 -12.525  1.00  0.00     0.200 A 
ATOM     73  F   UNL     1       7.885   9.041 -12.934  1.00  0.00    -0.200 F 
ATOM     74  F   UNL     1       5.621  10.261 -13.840  1.00  0.00    -0.200 F 
ENDBRANCH  50  64
BRANCH  51  75
ATOM     75  C   UNL     1       7.456   8.005  -0.005  1.00  0.00     0.064 A 
ATOM     76  C   UNL     1       7.173   8.982   0.959  1.00  0.00     0.173 A 
ATOM     77  C   UNL     1       7.962   6.775   0.440  1.00  0.00     0.173 A 
ATOM     78  F   UNL     1       6.710  10.183   0.579  1.00  0.00    -0.203 F 
ATOM     79  C   UNL     1       7.402   8.745   2.312  1.00  0.00     0.198 A 
ATOM     80  C   UNL     1       8.167   6.529   1.796  1.00  0.00     0.198 A 
ATOM     81  F   UNL     1       8.251   5.808  -0.443  1.00  0.00    -0.203 F 
ATOM     82  F   UNL     1       7.163   9.711   3.210  1.00  0.00    -0.200 F 
ATOM     83  C   UNL     1       7.894   7.517   2.730  1.00  0.00     0.200 A 
ATOM     84  F   UNL     1       8.631   5.338   2.196  1.00  0.00    -0.200 F 
ATOM     85  F   UNL     1       8.111   7.288   4.033  1.00  0.00    -0.200 F 
ENDBRANCH  51  75
BRANCH  63  86
ATOM     86  C   UNL     1      10.530  12.230  -4.617  1.00  0.00     0.064 A 
ATOM     87  C   UNL     1      11.869  11.839  -4.471  1.00  0.00     0.173 A 
ATOM     88  C   UNL     1      10.250  13.604  -4.691  1.00  0.00     0.173 A 
ATOM     89  F   UNL     1      12.185  10.538  -4.381  1.00  0.00    -0.203 F 
ATOM     90  C   UNL     1      12.885  12.787  -4.382  1.00  0.00     0.198 A 
ATOM     91  C   UNL     1      11.271  14.547  -4.629  1.00  0.00     0.198 A 
ATOM     92  F   UNL     1       8.986  14.028  -4.838  1.00  0.00    -0.203 F 
ATOM     93  F   UNL     1      14.152  12.392  -4.201  1.00  0.00    -0.200 F 
ATOM     94  C   UNL     1      12.586  14.139  -4.468  1.00  0.00     0.200 A 
ATOM     95  F   UNL     1      10.982  15.852  -4.725  1.00  0.00    -0.200 F 
ATOM     96  F   UNL     1      13.567  15.049  -4.390  1.00  0.00    -0.200 F 
ENDBRANCH  63  86
ENDBRANCH  37  38
ENDBRANCH  30  32
ENDBRANCH  29  30
ENDBRANCH  28  29
ENDBRANCH  27  28
ENDBRANCH  26  27
ENDBRANCH   1  26
TORSDOF 17
