REMARK SMILES Cc1cc(Cl)c2c(c1)C=C(C(=O)OCCOCCOC(=O)c1ccc(-c3c4nc(c(-c5c(F)c(F)c(F)c(F)c5F)c5ccc([nH]5)c(-c5c(F)c(F)c(F)c(F)c5F)c5nc(c(-c6c(F)c(F)c(F)c(F)c6F)c6ccc3[nH]6)C=C5)C=C4)cc1)[C@@H](C(F)(F)F)O2
REMARK SMILES IDX 17 1 16 2 15 3 14 4 13 5 11 6 12 7 10 8 1 9 2 10 3 11 8 12
REMARK SMILES IDX 4 13 7 14 5 15 6 16 9 17 90 18 85 19 86 20 87 21 88 22 89 23
REMARK SMILES IDX 18 24 19 25 20 26 21 27 22 28 23 29 84 30 24 31 83 32 25 33
REMARK SMILES IDX 26 34 27 35 77 36 28 37 82 38 76 39 78 40 29 41 81 42 75 43
REMARK SMILES IDX 74 44 30 46 62 47 42 48 61 49 43 50 46 51 60 52 79 53 44 54
REMARK SMILES IDX 45 55 59 57 80 58 47 59 31 60 32 61 40 62 33 63 34 64 38 65
REMARK SMILES IDX 41 66 35 67 36 68 39 69 37 70 63 71 64 72 72 73 65 74 66 75
REMARK SMILES IDX 70 76 73 77 67 78 68 79 71 80 69 81 48 82 49 83 57 84 50 85
REMARK SMILES IDX 51 86 55 87 58 88 52 89 53 90 56 91 54 92
REMARK H PARENT 78 45 46 56
REMARK Flexibility Score: inf
ROOT
ATOM      1  C   UNL     1       3.793   7.304   1.797  1.00  0.00     0.202 C 
ENDROOT
BRANCH   1   2
ATOM      2  O   UNL     1       4.640   8.167   1.035  1.00  0.00    -0.374 OA
BRANCH   2   3
ATOM      3  C   UNL     1       4.043   9.306   0.419  1.00  0.00     0.202 C 
BRANCH   3   4
ATOM      4  C   UNL     1       3.297   9.050  -0.892  1.00  0.00     0.261 C 
BRANCH   4   5
ATOM      5  O   UNL     1       2.223   8.113  -0.708  1.00  0.00    -0.460 OA
BRANCH   5   6
ATOM      6  C   UNL     1       2.372   6.947  -1.378  1.00  0.00     0.338 C 
ATOM      7  O   UNL     1       3.231   6.683  -2.205  1.00  0.00    -0.246 OA
BRANCH   6   8
ATOM      8  C   UNL     1       1.402   5.954  -0.880  1.00  0.00     0.087 C 
ATOM      9  C   UNL     1       0.955  -0.119   0.028  1.00  0.00     0.044 C 
ATOM     10  C   UNL     1       0.492   1.308   0.016  1.00  0.00    -0.049 A 
ATOM     11  C   UNL     1      -0.855   1.618   0.233  1.00  0.00     0.028 A 
ATOM     12  C   UNL     1       1.385   2.343  -0.274  1.00  0.00     0.015 A 
ATOM     13  C   UNL     1      -1.292   2.947   0.191  1.00  0.00     0.084 A 
ATOM     14  C   UNL     1       0.945   3.672  -0.342  1.00  0.00     0.019 A 
ATOM     15  Cl  UNL     1      -2.967   3.265   0.468  1.00  0.00    -0.080 Cl
ATOM     16  C   UNL     1      -0.394   3.984  -0.094  1.00  0.00     0.146 A 
ATOM     17  C   UNL     1       1.878   4.714  -0.725  1.00  0.00     0.027 C 
ATOM     18  O   UNL     1      -0.867   5.269  -0.108  1.00  0.00    -0.474 OA
ATOM     19  C   UNL     1      -0.023   6.343  -0.605  1.00  0.00     0.316 C 
BRANCH  19  20
ATOM     20  C   UNL     1      -0.706   6.977  -1.827  1.00  0.00     0.430 C 
ATOM     21  F   UNL     1      -1.998   7.287  -1.565  1.00  0.00    -0.167 F 
ATOM     22  F   UNL     1      -0.101   8.132  -2.194  1.00  0.00    -0.167 F 
ATOM     23  F   UNL     1      -0.692   6.155  -2.900  1.00  0.00    -0.167 F 
ENDBRANCH  19  20
ENDBRANCH   6   8
ENDBRANCH   5   6
ENDBRANCH   4   5
ENDBRANCH   3   4
ENDBRANCH   2   3
ENDBRANCH   1   2
BRANCH   1  24
ATOM     24  C   UNL     1       3.342   7.821   3.168  1.00  0.00     0.261 C 
BRANCH  24  25
ATOM     25  O   UNL     1       2.417   8.918   3.050  1.00  0.00    -0.460 OA
BRANCH  25  26
ATOM     26  C   UNL     1       2.859  10.093   3.557  1.00  0.00     0.338 C 
ATOM     27  O   UNL     1       3.901  10.297   4.160  1.00  0.00    -0.246 OA
BRANCH  26  28
ATOM     28  C   UNL     1       1.978  11.191   3.124  1.00  0.00     0.060 A 
ATOM     29  C   UNL     1       2.561  12.249   2.415  1.00  0.00     0.016 A 
ATOM     30  C   UNL     1       0.630  11.235   3.487  1.00  0.00     0.016 A 
ATOM     31  C   UNL     1       1.808  13.379   2.105  1.00  0.00     0.010 A 
ATOM     32  C   UNL     1      -0.121  12.377   3.187  1.00  0.00     0.010 A 
ATOM     33  C   UNL     1       0.475  13.467   2.527  1.00  0.00    -0.014 A 
BRANCH  33  34
ATOM     34  C   UNL     1      -0.236  14.762   2.414  1.00  0.00     0.031 A 
ATOM     35  C   UNL     1      -0.264  15.682   3.604  1.00  0.00     0.074 A 
ATOM     36  C   UNL     1      -0.801  15.139   1.254  1.00  0.00     0.049 A 
ATOM     37  N   UNL     1      -0.828  16.856   3.733  1.00  0.00    -0.248 NA
ATOM     38  C   UNL     1       0.446  15.220   4.808  1.00  0.00     0.031 C 
ATOM     39  C   UNL     1      -0.789  14.359   0.019  1.00  0.00     0.029 A 
ATOM     40  N   UNL     1      -1.490  16.280   0.927  1.00  0.00    -0.354 N 
ATOM     41  C   UNL     1      -0.534  17.275   5.023  1.00  0.00     0.074 A 
ATOM     42  C   UNL     1       0.228  16.218   5.652  1.00  0.00     0.031 C 
ATOM     43  C   UNL     1      -1.440  15.045  -0.936  1.00  0.00     0.029 A 
ATOM     44  C   UNL     1      -1.940  16.298  -0.370  1.00  0.00     0.049 A 
ATOM     45  H   UNL     1      -1.646  17.015   1.562  1.00  0.00     0.167 HD
ATOM     46  C   UNL     1      -0.860  18.443   5.624  1.00  0.00     0.037 A 
ATOM     47  C   UNL     1      -2.683  17.216  -1.019  1.00  0.00     0.037 A 
ATOM     48  C   UNL     1      -1.621  19.492   5.001  1.00  0.00     0.049 A 
ATOM     49  C   UNL     1      -3.116  18.463  -0.293  1.00  0.00     0.074 A 
ATOM     50  C   UNL     1      -2.007  20.710   5.532  1.00  0.00     0.029 A 
ATOM     51  N   UNL     1      -2.116  19.444   3.706  1.00  0.00    -0.354 N 
ATOM     52  N   UNL     1      -2.833  18.853   0.925  1.00  0.00    -0.248 NA
ATOM     53  C   UNL     1      -3.978  19.397  -1.034  1.00  0.00     0.031 C 
ATOM     54  C   UNL     1      -2.771  21.382   4.574  1.00  0.00     0.029 A 
ATOM     55  C   UNL     1      -2.822  20.603   3.429  1.00  0.00     0.049 A 
ATOM     56  H   UNL     1      -1.985  18.698   3.078  1.00  0.00     0.167 HD
ATOM     57  C   UNL     1      -3.457  20.083   1.090  1.00  0.00     0.074 A 
ATOM     58  C   UNL     1      -4.127  20.382  -0.158  1.00  0.00     0.031 C 
ATOM     59  C   UNL     1      -3.476  20.890   2.179  1.00  0.00     0.037 A 
BRANCH  46  60
ATOM     60  C   UNL     1      -0.399  18.654   7.035  1.00  0.00     0.064 A 
ATOM     61  C   UNL     1       0.943  18.940   7.329  1.00  0.00     0.173 A 
ATOM     62  C   UNL     1      -1.317  18.642   8.094  1.00  0.00     0.173 A 
ATOM     63  F   UNL     1       1.861  18.949   6.350  1.00  0.00    -0.203 F 
ATOM     64  C   UNL     1       1.349  19.197   8.635  1.00  0.00     0.198 A 
ATOM     65  C   UNL     1      -0.912  18.923   9.396  1.00  0.00     0.198 A 
ATOM     66  F   UNL     1      -2.612  18.378   7.863  1.00  0.00    -0.203 F 
ATOM     67  F   UNL     1       2.640  19.442   8.898  1.00  0.00    -0.200 F 
ATOM     68  C   UNL     1       0.420  19.198   9.665  1.00  0.00     0.200 A 
ATOM     69  F   UNL     1      -1.812  18.935  10.389  1.00  0.00    -0.200 F 
ATOM     70  F   UNL     1       0.810  19.463  10.920  1.00  0.00    -0.200 F 
ENDBRANCH  46  60
BRANCH  47  71
ATOM     71  C   UNL     1      -3.067  16.992  -2.436  1.00  0.00     0.064 A 
ATOM     72  C   UNL     1      -2.534  17.784  -3.462  1.00  0.00     0.173 A 
ATOM     73  C   UNL     1      -3.982  15.990  -2.793  1.00  0.00     0.173 A 
ATOM     74  F   UNL     1      -1.677  18.773  -3.166  1.00  0.00    -0.203 F 
ATOM     75  C   UNL     1      -2.908  17.590  -4.790  1.00  0.00     0.198 A 
ATOM     76  C   UNL     1      -4.336  15.780  -4.124  1.00  0.00     0.198 A 
ATOM     77  F   UNL     1      -4.525  15.209  -1.849  1.00  0.00    -0.203 F 
ATOM     78  F   UNL     1      -2.413  18.387  -5.746  1.00  0.00    -0.200 F 
ATOM     79  C   UNL     1      -3.803  16.584  -5.121  1.00  0.00     0.200 A 
ATOM     80  F   UNL     1      -5.195  14.802  -4.441  1.00  0.00    -0.200 F 
ATOM     81  F   UNL     1      -4.160  16.395  -6.399  1.00  0.00    -0.200 F 
ENDBRANCH  47  71
BRANCH  59  82
ATOM     82  C   UNL     1      -4.223  22.187   2.073  1.00  0.00     0.064 A 
ATOM     83  C   UNL     1      -5.624  22.226   2.087  1.00  0.00     0.173 A 
ATOM     84  C   UNL     1      -3.529  23.406   2.040  1.00  0.00     0.173 A 
ATOM     85  F   UNL     1      -6.331  21.087   2.106  1.00  0.00    -0.203 F 
ATOM     86  C   UNL     1      -6.305  23.441   2.060  1.00  0.00     0.198 A 
ATOM     87  C   UNL     1      -4.213  24.619   2.041  1.00  0.00     0.198 A 
ATOM     88  F   UNL     1      -2.188  23.422   2.036  1.00  0.00    -0.203 F 
ATOM     89  F   UNL     1      -7.645  23.455   2.044  1.00  0.00    -0.200 F 
ATOM     90  C   UNL     1      -5.599  24.635   2.047  1.00  0.00     0.200 A 
ATOM     91  F   UNL     1      -3.530  25.772   2.044  1.00  0.00    -0.200 F 
ATOM     92  F   UNL     1      -6.257  25.803   2.039  1.00  0.00    -0.200 F 
ENDBRANCH  59  82
ENDBRANCH  33  34
ENDBRANCH  26  28
ENDBRANCH  25  26
ENDBRANCH  24  25
ENDBRANCH   1  24
TORSDOF 15
