REMARK SMILES C=CC[C@H](CNC(=O)OC(C)(C)C)C(=O)OCCOCCOC(=O)c1ccc(-c2c3nc(c(-c4c(F)c(F)c(F)c(F)c4F)c4ccc([nH]4)c(-c4c(F)c(F)c(F)c(F)c4F)c4nc(c(-c5c(F)c(F)c(F)c(F)c5F)c5ccc2[nH]5)C=C4)C=C3)cc1
REMARK SMILES IDX 18 1 17 2 16 3 14 4 15 5 4 6 3 7 2 8 1 9 5 10 6 11 7 12 8 14
REMARK SMILES IDX 9 15 10 16 11 17 12 18 13 19 19 20 20 21 21 22 22 23 23 24
REMARK SMILES IDX 24 25 25 26 26 27 87 28 27 29 86 30 28 31 29 32 30 33 80 34
REMARK SMILES IDX 31 35 85 36 79 37 81 38 32 39 84 40 78 41 77 42 33 44 65 45
REMARK SMILES IDX 45 46 64 47 46 48 49 49 63 50 82 51 47 52 48 53 62 55 83 56
REMARK SMILES IDX 50 57 34 58 35 59 43 60 36 61 37 62 41 63 44 64 38 65 39 66
REMARK SMILES IDX 42 67 40 68 66 69 67 70 75 71 68 72 69 73 73 74 76 75 70 76
REMARK SMILES IDX 71 77 74 78 72 79 51 80 52 81 60 82 53 83 54 84 58 85 61 86
REMARK SMILES IDX 55 87 56 88 59 89 57 90
REMARK H PARENT 6 13 81 43 49 54
REMARK Flexibility Score: inf
ROOT
ATOM      1  C   UNL     1      -5.949  -0.192   1.510  1.00  0.00     0.202 C 
ENDROOT
BRANCH   1   2
ATOM      2  C   UNL     1      -5.216   0.011   2.840  1.00  0.00     0.261 C 
BRANCH   2   3
ATOM      3  O   UNL     1      -3.817   0.304   2.694  1.00  0.00    -0.463 OA
BRANCH   3   4
ATOM      4  C   UNL     1      -2.992  -0.768   2.853  1.00  0.00     0.311 C 
ATOM      5  O   UNL     1      -3.373  -1.915   3.055  1.00  0.00    -0.252 OA
BRANCH   4   6
ATOM      6  C   UNL     1      -1.525  -0.388   2.777  1.00  0.00     0.122 C 
BRANCH   6   7
ATOM      7  C   UNL     1      -1.063   0.204   4.119  1.00  0.00     0.044 C 
BRANCH   7   8
ATOM      8  C   UNL     1      -1.644  -0.478   5.328  1.00  0.00    -0.034 C 
ATOM      9  C   UNL     1      -1.063  -1.481   5.996  1.00  0.00     0.004 C 
ENDBRANCH   7   8
ENDBRANCH   6   7
BRANCH   6  10
ATOM     10  C   UNL     1      -1.209   0.465   1.525  1.00  0.00     0.135 C 
BRANCH  10  11
ATOM     11  N   UNL     1      -0.345   1.604   1.776  1.00  0.00    -0.321 N 
ATOM     12  C   UNL     1       0.959   1.785   1.432  1.00  0.00     0.407 C 
ATOM     13  H   UNL     1      -0.761   2.351   2.263  1.00  0.00     0.167 HD
ATOM     14  O   UNL     1       1.558   2.776   1.836  1.00  0.00    -0.225 OA
BRANCH  12  15
ATOM     15  O   UNL     1       1.470   0.812   0.643  1.00  0.00    -0.444 OA
BRANCH  15  16
ATOM     16  C   UNL     1       2.865   0.880   0.231  1.00  0.00     0.106 C 
ATOM     17  C   UNL     1       3.198   2.181  -0.516  1.00  0.00     0.056 C 
ATOM     18  C   UNL     1       3.785   0.665   1.438  1.00  0.00     0.056 C 
ATOM     19  C   UNL     1       3.066  -0.286  -0.751  1.00  0.00     0.056 C 
ENDBRANCH  15  16
ENDBRANCH  12  15
ENDBRANCH  10  11
ENDBRANCH   6  10
ENDBRANCH   4   6
ENDBRANCH   3   4
ENDBRANCH   2   3
ENDBRANCH   1   2
BRANCH   1  20
ATOM     20  O   UNL     1      -5.544  -1.259   0.661  1.00  0.00    -0.374 OA
BRANCH  20  21
ATOM     21  C   UNL     1      -4.336  -1.130  -0.081  1.00  0.00     0.202 C 
BRANCH  21  22
ATOM     22  C   UNL     1      -4.300  -0.140  -1.252  1.00  0.00     0.261 C 
BRANCH  22  23
ATOM     23  O   UNL     1      -4.551   1.219  -0.854  1.00  0.00    -0.460 OA
BRANCH  23  24
ATOM     24  C   UNL     1      -5.748   1.704  -1.269  1.00  0.00     0.338 C 
ATOM     25  O   UNL     1      -6.578   1.137  -1.960  1.00  0.00    -0.246 OA
BRANCH  24  26
ATOM     26  C   UNL     1      -6.034   2.993  -0.614  1.00  0.00     0.060 A 
ATOM     27  C   UNL     1      -7.226   3.093   0.116  1.00  0.00     0.016 A 
ATOM     28  C   UNL     1      -5.216   4.108  -0.797  1.00  0.00     0.016 A 
ATOM     29  C   UNL     1      -7.633   4.325   0.620  1.00  0.00     0.010 A 
ATOM     30  C   UNL     1      -5.631   5.347  -0.294  1.00  0.00     0.010 A 
ATOM     31  C   UNL     1      -6.859   5.468   0.383  1.00  0.00    -0.014 A 
BRANCH  31  32
ATOM     32  C   UNL     1      -7.407   6.802   0.730  1.00  0.00     0.031 A 
ATOM     33  C   UNL     1      -7.962   7.677  -0.361  1.00  0.00     0.074 A 
ATOM     34  C   UNL     1      -7.450   7.210   2.011  1.00  0.00     0.049 A 
ATOM     35  N   UNL     1      -8.464   8.884  -0.284  1.00  0.00    -0.248 NA
ATOM     36  C   UNL     1      -7.950   7.117  -1.721  1.00  0.00     0.031 C 
ATOM     37  C   UNL     1      -6.984   6.434   3.158  1.00  0.00     0.029 A 
ATOM     38  N   UNL     1      -7.906   8.383   2.559  1.00  0.00    -0.354 N 
ATOM     39  C   UNL     1      -8.820   9.229  -1.582  1.00  0.00     0.074 A 
ATOM     40  C   UNL     1      -8.446   8.119  -2.432  1.00  0.00     0.031 C 
ATOM     41  C   UNL     1      -7.170   7.155   4.276  1.00  0.00     0.029 A 
ATOM     42  C   UNL     1      -7.733   8.456   3.919  1.00  0.00     0.049 A 
ATOM     43  H   UNL     1      -8.318   9.102   2.028  1.00  0.00     0.167 HD
ATOM     44  C   UNL     1      -9.414  10.364  -2.022  1.00  0.00     0.037 A 
ATOM     45  C   UNL     1      -7.977   9.469   4.773  1.00  0.00     0.037 A 
ATOM     46  C   UNL     1      -9.787  11.465  -1.171  1.00  0.00     0.049 A 
ATOM     47  C   UNL     1      -8.566  10.752   4.244  1.00  0.00     0.074 A 
ATOM     48  C   UNL     1     -10.412  12.650  -1.518  1.00  0.00     0.029 A 
ATOM     49  N   UNL     1      -9.562  11.519   0.197  1.00  0.00    -0.354 N 
ATOM     50  N   UNL     1      -8.924  11.059   3.021  1.00  0.00    -0.248 NA
ATOM     51  C   UNL     1      -8.789  11.829   5.220  1.00  0.00     0.031 C 
ATOM     52  C   UNL     1     -10.506  13.447  -0.373  1.00  0.00     0.029 A 
ATOM     53  C   UNL     1     -10.005  12.731   0.702  1.00  0.00     0.049 A 
ATOM     54  H   UNL     1      -9.147  10.802   0.730  1.00  0.00     0.167 HD
ATOM     55  C   UNL     1      -9.443  12.347   3.086  1.00  0.00     0.074 A 
ATOM     56  C   UNL     1      -9.370  12.755   4.473  1.00  0.00     0.031 C 
ATOM     57  C   UNL     1      -9.934  13.123   2.087  1.00  0.00     0.037 A 
BRANCH  44  58
ATOM     58  C   UNL     1      -9.678  10.490  -3.496  1.00  0.00     0.064 A 
ATOM     59  C   UNL     1     -10.655   9.718  -4.142  1.00  0.00     0.173 A 
ATOM     60  C   UNL     1      -8.979  11.436  -4.262  1.00  0.00     0.173 A 
ATOM     61  F   UNL     1     -11.344   8.791  -3.460  1.00  0.00    -0.203 F 
ATOM     62  C   UNL     1     -10.906   9.872  -5.504  1.00  0.00     0.198 A 
ATOM     63  C   UNL     1      -9.255  11.610  -5.615  1.00  0.00     0.198 A 
ATOM     64  F   UNL     1      -8.038  12.205  -3.694  1.00  0.00    -0.203 F 
ATOM     65  F   UNL     1     -11.813   9.092  -6.109  1.00  0.00    -0.200 F 
ATOM     66  C   UNL     1     -10.213  10.824  -6.237  1.00  0.00     0.200 A 
ATOM     67  F   UNL     1      -8.596  12.542  -6.318  1.00  0.00    -0.200 F 
ATOM     68  F   UNL     1     -10.466  10.980  -7.544  1.00  0.00    -0.200 F 
ENDBRANCH  44  58
BRANCH  45  69
ATOM     69  C   UNL     1      -7.647   9.325   6.216  1.00  0.00     0.064 A 
ATOM     70  C   UNL     1      -8.652   9.325   7.194  1.00  0.00     0.173 A 
ATOM     71  C   UNL     1      -6.317   9.218   6.651  1.00  0.00     0.173 A 
ATOM     72  F   UNL     1      -9.938   9.449   6.832  1.00  0.00    -0.203 F 
ATOM     73  C   UNL     1      -8.338   9.254   8.550  1.00  0.00     0.198 A 
ATOM     74  C   UNL     1      -6.007   9.111   8.004  1.00  0.00     0.198 A 
ATOM     75  F   UNL     1      -5.317   9.213   5.757  1.00  0.00    -0.203 F 
ATOM     76  F   UNL     1      -9.315   9.318   9.465  1.00  0.00    -0.200 F 
ATOM     77  C   UNL     1      -7.016   9.142   8.954  1.00  0.00     0.200 A 
ATOM     78  F   UNL     1      -4.729   8.987   8.388  1.00  0.00    -0.200 F 
ATOM     79  F   UNL     1      -6.715   9.073  10.257  1.00  0.00    -0.200 F 
ENDBRANCH  45  69
BRANCH  57  80
ATOM     80  C   UNL     1     -10.473  14.475   2.464  1.00  0.00     0.064 A 
ATOM     81  C   UNL     1      -9.634  15.513   2.896  1.00  0.00     0.173 A 
ATOM     82  C   UNL     1     -11.847  14.744   2.364  1.00  0.00     0.173 A 
ATOM     83  F   UNL     1      -8.314  15.307   3.023  1.00  0.00    -0.203 F 
ATOM     84  C   UNL     1     -10.154  16.756   3.248  1.00  0.00     0.198 A 
ATOM     85  C   UNL     1     -12.359  15.999   2.680  1.00  0.00     0.198 A 
ATOM     86  F   UNL     1     -12.695  13.791   1.947  1.00  0.00    -0.203 F 
ATOM     87  F   UNL     1      -9.340  17.712   3.717  1.00  0.00    -0.200 F 
ATOM     88  C   UNL     1     -11.514  17.001   3.133  1.00  0.00     0.200 A 
ATOM     89  F   UNL     1     -13.671  16.238   2.550  1.00  0.00    -0.200 F 
ATOM     90  F   UNL     1     -12.012  18.199   3.467  1.00  0.00    -0.200 F 
ENDBRANCH  57  80
ENDBRANCH  31  32
ENDBRANCH  24  26
ENDBRANCH  23  24
ENDBRANCH  22  23
ENDBRANCH  21  22
ENDBRANCH  20  21
ENDBRANCH   1  20
TORSDOF 20
