REMARK SMILES CC[NH2+][C@]1(C(=O)OCCOCCOC(=O)c2ccc(-c3c4nc(c(-c5c(F)c(F)c(F)c(F)c5F)c5ccc([nH]5)c(-c5c(F)c(F)c(F)c(F)c5F)c5nc(c(-c6c(F)c(F)c(F)c(F)c6F)c6ccc3[nH]6)C=C5)C=C4)cc2)CCC[C@H]1CC[N@H+]1CCC[C@@H](CC)C1
REMARK SMILES IDX 9 1 8 2 7 3 5 4 6 5 4 6 79 7 82 8 80 9 81 10 3 11 2 14 1 15
REMARK SMILES IDX 83 16 84 17 85 18 86 19 92 20 87 22 89 23 88 24 90 25 91 26
REMARK SMILES IDX 10 27 11 28 12 29 13 30 14 31 15 32 16 33 17 34 78 35 18 36
REMARK SMILES IDX 77 37 19 38 20 39 21 40 71 41 22 42 76 43 70 44 72 45 23 46
REMARK SMILES IDX 75 47 69 48 68 49 24 51 56 52 36 53 55 54 37 55 40 56 54 57
REMARK SMILES IDX 73 58 38 59 39 60 53 62 74 63 41 64 25 65 26 66 34 67 27 68
REMARK SMILES IDX 28 69 32 70 35 71 29 72 30 73 33 74 31 75 57 76 58 77 66 78
REMARK SMILES IDX 59 79 60 80 64 81 67 82 61 83 62 84 65 85 63 86 42 87 43 88
REMARK SMILES IDX 51 89 44 90 45 91 49 92 52 93 46 94 47 95 50 96 48 97
REMARK H PARENT 3 12 3 13 85 21 72 50 40 61
REMARK Flexibility Score: inf
ROOT
ATOM      1  C   UNL     1       3.219   1.296  -0.624  1.00  0.00     0.202 C 
ENDROOT
BRANCH   1   2
ATOM      2  C   UNL     1       2.374   2.580  -0.674  1.00  0.00     0.261 C 
BRANCH   2   3
ATOM      3  O   UNL     1       1.990   3.080   0.624  1.00  0.00    -0.459 OA
BRANCH   3   4
ATOM      4  C   UNL     1       0.823   2.513   1.046  1.00  0.00     0.368 C 
ATOM      5  O   UNL     1       0.259   1.690   0.349  1.00  0.00    -0.245 OA
BRANCH   4   6
ATOM      6  C   UNL     1       0.324   2.954   2.431  1.00  0.00     0.197 C 
ATOM      7  C   UNL     1       0.461   4.491   2.493  1.00  0.00     0.081 C 
ATOM      8  C   UNL     1      -1.215   2.745   2.655  1.00  0.00     0.068 C 
ATOM      9  C   UNL     1      -0.472   4.931   3.602  1.00  0.00     0.008 C 
ATOM     10  C   UNL     1      -1.581   3.882   3.648  1.00  0.00     0.011 C 
BRANCH   6  11
ATOM     11  N   UNL     1       1.177   2.381   3.537  1.00  0.00    -0.332 N 
ATOM     12  H   UNL     1       2.117   2.237   3.167  1.00  0.00     0.347 HD
ATOM     13  H   UNL     1       1.136   3.054   4.302  1.00  0.00     0.347 HD
BRANCH  11  14
ATOM     14  C   UNL     1       0.710   1.107   4.095  1.00  0.00     0.257 C 
ATOM     15  C   UNL     1       1.734   0.501   5.049  1.00  0.00     0.071 C 
ENDBRANCH  11  14
ENDBRANCH   6  11
BRANCH   8  16
ATOM     16  C   UNL     1      -2.182   2.745   1.435  1.00  0.00     0.072 C 
BRANCH  16  17
ATOM     17  C   UNL     1      -2.360   1.442   0.582  1.00  0.00     0.262 C 
BRANCH  17  18
ATOM     18  N   UNL     1      -2.230   0.163   1.319  1.00  0.00    -0.335 N 
ATOM     19  C   UNL     1      -3.549  -0.474   1.452  1.00  0.00     0.262 C 
ATOM     20  C   UNL     1      -1.304  -0.791   0.650  1.00  0.00     0.265 C 
ATOM     21  H   UNL     1      -1.843   0.388   2.235  1.00  0.00     0.348 HD
ATOM     22  C   UNL     1      -3.470  -1.758   2.275  1.00  0.00     0.062 C 
ATOM     23  C   UNL     1      -1.102  -2.069   1.496  1.00  0.00     0.044 C 
ATOM     24  C   UNL     1      -2.461  -2.745   1.699  1.00  0.00     0.015 C 
BRANCH  23  25
ATOM     25  C   UNL     1      -0.097  -3.055   0.851  1.00  0.00     0.006 C 
ATOM     26  C   UNL     1       1.081  -3.369   1.767  1.00  0.00     0.004 C 
ENDBRANCH  23  25
ENDBRANCH  17  18
ENDBRANCH  16  17
ENDBRANCH   8  16
ENDBRANCH   4   6
ENDBRANCH   3   4
ENDBRANCH   2   3
ENDBRANCH   1   2
BRANCH   1  27
ATOM     27  O   UNL     1       2.694   0.132   0.018  1.00  0.00    -0.374 OA
BRANCH  27  28
ATOM     28  C   UNL     1       2.666   0.170   1.446  1.00  0.00     0.202 C 
BRANCH  28  29
ATOM     29  C   UNL     1       3.774  -0.592   2.165  1.00  0.00     0.261 C 
BRANCH  29  30
ATOM     30  O   UNL     1       5.013   0.069   1.917  1.00  0.00    -0.460 OA
BRANCH  30  31
ATOM     31  C   UNL     1       5.676  -0.450   0.861  1.00  0.00     0.338 C 
ATOM     32  O   UNL     1       5.521  -1.535   0.343  1.00  0.00    -0.246 OA
BRANCH  31  33
ATOM     33  C   UNL     1       6.502   0.620   0.280  1.00  0.00     0.060 A 
ATOM     34  C   UNL     1       6.631   0.609  -1.113  1.00  0.00     0.016 A 
ATOM     35  C   UNL     1       7.091   1.624   1.058  1.00  0.00     0.016 A 
ATOM     36  C   UNL     1       7.458   1.530  -1.724  1.00  0.00     0.010 A 
ATOM     37  C   UNL     1       7.918   2.556   0.443  1.00  0.00     0.010 A 
ATOM     38  C   UNL     1       8.156   2.453  -0.935  1.00  0.00    -0.014 A 
BRANCH  38  39
ATOM     39  C   UNL     1       9.319   3.117  -1.541  1.00  0.00     0.031 A 
ATOM     40  C   UNL     1      10.673   2.523  -1.284  1.00  0.00     0.074 A 
ATOM     41  C   UNL     1       9.132   4.141  -2.386  1.00  0.00     0.049 A 
ATOM     42  N   UNL     1      11.835   2.862  -1.774  1.00  0.00    -0.248 NA
ATOM     43  C   UNL     1      10.727   1.386  -0.346  1.00  0.00     0.031 C 
ATOM     44  C   UNL     1       7.837   4.737  -2.711  1.00  0.00     0.029 A 
ATOM     45  N   UNL     1      10.031   4.842  -3.139  1.00  0.00    -0.354 N 
ATOM     46  C   UNL     1      12.750   1.985  -1.206  1.00  0.00     0.074 A 
ATOM     47  C   UNL     1      12.023   1.129  -0.299  1.00  0.00     0.031 C 
ATOM     48  C   UNL     1       8.024   5.713  -3.615  1.00  0.00     0.029 A 
ATOM     49  C   UNL     1       9.452   5.822  -3.902  1.00  0.00     0.049 A 
ATOM     50  H   UNL     1      10.998   4.660  -3.134  1.00  0.00     0.167 HD
ATOM     51  C   UNL     1      14.079   1.900  -1.440  1.00  0.00     0.037 A 
ATOM     52  C   UNL     1      10.029   6.708  -4.732  1.00  0.00     0.037 A 
ATOM     53  C   UNL     1      14.772   2.770  -2.351  1.00  0.00     0.049 A 
ATOM     54  C   UNL     1      11.519   6.625  -4.933  1.00  0.00     0.074 A 
ATOM     55  C   UNL     1      16.113   2.788  -2.680  1.00  0.00     0.029 A 
ATOM     56  N   UNL     1      14.164   3.788  -3.076  1.00  0.00    -0.354 N 
ATOM     57  N   UNL     1      12.381   5.784  -4.410  1.00  0.00    -0.248 NA
ATOM     58  C   UNL     1      12.114   7.604  -5.848  1.00  0.00     0.031 C 
ATOM     59  C   UNL     1      16.328   3.858  -3.555  1.00  0.00     0.029 A 
ATOM     60  C   UNL     1      15.109   4.460  -3.831  1.00  0.00     0.049 A 
ATOM     61  H   UNL     1      13.203   4.000  -3.055  1.00  0.00     0.167 HD
ATOM     62  C   UNL     1      13.615   6.113  -4.952  1.00  0.00     0.074 A 
ATOM     63  C   UNL     1      13.381   7.217  -5.863  1.00  0.00     0.031 C 
ATOM     64  C   UNL     1      14.834   5.559  -4.723  1.00  0.00     0.037 A 
BRANCH  51  65
ATOM     65  C   UNL     1      14.857   0.868  -0.675  1.00  0.00     0.064 A 
ATOM     66  C   UNL     1      14.692  -0.509  -0.898  1.00  0.00     0.173 A 
ATOM     67  C   UNL     1      15.791   1.263   0.294  1.00  0.00     0.173 A 
ATOM     68  F   UNL     1      13.796  -0.945  -1.797  1.00  0.00    -0.203 F 
ATOM     69  C   UNL     1      15.412  -1.448  -0.163  1.00  0.00     0.198 A 
ATOM     70  C   UNL     1      16.534   0.323   1.004  1.00  0.00     0.198 A 
ATOM     71  F   UNL     1      15.986   2.564   0.555  1.00  0.00    -0.203 F 
ATOM     72  F   UNL     1      15.197  -2.757  -0.355  1.00  0.00    -0.200 F 
ATOM     73  C   UNL     1      16.339  -1.031   0.781  1.00  0.00     0.200 A 
ATOM     74  F   UNL     1      17.436   0.728   1.908  1.00  0.00    -0.200 F 
ATOM     75  F   UNL     1      17.037  -1.935   1.482  1.00  0.00    -0.200 F 
ENDBRANCH  51  65
BRANCH  52  76
ATOM     76  C   UNL     1       9.199   7.727  -5.423  1.00  0.00     0.064 A 
ATOM     77  C   UNL     1       9.038   7.717  -6.814  1.00  0.00     0.173 A 
ATOM     78  C   UNL     1       8.539   8.733  -4.699  1.00  0.00     0.173 A 
ATOM     79  F   UNL     1       9.657   6.785  -7.554  1.00  0.00    -0.203 F 
ATOM     80  C   UNL     1       8.270   8.686  -7.458  1.00  0.00     0.198 A 
ATOM     81  C   UNL     1       7.744   9.681  -5.339  1.00  0.00     0.198 A 
ATOM     82  F   UNL     1       8.651   8.784  -3.363  1.00  0.00    -0.203 F 
ATOM     83  F   UNL     1       8.172   8.681  -8.794  1.00  0.00    -0.200 F 
ATOM     84  C   UNL     1       7.619   9.663  -6.719  1.00  0.00     0.200 A 
ATOM     85  F   UNL     1       7.101  10.609  -4.618  1.00  0.00    -0.200 F 
ATOM     86  F   UNL     1       6.875  10.590  -7.338  1.00  0.00    -0.200 F 
ENDBRANCH  52  76
BRANCH  64  87
ATOM     87  C   UNL     1      15.988   6.123  -5.501  1.00  0.00     0.064 A 
ATOM     88  C   UNL     1      16.479   7.415  -5.263  1.00  0.00     0.173 A 
ATOM     89  C   UNL     1      16.619   5.351  -6.488  1.00  0.00     0.173 A 
ATOM     90  F   UNL     1      15.902   8.197  -4.337  1.00  0.00    -0.203 F 
ATOM     91  C   UNL     1      17.528   7.930  -6.018  1.00  0.00     0.198 A 
ATOM     92  C   UNL     1      17.695   5.854  -7.212  1.00  0.00     0.198 A 
ATOM     93  F   UNL     1      16.196   4.103  -6.746  1.00  0.00    -0.203 F 
ATOM     94  F   UNL     1      17.932   9.193  -5.824  1.00  0.00    -0.200 F 
ATOM     95  C   UNL     1      18.139   7.148  -6.986  1.00  0.00     0.200 A 
ATOM     96  F   UNL     1      18.297   5.089  -8.133  1.00  0.00    -0.200 F 
ATOM     97  F   UNL     1      19.149   7.646  -7.712  1.00  0.00    -0.200 F 
ENDBRANCH  64  87
ENDBRANCH  38  39
ENDBRANCH  31  33
ENDBRANCH  30  31
ENDBRANCH  29  30
ENDBRANCH  28  29
ENDBRANCH  27  28
ENDBRANCH   1  27
TORSDOF 20
