REMARK SMILES Cc1nc2cc(S(=O)(=O)N3CCC(C(=O)OCCOCCOC(=O)c4ccc(-c5c6nc(c(-c7c(F)c(F)c(F)c(F)c7F)c7ccc([nH]7)c(-c7c(F)c(F)c(F)c(F)c7F)c7nc(c(-c8c(F)c(F)c(F)c(F)c8F)c8ccc5[nH]8)C=C7)C=C6)cc4)CC3)ccc2n1C1CCCC1
REMARK SMILES IDX 18 1 17 2 16 3 14 4 15 5 13 6 10 7 11 8 89 9 12 10 88 11
REMARK SMILES IDX 7 12 8 13 9 14 6 15 1 16 2 17 3 18 93 19 4 20 92 21 5 22
REMARK SMILES IDX 91 23 90 24 94 25 95 26 98 27 96 28 97 29 19 30 20 31 21 32
REMARK SMILES IDX 22 33 23 34 24 35 25 36 26 37 87 38 27 39 86 40 28 41 29 42
REMARK SMILES IDX 30 43 80 44 31 45 85 46 79 47 81 48 32 49 84 50 78 51 77 52
REMARK SMILES IDX 33 54 65 55 45 56 64 57 46 58 49 59 63 60 82 61 47 62 48 63
REMARK SMILES IDX 62 65 83 66 50 67 34 68 35 69 43 70 36 71 37 72 41 73 44 74
REMARK SMILES IDX 38 75 39 76 42 77 40 78 66 79 67 80 75 81 68 82 69 83 73 84
REMARK SMILES IDX 76 85 70 86 71 87 74 88 72 89 51 90 52 91 60 92 53 93 54 94
REMARK SMILES IDX 58 95 61 96 55 97 56 98 59 99 57 100
REMARK H PARENT 81 53 49 64
REMARK Flexibility Score: inf
ROOT
ATOM      1  C   UNL     1       0.969  12.172   7.068  1.00  0.00     0.202 C 
ENDROOT
BRANCH   1   2
ATOM      2  C   UNL     1      -0.448  11.643   6.829  1.00  0.00     0.261 C 
BRANCH   2   3
ATOM      3  O   UNL     1      -0.513  10.215   6.856  1.00  0.00    -0.463 OA
BRANCH   3   4
ATOM      4  C   UNL     1      -0.688   9.642   5.641  1.00  0.00     0.309 C 
ATOM      5  O   UNL     1      -0.826  10.241   4.582  1.00  0.00    -0.252 OA
BRANCH   4   6
ATOM      6  C   UNL     1      -0.730   8.139   5.718  1.00  0.00     0.102 C 
ATOM      7  N   UNL     1      -1.283   5.425   6.427  1.00  0.00    -0.198 NA
ATOM      8  C   UNL     1       0.062   5.982   6.725  1.00  0.00     0.103 C 
ATOM      9  C   UNL     1      -2.266   6.202   5.630  1.00  0.00     0.103 C 
ATOM     10  C   UNL     1       0.089   7.498   6.832  1.00  0.00     0.032 C 
ATOM     11  C   UNL     1      -2.172   7.692   5.876  1.00  0.00     0.032 C 
BRANCH   7  12
ATOM     12  S   UNL     1      -1.318   3.728   6.159  1.00  0.00     0.243 S 
ATOM     13  O   UNL     1      -2.716   3.339   6.085  1.00  0.00    -0.207 OA
ATOM     14  O   UNL     1      -0.407   3.121   7.096  1.00  0.00    -0.207 OA
BRANCH  12  15
ATOM     15  C   UNL     1      -0.635   3.452   4.532  1.00  0.00     0.085 A 
ATOM     16  C   UNL     1       0.973  -0.016  -0.068  1.00  0.00     0.088 C 
ATOM     17  C   UNL     1       0.597   0.984   0.963  1.00  0.00     0.106 A 
ATOM     18  N   UNL     1       0.000   0.697   2.104  1.00  0.00    -0.233 NA
ATOM     19  N   UNL     1       0.846   2.338   0.861  1.00  0.00    -0.325 N 
ATOM     20  C   UNL     1      -0.114   1.880   2.781  1.00  0.00     0.090 A 
ATOM     21  C   UNL     1       0.422   2.925   2.036  1.00  0.00     0.068 A 
ATOM     22  C   UNL     1      -0.655   2.135   4.051  1.00  0.00     0.052 A 
ATOM     23  C   UNL     1       0.458   4.238   2.507  1.00  0.00     0.030 A 
ATOM     24  C   UNL     1      -0.091   4.482   3.762  1.00  0.00     0.024 A 
BRANCH  19  25
ATOM     25  C   UNL     1       1.467   3.024  -0.258  1.00  0.00     0.089 C 
ATOM     26  C   UNL     1       0.633   4.165  -0.850  1.00  0.00     0.025 C 
ATOM     27  C   UNL     1       2.819   3.656   0.084  1.00  0.00     0.025 C 
ATOM     28  C   UNL     1       1.643   5.054  -1.560  1.00  0.00     0.002 C 
ATOM     29  C   UNL     1       2.981   4.843  -0.859  1.00  0.00     0.002 C 
ENDBRANCH  19  25
ENDBRANCH  12  15
ENDBRANCH   7  12
ENDBRANCH   4   6
ENDBRANCH   3   4
ENDBRANCH   2   3
ENDBRANCH   1   2
BRANCH   1  30
ATOM     30  O   UNL     1       2.023  11.732   6.223  1.00  0.00    -0.374 OA
BRANCH  30  31
ATOM     31  C   UNL     1       2.530  10.411   6.415  1.00  0.00     0.202 C 
BRANCH  31  32
ATOM     32  C   UNL     1       3.189  10.057   7.764  1.00  0.00     0.261 C 
BRANCH  32  33
ATOM     33  O   UNL     1       2.235  10.052   8.836  1.00  0.00    -0.460 OA
BRANCH  33  34
ATOM     34  C   UNL     1       2.669  10.622   9.996  1.00  0.00     0.338 C 
ATOM     35  O   UNL     1       3.818  10.746  10.377  1.00  0.00    -0.246 OA
BRANCH  34  36
ATOM     36  C   UNL     1       1.533  11.438  10.471  1.00  0.00     0.060 A 
ATOM     37  C   UNL     1       0.250  10.890  10.552  1.00  0.00     0.016 A 
ATOM     38  C   UNL     1       1.731  12.829  10.448  1.00  0.00     0.016 A 
ATOM     39  C   UNL     1      -0.846  11.743  10.495  1.00  0.00     0.010 A 
ATOM     40  C   UNL     1       0.632  13.673  10.346  1.00  0.00     0.010 A 
ATOM     41  C   UNL     1      -0.653  13.126  10.323  1.00  0.00    -0.014 A 
BRANCH  41  42
ATOM     42  C   UNL     1      -1.834  13.993  10.311  1.00  0.00     0.031 A 
ATOM     43  C   UNL     1      -2.485  14.101  11.647  1.00  0.00     0.074 A 
ATOM     44  C   UNL     1      -2.242  14.757   9.275  1.00  0.00     0.049 A 
ATOM     45  N   UNL     1      -3.713  13.852  11.970  1.00  0.00    -0.248 NA
ATOM     46  C   UNL     1      -1.615  14.433  12.789  1.00  0.00     0.031 C 
ATOM     47  C   UNL     1      -1.575  14.995   7.996  1.00  0.00     0.029 A 
ATOM     48  N   UNL     1      -3.337  15.571   9.193  1.00  0.00    -0.354 N 
ATOM     49  C   UNL     1      -3.805  14.121  13.334  1.00  0.00     0.074 A 
ATOM     50  C   UNL     1      -2.466  14.354  13.808  1.00  0.00     0.031 C 
ATOM     51  C   UNL     1      -2.172  16.024   7.352  1.00  0.00     0.029 A 
ATOM     52  C   UNL     1      -3.316  16.465   8.127  1.00  0.00     0.049 A 
ATOM     53  H   UNL     1      -4.081  15.528   9.836  1.00  0.00     0.167 HD
ATOM     54  C   UNL     1      -4.994  14.313  13.964  1.00  0.00     0.037 A 
ATOM     55  C   UNL     1      -4.135  17.533   7.935  1.00  0.00     0.037 A 
ATOM     56  C   UNL     1      -6.094  13.759  13.229  1.00  0.00     0.049 A 
ATOM     57  C   UNL     1      -5.335  17.335   8.781  1.00  0.00     0.074 A 
ATOM     58  C   UNL     1      -6.445  12.478  12.848  1.00  0.00     0.029 A 
ATOM     59  N   UNL     1      -6.859  14.594  12.455  1.00  0.00    -0.354 N 
ATOM     60  N   UNL     1      -6.243  16.431   8.553  1.00  0.00    -0.248 NA
ATOM     61  C   UNL     1      -5.295  17.860  10.137  1.00  0.00     0.031 C 
ATOM     62  C   UNL     1      -7.009  12.619  11.546  1.00  0.00     0.029 A 
ATOM     63  C   UNL     1      -7.011  13.978  11.236  1.00  0.00     0.049 A 
ATOM     64  H   UNL     1      -7.228  15.466  12.721  1.00  0.00     0.167 HD
ATOM     65  C   UNL     1      -6.590  15.962   9.810  1.00  0.00     0.074 A 
ATOM     66  C   UNL     1      -6.037  16.934  10.749  1.00  0.00     0.031 C 
ATOM     67  C   UNL     1      -7.046  14.688   9.982  1.00  0.00     0.037 A 
BRANCH  54  68
ATOM     68  C   UNL     1      -5.157  15.247  15.128  1.00  0.00     0.064 A 
ATOM     69  C   UNL     1      -6.298  15.178  15.945  1.00  0.00     0.173 A 
ATOM     70  C   UNL     1      -4.332  16.379  15.318  1.00  0.00     0.173 A 
ATOM     71  F   UNL     1      -7.173  14.171  15.809  1.00  0.00    -0.203 F 
ATOM     72  C   UNL     1      -6.597  16.181  16.872  1.00  0.00     0.198 A 
ATOM     73  C   UNL     1      -4.602  17.347  16.281  1.00  0.00     0.198 A 
ATOM     74  F   UNL     1      -3.295  16.637  14.509  1.00  0.00    -0.203 F 
ATOM     75  F   UNL     1      -7.743  16.126  17.565  1.00  0.00    -0.200 F 
ATOM     76  C   UNL     1      -5.747  17.260  17.043  1.00  0.00     0.200 A 
ATOM     77  F   UNL     1      -3.778  18.396  16.411  1.00  0.00    -0.200 F 
ATOM     78  F   UNL     1      -6.053  18.240  17.904  1.00  0.00    -0.200 F 
ENDBRANCH  54  68
BRANCH  55  79
ATOM     79  C   UNL     1      -3.826  18.850   7.321  1.00  0.00     0.064 A 
ATOM     80  C   UNL     1      -4.850  19.746   6.963  1.00  0.00     0.173 A 
ATOM     81  C   UNL     1      -2.521  19.378   7.346  1.00  0.00     0.173 A 
ATOM     82  F   UNL     1      -6.129  19.341   6.953  1.00  0.00    -0.203 F 
ATOM     83  C   UNL     1      -4.587  21.092   6.682  1.00  0.00     0.198 A 
ATOM     84  C   UNL     1      -2.258  20.719   7.058  1.00  0.00     0.198 A 
ATOM     85  F   UNL     1      -1.483  18.631   7.748  1.00  0.00    -0.203 F 
ATOM     86  F   UNL     1      -5.598  21.930   6.413  1.00  0.00    -0.200 F 
ATOM     87  C   UNL     1      -3.292  21.579   6.743  1.00  0.00     0.200 A 
ATOM     88  F   UNL     1      -1.005  21.184   7.155  1.00  0.00    -0.200 F 
ATOM     89  F   UNL     1      -3.046  22.882   6.542  1.00  0.00    -0.200 F 
ENDBRANCH  55  79
BRANCH  67  90
ATOM     90  C   UNL     1      -7.365  13.896   8.743  1.00  0.00     0.064 A 
ATOM     91  C   UNL     1      -6.411  13.559   7.764  1.00  0.00     0.173 A 
ATOM     92  C   UNL     1      -8.649  13.357   8.599  1.00  0.00     0.173 A 
ATOM     93  F   UNL     1      -5.134  13.940   7.885  1.00  0.00    -0.203 F 
ATOM     94  C   UNL     1      -6.747  12.771   6.665  1.00  0.00     0.198 A 
ATOM     95  C   UNL     1      -8.971  12.537   7.520  1.00  0.00     0.198 A 
ATOM     96  F   UNL     1      -9.585  13.591   9.532  1.00  0.00    -0.203 F 
ATOM     97  F   UNL     1      -5.822  12.482   5.737  1.00  0.00    -0.200 F 
ATOM     98  C   UNL     1      -8.026  12.257   6.546  1.00  0.00     0.200 A 
ATOM     99  F   UNL     1     -10.195  11.997   7.436  1.00  0.00    -0.200 F 
ATOM    100  F   UNL     1      -8.340  11.466   5.510  1.00  0.00    -0.200 F 
ENDBRANCH  67  90
ENDBRANCH  41  42
ENDBRANCH  34  36
ENDBRANCH  33  34
ENDBRANCH  32  33
ENDBRANCH  31  32
ENDBRANCH  30  31
ENDBRANCH   1  30
TORSDOF 17
