REMARK SMILES Cc1cccc(-c2cc(C(=O)OCCOCCOC(=O)c3ccc(-c4c5nc(c(-c6c(F)c(F)c(F)c(F)c6F)c6ccc([nH]6)c(-c6c(F)c(F)c(F)c(F)c6F)c6nc(c(-c7c(F)c(F)c(F)c(F)c7F)c7ccc4[nH]7)C=C6)C=C5)cc3)ccn2)c1
REMARK SMILES IDX 16 1 15 2 14 3 13 4 12 5 10 6 11 7 9 8 7 9 8 10 86 11 85 12
REMARK SMILES IDX 84 13 6 14 1 15 2 16 3 17 87 18 4 19 5 20 17 21 18 22 19 23
REMARK SMILES IDX 20 24 21 25 22 26 83 27 23 28 82 29 24 30 25 31 26 32 76 33
REMARK SMILES IDX 27 34 81 35 75 36 77 37 28 38 80 39 74 40 73 41 29 43 61 44
REMARK SMILES IDX 41 45 60 46 42 47 45 48 59 49 78 50 43 51 44 52 58 54 79 55
REMARK SMILES IDX 46 56 30 57 31 58 39 59 32 60 33 61 37 62 40 63 34 64 35 65
REMARK SMILES IDX 38 66 36 67 62 68 63 69 71 70 64 71 65 72 69 73 72 74 66 75
REMARK SMILES IDX 67 76 70 77 68 78 47 79 48 80 56 81 49 82 50 83 54 84 57 85
REMARK SMILES IDX 51 86 52 87 55 88 53 89
REMARK H PARENT 77 42 45 53
REMARK Flexibility Score: inf
ROOT
ATOM      1  C   UNL     1      -5.148   5.123  -3.790  1.00  0.00     0.202 C 
ENDROOT
BRANCH   1   2
ATOM      2  O   UNL     1      -3.749   5.286  -3.714  1.00  0.00    -0.374 OA
BRANCH   2   3
ATOM      3  C   UNL     1      -2.977   4.211  -4.206  1.00  0.00     0.202 C 
BRANCH   3   4
ATOM      4  C   UNL     1      -1.578   4.487  -3.755  1.00  0.00     0.261 C 
BRANCH   4   5
ATOM      5  O   UNL     1      -1.448   4.405  -2.320  1.00  0.00    -0.460 OA
BRANCH   5   6
ATOM      6  C   UNL     1      -2.142   5.148  -1.407  1.00  0.00     0.338 C 
ATOM      7  O   UNL     1      -2.609   6.256  -1.508  1.00  0.00    -0.246 OA
BRANCH   6   8
ATOM      8  C   UNL     1      -2.310   4.263  -0.232  1.00  0.00     0.063 A 
ATOM      9  C   UNL     1      -1.894   2.115   0.744  1.00  0.00     0.071 A 
ATOM     10  C   UNL     1      -1.586   3.080  -0.192  1.00  0.00     0.044 A 
ATOM     11  N   UNL     1      -2.866   2.296   1.661  1.00  0.00    -0.256 NA
ATOM     12  C   UNL     1      -3.504   3.498   1.658  1.00  0.00     0.112 A 
ATOM     13  C   UNL     1      -3.265   4.512   0.741  1.00  0.00     0.036 A 
BRANCH   9  14
ATOM     14  C   UNL     1      -1.170   0.845   0.654  1.00  0.00     0.000 A 
ATOM     15  C   UNL     1       2.455  -0.188   0.033  1.00  0.00     0.044 C 
ATOM     16  C   UNL     1       0.968  -0.273   0.203  1.00  0.00    -0.050 A 
ATOM     17  C   UNL     1       0.285  -1.478   0.036  1.00  0.00     0.003 A 
ATOM     18  C   UNL     1       0.236   0.868   0.536  1.00  0.00     0.013 A 
ATOM     19  C   UNL     1      -1.106  -1.529   0.174  1.00  0.00     0.001 A 
ATOM     20  C   UNL     1      -1.832  -0.373   0.477  1.00  0.00     0.010 A 
ENDBRANCH   9  14
ENDBRANCH   6   8
ENDBRANCH   5   6
ENDBRANCH   4   5
ENDBRANCH   3   4
ENDBRANCH   2   3
ENDBRANCH   1   2
BRANCH   1  21
ATOM     21  C   UNL     1      -5.620   5.018  -5.242  1.00  0.00     0.261 C 
BRANCH  21  22
ATOM     22  O   UNL     1      -5.311   6.239  -5.955  1.00  0.00    -0.460 OA
BRANCH  22  23
ATOM     23  C   UNL     1      -4.150   6.240  -6.673  1.00  0.00     0.338 C 
ATOM     24  O   UNL     1      -3.844   5.410  -7.513  1.00  0.00    -0.246 OA
BRANCH  23  25
ATOM     25  C   UNL     1      -3.186   7.220  -6.087  1.00  0.00     0.060 A 
ATOM     26  C   UNL     1      -1.819   7.171  -6.434  1.00  0.00     0.016 A 
ATOM     27  C   UNL     1      -3.584   7.907  -4.947  1.00  0.00     0.016 A 
ATOM     28  C   UNL     1      -0.843   7.653  -5.545  1.00  0.00     0.010 A 
ATOM     29  C   UNL     1      -2.623   8.229  -4.018  1.00  0.00     0.010 A 
ATOM     30  C   UNL     1      -1.248   8.091  -4.289  1.00  0.00    -0.014 A 
BRANCH  30  31
ATOM     31  C   UNL     1      -0.401   8.428  -3.139  1.00  0.00     0.031 A 
ATOM     32  C   UNL     1      -0.558   9.797  -2.587  1.00  0.00     0.074 A 
ATOM     33  C   UNL     1       0.171   7.457  -2.381  1.00  0.00     0.049 A 
ATOM     34  N   UNL     1       0.034  10.227  -1.533  1.00  0.00    -0.248 NA
ATOM     35  C   UNL     1      -1.408  10.820  -3.194  1.00  0.00     0.031 C 
ATOM     36  C   UNL     1       0.410   7.476  -0.933  1.00  0.00     0.029 A 
ATOM     37  N   UNL     1       0.644   6.189  -2.744  1.00  0.00    -0.354 N 
ATOM     38  C   UNL     1      -0.583  11.389  -1.132  1.00  0.00     0.074 A 
ATOM     39  C   UNL     1      -1.403  11.767  -2.252  1.00  0.00     0.031 C 
ATOM     40  C   UNL     1       1.217   6.457  -0.589  1.00  0.00     0.029 A 
ATOM     41  C   UNL     1       1.637   5.817  -1.820  1.00  0.00     0.049 A 
ATOM     42  H   UNL     1       0.336   5.653  -3.511  1.00  0.00     0.167 HD
ATOM     43  C   UNL     1      -0.382  11.788   0.158  1.00  0.00     0.037 A 
ATOM     44  C   UNL     1       2.911   5.579  -2.229  1.00  0.00     0.037 A 
ATOM     45  C   UNL     1       0.671  10.956   0.770  1.00  0.00     0.049 A 
ATOM     46  C   UNL     1       3.795   6.627  -1.627  1.00  0.00     0.074 A 
ATOM     47  C   UNL     1       0.664   9.927   1.697  1.00  0.00     0.029 A 
ATOM     48  N   UNL     1       1.925  10.911   0.153  1.00  0.00    -0.354 N 
ATOM     49  N   UNL     1       3.342   7.803  -1.280  1.00  0.00    -0.248 NA
ATOM     50  C   UNL     1       5.178   6.409  -1.225  1.00  0.00     0.031 C 
ATOM     51  C   UNL     1       1.900   9.223   1.576  1.00  0.00     0.029 A 
ATOM     52  C   UNL     1       2.669   9.834   0.596  1.00  0.00     0.049 A 
ATOM     53  H   UNL     1       2.238  11.564  -0.513  1.00  0.00     0.167 HD
ATOM     54  C   UNL     1       4.277   8.434  -0.523  1.00  0.00     0.074 A 
ATOM     55  C   UNL     1       5.431   7.550  -0.560  1.00  0.00     0.031 C 
ATOM     56  C   UNL     1       4.031   9.612   0.116  1.00  0.00     0.037 A 
BRANCH  43  57
ATOM     57  C   UNL     1      -1.222  12.786   0.944  1.00  0.00     0.064 A 
ATOM     58  C   UNL     1      -1.040  12.921   2.341  1.00  0.00     0.173 A 
ATOM     59  C   UNL     1      -2.257  13.594   0.426  1.00  0.00     0.173 A 
ATOM     60  F   UNL     1      -0.086  12.241   2.990  1.00  0.00    -0.203 F 
ATOM     61  C   UNL     1      -1.835  13.757   3.137  1.00  0.00     0.198 A 
ATOM     62  C   UNL     1      -3.049  14.433   1.221  1.00  0.00     0.198 A 
ATOM     63  F   UNL     1      -2.563  13.630  -0.869  1.00  0.00    -0.203 F 
ATOM     64  F   UNL     1      -1.619  13.819   4.459  1.00  0.00    -0.200 F 
ATOM     65  C   UNL     1      -2.843  14.512   2.578  1.00  0.00     0.200 A 
ATOM     66  F   UNL     1      -4.019  15.162   0.648  1.00  0.00    -0.200 F 
ATOM     67  F   UNL     1      -3.605  15.310   3.336  1.00  0.00    -0.200 F 
ENDBRANCH  43  57
BRANCH  44  68
ATOM     68  C   UNL     1       2.938   4.946  -3.581  1.00  0.00     0.064 A 
ATOM     69  C   UNL     1       2.488   3.607  -3.640  1.00  0.00     0.173 A 
ATOM     70  C   UNL     1       2.814   5.714  -4.749  1.00  0.00     0.173 A 
ATOM     71  F   UNL     1       2.559   2.829  -2.547  1.00  0.00    -0.203 F 
ATOM     72  C   UNL     1       1.801   3.117  -4.752  1.00  0.00     0.198 A 
ATOM     73  C   UNL     1       2.117   5.219  -5.859  1.00  0.00     0.198 A 
ATOM     74  F   UNL     1       3.208   6.995  -4.760  1.00  0.00    -0.203 F 
ATOM     75  F   UNL     1       1.238   1.900  -4.708  1.00  0.00    -0.200 F 
ATOM     76  C   UNL     1       1.576   3.941  -5.841  1.00  0.00     0.200 A 
ATOM     77  F   UNL     1       1.866   6.020  -6.904  1.00  0.00    -0.200 F 
ATOM     78  F   UNL     1       0.773   3.531  -6.835  1.00  0.00    -0.200 F 
ENDBRANCH  44  68
BRANCH  56  79
ATOM     79  C   UNL     1       5.108  10.619   0.413  1.00  0.00     0.064 A 
ATOM     80  C   UNL     1       6.348  10.632  -0.250  1.00  0.00     0.173 A 
ATOM     81  C   UNL     1       4.851  11.730   1.248  1.00  0.00     0.173 A 
ATOM     82  F   UNL     1       6.659   9.723  -1.185  1.00  0.00    -0.203 F 
ATOM     83  C   UNL     1       7.297  11.625  -0.021  1.00  0.00     0.198 A 
ATOM     84  C   UNL     1       5.769  12.763   1.409  1.00  0.00     0.198 A 
ATOM     85  F   UNL     1       3.689  11.876   1.900  1.00  0.00    -0.203 F 
ATOM     86  F   UNL     1       8.488  11.550  -0.630  1.00  0.00    -0.200 F 
ATOM     87  C   UNL     1       7.003  12.696   0.798  1.00  0.00     0.200 A 
ATOM     88  F   UNL     1       5.438  13.835   2.141  1.00  0.00    -0.200 F 
ATOM     89  F   UNL     1       7.899  13.674   0.976  1.00  0.00    -0.200 F 
ENDBRANCH  56  79
ENDBRANCH  30  31
ENDBRANCH  23  25
ENDBRANCH  22  23
ENDBRANCH  21  22
ENDBRANCH   1  21
TORSDOF 15
