REMARK SMILES Cc1cc(S(=O)(=O)N[C@H](CO)C(C)C)sc1C(=O)OCCOCCOC(=O)c1ccc(-c2c3nc(c(-c4c(F)c(F)c(F)c(F)c4F)c4ccc([nH]4)c(-c4c(F)c(F)c(F)c(F)c4F)c4nc(c(-c5c(F)c(F)c(F)c(F)c5F)c5ccc2[nH]5)C=C4)C=C3)cc1
REMARK SMILES IDX 20 1 19 2 17 3 18 4 16 5 1 6 2 7 3 8 4 9 15 10 5 11 6 12
REMARK SMILES IDX 7 13 8 14 9 16 12 17 13 18 14 19 10 20 11 21 21 23 22 24
REMARK SMILES IDX 23 25 24 26 25 27 26 28 27 29 28 30 29 31 90 32 30 33 89 34
REMARK SMILES IDX 31 35 32 36 33 37 83 38 34 39 88 40 82 41 84 42 35 43 87 44
REMARK SMILES IDX 81 45 80 46 36 48 68 49 48 50 67 51 49 52 52 53 66 54 85 55
REMARK SMILES IDX 50 56 51 57 65 59 86 60 53 61 37 62 38 63 46 64 39 65 40 66
REMARK SMILES IDX 44 67 47 68 41 69 42 70 45 71 43 72 69 73 70 74 78 75 71 76
REMARK SMILES IDX 72 77 76 78 79 79 73 80 74 81 77 82 75 83 54 84 55 85 63 86
REMARK SMILES IDX 56 87 57 88 61 89 64 90 58 91 59 92 62 93 60 94
REMARK H PARENT 8 15 11 22 84 47 52 58
REMARK Flexibility Score: inf
ROOT
ATOM      1  C   UNL     1      -7.427  -4.100   5.630  1.00  0.00     0.261 C 
ENDROOT
BRANCH   1   2
ATOM      2  O   UNL     1      -7.587  -2.671   5.555  1.00  0.00    -0.459 OA
BRANCH   2   3
ATOM      3  C   UNL     1      -6.497  -1.924   5.890  1.00  0.00     0.348 C 
ATOM      4  O   UNL     1      -5.502  -2.383   6.438  1.00  0.00    -0.245 OA
BRANCH   3   5
ATOM      5  C   UNL     1      -6.650  -0.567   5.379  1.00  0.00     0.116 A 
ATOM      6  C   UNL     1      -9.204  -0.201   5.203  1.00  0.00     0.046 C 
ATOM      7  C   UNL     1      -7.769   0.176   5.004  1.00  0.00    -0.024 A 
ATOM      8  C   UNL     1      -7.376   1.400   4.352  1.00  0.00     0.038 A 
ATOM      9  C   UNL     1      -6.009   1.545   4.251  1.00  0.00     0.135 A 
ATOM     10  S   UNL     1      -5.203   0.334   5.140  1.00  0.00    -0.115 S 
BRANCH   9  11
ATOM     11  S   UNL     1      -4.970   2.716   3.409  1.00  0.00     0.250 S 
ATOM     12  O   UNL     1      -5.829   3.398   2.473  1.00  0.00    -0.206 OA
ATOM     13  O   UNL     1      -4.280   3.434   4.463  1.00  0.00    -0.206 OA
BRANCH  11  14
ATOM     14  N   UNL     1      -3.799   1.853   2.562  1.00  0.00    -0.205 NA
ATOM     15  H   UNL     1      -3.659   0.983   3.075  1.00  0.00     0.141 HD
BRANCH  14  16
ATOM     16  C   UNL     1      -3.973   1.466   1.123  1.00  0.00     0.098 C 
BRANCH  16  17
ATOM     17  C   UNL     1      -5.283   0.708   0.820  1.00  0.00     0.003 C 
ATOM     18  C   UNL     1      -5.463   0.415  -0.675  1.00  0.00     0.009 C 
ATOM     19  C   UNL     1      -5.370  -0.618   1.580  1.00  0.00     0.009 C 
ENDBRANCH  16  17
BRANCH  16  20
ATOM     20  C   UNL     1      -3.743   2.710   0.242  1.00  0.00     0.176 C 
BRANCH  20  21
ATOM     21  O   UNL     1      -2.682   3.497   0.792  1.00  0.00    -0.395 OA
ATOM     22  H   UNL     1      -2.919   3.777   1.689  1.00  0.00     0.210 HD
ENDBRANCH  20  21
ENDBRANCH  16  20
ENDBRANCH  14  16
ENDBRANCH  11  14
ENDBRANCH   9  11
ENDBRANCH   3   5
ENDBRANCH   2   3
ENDBRANCH   1   2
BRANCH   1  23
ATOM     23  C   UNL     1      -8.077  -4.745   4.403  1.00  0.00     0.202 C 
BRANCH  23  24
ATOM     24  O   UNL     1      -7.305  -4.621   3.206  1.00  0.00    -0.374 OA
BRANCH  24  25
ATOM     25  C   UNL     1      -7.404  -3.374   2.518  1.00  0.00     0.202 C 
BRANCH  25  26
ATOM     26  C   UNL     1      -8.548  -3.297   1.502  1.00  0.00     0.261 C 
BRANCH  26  27
ATOM     27  O   UNL     1      -9.828  -3.326   2.157  1.00  0.00    -0.460 OA
BRANCH  27  28
ATOM     28  C   UNL     1     -10.512  -4.486   2.011  1.00  0.00     0.338 C 
ATOM     29  O   UNL     1     -10.213  -5.444   1.320  1.00  0.00    -0.246 OA
BRANCH  28  30
ATOM     30  C   UNL     1     -11.645  -4.515   2.957  1.00  0.00     0.060 A 
ATOM     31  C   UNL     1     -11.810  -5.672   3.728  1.00  0.00     0.016 A 
ATOM     32  C   UNL     1     -12.558  -3.462   3.053  1.00  0.00     0.016 A 
ATOM     33  C   UNL     1     -12.913  -5.797   4.570  1.00  0.00     0.010 A 
ATOM     34  C   UNL     1     -13.668  -3.592   3.895  1.00  0.00     0.010 A 
ATOM     35  C   UNL     1     -13.866  -4.771   4.635  1.00  0.00    -0.014 A 
BRANCH  35  36
ATOM     36  C   UNL     1     -15.127  -4.988   5.382  1.00  0.00     0.031 A 
ATOM     37  C   UNL     1     -16.366  -5.386   4.630  1.00  0.00     0.074 A 
ATOM     38  C   UNL     1     -15.163  -4.855   6.719  1.00  0.00     0.049 A 
ATOM     39  N   UNL     1     -17.578  -5.601   5.078  1.00  0.00    -0.248 NA
ATOM     40  C   UNL     1     -16.221  -5.565   3.177  1.00  0.00     0.031 C 
ATOM     41  C   UNL     1     -14.023  -4.506   7.563  1.00  0.00     0.029 A 
ATOM     42  N   UNL     1     -16.206  -4.994   7.600  1.00  0.00    -0.354 N 
ATOM     43  C   UNL     1     -18.337  -5.938   3.965  1.00  0.00     0.074 A 
ATOM     44  C   UNL     1     -17.459  -5.869   2.817  1.00  0.00     0.031 C 
ATOM     45  C   UNL     1     -14.431  -4.446   8.842  1.00  0.00     0.029 A 
ATOM     46  C   UNL     1     -15.864  -4.727   8.902  1.00  0.00     0.049 A 
ATOM     47  H   UNL     1     -17.113  -5.260   7.325  1.00  0.00     0.167 HD
ATOM     48  C   UNL     1     -19.645  -6.283   3.909  1.00  0.00     0.037 A 
ATOM     49  C   UNL     1     -16.628  -4.695  10.012  1.00  0.00     0.037 A 
ATOM     50  C   UNL     1     -20.518  -6.353   5.051  1.00  0.00     0.049 A 
ATOM     51  C   UNL     1     -18.095  -5.021   9.913  1.00  0.00     0.074 A 
ATOM     52  C   UNL     1     -21.854  -6.713   5.096  1.00  0.00     0.029 A 
ATOM     53  N   UNL     1     -20.142  -6.049   6.350  1.00  0.00    -0.354 N 
ATOM     54  N   UNL     1     -18.798  -5.365   8.862  1.00  0.00    -0.248 NA
ATOM     55  C   UNL     1     -18.874  -4.955  11.158  1.00  0.00     0.031 C 
ATOM     56  C   UNL     1     -22.297  -6.584   6.417  1.00  0.00     0.029 A 
ATOM     57  C   UNL     1     -21.226  -6.189   7.202  1.00  0.00     0.049 A 
ATOM     58  H   UNL     1     -19.238  -5.774   6.627  1.00  0.00     0.167 HD
ATOM     59  C   UNL     1     -20.091  -5.584   9.320  1.00  0.00     0.074 A 
ATOM     60  C   UNL     1     -20.074  -5.343  10.748  1.00  0.00     0.031 C 
ATOM     61  C   UNL     1     -21.192  -5.952   8.622  1.00  0.00     0.037 A 
BRANCH  48  62
ATOM     62  C   UNL     1     -20.219  -6.595   2.559  1.00  0.00     0.064 A 
ATOM     63  C   UNL     1     -19.901  -7.782   1.882  1.00  0.00     0.173 A 
ATOM     64  C   UNL     1     -21.124  -5.713   1.950  1.00  0.00     0.173 A 
ATOM     65  F   UNL     1     -19.030  -8.651   2.416  1.00  0.00    -0.203 F 
ATOM     66  C   UNL     1     -20.452  -8.063   0.634  1.00  0.00     0.198 A 
ATOM     67  C   UNL     1     -21.692  -6.009   0.715  1.00  0.00     0.198 A 
ATOM     68  F   UNL     1     -21.462  -4.566   2.558  1.00  0.00    -0.203 F 
ATOM     69  F   UNL     1     -20.103  -9.183  -0.014  1.00  0.00    -0.200 F 
ATOM     70  C   UNL     1     -21.352  -7.180   0.055  1.00  0.00     0.200 A 
ATOM     71  F   UNL     1     -22.568  -5.159   0.161  1.00  0.00    -0.200 F 
ATOM     72  F   UNL     1     -21.885  -7.454  -1.144  1.00  0.00    -0.200 F 
ENDBRANCH  48  62
BRANCH  49  73
ATOM     73  C   UNL     1     -16.020  -4.330  11.317  1.00  0.00     0.064 A 
ATOM     74  C   UNL     1     -15.870  -5.281  12.336  1.00  0.00     0.173 A 
ATOM     75  C   UNL     1     -15.591  -3.020  11.577  1.00  0.00     0.173 A 
ATOM     76  F   UNL     1     -16.289  -6.540  12.144  1.00  0.00    -0.203 F 
ATOM     77  C   UNL     1     -15.329  -4.931  13.572  1.00  0.00     0.198 A 
ATOM     78  C   UNL     1     -15.027  -2.678  12.803  1.00  0.00     0.198 A 
ATOM     79  F   UNL     1     -15.715  -2.074  10.634  1.00  0.00    -0.203 F 
ATOM     80  F   UNL     1     -15.237  -5.848  14.544  1.00  0.00    -0.200 F 
ATOM     81  C   UNL     1     -14.903  -3.631  13.802  1.00  0.00     0.200 A 
ATOM     82  F   UNL     1     -14.607  -1.423  13.018  1.00  0.00    -0.200 F 
ATOM     83  F   UNL     1     -14.381  -3.296  14.990  1.00  0.00    -0.200 F 
ENDBRANCH  49  73
BRANCH  61  84
ATOM     84  C   UNL     1     -22.465  -6.150   9.393  1.00  0.00     0.064 A 
ATOM     85  C   UNL     1     -23.193  -5.065   9.901  1.00  0.00     0.173 A 
ATOM     86  C   UNL     1     -22.983  -7.439   9.588  1.00  0.00     0.173 A 
ATOM     87  F   UNL     1     -22.732  -3.814   9.753  1.00  0.00    -0.203 F 
ATOM     88  C   UNL     1     -24.384  -5.265  10.595  1.00  0.00     0.198 A 
ATOM     89  C   UNL     1     -24.187  -7.634  10.259  1.00  0.00     0.198 A 
ATOM     90  F   UNL     1     -22.328  -8.510   9.116  1.00  0.00    -0.203 F 
ATOM     91  F   UNL     1     -25.042  -4.216  11.109  1.00  0.00    -0.200 F 
ATOM     92  C   UNL     1     -24.883  -6.548  10.768  1.00  0.00     0.200 A 
ATOM     93  F   UNL     1     -24.674  -8.873  10.414  1.00  0.00    -0.200 F 
ATOM     94  F   UNL     1     -26.032  -6.737  11.430  1.00  0.00    -0.200 F 
ENDBRANCH  61  84
ENDBRANCH  35  36
ENDBRANCH  28  30
ENDBRANCH  27  28
ENDBRANCH  26  27
ENDBRANCH  25  26
ENDBRANCH  24  25
ENDBRANCH  23  24
ENDBRANCH   1  23
TORSDOF 20
