REMARK SMILES O=C(OCCOCCOC(=O)c1nnn(-c2cccc(Br)c2)c1[C@@H]1COc2ccccc2O1)c1ccc(-c2c3nc(c(-c4c(F)c(F)c(F)c(F)c4F)c4ccc([nH]4)c(-c4c(F)c(F)c(F)c(F)c4F)c4nc(c(-c5c(F)c(F)c(F)c(F)c5F)c5ccc2[nH]5)C=C4)C=C3)cc1
REMARK SMILES IDX 5 1 4 2 3 3 2 4 1 5 34 6 35 7 96 8 36 9 95 10 37 11 38 12
REMARK SMILES IDX 39 13 89 14 40 15 94 16 88 17 90 18 41 19 93 20 87 21 86 22
REMARK SMILES IDX 42 24 74 25 54 26 73 27 55 28 58 29 72 30 91 31 56 32 57 33
REMARK SMILES IDX 71 35 92 36 59 37 43 38 44 39 52 40 45 41 46 42 50 43 53 44
REMARK SMILES IDX 47 45 48 46 51 47 49 48 75 49 76 50 84 51 77 52 78 53 82 54
REMARK SMILES IDX 85 55 79 56 80 57 83 58 81 59 60 60 61 61 69 62 62 63 63 64
REMARK SMILES IDX 67 65 70 66 64 67 65 68 68 69 66 70 6 71 7 72 8 73 9 74
REMARK SMILES IDX 10 75 11 76 12 77 13 78 23 79 14 80 15 81 24 82 25 83 33 84
REMARK SMILES IDX 26 85 32 86 27 87 31 88 28 89 30 90 29 91 16 92 17 93 22 94
REMARK SMILES IDX 18 95 20 96 19 97 21 98
REMARK H PARENT 90 23 58 34
REMARK Flexibility Score: inf
ROOT
ATOM      1  C   UNL     1       5.725   0.077   0.659  1.00  0.00     0.202 C 
ENDROOT
BRANCH   1   2
ATOM      2  C   UNL     1       4.773   0.506   1.791  1.00  0.00     0.261 C 
BRANCH   2   3
ATOM      3  O   UNL     1       3.449  -0.043   1.675  1.00  0.00    -0.460 OA
BRANCH   3   4
ATOM      4  C   UNL     1       2.298   0.480   1.204  1.00  0.00     0.338 C 
ATOM      5  O   UNL     1       1.281  -0.213   1.238  1.00  0.00    -0.246 OA
BRANCH   4   6
ATOM      6  C   UNL     1       2.180   1.843   0.599  1.00  0.00     0.060 A 
ATOM      7  C   UNL     1       3.246   2.677   0.256  1.00  0.00     0.016 A 
ATOM      8  C   UNL     1       0.875   2.276   0.287  1.00  0.00     0.016 A 
ATOM      9  C   UNL     1       3.021   3.953  -0.234  1.00  0.00     0.010 A 
ATOM     10  C   UNL     1       0.642   3.537  -0.253  1.00  0.00     0.010 A 
ATOM     11  C   UNL     1       1.718   4.393  -0.455  1.00  0.00    -0.014 A 
BRANCH  11  12
ATOM     12  C   UNL     1       1.574   5.779  -0.867  1.00  0.00     0.031 A 
ATOM     13  C   UNL     1       2.158   6.168  -2.178  1.00  0.00     0.074 A 
ATOM     14  C   UNL     1       0.978   6.693  -0.082  1.00  0.00     0.049 A 
ATOM     15  N   UNL     1       3.123   7.002  -2.405  1.00  0.00    -0.248 NA
ATOM     16  C   UNL     1       1.631   5.514  -3.382  1.00  0.00     0.031 C 
ATOM     17  C   UNL     1       0.142   6.471   1.098  1.00  0.00     0.029 A 
ATOM     18  N   UNL     1       0.948   8.045  -0.245  1.00  0.00    -0.354 N 
ATOM     19  C   UNL     1       3.240   7.093  -3.789  1.00  0.00     0.074 A 
ATOM     20  C   UNL     1       2.354   6.096  -4.340  1.00  0.00     0.031 C 
ATOM     21  C   UNL     1      -0.477   7.627   1.420  1.00  0.00     0.029 A 
ATOM     22  C   UNL     1       0.019   8.684   0.555  1.00  0.00     0.049 A 
ATOM     23  H   UNL     1       1.534   8.524  -0.874  1.00  0.00     0.167 HD
ATOM     24  C   UNL     1       3.937   8.094  -4.394  1.00  0.00     0.037 A 
ATOM     25  C   UNL     1      -0.367   9.976   0.457  1.00  0.00     0.037 A 
ATOM     26  C   UNL     1       4.866   8.726  -3.498  1.00  0.00     0.049 A 
ATOM     27  C   UNL     1       0.694  10.724  -0.261  1.00  0.00     0.074 A 
ATOM     28  C   UNL     1       5.963   8.298  -2.776  1.00  0.00     0.029 A 
ATOM     29  N   UNL     1       4.566   9.969  -3.000  1.00  0.00    -0.354 N 
ATOM     30  N   UNL     1       1.864  11.005   0.241  1.00  0.00    -0.248 NA
ATOM     31  C   UNL     1       0.596  10.835  -1.709  1.00  0.00     0.031 C 
ATOM     32  C   UNL     1       5.949   9.073  -1.580  1.00  0.00     0.029 A 
ATOM     33  C   UNL     1       4.855   9.934  -1.661  1.00  0.00     0.049 A 
ATOM     34  H   UNL     1       4.213  10.736  -3.506  1.00  0.00     0.167 HD
ATOM     35  C   UNL     1       2.739  10.920  -0.832  1.00  0.00     0.074 A 
ATOM     36  C   UNL     1       1.891  10.927  -2.018  1.00  0.00     0.031 C 
ATOM     37  C   UNL     1       4.047  10.573  -0.652  1.00  0.00     0.037 A 
BRANCH  24  38
ATOM     38  C   UNL     1       3.576   8.698  -5.725  1.00  0.00     0.064 A 
ATOM     39  C   UNL     1       4.482   9.564  -6.371  1.00  0.00     0.173 A 
ATOM     40  C   UNL     1       2.263   8.693  -6.239  1.00  0.00     0.173 A 
ATOM     41  F   UNL     1       5.750   9.670  -5.945  1.00  0.00    -0.203 F 
ATOM     42  C   UNL     1       4.082  10.408  -7.411  1.00  0.00     0.198 A 
ATOM     43  C   UNL     1       1.880   9.498  -7.311  1.00  0.00     0.198 A 
ATOM     44  F   UNL     1       1.280   7.996  -5.654  1.00  0.00    -0.203 F 
ATOM     45  F   UNL     1       4.945  11.300  -7.915  1.00  0.00    -0.200 F 
ATOM     46  C   UNL     1       2.780  10.377  -7.877  1.00  0.00     0.200 A 
ATOM     47  F   UNL     1       0.609   9.470  -7.735  1.00  0.00    -0.200 F 
ATOM     48  F   UNL     1       2.379  11.226  -8.832  1.00  0.00    -0.200 F 
ENDBRANCH  24  38
BRANCH  25  49
ATOM     49  C   UNL     1      -1.715  10.528   0.709  1.00  0.00     0.064 A 
ATOM     50  C   UNL     1      -1.912  11.904   0.894  1.00  0.00     0.173 A 
ATOM     51  C   UNL     1      -2.873   9.746   0.524  1.00  0.00     0.173 A 
ATOM     52  F   UNL     1      -0.861  12.725   1.026  1.00  0.00    -0.203 F 
ATOM     53  C   UNL     1      -3.192  12.466   0.879  1.00  0.00     0.198 A 
ATOM     54  C   UNL     1      -4.149  10.304   0.525  1.00  0.00     0.198 A 
ATOM     55  F   UNL     1      -2.786   8.437   0.245  1.00  0.00    -0.203 F 
ATOM     56  F   UNL     1      -3.340  13.793   0.997  1.00  0.00    -0.200 F 
ATOM     57  C   UNL     1      -4.308  11.667   0.690  1.00  0.00     0.200 A 
ATOM     58  F   UNL     1      -5.216   9.523   0.306  1.00  0.00    -0.200 F 
ATOM     59  F   UNL     1      -5.530  12.212   0.623  1.00  0.00    -0.200 F 
ENDBRANCH  25  49
BRANCH  37  60
ATOM     60  C   UNL     1       4.590  10.583   0.746  1.00  0.00     0.064 A 
ATOM     61  C   UNL     1       4.114   9.746   1.769  1.00  0.00     0.173 A 
ATOM     62  C   UNL     1       5.721  11.364   1.020  1.00  0.00     0.173 A 
ATOM     63  F   UNL     1       3.108   8.889   1.547  1.00  0.00    -0.203 F 
ATOM     64  C   UNL     1       4.713   9.737   3.027  1.00  0.00     0.198 A 
ATOM     65  C   UNL     1       6.340  11.324   2.266  1.00  0.00     0.198 A 
ATOM     66  F   UNL     1       6.257  12.133   0.059  1.00  0.00    -0.203 F 
ATOM     67  F   UNL     1       4.231   8.941   3.994  1.00  0.00    -0.200 F 
ATOM     68  C   UNL     1       5.827  10.522   3.273  1.00  0.00     0.200 A 
ATOM     69  F   UNL     1       7.449  12.044   2.483  1.00  0.00    -0.200 F 
ATOM     70  F   UNL     1       6.427  10.483   4.471  1.00  0.00    -0.200 F 
ENDBRANCH  37  60
ENDBRANCH  11  12
ENDBRANCH   4   6
ENDBRANCH   3   4
ENDBRANCH   2   3
ENDBRANCH   1   2
BRANCH   1  71
ATOM     71  O   UNL     1       5.356   0.315  -0.693  1.00  0.00    -0.374 OA
BRANCH  71  72
ATOM     72  C   UNL     1       4.225  -0.331  -1.255  1.00  0.00     0.202 C 
BRANCH  72  73
ATOM     73  C   UNL     1       3.904  -1.800  -0.994  1.00  0.00     0.261 C 
BRANCH  73  74
ATOM     74  O   UNL     1       4.136  -2.308   0.317  1.00  0.00    -0.458 OA
BRANCH  74  75
ATOM     75  C   UNL     1       5.014  -3.344   0.387  1.00  0.00     0.361 C 
ATOM     76  O   UNL     1       5.812  -3.658  -0.490  1.00  0.00    -0.244 OA
BRANCH  75  77
ATOM     77  C   UNL     1       4.866  -4.099   1.608  1.00  0.00     0.198 A 
ATOM     78  N   UNL     1       5.354  -3.668   2.813  1.00  0.00    -0.122 NA
ATOM     79  C   UNL     1       4.192  -5.299   1.781  1.00  0.00     0.123 A 
ATOM     80  N   UNL     1       5.030  -4.568   3.730  1.00  0.00    -0.061 NA
ATOM     81  N   UNL     1       4.456  -5.622   3.103  1.00  0.00    -0.213 N 
BRANCH  79  82
ATOM     82  C   UNL     1       3.238  -6.052   0.906  1.00  0.00     0.262 C 
ATOM     83  C   UNL     1       3.825  -6.656  -0.371  1.00  0.00     0.281 C 
ATOM     84  O   UNL     1       2.092  -5.216   0.706  1.00  0.00    -0.477 OA
ATOM     85  O   UNL     1       3.935  -5.745  -1.460  1.00  0.00    -0.485 OA
ATOM     86  C   UNL     1       1.912  -4.756  -0.565  1.00  0.00     0.162 A 
ATOM     87  C   UNL     1       2.793  -5.011  -1.614  1.00  0.00     0.161 A 
ATOM     88  C   UNL     1       0.804  -3.934  -0.776  1.00  0.00     0.050 A 
ATOM     89  C   UNL     1       2.580  -4.434  -2.867  1.00  0.00     0.050 A 
ATOM     90  C   UNL     1       0.584  -3.360  -2.031  1.00  0.00     0.004 A 
ATOM     91  C   UNL     1       1.474  -3.608  -3.076  1.00  0.00     0.004 A 
ENDBRANCH  79  82
BRANCH  81  92
ATOM     92  C   UNL     1       4.246  -6.839   3.796  1.00  0.00     0.068 A 
ATOM     93  C   UNL     1       4.414  -8.069   3.143  1.00  0.00     0.028 A 
ATOM     94  C   UNL     1       3.893  -6.806   5.151  1.00  0.00     0.044 A 
ATOM     95  C   UNL     1       4.184  -9.261   3.831  1.00  0.00     0.003 A 
ATOM     96  C   UNL     1       3.639  -8.004   5.818  1.00  0.00     0.020 A 
ATOM     97  C   UNL     1       3.780  -9.229   5.165  1.00  0.00     0.016 A 
ATOM     98  Br  UNL     1       3.072  -7.972   7.622  1.00  0.00    -0.051 Br
ENDBRANCH  81  92
ENDBRANCH  75  77
ENDBRANCH  74  75
ENDBRANCH  73  74
ENDBRANCH  72  73
ENDBRANCH  71  72
ENDBRANCH   1  71
TORSDOF 16
