REMARK SMILES CCCCCN(C)S(=O)(=O)c1cc(Cl)cc(C(=O)OCCOCCOC(=O)c2ccc(-c3c4nc(c(-c5c(F)c(F)c(F)c(F)c5F)c5ccc([nH]5)c(-c5c(F)c(F)c(F)c(F)c5F)c5nc(c(-c6c(F)c(F)c(F)c(F)c6F)c6ccc3[nH]6)C=C5)C=C4)cc2)c1F
REMARK SMILES IDX 20 1 19 2 17 3 18 4 16 5 11 6 12 7 91 8 13 9 92 10 14 11
REMARK SMILES IDX 15 12 8 13 9 14 10 15 6 16 7 17 5 18 4 19 3 20 2 21 1 22
REMARK SMILES IDX 21 23 22 24 23 25 24 26 25 27 26 28 27 29 28 30 29 31 90 32
REMARK SMILES IDX 30 33 89 34 31 35 32 36 33 37 83 38 34 39 88 40 82 41 84 42
REMARK SMILES IDX 35 43 87 44 81 45 80 46 36 48 68 49 48 50 67 51 49 52 52 53
REMARK SMILES IDX 66 54 85 55 50 56 51 57 65 59 86 60 53 61 37 62 38 63 46 64
REMARK SMILES IDX 39 65 40 66 44 67 47 68 41 69 42 70 45 71 43 72 69 73 70 74
REMARK SMILES IDX 78 75 71 76 72 77 76 78 79 79 73 80 74 81 77 82 75 83 54 84
REMARK SMILES IDX 55 85 63 86 56 87 57 88 61 89 64 90 58 91 59 92 62 93 60 94
REMARK H PARENT 84 47 52 58
REMARK Flexibility Score: inf
ROOT
ATOM      1  C   UNL     1      -2.550   3.041   9.626  1.00  0.00     0.261 C 
ENDROOT
BRANCH   1   2
ATOM      2  O   UNL     1      -2.130   2.190   8.543  1.00  0.00    -0.460 OA
BRANCH   2   3
ATOM      3  C   UNL     1      -1.325   1.161   8.884  1.00  0.00     0.341 C 
ATOM      4  O   UNL     1      -0.755   0.982   9.946  1.00  0.00    -0.246 OA
BRANCH   3   5
ATOM      5  C   UNL     1      -1.461   0.117   7.858  1.00  0.00     0.098 A 
ATOM      6  C   UNL     1      -1.509  -0.638   5.583  1.00  0.00     0.120 A 
ATOM      7  C   UNL     1      -1.900  -1.916   6.017  1.00  0.00     0.045 A 
ATOM      8  C   UNL     1      -1.287   0.383   6.498  1.00  0.00     0.157 A 
ATOM      9  C   UNL     1      -2.050  -2.171   7.375  1.00  0.00     0.043 A 
ATOM     10  F   UNL     1      -0.902   1.602   6.102  1.00  0.00    -0.205 F 
ATOM     11  Cl  UNL     1      -2.508  -3.738   7.907  1.00  0.00    -0.084 Cl
ATOM     12  C   UNL     1      -1.827  -1.161   8.303  1.00  0.00     0.039 A 
BRANCH   6  13
ATOM     13  S   UNL     1      -1.196  -0.455   3.858  1.00  0.00     0.245 S 
ATOM     14  O   UNL     1      -2.234  -1.199   3.171  1.00  0.00    -0.207 OA
ATOM     15  O   UNL     1       0.193  -0.817   3.709  1.00  0.00    -0.207 OA
BRANCH  13  16
ATOM     16  N   UNL     1      -1.421   1.188   3.423  1.00  0.00    -0.201 NA
ATOM     17  C   UNL     1      -2.818   1.667   3.634  1.00  0.00     0.124 C 
BRANCH  16  18
ATOM     18  C   UNL     1      -0.998   1.502   2.009  1.00  0.00     0.102 C 
BRANCH  18  19
ATOM     19  C   UNL     1       0.445   1.998   1.886  1.00  0.00     0.017 C 
BRANCH  19  20
ATOM     20  C   UNL     1       1.566   0.958   1.752  1.00  0.00     0.001 C 
BRANCH  20  21
ATOM     21  C   UNL     1       1.297  -0.234   0.828  1.00  0.00    -0.003 C 
ATOM     22  C   UNL     1       1.195   0.146  -0.640  1.00  0.00     0.004 C 
ENDBRANCH  20  21
ENDBRANCH  19  20
ENDBRANCH  18  19
ENDBRANCH  16  18
ENDBRANCH  13  16
ENDBRANCH   6  13
ENDBRANCH   3   5
ENDBRANCH   2   3
ENDBRANCH   1   2
BRANCH   1  23
ATOM     23  C   UNL     1      -4.062   3.246   9.522  1.00  0.00     0.202 C 
BRANCH  23  24
ATOM     24  O   UNL     1      -4.801   2.080   9.903  1.00  0.00    -0.374 OA
BRANCH  24  25
ATOM     25  C   UNL     1      -5.054   1.136   8.859  1.00  0.00     0.202 C 
BRANCH  25  26
ATOM     26  C   UNL     1      -6.377   1.384   8.131  1.00  0.00     0.261 C 
BRANCH  26  27
ATOM     27  O   UNL     1      -6.265   2.545   7.286  1.00  0.00    -0.460 OA
BRANCH  27  28
ATOM     28  C   UNL     1      -6.916   3.644   7.734  1.00  0.00     0.338 C 
ATOM     29  O   UNL     1      -7.674   3.719   8.686  1.00  0.00    -0.246 OA
BRANCH  28  30
ATOM     30  C   UNL     1      -6.463   4.833   6.980  1.00  0.00     0.060 A 
ATOM     31  C   UNL     1      -6.310   6.028   7.695  1.00  0.00     0.016 A 
ATOM     32  C   UNL     1      -6.225   4.800   5.602  1.00  0.00     0.016 A 
ATOM     33  C   UNL     1      -5.965   7.202   7.029  1.00  0.00     0.010 A 
ATOM     34  C   UNL     1      -5.887   5.981   4.933  1.00  0.00     0.010 A 
ATOM     35  C   UNL     1      -5.788   7.192   5.639  1.00  0.00    -0.014 A 
BRANCH  35  36
ATOM     36  C   UNL     1      -5.655   8.476   4.915  1.00  0.00     0.031 A 
ATOM     37  C   UNL     1      -6.890   9.124   4.356  1.00  0.00     0.074 A 
ATOM     38  C   UNL     1      -4.459   9.075   4.783  1.00  0.00     0.049 A 
ATOM     39  N   UNL     1      -7.012  10.243   3.688  1.00  0.00    -0.248 NA
ATOM     40  C   UNL     1      -8.160   8.416   4.583  1.00  0.00     0.031 C 
ATOM     41  C   UNL     1      -3.195   8.562   5.308  1.00  0.00     0.029 A 
ATOM     42  N   UNL     1      -4.117  10.249   4.162  1.00  0.00    -0.354 N 
ATOM     43  C   UNL     1      -8.367  10.374   3.420  1.00  0.00     0.074 A 
ATOM     44  C   UNL     1      -9.027   9.211   3.974  1.00  0.00     0.031 C 
ATOM     45  C   UNL     1      -2.210   9.416   4.978  1.00  0.00     0.029 A 
ATOM     46  C   UNL     1      -2.773  10.522   4.205  1.00  0.00     0.049 A 
ATOM     47  H   UNL     1      -4.773  10.840   3.726  1.00  0.00     0.167 HD
ATOM     48  C   UNL     1      -9.006  11.379   2.777  1.00  0.00     0.037 A 
ATOM     49  C   UNL     1      -2.079  11.544   3.669  1.00  0.00     0.037 A 
ATOM     50  C   UNL     1      -8.357  12.535   2.223  1.00  0.00     0.049 A 
ATOM     51  C   UNL     1      -2.807  12.621   2.909  1.00  0.00     0.074 A 
ATOM     52  C   UNL     1      -8.924  13.611   1.561  1.00  0.00     0.029 A 
ATOM     53  N   UNL     1      -6.991  12.763   2.263  1.00  0.00    -0.354 N 
ATOM     54  N   UNL     1      -4.090  12.747   2.678  1.00  0.00    -0.248 NA
ATOM     55  C   UNL     1      -1.986  13.698   2.334  1.00  0.00     0.031 C 
ATOM     56  C   UNL     1      -7.894  14.476   1.173  1.00  0.00     0.029 A 
ATOM     57  C   UNL     1      -6.692  13.953   1.621  1.00  0.00     0.049 A 
ATOM     58  H   UNL     1      -6.330  12.167   2.685  1.00  0.00     0.167 HD
ATOM     59  C   UNL     1      -4.235  13.923   1.954  1.00  0.00     0.074 A 
ATOM     60  C   UNL     1      -2.908  14.478   1.787  1.00  0.00     0.031 C 
ATOM     61  C   UNL     1      -5.366  14.492   1.472  1.00  0.00     0.037 A 
BRANCH  48  62
ATOM     62  C   UNL     1     -10.491  11.259   2.626  1.00  0.00     0.064 A 
ATOM     63  C   UNL     1     -11.356  11.511   3.700  1.00  0.00     0.173 A 
ATOM     64  C   UNL     1     -11.053  10.912   1.390  1.00  0.00     0.173 A 
ATOM     65  F   UNL     1     -10.861  11.829   4.905  1.00  0.00    -0.203 F 
ATOM     66  C   UNL     1     -12.736  11.404   3.545  1.00  0.00     0.198 A 
ATOM     67  C   UNL     1     -12.434  10.824   1.234  1.00  0.00     0.198 A 
ATOM     68  F   UNL     1     -10.264  10.659   0.335  1.00  0.00    -0.203 F 
ATOM     69  F   UNL     1     -13.545  11.616   4.592  1.00  0.00    -0.200 F 
ATOM     70  C   UNL     1     -13.273  11.066   2.311  1.00  0.00     0.200 A 
ATOM     71  F   UNL     1     -12.952  10.499   0.041  1.00  0.00    -0.200 F 
ATOM     72  F   UNL     1     -14.601  10.964   2.163  1.00  0.00    -0.200 F 
ENDBRANCH  48  62
BRANCH  49  73
ATOM     73  C   UNL     1      -0.605  11.597   3.826  1.00  0.00     0.064 A 
ATOM     74  C   UNL     1      -0.002  12.533   4.677  1.00  0.00     0.173 A 
ATOM     75  C   UNL     1       0.230  10.721   3.117  1.00  0.00     0.173 A 
ATOM     76  F   UNL     1      -0.760  13.407   5.354  1.00  0.00    -0.203 F 
ATOM     77  C   UNL     1       1.384  12.598   4.805  1.00  0.00     0.198 A 
ATOM     78  C   UNL     1       1.614  10.774   3.261  1.00  0.00     0.198 A 
ATOM     79  F   UNL     1      -0.303   9.812   2.287  1.00  0.00    -0.203 F 
ATOM     80  F   UNL     1       1.939  13.524   5.598  1.00  0.00    -0.200 F 
ATOM     81  C   UNL     1       2.190  11.715   4.101  1.00  0.00     0.200 A 
ATOM     82  F   UNL     1       2.389   9.917   2.582  1.00  0.00    -0.200 F 
ATOM     83  F   UNL     1       3.523  11.778   4.224  1.00  0.00    -0.200 F 
ENDBRANCH  49  73
BRANCH  61  84
ATOM     84  C   UNL     1      -5.224  15.791   0.740  1.00  0.00     0.064 A 
ATOM     85  C   UNL     1      -4.758  15.838  -0.581  1.00  0.00     0.173 A 
ATOM     86  C   UNL     1      -5.607  16.995   1.349  1.00  0.00     0.173 A 
ATOM     87  F   UNL     1      -4.368  14.712  -1.199  1.00  0.00    -0.203 F 
ATOM     88  C   UNL     1      -4.668  17.048  -1.264  1.00  0.00     0.198 A 
ATOM     89  C   UNL     1      -5.533  18.201   0.657  1.00  0.00     0.198 A 
ATOM     90  F   UNL     1      -6.063  16.999   2.610  1.00  0.00    -0.203 F 
ATOM     91  F   UNL     1      -4.192  17.075  -2.516  1.00  0.00    -0.200 F 
ATOM     92  C   UNL     1      -5.061  18.227  -0.646  1.00  0.00     0.200 A 
ATOM     93  F   UNL     1      -5.920  19.338   1.252  1.00  0.00    -0.200 F 
ATOM     94  F   UNL     1      -4.979  19.390  -1.307  1.00  0.00    -0.200 F 
ENDBRANCH  61  84
ENDBRANCH  35  36
ENDBRANCH  28  30
ENDBRANCH  27  28
ENDBRANCH  26  27
ENDBRANCH  25  26
ENDBRANCH  24  25
ENDBRANCH  23  24
ENDBRANCH   1  23
TORSDOF 20
