REMARK SMILES C[NH2+][C@@]1(C(=O)OCCOCCOC(=O)c2ccc(-c3c4nc(c(-c5c(F)c(F)c(F)c(F)c5F)c5ccc([nH]5)c(-c5c(F)c(F)c(F)c(F)c5F)c5nc(c(-c6c(F)c(F)c(F)c(F)c6F)c6ccc3[nH]6)C=C5)C=C4)cc2)CCC[C@H]1CCSc1nccc(=O)[nH]1
REMARK SMILES IDX 8 1 7 2 6 3 4 4 5 5 3 6 78 7 81 8 79 9 80 10 2 11 1 12 82 15
REMARK SMILES IDX 83 16 84 17 85 18 86 19 91 20 87 21 89 22 88 24 90 25 9 26
REMARK SMILES IDX 10 27 11 28 12 29 13 30 14 31 15 32 16 33 77 34 17 35 76 36
REMARK SMILES IDX 18 37 19 38 20 39 70 40 21 41 75 42 69 43 71 44 22 45 74 46
REMARK SMILES IDX 68 47 67 48 23 50 55 51 35 52 54 53 36 54 39 55 53 56 72 57
REMARK SMILES IDX 37 58 38 59 52 61 73 62 40 63 24 64 25 65 33 66 26 67 27 68
REMARK SMILES IDX 31 69 34 70 28 71 29 72 32 73 30 74 56 75 57 76 65 77 58 78
REMARK SMILES IDX 59 79 63 80 66 81 60 82 61 83 64 84 62 85 41 86 42 87 50 88
REMARK SMILES IDX 43 89 44 90 48 91 51 92 45 93 46 94 49 95 47 96
REMARK H PARENT 2 13 2 14 91 23 71 49 39 60
REMARK Flexibility Score: inf
ROOT
ATOM      1  C   UNL     1      -1.257  -0.198   2.794  1.00  0.00     0.202 C 
ENDROOT
BRANCH   1   2
ATOM      2  C   UNL     1      -2.174   0.742   1.932  1.00  0.00     0.261 C 
BRANCH   2   3
ATOM      3  O   UNL     1      -2.170   0.397   0.520  1.00  0.00    -0.459 OA
BRANCH   3   4
ATOM      4  C   UNL     1      -1.317   1.114  -0.246  1.00  0.00     0.368 C 
ATOM      5  O   UNL     1      -0.862   2.197   0.130  1.00  0.00    -0.245 OA
BRANCH   4   6
ATOM      6  C   UNL     1      -0.942   0.490  -1.657  1.00  0.00     0.197 C 
ATOM      7  C   UNL     1      -1.592   1.442  -2.690  1.00  0.00     0.081 C 
ATOM      8  C   UNL     1      -1.544  -0.882  -2.151  1.00  0.00     0.063 C 
ATOM      9  C   UNL     1      -3.015   0.937  -2.850  1.00  0.00     0.008 C 
ATOM     10  C   UNL     1      -2.873  -0.566  -2.882  1.00  0.00     0.011 C 
BRANCH   6  11
ATOM     11  N   UNL     1       0.540   0.570  -1.856  1.00  0.00    -0.334 N 
ATOM     12  C   UNL     1       1.367   0.559  -0.647  1.00  0.00     0.331 C 
ATOM     13  H   UNL     1       0.819  -0.228  -2.429  1.00  0.00     0.347 HD
ATOM     14  H   UNL     1       0.705   1.480  -2.286  1.00  0.00     0.347 HD
ENDBRANCH   6  11
BRANCH   8  15
ATOM     15  C   UNL     1      -0.650  -1.788  -3.063  1.00  0.00     0.022 C 
BRANCH  15  16
ATOM     16  C   UNL     1       0.744  -2.295  -2.624  1.00  0.00     0.079 C 
BRANCH  16  17
ATOM     17  S   UNL     1       0.995  -3.696  -1.494  1.00  0.00    -0.088 SA
BRANCH  17  18
ATOM     18  C   UNL     1       0.144  -3.284  -0.047  1.00  0.00     0.168 A 
ATOM     19  N   UNL     1      -0.971  -2.327   0.067  1.00  0.00    -0.233 NA
ATOM     20  N   UNL     1       0.477  -4.377   1.270  1.00  0.00    -0.301 N 
ATOM     21  C   UNL     1      -2.070  -2.210   1.456  1.00  0.00     0.120 A 
ATOM     22  C   UNL     1      -0.435  -4.445   2.780  1.00  0.00     0.251 A 
ATOM     23  H   UNL     1       1.230  -5.003   1.164  1.00  0.00     0.172 HD
ATOM     24  C   UNL     1      -1.850  -3.106   2.782  1.00  0.00     0.091 A 
ATOM     25  O   UNL     1      -0.269  -5.287   3.648  1.00  0.00    -0.269 OA
ENDBRANCH  17  18
ENDBRANCH  16  17
ENDBRANCH  15  16
ENDBRANCH   8  15
ENDBRANCH   4   6
ENDBRANCH   3   4
ENDBRANCH   2   3
ENDBRANCH   1   2
BRANCH   1  26
ATOM     26  O   UNL     1      -0.274  -0.909   1.981  1.00  0.00    -0.374 OA
BRANCH  26  27
ATOM     27  C   UNL     1      -0.142  -2.553   1.900  1.00  0.00     0.202 C 
BRANCH  27  28
ATOM     28  C   UNL     1      -1.481  -4.062   1.010  1.00  0.00     0.261 C 
BRANCH  28  29
ATOM     29  O   UNL     1      -3.115  -4.030   0.894  1.00  0.00    -0.460 OA
BRANCH  29  30
ATOM     30  C   UNL     1      -3.937  -4.431   1.883  1.00  0.00     0.338 C 
ATOM     31  O   UNL     1      -3.671  -5.152   2.827  1.00  0.00    -0.246 OA
BRANCH  30  32
ATOM     32  C   UNL     1      -5.151  -3.599   1.835  1.00  0.00     0.060 A 
ATOM     33  C   UNL     1      -5.427  -2.689   2.874  1.00  0.00     0.016 A 
ATOM     34  C   UNL     1      -6.100  -3.916   0.875  1.00  0.00     0.016 A 
ATOM     35  C   UNL     1      -6.733  -2.262   3.071  1.00  0.00     0.010 A 
ATOM     36  C   UNL     1      -7.401  -3.490   1.073  1.00  0.00     0.010 A 
ATOM     37  C   UNL     1      -7.729  -2.749   2.220  1.00  0.00    -0.014 A 
BRANCH  37  38
ATOM     38  C   UNL     1      -9.151  -2.636   2.577  1.00  0.00     0.031 A 
ATOM     39  C   UNL     1      -9.876  -3.866   3.043  1.00  0.00     0.074 A 
ATOM     40  C   UNL     1      -9.772  -1.466   2.387  1.00  0.00     0.049 A 
ATOM     41  N   UNL     1     -11.156  -4.056   3.216  1.00  0.00    -0.248 NA
ATOM     42  C   UNL     1      -9.047  -5.052   3.326  1.00  0.00     0.031 C 
ATOM     43  C   UNL     1      -9.117  -0.234   1.952  1.00  0.00     0.029 A 
ATOM     44  N   UNL     1     -11.092  -1.135   2.494  1.00  0.00    -0.354 N 
ATOM     45  C   UNL     1     -11.290  -5.384   3.603  1.00  0.00     0.074 A 
ATOM     46  C   UNL     1      -9.966  -5.964   3.608  1.00  0.00     0.031 C 
ATOM     47  C   UNL     1     -10.046   0.722   1.806  1.00  0.00     0.029 A 
ATOM     48  C   UNL     1     -11.357   0.145   2.083  1.00  0.00     0.049 A 
ATOM     49  H   UNL     1     -11.782  -1.752   2.830  1.00  0.00     0.167 HD
ATOM     50  C   UNL     1     -12.428  -6.045   3.924  1.00  0.00     0.037 A 
ATOM     51  C   UNL     1     -12.539   0.759   1.910  1.00  0.00     0.037 A 
ATOM     52  C   UNL     1     -13.729  -5.427   3.889  1.00  0.00     0.049 A 
ATOM     53  C   UNL     1     -13.791  -0.015   2.216  1.00  0.00     0.074 A 
ATOM     54  C   UNL     1     -14.956  -5.973   4.216  1.00  0.00     0.029 A 
ATOM     55  N   UNL     1     -13.967  -4.119   3.483  1.00  0.00    -0.354 N 
ATOM     56  N   UNL     1     -13.919  -1.258   2.619  1.00  0.00    -0.248 NA
ATOM     57  C   UNL     1     -15.060   0.699   2.051  1.00  0.00     0.031 C 
ATOM     58  C   UNL     1     -15.941  -5.021   3.936  1.00  0.00     0.029 A 
ATOM     59  C   UNL     1     -15.324  -3.850   3.519  1.00  0.00     0.049 A 
ATOM     60  H   UNL     1     -13.271  -3.477   3.211  1.00  0.00     0.167 HD
ATOM     61  C   UNL     1     -15.279  -1.466   2.791  1.00  0.00     0.074 A 
ATOM     62  C   UNL     1     -15.930  -0.211   2.464  1.00  0.00     0.031 C 
ATOM     63  C   UNL     1     -15.936  -2.586   3.186  1.00  0.00     0.037 A 
BRANCH  50  64
ATOM     64  C   UNL     1     -12.322  -7.498   4.299  1.00  0.00     0.064 A 
ATOM     65  C   UNL     1     -11.670  -7.920   5.468  1.00  0.00     0.173 A 
ATOM     66  C   UNL     1     -12.911  -8.485   3.493  1.00  0.00     0.173 A 
ATOM     67  F   UNL     1     -11.082  -7.023   6.275  1.00  0.00    -0.203 F 
ATOM     68  C   UNL     1     -11.583  -9.271   5.798  1.00  0.00     0.198 A 
ATOM     69  C   UNL     1     -12.856  -9.832   3.844  1.00  0.00     0.198 A 
ATOM     70  F   UNL     1     -13.552  -8.145   2.364  1.00  0.00    -0.203 F 
ATOM     71  F   UNL     1     -10.907  -9.651   6.891  1.00  0.00    -0.200 F 
ATOM     72  C   UNL     1     -12.183 -10.225   4.990  1.00  0.00     0.200 A 
ATOM     73  F   UNL     1     -13.453 -10.750   3.071  1.00  0.00    -0.200 F 
ATOM     74  F   UNL     1     -12.108 -11.524   5.314  1.00  0.00    -0.200 F 
ENDBRANCH  50  64
BRANCH  51  75
ATOM     75  C   UNL     1     -12.578   2.163   1.432  1.00  0.00     0.064 A 
ATOM     76  C   UNL     1     -13.031   3.190   2.269  1.00  0.00     0.173 A 
ATOM     77  C   UNL     1     -12.142   2.513   0.145  1.00  0.00     0.173 A 
ATOM     78  F   UNL     1     -13.459   2.905   3.507  1.00  0.00    -0.203 F 
ATOM     79  C   UNL     1     -13.078   4.510   1.826  1.00  0.00     0.198 A 
ATOM     80  C   UNL     1     -12.152   3.838  -0.283  1.00  0.00     0.198 A 
ATOM     81  F   UNL     1     -11.678   1.570  -0.689  1.00  0.00    -0.203 F 
ATOM     82  F   UNL     1     -13.566   5.464   2.630  1.00  0.00    -0.200 F 
ATOM     83  C   UNL     1     -12.633   4.833   0.553  1.00  0.00     0.200 A 
ATOM     84  F   UNL     1     -11.694   4.149  -1.503  1.00  0.00    -0.200 F 
ATOM     85  F   UNL     1     -12.672   6.104   0.131  1.00  0.00    -0.200 F 
ENDBRANCH  51  75
BRANCH  63  86
ATOM     86  C   UNL     1     -17.427  -2.482   3.333  1.00  0.00     0.064 A 
ATOM     87  C   UNL     1     -18.272  -2.317   2.226  1.00  0.00     0.173 A 
ATOM     88  C   UNL     1     -18.017  -2.578   4.603  1.00  0.00     0.173 A 
ATOM     89  F   UNL     1     -17.757  -2.205   0.992  1.00  0.00    -0.203 F 
ATOM     90  C   UNL     1     -19.650  -2.212   2.389  1.00  0.00     0.198 A 
ATOM     91  C   UNL     1     -19.398  -2.519   4.757  1.00  0.00     0.198 A 
ATOM     92  F   UNL     1     -17.255  -2.745   5.694  1.00  0.00    -0.203 F 
ATOM     93  F   UNL     1     -20.433  -1.982   1.326  1.00  0.00    -0.200 F 
ATOM     94  C   UNL     1     -20.212  -2.323   3.653  1.00  0.00     0.200 A 
ATOM     95  F   UNL     1     -19.940  -2.651   5.976  1.00  0.00    -0.200 F 
ATOM     96  F   UNL     1     -21.540  -2.231   3.807  1.00  0.00    -0.200 F 
ENDBRANCH  63  86
ENDBRANCH  37  38
ENDBRANCH  30  32
ENDBRANCH  29  30
ENDBRANCH  28  29
ENDBRANCH  27  28
ENDBRANCH  26  27
ENDBRANCH   1  26
TORSDOF 19
