REMARK SMILES CN(CC(=O)N1C[C@@H](O)C[C@H]1C(=O)OCCOCCOC(=O)c1ccc(-c2c3nc(c(-c4c(F)c(F)c(F)c(F)c4F)c4ccc([nH]4)c(-c4c(F)c(F)c(F)c(F)c4F)c4nc(c(-c5c(F)c(F)c(F)c(F)c5F)c5ccc2[nH]5)C=C4)C=C3)cc1)C(=O)c1cccs1
REMARK SMILES IDX 15 1 14 2 12 3 13 4 11 5 6 6 7 7 8 8 10 9 4 10 5 11 3 12
REMARK SMILES IDX 2 13 1 14 86 15 87 16 88 17 89 18 92 19 90 20 91 21 9 22
REMARK SMILES IDX 16 24 17 25 18 26 19 27 20 28 21 29 22 30 23 31 24 32 85 33
REMARK SMILES IDX 25 34 84 35 26 36 27 37 28 38 78 39 29 40 83 41 77 42 79 43
REMARK SMILES IDX 30 44 82 45 76 46 75 47 31 49 63 50 43 51 62 52 44 53 47 54
REMARK SMILES IDX 61 55 80 56 45 57 46 58 60 60 81 61 48 62 32 63 33 64 41 65
REMARK SMILES IDX 34 66 35 67 39 68 42 69 36 70 37 71 40 72 38 73 64 74 65 75
REMARK SMILES IDX 73 76 66 77 67 78 71 79 74 80 68 81 69 82 72 83 70 84 49 85
REMARK SMILES IDX 50 86 58 87 51 88 52 89 56 90 59 91 53 92 54 93 57 94 55 95
REMARK H PARENT 9 23 79 48 47 59
REMARK Flexibility Score: inf
ROOT
ATOM      1  C   UNL     1      -6.075  -2.050   2.878  1.00  0.00     0.261 C 
ENDROOT
BRANCH   1   2
ATOM      2  O   UNL     1      -4.907  -1.502   2.233  1.00  0.00    -0.462 OA
BRANCH   2   3
ATOM      3  C   UNL     1      -5.167  -0.468   1.379  1.00  0.00     0.329 C 
ATOM      4  O   UNL     1      -6.285   0.002   1.180  1.00  0.00    -0.250 OA
BRANCH   3   5
ATOM      5  C   UNL     1      -3.971  -0.060   0.509  1.00  0.00     0.197 C 
ATOM      6  N   UNL     1      -2.580  -0.415   0.870  1.00  0.00    -0.325 N 
ATOM      7  C   UNL     1      -2.090  -1.433  -0.038  1.00  0.00     0.152 C 
ATOM      8  C   UNL     1      -2.814  -1.116  -1.341  1.00  0.00     0.136 C 
ATOM      9  C   UNL     1      -4.203  -0.727  -0.861  1.00  0.00     0.070 C 
BRANCH   6  10
ATOM     10  C   UNL     1      -1.896   0.392   1.752  1.00  0.00     0.243 C 
ATOM     11  O   UNL     1      -2.541   1.159   2.481  1.00  0.00    -0.273 OA
BRANCH  10  12
ATOM     12  C   UNL     1      -0.349   0.559   1.744  1.00  0.00     0.219 C 
BRANCH  12  13
ATOM     13  N   UNL     1       0.560  -0.435   1.178  1.00  0.00    -0.332 N 
ATOM     14  C   UNL     1       1.089  -0.140  -0.152  1.00  0.00     0.147 C 
BRANCH  13  15
ATOM     15  C   UNL     1       1.189  -1.478   1.881  1.00  0.00     0.264 C 
ATOM     16  O   UNL     1       1.958  -2.229   1.275  1.00  0.00    -0.268 OA
BRANCH  15  17
ATOM     17  C   UNL     1       0.974  -1.622   3.317  1.00  0.00     0.092 A 
ATOM     18  C   UNL     1      -0.152  -1.477   4.104  1.00  0.00     0.025 A 
ATOM     19  S   UNL     1       2.325  -2.088   4.282  1.00  0.00    -0.139 S 
ATOM     20  C   UNL     1       0.120  -1.640   5.496  1.00  0.00     0.012 A 
ATOM     21  C   UNL     1       1.428  -1.991   5.728  1.00  0.00     0.065 A 
ENDBRANCH  15  17
ENDBRANCH  13  15
ENDBRANCH  12  13
ENDBRANCH  10  12
ENDBRANCH   6  10
BRANCH   8  22
ATOM     22  O   UNL     1      -2.850  -2.204  -2.243  1.00  0.00    -0.391 OA
ATOM     23  H   UNL     1      -3.284  -2.961  -1.819  1.00  0.00     0.211 HD
ENDBRANCH   8  22
ENDBRANCH   3   5
ENDBRANCH   2   3
ENDBRANCH   1   2
BRANCH   1  24
ATOM     24  C   UNL     1      -6.181  -1.795   4.387  1.00  0.00     0.202 C 
BRANCH  24  25
ATOM     25  O   UNL     1      -6.035  -0.460   4.851  1.00  0.00    -0.374 OA
BRANCH  25  26
ATOM     26  C   UNL     1      -4.751   0.149   4.719  1.00  0.00     0.202 C 
BRANCH  26  27
ATOM     27  C   UNL     1      -3.595  -0.495   5.491  1.00  0.00     0.261 C 
BRANCH  27  28
ATOM     28  O   UNL     1      -3.339  -1.860   5.093  1.00  0.00    -0.460 OA
BRANCH  28  29
ATOM     29  C   UNL     1      -3.213  -2.730   6.124  1.00  0.00     0.338 C 
ATOM     30  O   UNL     1      -3.192  -2.463   7.317  1.00  0.00    -0.246 OA
BRANCH  29  31
ATOM     31  C   UNL     1      -3.194  -4.126   5.654  1.00  0.00     0.060 A 
ATOM     32  C   UNL     1      -4.212  -4.977   6.101  1.00  0.00     0.016 A 
ATOM     33  C   UNL     1      -2.109  -4.640   4.941  1.00  0.00     0.016 A 
ATOM     34  C   UNL     1      -4.119  -6.352   5.882  1.00  0.00     0.010 A 
ATOM     35  C   UNL     1      -2.014  -6.019   4.727  1.00  0.00     0.010 A 
ATOM     36  C   UNL     1      -2.998  -6.885   5.229  1.00  0.00    -0.014 A 
BRANCH  36  37
ATOM     37  C   UNL     1      -2.810  -8.354   5.169  1.00  0.00     0.031 A 
ATOM     38  C   UNL     1      -1.926  -9.035   6.177  1.00  0.00     0.074 A 
ATOM     39  C   UNL     1      -3.439  -9.077   4.226  1.00  0.00     0.049 A 
ATOM     40  N   UNL     1      -1.652 -10.309   6.314  1.00  0.00    -0.248 NA
ATOM     41  C   UNL     1      -1.261  -8.168   7.161  1.00  0.00     0.031 C 
ATOM     42  C   UNL     1      -4.323  -8.531   3.199  1.00  0.00     0.029 A 
ATOM     43  N   UNL     1      -3.423 -10.426   3.977  1.00  0.00    -0.354 N 
ATOM     44  C   UNL     1      -0.791 -10.396   7.399  1.00  0.00     0.074 A 
ATOM     45  C   UNL     1      -0.559  -9.045   7.865  1.00  0.00     0.031 C 
ATOM     46  C   UNL     1      -4.761  -9.536   2.423  1.00  0.00     0.029 A 
ATOM     47  C   UNL     1      -4.176 -10.792   2.890  1.00  0.00     0.049 A 
ATOM     48  H   UNL     1      -2.920 -11.070   4.527  1.00  0.00     0.167 HD
ATOM     49  C   UNL     1      -0.253 -11.504   7.964  1.00  0.00     0.037 A 
ATOM     50  C   UNL     1      -4.365 -12.003   2.332  1.00  0.00     0.037 A 
ATOM     51  C   UNL     1      -0.479 -12.847   7.498  1.00  0.00     0.049 A 
ATOM     52  C   UNL     1      -3.721 -13.214   2.952  1.00  0.00     0.074 A 
ATOM     53  C   UNL     1      -0.006 -14.037   8.024  1.00  0.00     0.029 A 
ATOM     54  N   UNL     1      -1.237 -13.177   6.384  1.00  0.00    -0.354 N 
ATOM     55  N   UNL     1      -2.958 -13.292   4.014  1.00  0.00    -0.248 NA
ATOM     56  C   UNL     1      -3.974 -14.507   2.299  1.00  0.00     0.031 C 
ATOM     57  C   UNL     1      -0.444 -15.083   7.205  1.00  0.00     0.029 A 
ATOM     58  C   UNL     1      -1.225 -14.549   6.193  1.00  0.00     0.049 A 
ATOM     59  H   UNL     1      -1.714 -12.531   5.813  1.00  0.00     0.167 HD
ATOM     60  C   UNL     1      -2.664 -14.639   4.175  1.00  0.00     0.074 A 
ATOM     61  C   UNL     1      -3.336 -15.345   3.104  1.00  0.00     0.031 C 
ATOM     62  C   UNL     1      -1.907 -15.237   5.128  1.00  0.00     0.037 A 
BRANCH  49  63
ATOM     63  C   UNL     1       0.645 -11.312   9.150  1.00  0.00     0.064 A 
ATOM     64  C   UNL     1       0.132 -10.965  10.408  1.00  0.00     0.173 A 
ATOM     65  C   UNL     1       2.027 -11.526   9.040  1.00  0.00     0.173 A 
ATOM     66  F   UNL     1      -1.182 -10.742  10.563  1.00  0.00    -0.203 F 
ATOM     67  C   UNL     1       0.972 -10.818  11.509  1.00  0.00     0.198 A 
ATOM     68  C   UNL     1       2.862 -11.400  10.148  1.00  0.00     0.198 A 
ATOM     69  F   UNL     1       2.567 -11.867   7.861  1.00  0.00    -0.203 F 
ATOM     70  F   UNL     1       0.464 -10.452  12.694  1.00  0.00    -0.200 F 
ATOM     71  C   UNL     1       2.334 -11.042  11.380  1.00  0.00     0.200 A 
ATOM     72  F   UNL     1       4.177 -11.628  10.024  1.00  0.00    -0.200 F 
ATOM     73  F   UNL     1       3.141 -10.908  12.442  1.00  0.00    -0.200 F 
ENDBRANCH  49  63
BRANCH  50  74
ATOM     74  C   UNL     1      -5.216 -12.128   1.123  1.00  0.00     0.064 A 
ATOM     75  C   UNL     1      -6.479 -12.732   1.189  1.00  0.00     0.173 A 
ATOM     76  C   UNL     1      -4.787 -11.641  -0.120  1.00  0.00     0.173 A 
ATOM     77  F   UNL     1      -6.922 -13.232   2.352  1.00  0.00    -0.203 F 
ATOM     78  C   UNL     1      -7.276 -12.854   0.053  1.00  0.00     0.198 A 
ATOM     79  C   UNL     1      -5.595 -11.742  -1.250  1.00  0.00     0.198 A 
ATOM     80  F   UNL     1      -3.587 -11.052  -0.233  1.00  0.00    -0.203 F 
ATOM     81  F   UNL     1      -8.466 -13.466   0.135  1.00  0.00    -0.200 F 
ATOM     82  C   UNL     1      -6.837 -12.354  -1.164  1.00  0.00     0.200 A 
ATOM     83  F   UNL     1      -5.172 -11.246  -2.420  1.00  0.00    -0.200 F 
ATOM     84  F   UNL     1      -7.607 -12.465  -2.254  1.00  0.00    -0.200 F 
ENDBRANCH  50  74
BRANCH  62  85
ATOM     85  C   UNL     1      -1.791 -16.732   5.077  1.00  0.00     0.064 A 
ATOM     86  C   UNL     1      -0.991 -17.374   4.121  1.00  0.00     0.173 A 
ATOM     87  C   UNL     1      -2.450 -17.527   6.027  1.00  0.00     0.173 A 
ATOM     88  F   UNL     1      -0.354 -16.657   3.184  1.00  0.00    -0.203 F 
ATOM     89  C   UNL     1      -0.870 -18.761   4.107  1.00  0.00     0.198 A 
ATOM     90  C   UNL     1      -2.308 -18.912   6.024  1.00  0.00     0.198 A 
ATOM     91  F   UNL     1      -3.222 -16.959   6.965  1.00  0.00    -0.203 F 
ATOM     92  F   UNL     1      -0.131 -19.358   3.162  1.00  0.00    -0.200 F 
ATOM     93  C   UNL     1      -1.522 -19.528   5.062  1.00  0.00     0.200 A 
ATOM     94  F   UNL     1      -2.931 -19.650   6.953  1.00  0.00    -0.200 F 
ATOM     95  F   UNL     1      -1.399 -20.862   5.050  1.00  0.00    -0.200 F 
ENDBRANCH  62  85
ENDBRANCH  36  37
ENDBRANCH  29  31
ENDBRANCH  28  29
ENDBRANCH  27  28
ENDBRANCH  26  27
ENDBRANCH  25  26
ENDBRANCH  24  25
ENDBRANCH   1  24
TORSDOF 20
