REMARK SMILES O=C(C[N@@H+](CC(F)(F)F)[C@H]1CCCC[C@H]1O)OCCOCCOC(=O)c1ccc(-c2c3nc(c(-c4c(F)c(F)c(F)c(F)c4F)c4ccc([nH]4)c(-c4c(F)c(F)c(F)c(F)c4F)c4nc(c(-c5c(F)c(F)c(F)c(F)c5F)c5ccc2[nH]5)C=C4)C=C3)cc1
REMARK SMILES IDX 19 1 18 2 17 3 2 4 1 5 3 6 4 7 5 9 6 10 7 11 8 12 9 13 10 14
REMARK SMILES IDX 11 15 15 16 12 17 14 18 13 19 16 20 20 22 21 23 22 24 23 25
REMARK SMILES IDX 24 26 25 27 26 28 27 29 88 30 28 31 87 32 29 33 30 34 31 35
REMARK SMILES IDX 81 36 32 37 86 38 80 39 82 40 33 41 85 42 79 43 78 44 34 46
REMARK SMILES IDX 66 47 46 48 65 49 47 50 50 51 64 52 83 53 48 54 49 55 63 57
REMARK SMILES IDX 84 58 51 59 35 60 36 61 44 62 37 63 38 64 42 65 45 66 39 67
REMARK SMILES IDX 40 68 43 69 41 70 67 71 68 72 76 73 69 74 70 75 74 76 77 77
REMARK SMILES IDX 71 78 72 79 75 80 73 81 52 82 53 83 61 84 54 85 55 86 59 87
REMARK SMILES IDX 62 88 56 89 57 90 60 91 58 92
REMARK H PARENT 4 8 16 21 82 45 50 56
REMARK Flexibility Score: inf
ROOT
ATOM      1  C   UNL     1       4.762  -0.270   1.101  1.00  0.00     0.202 C 
ENDROOT
BRANCH   1   2
ATOM      2  C   UNL     1       4.312   0.760   0.072  1.00  0.00     0.261 C 
BRANCH   2   3
ATOM      3  O   UNL     1       2.889   0.978   0.076  1.00  0.00    -0.459 OA
BRANCH   3   4
ATOM      4  C   UNL     1       2.003   0.347  -0.734  1.00  0.00     0.361 C 
ATOM      5  O   UNL     1       0.816   0.673  -0.711  1.00  0.00    -0.245 OA
BRANCH   4   6
ATOM      6  C   UNL     1       2.475  -0.816  -1.600  1.00  0.00     0.387 C 
BRANCH   6   7
ATOM      7  N   UNL     1       3.513  -0.429  -2.565  1.00  0.00    -0.314 N 
ATOM      8  H   UNL     1       4.183   0.209  -2.133  1.00  0.00     0.349 HD
BRANCH   7   9
ATOM      9  C   UNL     1       4.432  -1.541  -2.887  1.00  0.00     0.380 C 
BRANCH   9  10
ATOM     10  C   UNL     1       3.892  -2.932  -3.276  1.00  0.00     0.438 C 
ATOM     11  F   UNL     1       2.978  -2.871  -4.267  1.00  0.00    -0.165 F 
ATOM     12  F   UNL     1       4.895  -3.737  -3.693  1.00  0.00    -0.165 F 
ATOM     13  F   UNL     1       3.301  -3.542  -2.221  1.00  0.00    -0.165 F 
ENDBRANCH   9  10
ENDBRANCH   7   9
BRANCH   7  14
ATOM     14  C   UNL     1       3.001   0.461  -3.622  1.00  0.00     0.213 C 
ATOM     15  C   UNL     1       3.559   1.877  -3.350  1.00  0.00     0.068 C 
ATOM     16  C   UNL     1       3.220   0.086  -5.111  1.00  0.00     0.172 C 
ATOM     17  C   UNL     1       2.898   2.913  -4.256  1.00  0.00     0.006 C 
ATOM     18  C   UNL     1       2.542   1.122  -6.013  1.00  0.00     0.038 C 
ATOM     19  C   UNL     1       3.024   2.545  -5.729  1.00  0.00     0.003 C 
BRANCH  16  20
ATOM     20  O   UNL     1       4.607   0.028  -5.441  1.00  0.00    -0.387 OA
ATOM     21  H   UNL     1       5.009   0.901  -5.306  1.00  0.00     0.211 HD
ENDBRANCH  16  20
ENDBRANCH   7  14
ENDBRANCH   6   7
ENDBRANCH   4   6
ENDBRANCH   3   4
ENDBRANCH   2   3
ENDBRANCH   1   2
BRANCH   1  22
ATOM     22  O   UNL     1       4.210  -1.578   0.979  1.00  0.00    -0.374 OA
BRANCH  22  23
ATOM     23  C   UNL     1       2.957  -1.804   1.640  1.00  0.00     0.202 C 
BRANCH  23  24
ATOM     24  C   UNL     1       3.037  -2.123   3.134  1.00  0.00     0.261 C 
BRANCH  24  25
ATOM     25  O   UNL     1       3.390  -0.951   3.883  1.00  0.00    -0.460 OA
BRANCH  25  26
ATOM     26  C   UNL     1       4.686  -0.894   4.257  1.00  0.00     0.338 C 
ATOM     27  O   UNL     1       5.527  -1.778   4.151  1.00  0.00    -0.246 OA
BRANCH  26  28
ATOM     28  C   UNL     1       5.032   0.486   4.643  1.00  0.00     0.060 A 
ATOM     29  C   UNL     1       6.292   0.958   4.253  1.00  0.00     0.016 A 
ATOM     30  C   UNL     1       4.176   1.283   5.409  1.00  0.00     0.016 A 
ATOM     31  C   UNL     1       6.756   2.173   4.735  1.00  0.00     0.010 A 
ATOM     32  C   UNL     1       4.643   2.504   5.897  1.00  0.00     0.010 A 
ATOM     33  C   UNL     1       5.962   2.907   5.625  1.00  0.00    -0.014 A 
BRANCH  33  34
ATOM     34  C   UNL     1       6.626   3.911   6.483  1.00  0.00     0.031 A 
ATOM     35  C   UNL     1       7.057   3.480   7.859  1.00  0.00     0.074 A 
ATOM     36  C   UNL     1       6.911   5.138   6.020  1.00  0.00     0.049 A 
ATOM     37  N   UNL     1       7.684   4.154   8.788  1.00  0.00    -0.248 NA
ATOM     38  C   UNL     1       6.735   2.094   8.242  1.00  0.00     0.031 C 
ATOM     39  C   UNL     1       6.582   5.635   4.686  1.00  0.00     0.029 A 
ATOM     40  N   UNL     1       7.555   6.185   6.625  1.00  0.00    -0.354 N 
ATOM     41  C   UNL     1       7.816   3.281   9.861  1.00  0.00     0.074 A 
ATOM     42  C   UNL     1       7.177   2.041   9.488  1.00  0.00     0.031 C 
ATOM     43  C   UNL     1       7.029   6.898   4.572  1.00  0.00     0.029 A 
ATOM     44  C   UNL     1       7.652   7.299   5.832  1.00  0.00     0.049 A 
ATOM     45  H   UNL     1       7.912   6.141   7.541  1.00  0.00     0.167 HD
ATOM     46  C   UNL     1       8.430   3.493  11.049  1.00  0.00     0.037 A 
ATOM     47  C   UNL     1       8.183   8.505   6.106  1.00  0.00     0.037 A 
ATOM     48  C   UNL     1       9.075   4.728  11.403  1.00  0.00     0.049 A 
ATOM     49  C   UNL     1       8.820   8.731   7.452  1.00  0.00     0.074 A 
ATOM     50  C   UNL     1       9.740   5.054  12.570  1.00  0.00     0.029 A 
ATOM     51  N   UNL     1       9.131   5.846  10.582  1.00  0.00    -0.354 N 
ATOM     52  N   UNL     1       8.962   7.897   8.455  1.00  0.00    -0.248 NA
ATOM     53  C   UNL     1       9.385  10.064   7.699  1.00  0.00     0.031 C 
ATOM     54  C   UNL     1      10.154   6.387  12.477  1.00  0.00     0.029 A 
ATOM     55  C   UNL     1       9.803   6.871  11.226  1.00  0.00     0.049 A 
ATOM     56  H   UNL     1       8.749   5.902   9.676  1.00  0.00     0.167 HD
ATOM     57  C   UNL     1       9.667   8.588   9.433  1.00  0.00     0.074 A 
ATOM     58  C   UNL     1       9.930   9.908   8.897  1.00  0.00     0.031 C 
ATOM     59  C   UNL     1      10.066   8.170  10.661  1.00  0.00     0.037 A 
BRANCH  46  60
ATOM     60  C   UNL     1       8.397   2.380  12.055  1.00  0.00     0.064 A 
ATOM     61  C   UNL     1       9.121   1.191  11.875  1.00  0.00     0.173 A 
ATOM     62  C   UNL     1       7.633   2.508  13.225  1.00  0.00     0.173 A 
ATOM     63  F   UNL     1       9.851   1.007  10.764  1.00  0.00    -0.203 F 
ATOM     64  C   UNL     1       9.059   0.163  12.813  1.00  0.00     0.198 A 
ATOM     65  C   UNL     1       7.598   1.492  14.176  1.00  0.00     0.198 A 
ATOM     66  F   UNL     1       6.919   3.622  13.448  1.00  0.00    -0.203 F 
ATOM     67  F   UNL     1       9.716  -0.985  12.592  1.00  0.00    -0.200 F 
ATOM     68  C   UNL     1       8.304   0.317  13.966  1.00  0.00     0.200 A 
ATOM     69  F   UNL     1       6.876   1.647  15.294  1.00  0.00    -0.200 F 
ATOM     70  F   UNL     1       8.249  -0.671  14.870  1.00  0.00    -0.200 F 
ENDBRANCH  46  60
BRANCH  47  71
ATOM     71  C   UNL     1       8.150   9.582   5.082  1.00  0.00     0.064 A 
ATOM     72  C   UNL     1       9.328  10.043   4.478  1.00  0.00     0.173 A 
ATOM     73  C   UNL     1       6.941  10.181   4.696  1.00  0.00     0.173 A 
ATOM     74  F   UNL     1      10.510   9.517   4.829  1.00  0.00    -0.203 F 
ATOM     75  C   UNL     1       9.301  11.076   3.544  1.00  0.00     0.198 A 
ATOM     76  C   UNL     1       6.913  11.194   3.740  1.00  0.00     0.198 A 
ATOM     77  F   UNL     1       5.786   9.776   5.242  1.00  0.00    -0.203 F 
ATOM     78  F   UNL     1      10.447  11.530   3.018  1.00  0.00    -0.200 F 
ATOM     79  C   UNL     1       8.093  11.647   3.171  1.00  0.00     0.200 A 
ATOM     80  F   UNL     1       5.742  11.733   3.373  1.00  0.00    -0.200 F 
ATOM     81  F   UNL     1       8.068  12.639   2.270  1.00  0.00    -0.200 F 
ENDBRANCH  47  71
BRANCH  59  82
ATOM     82  C   UNL     1      10.882   9.129  11.478  1.00  0.00     0.064 A 
ATOM     83  C   UNL     1      10.325  10.285  12.043  1.00  0.00     0.173 A 
ATOM     84  C   UNL     1      12.240   8.868  11.720  1.00  0.00     0.173 A 
ATOM     85  F   UNL     1       9.034  10.585  11.832  1.00  0.00    -0.203 F 
ATOM     86  C   UNL     1      11.107  11.165  12.786  1.00  0.00     0.198 A 
ATOM     87  C   UNL     1      13.010   9.731  12.493  1.00  0.00     0.198 A 
ATOM     88  F   UNL     1      12.819   7.769  11.213  1.00  0.00    -0.203 F 
ATOM     89  F   UNL     1      10.569  12.296  13.264  1.00  0.00    -0.200 F 
ATOM     90  C   UNL     1      12.446  10.885  13.016  1.00  0.00     0.200 A 
ATOM     91  F   UNL     1      14.299   9.449  12.728  1.00  0.00    -0.200 F 
ATOM     92  F   UNL     1      13.196  11.732  13.733  1.00  0.00    -0.200 F 
ENDBRANCH  59  82
ENDBRANCH  33  34
ENDBRANCH  26  28
ENDBRANCH  25  26
ENDBRANCH  24  25
ENDBRANCH  23  24
ENDBRANCH  22  23
ENDBRANCH   1  22
TORSDOF 19
