REMARK SMILES O=C(OCCOCCOC(=O)c1ccc(-c2ccc(Cl)cc2)cc1F)c1ccc(-c2c3nc(c(-c4c(F)c(F)c(F)c(F)c4F)c4ccc([nH]4)c(-c4c(F)c(F)c(F)c(F)c4F)c4nc(c(-c5c(F)c(F)c(F)c(F)c5F)c5ccc2[nH]5)C=C4)C=C3)cc1
REMARK SMILES IDX 5 1 4 2 3 3 2 4 1 5 26 6 27 7 88 8 28 9 87 10 29 11 30 12
REMARK SMILES IDX 31 13 81 14 32 15 86 16 80 17 82 18 33 19 85 20 79 21 78 22
REMARK SMILES IDX 34 24 66 25 46 26 65 27 47 28 50 29 64 30 83 31 48 32 49 33
REMARK SMILES IDX 63 35 84 36 51 37 35 38 36 39 44 40 37 41 38 42 42 43 45 44
REMARK SMILES IDX 39 45 40 46 43 47 41 48 67 49 68 50 76 51 69 52 70 53 74 54
REMARK SMILES IDX 77 55 71 56 72 57 75 58 73 59 52 60 53 61 61 62 54 63 55 64
REMARK SMILES IDX 59 65 62 66 56 67 57 68 60 69 58 70 6 71 7 72 8 73 9 74
REMARK SMILES IDX 10 75 11 76 12 77 13 78 24 79 14 80 23 81 25 82 15 83 16 84
REMARK SMILES IDX 17 85 22 86 18 87 21 88 19 89 20 90
REMARK H PARENT 82 23 50 34
REMARK Flexibility Score: inf
ROOT
ATOM      1  C   UNL     1       4.303   0.178  -1.713  1.00  0.00     0.202 C 
ENDROOT
BRANCH   1   2
ATOM      2  C   UNL     1       4.007  -1.050  -0.846  1.00  0.00     0.261 C 
BRANCH   2   3
ATOM      3  O   UNL     1       2.634  -1.053  -0.423  1.00  0.00    -0.460 OA
BRANCH   3   4
ATOM      4  C   UNL     1       2.115  -0.664   0.764  1.00  0.00     0.338 C 
ATOM      5  O   UNL     1       0.899  -0.750   0.930  1.00  0.00    -0.246 OA
BRANCH   4   6
ATOM      6  C   UNL     1       2.933  -0.141   1.901  1.00  0.00     0.060 A 
ATOM      7  C   UNL     1       4.165   0.502   1.774  1.00  0.00     0.016 A 
ATOM      8  C   UNL     1       2.371  -0.231   3.187  1.00  0.00     0.016 A 
ATOM      9  C   UNL     1       4.852   0.985   2.873  1.00  0.00     0.010 A 
ATOM     10  C   UNL     1       3.037   0.289   4.302  1.00  0.00     0.010 A 
ATOM     11  C   UNL     1       4.291   0.885   4.141  1.00  0.00    -0.014 A 
BRANCH  11  12
ATOM     12  C   UNL     1       5.121   1.319   5.274  1.00  0.00     0.031 A 
ATOM     13  C   UNL     1       5.824   0.271   6.074  1.00  0.00     0.074 A 
ATOM     14  C   UNL     1       5.377   2.629   5.432  1.00  0.00     0.049 A 
ATOM     15  N   UNL     1       6.630   0.408   7.090  1.00  0.00    -0.248 NA
ATOM     16  C   UNL     1       5.612  -1.125   5.655  1.00  0.00     0.031 C 
ATOM     17  C   UNL     1       4.844   3.696   4.581  1.00  0.00     0.029 A 
ATOM     18  N   UNL     1       6.189   3.283   6.318  1.00  0.00    -0.354 N 
ATOM     19  C   UNL     1       7.007  -0.880   7.441  1.00  0.00     0.074 A 
ATOM     20  C   UNL     1       6.336  -1.789   6.541  1.00  0.00     0.031 C 
ATOM     21  C   UNL     1       5.377   4.867   4.961  1.00  0.00     0.029 A 
ATOM     22  C   UNL     1       6.227   4.642   6.124  1.00  0.00     0.049 A 
ATOM     23  H   UNL     1       6.696   2.824   7.026  1.00  0.00     0.167 HD
ATOM     24  C   UNL     1       7.844  -1.256   8.434  1.00  0.00     0.037 A 
ATOM     25  C   UNL     1       6.864   5.593   6.833  1.00  0.00     0.037 A 
ATOM     26  C   UNL     1       8.486  -0.318   9.314  1.00  0.00     0.049 A 
ATOM     27  C   UNL     1       7.686   5.152   8.012  1.00  0.00     0.074 A 
ATOM     28  C   UNL     1       9.273  -0.566  10.421  1.00  0.00     0.029 A 
ATOM     29  N   UNL     1       8.408   1.064   9.172  1.00  0.00    -0.354 N 
ATOM     30  N   UNL     1       7.958   3.933   8.416  1.00  0.00    -0.248 NA
ATOM     31  C   UNL     1       8.270   6.208   8.847  1.00  0.00     0.031 C 
ATOM     32  C   UNL     1       9.634   0.666  10.976  1.00  0.00     0.029 A 
ATOM     33  C   UNL     1       9.121   1.683  10.182  1.00  0.00     0.049 A 
ATOM     34  H   UNL     1       7.917   1.532   8.459  1.00  0.00     0.167 HD
ATOM     35  C   UNL     1       8.752   4.070   9.544  1.00  0.00     0.074 A 
ATOM     36  C   UNL     1       8.934   5.495   9.748  1.00  0.00     0.031 C 
ATOM     37  C   UNL     1       9.279   3.109  10.343  1.00  0.00     0.037 A 
BRANCH  24  38
ATOM     38  C   UNL     1       8.036  -2.727   8.648  1.00  0.00     0.064 A 
ATOM     39  C   UNL     1       7.457  -3.360   9.758  1.00  0.00     0.173 A 
ATOM     40  C   UNL     1       8.761  -3.520   7.746  1.00  0.00     0.173 A 
ATOM     41  F   UNL     1       6.744  -2.651  10.645  1.00  0.00    -0.203 F 
ATOM     42  C   UNL     1       7.597  -4.731   9.957  1.00  0.00     0.198 A 
ATOM     43  C   UNL     1       8.875  -4.896   7.933  1.00  0.00     0.198 A 
ATOM     44  F   UNL     1       9.306  -2.970   6.650  1.00  0.00    -0.203 F 
ATOM     45  F   UNL     1       7.039  -5.311  11.029  1.00  0.00    -0.200 F 
ATOM     46  C   UNL     1       8.298  -5.499   9.040  1.00  0.00     0.200 A 
ATOM     47  F   UNL     1       9.521  -5.643   7.026  1.00  0.00    -0.200 F 
ATOM     48  F   UNL     1       8.403  -6.824   9.216  1.00  0.00    -0.200 F 
ENDBRANCH  24  38
BRANCH  25  49
ATOM     49  C   UNL     1       6.714   7.024   6.458  1.00  0.00     0.064 A 
ATOM     50  C   UNL     1       5.468   7.669   6.534  1.00  0.00     0.173 A 
ATOM     51  C   UNL     1       7.799   7.770   5.979  1.00  0.00     0.173 A 
ATOM     52  F   UNL     1       4.395   7.005   6.989  1.00  0.00    -0.203 F 
ATOM     53  C   UNL     1       5.308   8.988   6.116  1.00  0.00     0.198 A 
ATOM     54  C   UNL     1       7.644   9.100   5.588  1.00  0.00     0.198 A 
ATOM     55  F   UNL     1       9.016   7.211   5.907  1.00  0.00    -0.203 F 
ATOM     56  F   UNL     1       4.097   9.560   6.161  1.00  0.00    -0.200 F 
ATOM     57  C   UNL     1       6.396   9.704   5.646  1.00  0.00     0.200 A 
ATOM     58  F   UNL     1       8.704   9.798   5.158  1.00  0.00    -0.200 F 
ATOM     59  F   UNL     1       6.245  10.977   5.254  1.00  0.00    -0.200 F 
ENDBRANCH  25  49
BRANCH  37  60
ATOM     60  C   UNL     1      10.118   3.565  11.498  1.00  0.00     0.064 A 
ATOM     61  C   UNL     1      11.503   3.340  11.495  1.00  0.00     0.173 A 
ATOM     62  C   UNL     1       9.541   4.133  12.641  1.00  0.00     0.173 A 
ATOM     63  F   UNL     1      12.097   2.789  10.425  1.00  0.00    -0.203 F 
ATOM     64  C   UNL     1      12.277   3.648  12.608  1.00  0.00     0.198 A 
ATOM     65  C   UNL     1      10.323   4.468  13.741  1.00  0.00     0.198 A 
ATOM     66  F   UNL     1       8.222   4.377  12.682  1.00  0.00    -0.203 F 
ATOM     67  F   UNL     1      13.591   3.385  12.601  1.00  0.00    -0.200 F 
ATOM     68  C   UNL     1      11.688   4.214  13.728  1.00  0.00     0.200 A 
ATOM     69  F   UNL     1       9.758   5.037  14.815  1.00  0.00    -0.200 F 
ATOM     70  F   UNL     1      12.435   4.515  14.799  1.00  0.00    -0.200 F 
ENDBRANCH  37  60
ENDBRANCH  11  12
ENDBRANCH   4   6
ENDBRANCH   3   4
ENDBRANCH   2   3
ENDBRANCH   1   2
BRANCH   1  71
ATOM     71  O   UNL     1       4.044   1.428  -1.072  1.00  0.00    -0.374 OA
BRANCH  71  72
ATOM     72  C   UNL     1       2.700   1.915  -1.175  1.00  0.00     0.202 C 
BRANCH  72  73
ATOM     73  C   UNL     1       2.706   3.313  -1.794  1.00  0.00     0.261 C 
BRANCH  73  74
ATOM     74  O   UNL     1       3.221   3.197  -3.126  1.00  0.00    -0.460 OA
BRANCH  74  75
ATOM     75  C   UNL     1       4.566   3.303  -3.230  1.00  0.00     0.341 C 
ATOM     76  O   UNL     1       5.340   3.787  -2.420  1.00  0.00    -0.246 OA
BRANCH  75  77
ATOM     77  C   UNL     1       5.003   2.512  -4.389  1.00  0.00     0.095 A 
ATOM     78  C   UNL     1       6.163   1.735  -4.269  1.00  0.00     0.019 A 
ATOM     79  C   UNL     1       4.281   2.500  -5.576  1.00  0.00     0.138 A 
ATOM     80  C   UNL     1       6.608   0.974  -5.352  1.00  0.00     0.010 A 
ATOM     81  C   UNL     1       4.729   1.754  -6.659  1.00  0.00     0.049 A 
ATOM     82  F   UNL     1       3.175   3.242  -5.730  1.00  0.00    -0.206 F 
ATOM     83  C   UNL     1       5.918   1.012  -6.572  1.00  0.00    -0.015 A 
BRANCH  83  84
ATOM     84  C   UNL     1       6.503   0.444  -7.785  1.00  0.00    -0.018 A 
ATOM     85  C   UNL     1       7.033   1.329  -8.742  1.00  0.00     0.010 A 
ATOM     86  C   UNL     1       6.556  -0.933  -8.034  1.00  0.00     0.010 A 
ATOM     87  C   UNL     1       7.592   0.856  -9.926  1.00  0.00     0.021 A 
ATOM     88  C   UNL     1       7.116  -1.409  -9.226  1.00  0.00     0.021 A 
ATOM     89  C   UNL     1       7.628  -0.513 -10.165  1.00  0.00     0.041 A 
ATOM     90  Cl  UNL     1       8.307  -1.098 -11.633  1.00  0.00    -0.084 Cl
ENDBRANCH  83  84
ENDBRANCH  75  77
ENDBRANCH  74  75
ENDBRANCH  73  74
ENDBRANCH  72  73
ENDBRANCH  71  72
ENDBRANCH   1  71
TORSDOF 15
