REMARK SMILES O=C(Cc1c[nH]c(=O)n(Cc2ccccc2)c1=O)OCCOCCOC(=O)c1ccc(-c2c3nc(c(-c4c(F)c(F)c(F)c(F)c4F)c4ccc([nH]4)c(-c4c(F)c(F)c(F)c(F)c4F)c4nc(c(-c5c(F)c(F)c(F)c(F)c5F)c5ccc2[nH]5)C=C4)C=C3)cc1
REMARK SMILES IDX 21 1 20 2 19 3 2 4 1 5 3 6 4 7 5 8 17 9 6 10 9 11 18 12 7 13
REMARK SMILES IDX 8 15 10 16 11 17 12 18 16 19 13 20 15 21 14 22 22 23 23 24
REMARK SMILES IDX 24 25 25 26 26 27 27 28 28 29 29 30 90 31 30 32 89 33 31 34
REMARK SMILES IDX 32 35 33 36 83 37 34 38 88 39 82 40 84 41 35 42 87 43 81 44
REMARK SMILES IDX 80 45 36 47 68 48 48 49 67 50 49 51 52 52 66 53 85 54 50 55
REMARK SMILES IDX 51 56 65 58 86 59 53 60 37 61 38 62 46 63 39 64 40 65 44 66
REMARK SMILES IDX 47 67 41 68 42 69 45 70 43 71 69 72 70 73 78 74 71 75 72 76
REMARK SMILES IDX 76 77 79 78 73 79 74 80 77 81 75 82 54 83 55 84 63 85 56 86
REMARK SMILES IDX 57 87 61 88 64 89 58 90 59 91 62 92 60 93
REMARK H PARENT 6 14 84 46 52 57
REMARK Flexibility Score: inf
ROOT
ATOM      1  C   UNL     1       4.670  -0.219   1.074  1.00  0.00     0.202 C 
ENDROOT
BRANCH   1   2
ATOM      2  C   UNL     1       4.140   0.848   0.131  1.00  0.00     0.261 C 
BRANCH   2   3
ATOM      3  O   UNL     1       2.704   0.953   0.083  1.00  0.00    -0.463 OA
BRANCH   3   4
ATOM      4  C   UNL     1       1.870   0.342  -0.795  1.00  0.00     0.310 C 
ATOM      5  O   UNL     1       0.665   0.591  -0.755  1.00  0.00    -0.252 OA
BRANCH   4   6
ATOM      6  C   UNL     1       2.416  -0.661  -1.794  1.00  0.00     0.165 C 
BRANCH   6   7
ATOM      7  C   UNL     1       3.440  -0.104  -2.732  1.00  0.00     0.045 A 
ATOM      8  C   UNL     1       3.564   1.191  -3.049  1.00  0.00     0.097 A 
ATOM      9  C   UNL     1       4.486  -1.053  -3.211  1.00  0.00     0.260 A 
ATOM     10  N   UNL     1       4.719   1.662  -3.590  1.00  0.00    -0.314 N 
ATOM     11  N   UNL     1       5.559  -0.487  -3.871  1.00  0.00    -0.256 N 
ATOM     12  O   UNL     1       4.356  -2.258  -3.008  1.00  0.00    -0.269 OA
ATOM     13  C   UNL     1       5.787   0.875  -3.922  1.00  0.00     0.328 A 
ATOM     14  H   UNL     1       4.792   2.631  -3.751  1.00  0.00     0.171 HD
ATOM     15  O   UNL     1       6.845   1.400  -4.261  1.00  0.00    -0.248 OA
BRANCH  11  16
ATOM     16  C   UNL     1       6.421  -1.350  -4.664  1.00  0.00     0.166 C 
BRANCH  16  17
ATOM     17  C   UNL     1       5.854  -1.415  -6.075  1.00  0.00    -0.028 A 
ATOM     18  C   UNL     1       5.876  -0.273  -6.894  1.00  0.00     0.005 A 
ATOM     19  C   UNL     1       5.175  -2.554  -6.526  1.00  0.00     0.005 A 
ATOM     20  C   UNL     1       5.185  -0.244  -8.102  1.00  0.00     0.000 A 
ATOM     21  C   UNL     1       4.511  -2.534  -7.755  1.00  0.00     0.000 A 
ATOM     22  C   UNL     1       4.500  -1.375  -8.532  1.00  0.00     0.000 A 
ENDBRANCH  16  17
ENDBRANCH  11  16
ENDBRANCH   6   7
ENDBRANCH   4   6
ENDBRANCH   3   4
ENDBRANCH   2   3
ENDBRANCH   1   2
BRANCH   1  23
ATOM     23  O   UNL     1       4.101  -1.512   0.944  1.00  0.00    -0.374 OA
BRANCH  23  24
ATOM     24  C   UNL     1       2.874  -1.750   1.642  1.00  0.00     0.202 C 
BRANCH  24  25
ATOM     25  C   UNL     1       2.977  -1.942   3.159  1.00  0.00     0.261 C 
BRANCH  25  26
ATOM     26  O   UNL     1       3.255  -0.702   3.833  1.00  0.00    -0.460 OA
BRANCH  26  27
ATOM     27  C   UNL     1       4.519  -0.551   4.299  1.00  0.00     0.338 C 
ATOM     28  O   UNL     1       5.417  -1.377   4.281  1.00  0.00    -0.246 OA
BRANCH  27  29
ATOM     29  C   UNL     1       4.735   0.875   4.629  1.00  0.00     0.060 A 
ATOM     30  C   UNL     1       3.753   1.622   5.281  1.00  0.00     0.016 A 
ATOM     31  C   UNL     1       5.951   1.470   4.260  1.00  0.00     0.016 A 
ATOM     32  C   UNL     1       4.011   2.951   5.609  1.00  0.00     0.010 A 
ATOM     33  C   UNL     1       6.214   2.798   4.599  1.00  0.00     0.010 A 
ATOM     34  C   UNL     1       5.255   3.536   5.305  1.00  0.00    -0.014 A 
BRANCH  34  35
ATOM     35  C   UNL     1       5.588   4.853   5.897  1.00  0.00     0.031 A 
ATOM     36  C   UNL     1       5.619   6.104   5.081  1.00  0.00     0.074 A 
ATOM     37  C   UNL     1       5.828   4.894   7.221  1.00  0.00     0.049 A 
ATOM     38  N   UNL     1       5.712   7.345   5.488  1.00  0.00    -0.248 NA
ATOM     39  C   UNL     1       5.546   5.950   3.622  1.00  0.00     0.031 C 
ATOM     40  C   UNL     1       5.875   3.720   8.095  1.00  0.00     0.029 A 
ATOM     41  N   UNL     1       6.041   5.951   8.067  1.00  0.00    -0.354 N 
ATOM     42  C   UNL     1       5.680   8.123   4.342  1.00  0.00     0.074 A 
ATOM     43  C   UNL     1       5.623   7.212   3.217  1.00  0.00     0.031 C 
ATOM     44  C   UNL     1       6.037   4.124   9.362  1.00  0.00     0.029 A 
ATOM     45  C   UNL     1       6.136   5.580   9.386  1.00  0.00     0.049 A 
ATOM     46  H   UNL     1       6.119   6.883   7.760  1.00  0.00     0.167 HD
ATOM     47  C   UNL     1       5.673   9.475   4.248  1.00  0.00     0.037 A 
ATOM     48  C   UNL     1       6.267   6.331  10.496  1.00  0.00     0.037 A 
ATOM     49  C   UNL     1       5.751  10.363   5.381  1.00  0.00     0.049 A 
ATOM     50  C   UNL     1       6.293   7.827  10.361  1.00  0.00     0.074 A 
ATOM     51  C   UNL     1       5.709  11.746   5.397  1.00  0.00     0.029 A 
ATOM     52  N   UNL     1       5.906   9.954   6.700  1.00  0.00    -0.354 N 
ATOM     53  N   UNL     1       6.159   8.559   9.282  1.00  0.00    -0.248 NA
ATOM     54  C   UNL     1       6.486   8.601  11.594  1.00  0.00     0.031 C 
ATOM     55  C   UNL     1       5.901  12.175   6.714  1.00  0.00     0.029 A 
ATOM     56  C   UNL     1       6.002  11.060   7.531  1.00  0.00     0.049 A 
ATOM     57  H   UNL     1       5.942   9.017   7.000  1.00  0.00     0.167 HD
ATOM     58  C   UNL     1       6.238   9.879   9.704  1.00  0.00     0.074 A 
ATOM     59  C   UNL     1       6.409   9.846  11.142  1.00  0.00     0.031 C 
ATOM     60  C   UNL     1       6.180  11.012   8.962  1.00  0.00     0.037 A 
BRANCH  47  61
ATOM     61  C   UNL     1       5.569  10.080   2.878  1.00  0.00     0.064 A 
ATOM     62  C   UNL     1       4.389   9.985   2.124  1.00  0.00     0.173 A 
ATOM     63  C   UNL     1       6.634  10.816   2.335  1.00  0.00     0.173 A 
ATOM     64  F   UNL     1       3.342   9.290   2.594  1.00  0.00    -0.203 F 
ATOM     65  C   UNL     1       4.288  10.579   0.869  1.00  0.00     0.198 A 
ATOM     66  C   UNL     1       6.519  11.435   1.092  1.00  0.00     0.198 A 
ATOM     67  F   UNL     1       7.782  10.948   3.015  1.00  0.00    -0.203 F 
ATOM     68  F   UNL     1       3.166  10.436   0.150  1.00  0.00    -0.200 F 
ATOM     69  C   UNL     1       5.349  11.310   0.357  1.00  0.00     0.200 A 
ATOM     70  F   UNL     1       7.540  12.154   0.606  1.00  0.00    -0.200 F 
ATOM     71  F   UNL     1       5.247  11.890  -0.847  1.00  0.00    -0.200 F 
ENDBRANCH  47  61
BRANCH  48  72
ATOM     72  C   UNL     1       6.326   5.665  11.822  1.00  0.00     0.064 A 
ATOM     73  C   UNL     1       5.262   5.769  12.728  1.00  0.00     0.173 A 
ATOM     74  C   UNL     1       7.418   4.863  12.186  1.00  0.00     0.173 A 
ATOM     75  F   UNL     1       4.202   6.535  12.431  1.00  0.00    -0.203 F 
ATOM     76  C   UNL     1       5.290   5.098  13.949  1.00  0.00     0.198 A 
ATOM     77  C   UNL     1       7.431   4.170  13.394  1.00  0.00     0.198 A 
ATOM     78  F   UNL     1       8.457   4.723  11.349  1.00  0.00    -0.203 F 
ATOM     79  F   UNL     1       4.270   5.233  14.808  1.00  0.00    -0.200 F 
ATOM     80  C   UNL     1       6.369   4.291  14.277  1.00  0.00     0.200 A 
ATOM     81  F   UNL     1       8.466   3.375  13.696  1.00  0.00    -0.200 F 
ATOM     82  F   UNL     1       6.384   3.629  15.441  1.00  0.00    -0.200 F 
ENDBRANCH  48  72
BRANCH  60  83
ATOM     83  C   UNL     1       6.311  12.322   9.684  1.00  0.00     0.064 A 
ATOM     84  C   UNL     1       7.541  12.748  10.206  1.00  0.00     0.173 A 
ATOM     85  C   UNL     1       5.220  13.202   9.770  1.00  0.00     0.173 A 
ATOM     86  F   UNL     1       8.609  11.938  10.162  1.00  0.00    -0.203 F 
ATOM     87  C   UNL     1       7.674  14.004  10.792  1.00  0.00     0.198 A 
ATOM     88  C   UNL     1       5.364  14.469  10.329  1.00  0.00     0.198 A 
ATOM     89  F   UNL     1       4.023  12.845   9.281  1.00  0.00    -0.203 F 
ATOM     90  F   UNL     1       8.852  14.379  11.308  1.00  0.00    -0.200 F 
ATOM     91  C   UNL     1       6.590  14.868  10.840  1.00  0.00     0.200 A 
ATOM     92  F   UNL     1       4.321  15.309  10.358  1.00  0.00    -0.200 F 
ATOM     93  F   UNL     1       6.727  16.087  11.380  1.00  0.00    -0.200 F 
ENDBRANCH  60  83
ENDBRANCH  34  35
ENDBRANCH  27  29
ENDBRANCH  26  27
ENDBRANCH  25  26
ENDBRANCH  24  25
ENDBRANCH  23  24
ENDBRANCH   1  23
TORSDOF 17
