REMARK SMILES CC[C@@H](C)N(C)C(=O)N1[C@@H](C(=O)OCCOCCOC(=O)c2ccc(-c3c4nc(c(-c5c(F)c(F)c(F)c(F)c5F)c5ccc([nH]5)c(-c5c(F)c(F)c(F)c(F)c5F)c5nc(c(-c6c(F)c(F)c(F)c(F)c6F)c6ccc3[nH]6)C=C5)C=C4)cc2)CC[C@H]2CCCC[C@H]21
REMARK SMILES IDX 15 1 14 2 13 3 11 4 12 5 10 6 9 7 92 8 85 9 87 10 91 11
REMARK SMILES IDX 86 12 88 13 90 14 89 15 7 16 8 17 5 18 6 19 3 20 4 21 2 22
REMARK SMILES IDX 1 23 16 24 17 25 18 26 19 27 20 28 21 29 22 30 23 31 84 32
REMARK SMILES IDX 24 33 83 34 25 35 26 36 27 37 77 38 28 39 82 40 76 41 78 42
REMARK SMILES IDX 29 43 81 44 75 45 74 46 30 48 62 49 42 50 61 51 43 52 46 53
REMARK SMILES IDX 60 54 79 55 44 56 45 57 59 59 80 60 47 61 31 62 32 63 40 64
REMARK SMILES IDX 33 65 34 66 38 67 41 68 35 69 36 70 39 71 37 72 63 73 64 74
REMARK SMILES IDX 72 75 65 76 66 77 70 78 73 79 67 80 68 81 71 82 69 83 48 84
REMARK SMILES IDX 49 85 57 86 50 87 51 88 55 89 58 90 52 91 53 92 56 93 54 94
REMARK H PARENT 78 47 46 58
REMARK Flexibility Score: inf
ROOT
ATOM      1  C   UNL     1       2.076   1.521   7.536  1.00  0.00     0.202 C 
ENDROOT
BRANCH   1   2
ATOM      2  C   UNL     1       1.811   0.838   6.195  1.00  0.00     0.261 C 
BRANCH   2   3
ATOM      3  O   UNL     1       0.537   0.176   6.163  1.00  0.00    -0.462 OA
BRANCH   3   4
ATOM      4  C   UNL     1       0.580  -1.182   6.256  1.00  0.00     0.329 C 
ATOM      5  O   UNL     1       1.594  -1.842   6.455  1.00  0.00    -0.250 OA
BRANCH   4   6
ATOM      6  C   UNL     1      -0.802  -1.813   6.043  1.00  0.00     0.197 C 
ATOM      7  N   UNL     1      -1.303  -1.914   4.659  1.00  0.00    -0.308 N 
ATOM      8  C   UNL     1      -2.581  -2.639   4.532  1.00  0.00     0.091 C 
ATOM      9  C   UNL     1      -1.857  -1.226   6.987  1.00  0.00     0.038 C 
ATOM     10  C   UNL     1      -3.677  -2.223   5.529  1.00  0.00     0.012 C 
ATOM     11  C   UNL     1      -3.158  -2.786   3.122  1.00  0.00     0.025 C 
ATOM     12  C   UNL     1      -3.122  -2.083   6.954  1.00  0.00     0.008 C 
ATOM     13  C   UNL     1      -4.480  -0.981   5.140  1.00  0.00     0.006 C 
ATOM     14  C   UNL     1      -4.112  -1.693   2.646  1.00  0.00     0.002 C 
ATOM     15  C   UNL     1      -4.622  -0.674   3.658  1.00  0.00     0.000 C 
BRANCH   7  16
ATOM     16  C   UNL     1      -0.944  -0.938   3.746  1.00  0.00     0.320 C 
ATOM     17  O   UNL     1      -1.741  -0.085   3.372  1.00  0.00    -0.248 OA
BRANCH  16  18
ATOM     18  N   UNL     1       0.351  -1.036   3.232  1.00  0.00    -0.325 N 
ATOM     19  C   UNL     1       1.247  -2.170   3.474  1.00  0.00     0.149 C 
BRANCH  18  20
ATOM     20  C   UNL     1       0.797  -0.124   2.154  1.00  0.00     0.083 C 
ATOM     21  C   UNL     1       0.471   1.357   2.382  1.00  0.00     0.031 C 
BRANCH  20  22
ATOM     22  C   UNL     1       0.292  -0.634   0.790  1.00  0.00     0.021 C 
ATOM     23  C   UNL     1       0.924   0.079  -0.395  1.00  0.00     0.006 C 
ENDBRANCH  20  22
ENDBRANCH  18  20
ENDBRANCH  16  18
ENDBRANCH   7  16
ENDBRANCH   4   6
ENDBRANCH   3   4
ENDBRANCH   2   3
ENDBRANCH   1   2
BRANCH   1  24
ATOM     24  O   UNL     1       2.267   0.662   8.657  1.00  0.00    -0.374 OA
BRANCH  24  25
ATOM     25  C   UNL     1       1.096   0.124   9.269  1.00  0.00     0.202 C 
BRANCH  25  26
ATOM     26  C   UNL     1       0.336   1.060  10.214  1.00  0.00     0.261 C 
BRANCH  26  27
ATOM     27  O   UNL     1      -0.302   2.138   9.502  1.00  0.00    -0.460 OA
BRANCH  27  28
ATOM     28  C   UNL     1       0.245   3.357   9.710  1.00  0.00     0.338 C 
ATOM     29  O   UNL     1       1.149   3.643  10.485  1.00  0.00    -0.246 OA
BRANCH  28  30
ATOM     30  C   UNL     1      -0.278   4.326   8.730  1.00  0.00     0.060 A 
ATOM     31  C   UNL     1       0.657   5.068   7.996  1.00  0.00     0.016 A 
ATOM     32  C   UNL     1      -1.645   4.569   8.589  1.00  0.00     0.016 A 
ATOM     33  C   UNL     1       0.232   6.093   7.156  1.00  0.00     0.010 A 
ATOM     34  C   UNL     1      -2.071   5.608   7.754  1.00  0.00     0.010 A 
ATOM     35  C   UNL     1      -1.133   6.396   7.064  1.00  0.00    -0.014 A 
BRANCH  35  36
ATOM     36  C   UNL     1      -1.561   7.625   6.356  1.00  0.00     0.031 A 
ATOM     37  C   UNL     1      -1.842   8.867   7.154  1.00  0.00     0.074 A 
ATOM     38  C   UNL     1      -1.671   7.640   5.016  1.00  0.00     0.049 A 
ATOM     39  N   UNL     1      -2.272  10.036   6.752  1.00  0.00    -0.248 NA
ATOM     40  C   UNL     1      -1.604   8.780   8.604  1.00  0.00     0.031 C 
ATOM     41  C   UNL     1      -1.378   6.513   4.134  1.00  0.00     0.029 A 
ATOM     42  N   UNL     1      -2.069   8.642   4.167  1.00  0.00    -0.354 N 
ATOM     43  C   UNL     1      -2.364  10.818   7.895  1.00  0.00     0.074 A 
ATOM     44  C   UNL     1      -1.966   9.988   9.011  1.00  0.00     0.031 C 
ATOM     45  C   UNL     1      -1.617   6.882   2.864  1.00  0.00     0.029 A 
ATOM     46  C   UNL     1      -2.115   8.256   2.850  1.00  0.00     0.049 A 
ATOM     47  H   UNL     1      -2.298   9.549   4.472  1.00  0.00     0.167 HD
ATOM     48  C   UNL     1      -2.741  12.114   8.000  1.00  0.00     0.037 A 
ATOM     49  C   UNL     1      -2.542   8.930   1.765  1.00  0.00     0.037 A 
ATOM     50  C   UNL     1      -3.131  12.937   6.885  1.00  0.00     0.049 A 
ATOM     51  C   UNL     1      -3.047  10.340   1.923  1.00  0.00     0.074 A 
ATOM     52  C   UNL     1      -3.488  14.273   6.881  1.00  0.00     0.029 A 
ATOM     53  N   UNL     1      -3.226  12.493   5.575  1.00  0.00    -0.354 N 
ATOM     54  N   UNL     1      -3.103  11.084   3.001  1.00  0.00    -0.248 NA
ATOM     55  C   UNL     1      -3.559  10.999   0.713  1.00  0.00     0.031 C 
ATOM     56  C   UNL     1      -3.855  14.623   5.577  1.00  0.00     0.029 A 
ATOM     57  C   UNL     1      -3.679  13.518   4.760  1.00  0.00     0.049 A 
ATOM     58  H   UNL     1      -3.005  11.584   5.269  1.00  0.00     0.167 HD
ATOM     59  C   UNL     1      -3.640  12.300   2.599  1.00  0.00     0.074 A 
ATOM     60  C   UNL     1      -3.875  12.202   1.173  1.00  0.00     0.031 C 
ATOM     61  C   UNL     1      -3.917  13.399   3.344  1.00  0.00     0.037 A 
BRANCH  48  62
ATOM     62  C   UNL     1      -2.782  12.717   9.373  1.00  0.00     0.064 A 
ATOM     63  C   UNL     1      -1.611  13.030  10.080  1.00  0.00     0.173 A 
ATOM     64  C   UNL     1      -4.013  13.024   9.974  1.00  0.00     0.173 A 
ATOM     65  F   UNL     1      -0.410  12.745   9.555  1.00  0.00    -0.203 F 
ATOM     66  C   UNL     1      -1.672  13.607  11.346  1.00  0.00     0.198 A 
ATOM     67  C   UNL     1      -4.069  13.625  11.228  1.00  0.00     0.198 A 
ATOM     68  F   UNL     1      -5.162  12.749   9.339  1.00  0.00    -0.203 F 
ATOM     69  F   UNL     1      -0.541  13.860  12.020  1.00  0.00    -0.200 F 
ATOM     70  C   UNL     1      -2.899  13.910  11.916  1.00  0.00     0.200 A 
ATOM     71  F   UNL     1      -5.256  13.927  11.772  1.00  0.00    -0.200 F 
ATOM     72  F   UNL     1      -2.955  14.473  13.131  1.00  0.00    -0.200 F 
ENDBRANCH  48  62
BRANCH  49  73
ATOM     73  C   UNL     1      -2.537   8.269   0.434  1.00  0.00     0.064 A 
ATOM     74  C   UNL     1      -1.666   8.691  -0.579  1.00  0.00     0.173 A 
ATOM     75  C   UNL     1      -3.411   7.210   0.145  1.00  0.00     0.173 A 
ATOM     76  F   UNL     1      -0.833   9.719  -0.360  1.00  0.00    -0.203 F 
ATOM     77  C   UNL     1      -1.676   8.086  -1.834  1.00  0.00     0.198 A 
ATOM     78  C   UNL     1      -3.402   6.589  -1.101  1.00  0.00     0.198 A 
ATOM     79  F   UNL     1      -4.271   6.776   1.078  1.00  0.00    -0.203 F 
ATOM     80  F   UNL     1      -0.863   8.536  -2.799  1.00  0.00    -0.200 F 
ATOM     81  C   UNL     1      -2.539   7.031  -2.092  1.00  0.00     0.200 A 
ATOM     82  F   UNL     1      -4.233   5.566  -1.344  1.00  0.00    -0.200 F 
ATOM     83  F   UNL     1      -2.546   6.448  -3.299  1.00  0.00    -0.200 F 
ENDBRANCH  49  73
BRANCH  61  84
ATOM     84  C   UNL     1      -4.499  14.585   2.631  1.00  0.00     0.064 A 
ATOM     85  C   UNL     1      -5.827  14.586   2.179  1.00  0.00     0.173 A 
ATOM     86  C   UNL     1      -3.738  15.747   2.438  1.00  0.00     0.173 A 
ATOM     87  F   UNL     1      -6.590  13.492   2.326  1.00  0.00    -0.203 F 
ATOM     88  C   UNL     1      -6.364  15.700   1.541  1.00  0.00     0.198 A 
ATOM     89  C   UNL     1      -4.287  16.870   1.826  1.00  0.00     0.198 A 
ATOM     90  F   UNL     1      -2.465  15.800   2.858  1.00  0.00    -0.203 F 
ATOM     91  F   UNL     1      -7.622  15.664   1.079  1.00  0.00    -0.200 F 
ATOM     92  C   UNL     1      -5.597  16.844   1.372  1.00  0.00     0.200 A 
ATOM     93  F   UNL     1      -3.549  17.979   1.675  1.00  0.00    -0.200 F 
ATOM     94  F   UNL     1      -6.120  17.919   0.766  1.00  0.00    -0.200 F 
ENDBRANCH  61  84
ENDBRANCH  35  36
ENDBRANCH  28  30
ENDBRANCH  27  28
ENDBRANCH  26  27
ENDBRANCH  25  26
ENDBRANCH  24  25
ENDBRANCH   1  24
TORSDOF 18
