REMARK SMILES O=C(OCCOCCOC(=O)[C@@H]1C[C@@H]2CC(=O)[C@H]1C2)c1ccc(-c2c3nc(c(-c4c(F)c(F)c(F)c(F)c4F)c4ccc([nH]4)c(-c4c(F)c(F)c(F)c(F)c4F)c4nc(c(-c5c(F)c(F)c(F)c(F)c5F)c5ccc2[nH]5)C=C4)C=C3)cc1
REMARK SMILES IDX 5 1 4 2 3 3 2 4 1 5 20 6 21 7 82 8 22 9 81 10 23 11 24 12
REMARK SMILES IDX 25 13 75 14 26 15 80 16 74 17 76 18 27 19 79 20 73 21 72 22
REMARK SMILES IDX 28 24 60 25 40 26 59 27 41 28 44 29 58 30 77 31 42 32 43 33
REMARK SMILES IDX 57 35 78 36 45 37 29 38 30 39 38 40 31 41 32 42 36 43 39 44
REMARK SMILES IDX 33 45 34 46 37 47 35 48 61 49 62 50 70 51 63 52 64 53 68 54
REMARK SMILES IDX 71 55 65 56 66 57 69 58 67 59 46 60 47 61 55 62 48 63 49 64
REMARK SMILES IDX 53 65 56 66 50 67 51 68 54 69 52 70 6 71 7 72 8 73 9 74
REMARK SMILES IDX 10 75 11 76 12 77 13 78 18 79 14 80 16 81 19 82 15 83 17 84
REMARK H PARENT 76 23 44 34
REMARK Flexibility Score: inf
ROOT
ATOM      1  C   UNL     1       4.374   0.966   0.621  1.00  0.00     0.202 C 
ENDROOT
BRANCH   1   2
ATOM      2  C   UNL     1       3.975   0.481  -0.780  1.00  0.00     0.261 C 
BRANCH   2   3
ATOM      3  O   UNL     1       2.540   0.352  -0.915  1.00  0.00    -0.460 OA
BRANCH   3   4
ATOM      4  C   UNL     1       1.823  -0.803  -0.923  1.00  0.00     0.338 C 
ATOM      5  O   UNL     1       0.615  -0.802  -1.110  1.00  0.00    -0.246 OA
BRANCH   4   6
ATOM      6  C   UNL     1       2.530  -2.090  -0.750  1.00  0.00     0.060 A 
ATOM      7  C   UNL     1       3.520  -2.224   0.208  1.00  0.00     0.016 A 
ATOM      8  C   UNL     1       2.206  -3.196  -1.533  1.00  0.00     0.016 A 
ATOM      9  C   UNL     1       4.367  -3.294   0.233  1.00  0.00     0.010 A 
ATOM     10  C   UNL     1       2.932  -4.381  -1.373  1.00  0.00     0.010 A 
ATOM     11  C   UNL     1       4.035  -4.414  -0.504  1.00  0.00    -0.014 A 
BRANCH  11  12
ATOM     12  C   UNL     1       4.922  -5.570  -0.338  1.00  0.00     0.031 A 
ATOM     13  C   UNL     1       5.737  -6.004  -1.506  1.00  0.00     0.074 A 
ATOM     14  C   UNL     1       5.094  -6.081   0.898  1.00  0.00     0.049 A 
ATOM     15  N   UNL     1       6.485  -7.062  -1.637  1.00  0.00    -0.248 NA
ATOM     16  C   UNL     1       5.710  -5.128  -2.691  1.00  0.00     0.031 C 
ATOM     17  C   UNL     1       4.452  -5.580   2.123  1.00  0.00     0.029 A 
ATOM     18  N   UNL     1       5.893  -7.095   1.345  1.00  0.00    -0.354 N 
ATOM     19  C   UNL     1       6.959  -7.018  -2.938  1.00  0.00     0.074 A 
ATOM     20  C   UNL     1       6.433  -5.822  -3.555  1.00  0.00     0.031 C 
ATOM     21  C   UNL     1       4.925  -6.251   3.181  1.00  0.00     0.029 A 
ATOM     22  C   UNL     1       5.785  -7.316   2.697  1.00  0.00     0.049 A 
ATOM     23  H   UNL     1       6.487  -7.615   0.757  1.00  0.00     0.167 HD
ATOM     24  C   UNL     1       7.748  -7.928  -3.549  1.00  0.00     0.037 A 
ATOM     25  C   UNL     1       6.274  -8.322   3.441  1.00  0.00     0.037 A 
ATOM     26  C   UNL     1       8.255  -9.088  -2.867  1.00  0.00     0.049 A 
ATOM     27  C   UNL     1       7.063  -9.374   2.714  1.00  0.00     0.074 A 
ATOM     28  C   UNL     1       9.002 -10.135  -3.368  1.00  0.00     0.029 A 
ATOM     29  N   UNL     1       8.060  -9.341  -1.512  1.00  0.00    -0.354 N 
ATOM     30  N   UNL     1       7.415  -9.412   1.450  1.00  0.00    -0.248 NA
ATOM     31  C   UNL     1       7.495 -10.532   3.499  1.00  0.00     0.031 C 
ATOM     32  C   UNL     1       9.216 -11.045  -2.327  1.00  0.00     0.029 A 
ATOM     33  C   UNL     1       8.660 -10.536  -1.161  1.00  0.00     0.049 A 
ATOM     34  H   UNL     1       7.568  -8.754  -0.893  1.00  0.00     0.167 HD
ATOM     35  C   UNL     1       8.125 -10.588   1.286  1.00  0.00     0.074 A 
ATOM     36  C   UNL     1       8.171 -11.223   2.591  1.00  0.00     0.031 C 
ATOM     37  C   UNL     1       8.684 -11.108   0.164  1.00  0.00     0.037 A 
BRANCH  24  38
ATOM     38  C   UNL     1       8.001  -7.741  -5.014  1.00  0.00     0.064 A 
ATOM     39  C   UNL     1       8.797  -6.700  -5.514  1.00  0.00     0.173 A 
ATOM     40  C   UNL     1       7.382  -8.593  -5.942  1.00  0.00     0.173 A 
ATOM     41  F   UNL     1       9.382  -5.833  -4.673  1.00  0.00    -0.203 F 
ATOM     42  C   UNL     1       8.938  -6.500  -6.886  1.00  0.00     0.198 A 
ATOM     43  C   UNL     1       7.549  -8.409  -7.312  1.00  0.00     0.198 A 
ATOM     44  F   UNL     1       6.596  -9.596  -5.520  1.00  0.00    -0.203 F 
ATOM     45  F   UNL     1       9.646  -5.457  -7.341  1.00  0.00    -0.200 F 
ATOM     46  C   UNL     1       8.317  -7.357  -7.783  1.00  0.00     0.200 A 
ATOM     47  F   UNL     1       6.948  -9.240  -8.175  1.00  0.00    -0.200 F 
ATOM     48  F   UNL     1       8.445  -7.157  -9.102  1.00  0.00    -0.200 F 
ENDBRANCH  24  38
BRANCH  25  49
ATOM     49  C   UNL     1       5.953  -8.423   4.890  1.00  0.00     0.064 A 
ATOM     50  C   UNL     1       6.960  -8.374   5.863  1.00  0.00     0.173 A 
ATOM     51  C   UNL     1       4.629  -8.575   5.338  1.00  0.00     0.173 A 
ATOM     52  F   UNL     1       8.242  -8.246   5.493  1.00  0.00    -0.203 F 
ATOM     53  C   UNL     1       6.659  -8.495   7.220  1.00  0.00     0.198 A 
ATOM     54  C   UNL     1       4.326  -8.658   6.696  1.00  0.00     0.198 A 
ATOM     55  F   UNL     1       3.620  -8.627   4.456  1.00  0.00    -0.203 F 
ATOM     56  F   UNL     1       7.648  -8.498   8.124  1.00  0.00    -0.200 F 
ATOM     57  C   UNL     1       5.343  -8.630   7.636  1.00  0.00     0.200 A 
ATOM     58  F   UNL     1       3.050  -8.768   7.090  1.00  0.00    -0.200 F 
ATOM     59  F   UNL     1       5.056  -8.744   8.940  1.00  0.00    -0.200 F 
ENDBRANCH  25  49
BRANCH  37  60
ATOM     60  C   UNL     1       9.432 -12.393   0.330  1.00  0.00     0.064 A 
ATOM     61  C   UNL     1       8.770 -13.609   0.546  1.00  0.00     0.173 A 
ATOM     62  C   UNL     1      10.831 -12.406   0.221  1.00  0.00     0.173 A 
ATOM     63  F   UNL     1       7.435 -13.638   0.676  1.00  0.00    -0.203 F 
ATOM     64  C   UNL     1       9.486 -14.794   0.670  1.00  0.00     0.198 A 
ATOM     65  C   UNL     1      11.539 -13.597   0.309  1.00  0.00     0.198 A 
ATOM     66  F   UNL     1      11.504 -11.265   0.009  1.00  0.00    -0.203 F 
ATOM     67  F   UNL     1       8.841 -15.939   0.927  1.00  0.00    -0.200 F 
ATOM     68  C   UNL     1      10.868 -14.789   0.541  1.00  0.00     0.200 A 
ATOM     69  F   UNL     1      12.871 -13.593   0.167  1.00  0.00    -0.200 F 
ATOM     70  F   UNL     1      11.555 -15.934   0.647  1.00  0.00    -0.200 F 
ENDBRANCH  37  60
ENDBRANCH  11  12
ENDBRANCH   4   6
ENDBRANCH   3   4
ENDBRANCH   2   3
ENDBRANCH   1   2
BRANCH   1  71
ATOM     71  O   UNL     1       3.839   0.283   1.752  1.00  0.00    -0.374 OA
BRANCH  71  72
ATOM     72  C   UNL     1       2.517   0.687   2.123  1.00  0.00     0.202 C 
BRANCH  72  73
ATOM     73  C   UNL     1       2.562   1.593   3.348  1.00  0.00     0.261 C 
BRANCH  73  74
ATOM     74  O   UNL     1       3.345   2.771   3.053  1.00  0.00    -0.463 OA
BRANCH  74  75
ATOM     75  C   UNL     1       4.663   2.654   3.354  1.00  0.00     0.309 C 
ATOM     76  O   UNL     1       5.168   1.720   3.969  1.00  0.00    -0.252 OA
BRANCH  75  77
ATOM     77  C   UNL     1       5.499   3.794   2.829  1.00  0.00     0.110 C 
ATOM     78  C   UNL     1       5.043   5.226   3.130  1.00  0.00     0.020 C 
ATOM     79  C   UNL     1       5.851   3.846   1.334  1.00  0.00     0.070 C 
ATOM     80  C   UNL     1       5.526   6.002   1.877  1.00  0.00    -0.002 C 
ATOM     81  C   UNL     1       4.713   4.393   0.467  1.00  0.00     0.137 C 
ATOM     82  C   UNL     1       6.679   5.136   1.337  1.00  0.00     0.016 C 
ATOM     83  C   UNL     1       4.475   5.845   0.770  1.00  0.00     0.079 C 
ATOM     84  O   UNL     1       4.134   3.789  -0.427  1.00  0.00    -0.299 OA
ENDBRANCH  75  77
ENDBRANCH  74  75
ENDBRANCH  73  74
ENDBRANCH  72  73
ENDBRANCH  71  72
ENDBRANCH   1  71
TORSDOF 14
