REMARK SMILES C[C@H](C(=O)Nc1ccc(C(F)(F)F)cc1)n1nc(C(=O)OCCOCCOC(=O)c2ccc(-c3c4nc(c(-c5c(F)c(F)c(F)c(F)c5F)c5ccc([nH]5)c(-c5c(F)c(F)c(F)c(F)c5F)c5nc(c(-c6c(F)c(F)c(F)c(F)c6F)c6ccc3[nH]6)C=C5)C=C4)cc2)c2ccccc2c1=O
REMARK SMILES IDX 23 1 22 2 21 3 19 4 20 5 18 6 16 7 17 8 99 9 98 10 100 11
REMARK SMILES IDX 93 12 97 13 94 14 96 15 95 16 2 17 1 18 3 19 4 20 5 21 6 23
REMARK SMILES IDX 7 24 15 25 8 26 14 27 9 28 10 29 11 30 12 31 13 32 24 33
REMARK SMILES IDX 25 34 26 35 27 36 28 37 29 38 30 39 31 40 92 41 32 42 91 43
REMARK SMILES IDX 33 44 34 45 35 46 85 47 36 48 90 49 84 50 86 51 37 52 89 53
REMARK SMILES IDX 83 54 82 55 38 57 70 58 50 59 69 60 51 61 54 62 68 63 87 64
REMARK SMILES IDX 52 65 53 66 67 68 88 69 55 70 39 71 40 72 48 73 41 74 42 75
REMARK SMILES IDX 46 76 49 77 43 78 44 79 47 80 45 81 71 82 72 83 80 84 73 85
REMARK SMILES IDX 74 86 78 87 81 88 75 89 76 90 79 91 77 92 56 93 57 94 65 95
REMARK SMILES IDX 58 96 59 97 63 98 66 99 60 100 61 101 64 102 62 103
REMARK H PARENT 5 22 86 56 54 67
REMARK Flexibility Score: inf
ROOT
ATOM      1  C   UNL     1      -5.606  -3.185  -3.348  1.00  0.00     0.202 C 
ENDROOT
BRANCH   1   2
ATOM      2  C   UNL     1      -4.699  -2.036  -2.903  1.00  0.00     0.261 C 
BRANCH   2   3
ATOM      3  O   UNL     1      -3.800  -2.412  -1.852  1.00  0.00    -0.458 OA
BRANCH   3   4
ATOM      4  C   UNL     1      -4.106  -1.870  -0.667  1.00  0.00     0.359 C 
ATOM      5  O   UNL     1      -5.068  -1.164  -0.406  1.00  0.00    -0.244 OA
BRANCH   4   6
ATOM      6  C   UNL     1      -3.037  -2.070   0.389  1.00  0.00     0.176 A 
ATOM      7  N   UNL     1      -1.049  -1.000   0.755  1.00  0.00    -0.216 N 
ATOM      8  N   UNL     1      -1.810  -1.892  -0.014  1.00  0.00    -0.161 NA
ATOM      9  C   UNL     1      -1.700  -0.239   1.722  1.00  0.00     0.275 A 
ATOM     10  C   UNL     1      -2.817  -0.865   2.417  1.00  0.00     0.051 A 
ATOM     11  O   UNL     1      -1.448   0.905   2.048  1.00  0.00    -0.267 OA
ATOM     12  C   UNL     1      -3.482  -1.887   1.778  1.00  0.00     0.022 A 
ATOM     13  C   UNL     1      -3.288  -0.327   3.615  1.00  0.00     0.014 A 
ATOM     14  C   UNL     1      -4.621  -2.446   2.362  1.00  0.00     0.011 A 
ATOM     15  C   UNL     1      -4.439  -0.848   4.188  1.00  0.00     0.001 A 
ATOM     16  C   UNL     1      -5.095  -1.917   3.572  1.00  0.00     0.001 A 
BRANCH   7  17
ATOM     17  C   UNL     1       0.159  -0.485   0.059  1.00  0.00     0.197 C 
ATOM     18  C   UNL     1       1.166  -1.655  -0.056  1.00  0.00     0.044 C 
BRANCH  17  19
ATOM     19  C   UNL     1       0.952   0.691   0.703  1.00  0.00     0.249 C 
ATOM     20  O   UNL     1       1.798   0.481   1.585  1.00  0.00    -0.272 OA
ATOM     21  N   UNL     1       0.766   2.016   0.341  1.00  0.00    -0.324 N 
ATOM     22  H   UNL     1       1.567   2.585   0.282  1.00  0.00     0.170 HD
BRANCH  21  23
ATOM     23  C   UNL     1      -0.477   2.615   0.051  1.00  0.00     0.041 A 
ATOM     24  C   UNL     1      -1.132   2.450  -1.163  1.00  0.00     0.027 A 
ATOM     25  C   UNL     1      -1.107   3.320   1.087  1.00  0.00     0.027 A 
ATOM     26  C   UNL     1      -2.478   2.823  -1.275  1.00  0.00     0.015 A 
ATOM     27  C   UNL     1      -2.470   3.610   1.006  1.00  0.00     0.015 A 
ATOM     28  C   UNL     1      -3.184   3.309  -0.160  1.00  0.00     0.056 A 
BRANCH  28  29
ATOM     29  C   UNL     1      -4.692   3.393  -0.159  1.00  0.00     0.416 C 
ATOM     30  F   UNL     1      -5.159   4.647   0.090  1.00  0.00    -0.166 F 
ATOM     31  F   UNL     1      -5.256   3.010  -1.340  1.00  0.00    -0.166 F 
ATOM     32  F   UNL     1      -5.251   2.592   0.793  1.00  0.00    -0.166 F 
ENDBRANCH  28  29
ENDBRANCH  21  23
ENDBRANCH  17  19
ENDBRANCH   7  17
ENDBRANCH   4   6
ENDBRANCH   3   4
ENDBRANCH   2   3
ENDBRANCH   1   2
BRANCH   1  33
ATOM     33  O   UNL     1      -6.567  -3.697  -2.432  1.00  0.00    -0.374 OA
BRANCH  33  34
ATOM     34  C   UNL     1      -6.149  -4.231  -1.183  1.00  0.00     0.202 C 
BRANCH  34  35
ATOM     35  C   UNL     1      -5.163  -5.408  -1.153  1.00  0.00     0.261 C 
BRANCH  35  36
ATOM     36  O   UNL     1      -3.955  -5.185  -1.900  1.00  0.00    -0.460 OA
BRANCH  36  37
ATOM     37  C   UNL     1      -3.756  -6.056  -2.917  1.00  0.00     0.338 C 
ATOM     38  O   UNL     1      -4.444  -7.029  -3.202  1.00  0.00    -0.246 OA
BRANCH  37  39
ATOM     39  C   UNL     1      -2.663  -5.614  -3.798  1.00  0.00     0.060 A 
ATOM     40  C   UNL     1      -2.992  -5.313  -5.126  1.00  0.00     0.016 A 
ATOM     41  C   UNL     1      -1.328  -5.680  -3.395  1.00  0.00     0.016 A 
ATOM     42  C   UNL     1      -1.988  -5.134  -6.072  1.00  0.00     0.010 A 
ATOM     43  C   UNL     1      -0.317  -5.522  -4.353  1.00  0.00     0.010 A 
ATOM     44  C   UNL     1      -0.647  -5.297  -5.702  1.00  0.00    -0.014 A 
BRANCH  44  45
ATOM     45  C   UNL     1       0.368  -5.433  -6.775  1.00  0.00     0.031 A 
ATOM     46  C   UNL     1       0.682  -6.807  -7.303  1.00  0.00     0.074 A 
ATOM     47  C   UNL     1       0.933  -4.350  -7.333  1.00  0.00     0.049 A 
ATOM     48  N   UNL     1       1.487  -7.162  -8.272  1.00  0.00    -0.248 NA
ATOM     49  C   UNL     1      -0.017  -7.932  -6.659  1.00  0.00     0.031 C 
ATOM     50  C   UNL     1       0.665  -2.966  -6.950  1.00  0.00     0.029 A 
ATOM     51  N   UNL     1       1.844  -4.249  -8.355  1.00  0.00    -0.354 N 
ATOM     52  C   UNL     1       1.383  -8.544  -8.362  1.00  0.00     0.074 A 
ATOM     53  C   UNL     1       0.460  -8.969  -7.332  1.00  0.00     0.031 C 
ATOM     54  C   UNL     1       1.399  -2.151  -7.727  1.00  0.00     0.029 A 
ATOM     55  C   UNL     1       2.201  -2.957  -8.647  1.00  0.00     0.049 A 
ATOM     56  H   UNL     1       2.207  -5.030  -8.832  1.00  0.00     0.167 HD
ATOM     57  C   UNL     1       1.994  -9.383  -9.231  1.00  0.00     0.037 A 
ATOM     58  C   UNL     1       3.083  -2.484  -9.549  1.00  0.00     0.037 A 
ATOM     59  C   UNL     1       2.921  -8.967 -10.248  1.00  0.00     0.049 A 
ATOM     60  C   UNL     1       3.818  -3.447 -10.444  1.00  0.00     0.074 A 
ATOM     61  C   UNL     1       3.597  -9.744 -11.172  1.00  0.00     0.029 A 
ATOM     62  N   UNL     1       3.306  -7.654 -10.469  1.00  0.00    -0.354 N 
ATOM     63  N   UNL     1       3.705  -4.750 -10.528  1.00  0.00    -0.248 NA
ATOM     64  C   UNL     1       4.804  -2.870 -11.370  1.00  0.00     0.031 C 
ATOM     65  C   UNL     1       4.422  -8.904 -11.928  1.00  0.00     0.029 A 
ATOM     66  C   UNL     1       4.229  -7.600 -11.500  1.00  0.00     0.049 A 
ATOM     67  H   UNL     1       2.973  -6.875  -9.968  1.00  0.00     0.167 HD
ATOM     68  C   UNL     1       4.585  -5.146 -11.527  1.00  0.00     0.074 A 
ATOM     69  C   UNL     1       5.218  -3.944 -12.028  1.00  0.00     0.031 C 
ATOM     70  C   UNL     1       4.845  -6.394 -11.989  1.00  0.00     0.037 A 
BRANCH  57  71
ATOM     71  C   UNL     1       1.692 -10.845  -9.103  1.00  0.00     0.064 A 
ATOM     72  C   UNL     1       0.474 -11.382  -9.544  1.00  0.00     0.173 A 
ATOM     73  C   UNL     1       2.642 -11.723  -8.562  1.00  0.00     0.173 A 
ATOM     74  F   UNL     1      -0.472 -10.580 -10.055  1.00  0.00    -0.203 F 
ATOM     75  C   UNL     1       0.212 -12.745  -9.433  1.00  0.00     0.198 A 
ATOM     76  C   UNL     1       2.385 -13.088  -8.470  1.00  0.00     0.198 A 
ATOM     77  F   UNL     1       3.822 -11.256  -8.126  1.00  0.00    -0.203 F 
ATOM     78  F   UNL     1      -0.971 -13.234  -9.830  1.00  0.00    -0.200 F 
ATOM     79  C   UNL     1       1.169 -13.597  -8.902  1.00  0.00     0.200 A 
ATOM     80  F   UNL     1       3.313 -13.911  -7.963  1.00  0.00    -0.200 F 
ATOM     81  F   UNL     1       0.917 -14.910  -8.799  1.00  0.00    -0.200 F 
ENDBRANCH  57  71
BRANCH  58  82
ATOM     82  C   UNL     1       3.327  -1.023  -9.647  1.00  0.00     0.064 A 
ATOM     83  C   UNL     1       2.897  -0.290 -10.761  1.00  0.00     0.173 A 
ATOM     84  C   UNL     1       4.009  -0.334  -8.633  1.00  0.00     0.173 A 
ATOM     85  F   UNL     1       2.265  -0.911 -11.767  1.00  0.00    -0.203 F 
ATOM     86  C   UNL     1       3.150   1.076 -10.863  1.00  0.00     0.198 A 
ATOM     87  C   UNL     1       4.241   1.036  -8.726  1.00  0.00     0.198 A 
ATOM     88  F   UNL     1       4.445  -0.993  -7.550  1.00  0.00    -0.203 F 
ATOM     89  F   UNL     1       2.760   1.748 -11.955  1.00  0.00    -0.200 F 
ATOM     90  C   UNL     1       3.816   1.739  -9.842  1.00  0.00     0.200 A 
ATOM     91  F   UNL     1       4.878   1.674  -7.734  1.00  0.00    -0.200 F 
ATOM     92  F   UNL     1       4.056   3.054  -9.940  1.00  0.00    -0.200 F 
ENDBRANCH  58  82
BRANCH  70  93
ATOM     93  C   UNL     1       5.837  -6.523 -13.105  1.00  0.00     0.064 A 
ATOM     94  C   UNL     1       7.214  -6.393 -12.878  1.00  0.00     0.173 A 
ATOM     95  C   UNL     1       5.408  -6.828 -14.405  1.00  0.00     0.173 A 
ATOM     96  F   UNL     1       7.670  -6.087 -11.654  1.00  0.00    -0.203 F 
ATOM     97  C   UNL     1       8.127  -6.547 -13.918  1.00  0.00     0.198 A 
ATOM     98  C   UNL     1       6.325  -7.003 -15.438  1.00  0.00     0.198 A 
ATOM     99  F   UNL     1       4.101  -6.968 -14.671  1.00  0.00    -0.203 F 
ATOM    100  F   UNL     1       9.437  -6.384 -13.687  1.00  0.00    -0.200 F 
ATOM    101  C   UNL     1       7.682  -6.858 -15.195  1.00  0.00     0.200 A 
ATOM    102  F   UNL     1       5.895  -7.314 -16.669  1.00  0.00    -0.200 F 
ATOM    103  F   UNL     1       8.563  -7.012 -16.193  1.00  0.00    -0.200 F 
ENDBRANCH  70  93
ENDBRANCH  44  45
ENDBRANCH  37  39
ENDBRANCH  36  37
ENDBRANCH  35  36
ENDBRANCH  34  35
ENDBRANCH  33  34
ENDBRANCH   1  33
TORSDOF 18
