REMARK SMILES CC(C)[C@H](NC(N)=O)C(=O)N[C@H](C)C(=O)OCCOCCOC(=O)c1ccc(-c2c3nc(c(-c4c(F)c(F)c(F)c(F)c4F)c4ccc([nH]4)c(-c4c(F)c(F)c(F)c(F)c4F)c4nc(c(-c5c(F)c(F)c(F)c(F)c5F)c5ccc2[nH]5)C=C4)C=C3)cc1
REMARK SMILES IDX 18 1 17 2 16 3 14 4 15 5 12 6 13 7 11 8 9 9 10 10 4 12 2 13
REMARK SMILES IDX 1 14 3 15 5 16 6 17 7 19 8 20 19 23 20 24 21 25 22 26 23 27
REMARK SMILES IDX 24 28 25 29 26 30 87 31 27 32 86 33 28 34 29 35 30 36 80 37
REMARK SMILES IDX 31 38 85 39 79 40 81 41 32 42 84 43 78 44 77 45 33 47 65 48
REMARK SMILES IDX 45 49 64 50 46 51 49 52 63 53 82 54 47 55 48 56 62 58 83 59
REMARK SMILES IDX 50 60 34 61 35 62 43 63 36 64 37 65 41 66 44 67 38 68 39 69
REMARK SMILES IDX 42 70 40 71 66 72 67 73 75 74 68 75 69 76 73 77 76 78 70 79
REMARK SMILES IDX 71 80 74 81 72 82 51 83 52 84 60 85 53 86 54 87 58 88 61 89
REMARK SMILES IDX 55 90 56 91 59 92 57 93
REMARK H PARENT 11 11 5 18 7 21 7 22 81 46 49 57
REMARK Flexibility Score: inf
ROOT
ATOM      1  C   UNL     1      -3.117   1.399  -6.645  1.00  0.00     0.202 C 
ENDROOT
BRANCH   1   2
ATOM      2  C   UNL     1      -1.729   0.902  -7.056  1.00  0.00     0.261 C 
BRANCH   2   3
ATOM      3  O   UNL     1      -1.366  -0.228  -6.248  1.00  0.00    -0.462 OA
BRANCH   3   4
ATOM      4  C   UNL     1      -0.133  -0.179  -5.670  1.00  0.00     0.328 C 
ATOM      5  O   UNL     1       0.734   0.634  -5.963  1.00  0.00    -0.250 OA
BRANCH   4   6
ATOM      6  C   UNL     1      -0.031  -1.179  -4.503  1.00  0.00     0.189 C 
ATOM      7  C   UNL     1      -1.050  -2.317  -4.569  1.00  0.00     0.043 C 
BRANCH   6   8
ATOM      8  N   UNL     1       1.300  -1.757  -4.418  1.00  0.00    -0.341 N 
ATOM      9  C   UNL     1       2.140  -1.877  -3.354  1.00  0.00     0.243 C 
ATOM     10  O   UNL     1       3.074  -2.678  -3.481  1.00  0.00    -0.273 OA
ATOM     11  H   UNL     1       1.650  -2.119  -5.264  1.00  0.00     0.164 HD
BRANCH   9  12
ATOM     12  C   UNL     1       1.847  -1.237  -1.966  1.00  0.00     0.175 C 
BRANCH  12  13
ATOM     13  C   UNL     1       0.919  -2.183  -1.140  1.00  0.00     0.015 C 
ATOM     14  C   UNL     1       1.565  -2.505   0.214  1.00  0.00     0.010 C 
ATOM     15  C   UNL     1      -0.506  -1.674  -0.882  1.00  0.00     0.010 C 
ENDBRANCH  12  13
BRANCH  12  16
ATOM     16  N   UNL     1       1.377   0.147  -1.992  1.00  0.00    -0.326 N 
ATOM     17  C   UNL     1       2.080   1.111  -2.651  1.00  0.00     0.312 C 
ATOM     18  H   UNL     1       0.542   0.386  -1.529  1.00  0.00     0.166 HD
ATOM     19  N   UNL     1       1.541   2.343  -2.500  1.00  0.00    -0.352 N 
ATOM     20  O   UNL     1       3.071   0.921  -3.337  1.00  0.00    -0.249 OA
ATOM     21  H   UNL     1       0.740   2.464  -1.940  1.00  0.00     0.161 HD
ATOM     22  H   UNL     1       1.949   3.118  -2.950  1.00  0.00     0.161 HD
ENDBRANCH  12  16
ENDBRANCH   9  12
ENDBRANCH   6   8
ENDBRANCH   4   6
ENDBRANCH   3   4
ENDBRANCH   2   3
ENDBRANCH   1   2
BRANCH   1  23
ATOM     23  O   UNL     1      -3.210   1.948  -5.330  1.00  0.00    -0.374 OA
BRANCH  23  24
ATOM     24  C   UNL     1      -3.219   1.045  -4.224  1.00  0.00     0.202 C 
BRANCH  24  25
ATOM     25  C   UNL     1      -4.492   0.211  -4.032  1.00  0.00     0.261 C 
BRANCH  25  26
ATOM     26  O   UNL     1      -4.590  -0.848  -5.004  1.00  0.00    -0.460 OA
BRANCH  26  27
ATOM     27  C   UNL     1      -5.656  -0.773  -5.835  1.00  0.00     0.338 C 
ATOM     28  O   UNL     1      -6.557   0.053  -5.818  1.00  0.00    -0.246 OA
BRANCH  27  29
ATOM     29  C   UNL     1      -5.501  -1.747  -6.928  1.00  0.00     0.060 A 
ATOM     30  C   UNL     1      -5.474  -1.262  -8.243  1.00  0.00     0.016 A 
ATOM     31  C   UNL     1      -5.470  -3.118  -6.675  1.00  0.00     0.016 A 
ATOM     32  C   UNL     1      -5.447  -2.151  -9.316  1.00  0.00     0.010 A 
ATOM     33  C   UNL     1      -5.458  -4.009  -7.752  1.00  0.00     0.010 A 
ATOM     34  C   UNL     1      -5.476  -3.530  -9.076  1.00  0.00    -0.014 A 
BRANCH  34  35
ATOM     35  C   UNL     1      -5.678  -4.480 -10.195  1.00  0.00     0.031 A 
ATOM     36  C   UNL     1      -7.056  -5.029 -10.437  1.00  0.00     0.074 A 
ATOM     37  C   UNL     1      -4.651  -4.861 -10.973  1.00  0.00     0.049 A 
ATOM     38  N   UNL     1      -7.445  -5.972 -11.255  1.00  0.00    -0.248 NA
ATOM     39  C   UNL     1      -8.142  -4.433  -9.642  1.00  0.00     0.031 C 
ATOM     40  C   UNL     1      -3.285  -4.354 -10.876  1.00  0.00     0.029 A 
ATOM     41  N   UNL     1      -4.599  -5.784 -11.988  1.00  0.00    -0.354 N 
ATOM     42  C   UNL     1      -8.814  -6.097 -11.061  1.00  0.00     0.074 A 
ATOM     43  C   UNL     1      -9.187  -5.145 -10.037  1.00  0.00     0.031 C 
ATOM     44  C   UNL     1      -2.519  -4.992 -11.778  1.00  0.00     0.029 A 
ATOM     45  C   UNL     1      -3.333  -5.982 -12.482  1.00  0.00     0.049 A 
ATOM     46  H   UNL     1      -5.392  -6.258 -12.329  1.00  0.00     0.167 HD
ATOM     47  C   UNL     1      -9.679  -6.932 -11.683  1.00  0.00     0.037 A 
ATOM     48  C   UNL     1      -2.881  -6.887 -13.372  1.00  0.00     0.037 A 
ATOM     49  C   UNL     1      -9.301  -7.873 -12.703  1.00  0.00     0.049 A 
ATOM     50  C   UNL     1      -3.849  -7.864 -13.991  1.00  0.00     0.074 A 
ATOM     51  C   UNL     1     -10.104  -8.757 -13.402  1.00  0.00     0.029 A 
ATOM     52  N   UNL     1      -8.007  -8.056 -13.166  1.00  0.00    -0.354 N 
ATOM     53  N   UNL     1      -5.142  -7.977 -13.807  1.00  0.00    -0.248 NA
ATOM     54  C   UNL     1      -3.293  -8.842 -14.939  1.00  0.00     0.031 C 
ATOM     55  C   UNL     1      -9.288  -9.510 -14.252  1.00  0.00     0.029 A 
ATOM     56  C   UNL     1      -7.985  -9.054 -14.125  1.00  0.00     0.049 A 
ATOM     57  H   UNL     1      -7.220  -7.550 -12.858  1.00  0.00     0.167 HD
ATOM     58  C   UNL     1      -5.560  -9.006 -14.642  1.00  0.00     0.074 A 
ATOM     59  C   UNL     1      -4.382  -9.489 -15.332  1.00  0.00     0.031 C 
ATOM     60  C   UNL     1      -6.808  -9.502 -14.824  1.00  0.00     0.037 A 
BRANCH  47  61
ATOM     61  C   UNL     1     -11.116  -6.890 -11.254  1.00  0.00     0.064 A 
ATOM     62  C   UNL     1     -11.952  -5.810 -11.574  1.00  0.00     0.173 A 
ATOM     63  C   UNL     1     -11.673  -7.964 -10.544  1.00  0.00     0.173 A 
ATOM     64  F   UNL     1     -11.464  -4.752 -12.239  1.00  0.00    -0.203 F 
ATOM     65  C   UNL     1     -13.287  -5.798 -11.179  1.00  0.00     0.198 A 
ATOM     66  C   UNL     1     -13.016  -7.961 -10.175  1.00  0.00     0.198 A 
ATOM     67  F   UNL     1     -10.917  -9.023 -10.215  1.00  0.00    -0.203 F 
ATOM     68  F   UNL     1     -14.057  -4.736 -11.457  1.00  0.00    -0.200 F 
ATOM     69  C   UNL     1     -13.820  -6.875 -10.487  1.00  0.00     0.200 A 
ATOM     70  F   UNL     1     -13.531  -9.009  -9.518  1.00  0.00    -0.200 F 
ATOM     71  F   UNL     1     -15.107  -6.865 -10.114  1.00  0.00    -0.200 F 
ENDBRANCH  47  61
BRANCH  48  72
ATOM     72  C   UNL     1      -1.435  -6.933 -13.714  1.00  0.00     0.064 A 
ATOM     73  C   UNL     1      -0.983  -6.574 -14.991  1.00  0.00     0.173 A 
ATOM     74  C   UNL     1      -0.478  -7.350 -12.777  1.00  0.00     0.173 A 
ATOM     75  F   UNL     1      -1.863  -6.194 -15.930  1.00  0.00    -0.203 F 
ATOM     76  C   UNL     1       0.368  -6.647 -15.323  1.00  0.00     0.198 A 
ATOM     77  C   UNL     1       0.876  -7.395 -13.101  1.00  0.00     0.198 A 
ATOM     78  F   UNL     1      -0.860  -7.707 -11.541  1.00  0.00    -0.203 F 
ATOM     79  F   UNL     1       0.768  -6.342 -16.565  1.00  0.00    -0.200 F 
ATOM     80  C   UNL     1       1.297  -7.051 -14.376  1.00  0.00     0.200 A 
ATOM     81  F   UNL     1       1.770  -7.777 -12.179  1.00  0.00    -0.200 F 
ATOM     82  F   UNL     1       2.597  -7.118 -14.695  1.00  0.00    -0.200 F 
ENDBRANCH  48  72
BRANCH  60  83
ATOM     83  C   UNL     1      -6.989 -10.580 -15.853  1.00  0.00     0.064 A 
ATOM     84  C   UNL     1      -6.569 -11.898 -15.626  1.00  0.00     0.173 A 
ATOM     85  C   UNL     1      -7.666 -10.301 -17.050  1.00  0.00     0.173 A 
ATOM     86  F   UNL     1      -5.906 -12.212 -14.503  1.00  0.00    -0.203 F 
ATOM     87  C   UNL     1      -6.812 -12.896 -16.567  1.00  0.00     0.198 A 
ATOM     88  C   UNL     1      -7.931 -11.307 -17.975  1.00  0.00     0.198 A 
ATOM     89  F   UNL     1      -8.095  -9.057 -17.310  1.00  0.00    -0.203 F 
ATOM     90  F   UNL     1      -6.376 -14.144 -16.344  1.00  0.00    -0.200 F 
ATOM     91  C   UNL     1      -7.501 -12.602 -17.734  1.00  0.00     0.200 A 
ATOM     92  F   UNL     1      -8.611 -11.023 -19.095  1.00  0.00    -0.200 F 
ATOM     93  F   UNL     1      -7.750 -13.569 -18.629  1.00  0.00    -0.200 F 
ENDBRANCH  60  83
ENDBRANCH  34  35
ENDBRANCH  27  29
ENDBRANCH  26  27
ENDBRANCH  25  26
ENDBRANCH  24  25
ENDBRANCH  23  24
ENDBRANCH   1  23
TORSDOF 18
