REMARK SMILES O=C(OCCOCCOC(=O)[C@H]1CCCCN1c1cc(-c2ccccc2)nc(-c2cccc(Cl)c2)n1)c1ccc(-c2c3nc(c(-c4c(F)c(F)c(F)c(F)c4F)c4ccc([nH]4)c(-c4c(F)c(F)c(F)c(F)c4F)c4nc(c(-c5c(F)c(F)c(F)c(F)c5F)c5ccc2[nH]5)C=C4)C=C3)cc1
REMARK SMILES IDX 6 1 5 2 4 3 3 4 2 5 1 6 37 7 38 8 99 9 39 10 98 11 40 12
REMARK SMILES IDX 41 13 42 14 92 15 43 16 97 17 91 18 93 19 44 20 96 21 90 22
REMARK SMILES IDX 89 23 45 25 77 26 57 27 76 28 58 29 61 30 75 31 94 32 59 33
REMARK SMILES IDX 60 34 74 36 95 37 62 38 46 39 47 40 55 41 48 42 49 43 53 44
REMARK SMILES IDX 56 45 50 46 51 47 54 48 52 49 78 50 79 51 87 52 80 53 81 54
REMARK SMILES IDX 85 55 88 56 82 57 83 58 86 59 84 60 63 61 64 62 72 63 65 64
REMARK SMILES IDX 66 65 70 66 73 67 67 68 68 69 71 70 69 71 7 72 8 73 9 74
REMARK SMILES IDX 10 75 11 76 12 77 13 78 17 79 14 80 16 81 15 82 18 83 19 84
REMARK SMILES IDX 36 85 20 86 28 87 27 88 21 89 22 90 26 91 23 92 25 93 24 94
REMARK SMILES IDX 29 95 30 96 35 97 31 98 33 99 32 100 34 101
REMARK H PARENT 93 24 61 35
REMARK Flexibility Score: inf
ROOT
ATOM      1  O   UNL     1       7.857  -3.540   2.678  1.00  0.00    -0.374 OA
ENDROOT
BRANCH   1   2
ATOM      2  C   UNL     1       6.995  -4.543   3.204  1.00  0.00     0.202 C 
BRANCH   2   3
ATOM      3  C   UNL     1       7.495  -5.386   4.386  1.00  0.00     0.261 C 
BRANCH   3   4
ATOM      4  O   UNL     1       7.891  -4.551   5.506  1.00  0.00    -0.460 OA
BRANCH   4   5
ATOM      5  C   UNL     1       9.163  -4.355   5.963  1.00  0.00     0.338 C 
ATOM      6  O   UNL     1       9.385  -3.755   7.001  1.00  0.00    -0.246 OA
BRANCH   5   7
ATOM      7  C   UNL     1      10.284  -4.903   5.169  1.00  0.00     0.060 A 
ATOM      8  C   UNL     1      10.254  -4.769   3.797  1.00  0.00     0.016 A 
ATOM      9  C   UNL     1      11.367  -5.558   5.742  1.00  0.00     0.016 A 
ATOM     10  C   UNL     1      11.021  -5.529   2.972  1.00  0.00     0.010 A 
ATOM     11  C   UNL     1      12.330  -6.133   4.901  1.00  0.00     0.010 A 
ATOM     12  C   UNL     1      12.128  -6.148   3.509  1.00  0.00    -0.014 A 
BRANCH  12  13
ATOM     13  C   UNL     1      12.980  -6.833   2.532  1.00  0.00     0.031 A 
ATOM     14  C   UNL     1      13.077  -8.315   2.613  1.00  0.00     0.074 A 
ATOM     15  C   UNL     1      13.466  -6.129   1.489  1.00  0.00     0.049 A 
ATOM     16  N   UNL     1      13.853  -9.122   1.952  1.00  0.00    -0.248 NA
ATOM     17  C   UNL     1      12.178  -8.983   3.571  1.00  0.00     0.031 C 
ATOM     18  C   UNL     1      13.235  -4.695   1.246  1.00  0.00     0.029 A 
ATOM     19  N   UNL     1      14.197  -6.522   0.404  1.00  0.00    -0.354 N 
ATOM     20  C   UNL     1      13.599 -10.382   2.470  1.00  0.00     0.074 A 
ATOM     21  C   UNL     1      12.579 -10.240   3.483  1.00  0.00     0.031 C 
ATOM     22  C   UNL     1      13.761  -4.351   0.064  1.00  0.00     0.029 A 
ATOM     23  C   UNL     1      14.498  -5.490  -0.451  1.00  0.00     0.049 A 
ATOM     24  H   UNL     1      14.480  -7.453   0.251  1.00  0.00     0.167 HD
ATOM     25  C   UNL     1      14.208 -11.538   2.129  1.00  0.00     0.037 A 
ATOM     26  C   UNL     1      15.352  -5.457  -1.487  1.00  0.00     0.037 A 
ATOM     27  C   UNL     1      15.200 -11.603   1.091  1.00  0.00     0.049 A 
ATOM     28  C   UNL     1      16.089  -6.730  -1.784  1.00  0.00     0.074 A 
ATOM     29  C   UNL     1      15.958 -12.678   0.677  1.00  0.00     0.029 A 
ATOM     30  N   UNL     1      15.562 -10.520   0.292  1.00  0.00    -0.354 N 
ATOM     31  N   UNL     1      15.962  -7.905  -1.211  1.00  0.00    -0.248 NA
ATOM     32  C   UNL     1      17.103  -6.676  -2.838  1.00  0.00     0.031 C 
ATOM     33  C   UNL     1      16.817 -12.232  -0.334  1.00  0.00     0.029 A 
ATOM     34  C   UNL     1      16.550 -10.895  -0.598  1.00  0.00     0.049 A 
ATOM     35  H   UNL     1      15.171  -9.618   0.354  1.00  0.00     0.167 HD
ATOM     36  C   UNL     1      16.874  -8.737  -1.835  1.00  0.00     0.074 A 
ATOM     37  C   UNL     1      17.529  -7.931  -2.852  1.00  0.00     0.031 C 
ATOM     38  C   UNL     1      17.157 -10.041  -1.593  1.00  0.00     0.037 A 
BRANCH  25  39
ATOM     39  C   UNL     1      13.898 -12.741   2.968  1.00  0.00     0.064 A 
ATOM     40  C   UNL     1      12.643 -13.368   2.956  1.00  0.00     0.173 A 
ATOM     41  C   UNL     1      14.859 -13.222   3.871  1.00  0.00     0.173 A 
ATOM     42  F   UNL     1      11.673 -12.923   2.143  1.00  0.00    -0.203 F 
ATOM     43  C   UNL     1      12.350 -14.403   3.843  1.00  0.00     0.198 A 
ATOM     44  C   UNL     1      14.574 -14.277   4.733  1.00  0.00     0.198 A 
ATOM     45  F   UNL     1      16.070 -12.647   3.939  1.00  0.00    -0.203 F 
ATOM     46  F   UNL     1      11.118 -14.931   3.871  1.00  0.00    -0.200 F 
ATOM     47  C   UNL     1      13.316 -14.858   4.728  1.00  0.00     0.200 A 
ATOM     48  F   UNL     1      15.510 -14.712   5.588  1.00  0.00    -0.200 F 
ATOM     49  F   UNL     1      13.028 -15.841   5.592  1.00  0.00    -0.200 F 
ENDBRANCH  25  39
BRANCH  26  50
ATOM     50  C   UNL     1      15.623  -4.181  -2.202  1.00  0.00     0.064 A 
ATOM     51  C   UNL     1      15.325  -4.025  -3.561  1.00  0.00     0.173 A 
ATOM     52  C   UNL     1      16.174  -3.073  -1.532  1.00  0.00     0.173 A 
ATOM     53  F   UNL     1      14.812  -5.051  -4.255  1.00  0.00    -0.203 F 
ATOM     54  C   UNL     1      15.577  -2.823  -4.223  1.00  0.00     0.198 A 
ATOM     55  C   UNL     1      16.391  -1.862  -2.184  1.00  0.00     0.198 A 
ATOM     56  F   UNL     1      16.480  -3.158  -0.228  1.00  0.00    -0.203 F 
ATOM     57  F   UNL     1      15.322  -2.716  -5.534  1.00  0.00    -0.200 F 
ATOM     58  C   UNL     1      16.102  -1.740  -3.533  1.00  0.00     0.200 A 
ATOM     59  F   UNL     1      16.876  -0.814  -1.504  1.00  0.00    -0.200 F 
ATOM     60  F   UNL     1      16.334  -0.583  -4.168  1.00  0.00    -0.200 F 
ENDBRANCH  26  50
BRANCH  38  61
ATOM     61  C   UNL     1      18.189 -10.669  -2.476  1.00  0.00     0.064 A 
ATOM     62  C   UNL     1      19.551 -10.366  -2.345  1.00  0.00     0.173 A 
ATOM     63  C   UNL     1      17.806 -11.625  -3.428  1.00  0.00     0.173 A 
ATOM     64  F   UNL     1      19.956  -9.442  -1.460  1.00  0.00    -0.203 F 
ATOM     65  C   UNL     1      20.495 -10.986  -3.154  1.00  0.00     0.198 A 
ATOM     66  C   UNL     1      18.757 -12.269  -4.209  1.00  0.00     0.198 A 
ATOM     67  F   UNL     1      16.513 -11.947  -3.582  1.00  0.00    -0.203 F 
ATOM     68  F   UNL     1      21.788 -10.650  -3.049  1.00  0.00    -0.200 F 
ATOM     69  C   UNL     1      20.099 -11.944  -4.077  1.00  0.00     0.200 A 
ATOM     70  F   UNL     1      18.375 -13.206  -5.087  1.00  0.00    -0.200 F 
ATOM     71  F   UNL     1      21.013 -12.553  -4.844  1.00  0.00    -0.200 F 
ENDBRANCH  38  61
ENDBRANCH  12  13
ENDBRANCH   5   7
ENDBRANCH   4   5
ENDBRANCH   3   4
ENDBRANCH   2   3
ENDBRANCH   1   2
BRANCH   1  72
ATOM     72  C   UNL     1       7.925  -2.312   3.416  1.00  0.00     0.202 C 
BRANCH  72  73
ATOM     73  C   UNL     1       7.451  -1.176   2.522  1.00  0.00     0.261 C 
BRANCH  73  74
ATOM     74  O   UNL     1       6.021  -1.157   2.547  1.00  0.00    -0.462 OA
BRANCH  74  75
ATOM     75  C   UNL     1       5.364  -2.173   1.905  1.00  0.00     0.328 C 
ATOM     76  O   UNL     1       5.819  -2.818   0.969  1.00  0.00    -0.250 OA
BRANCH  75  77
ATOM     77  C   UNL     1       3.976  -2.414   2.538  1.00  0.00     0.193 C 
ATOM     78  C   UNL     1       3.631  -3.844   2.992  1.00  0.00     0.037 C 
ATOM     79  N   UNL     1       3.728  -1.465   3.626  1.00  0.00    -0.343 N 
ATOM     80  C   UNL     1       3.748  -4.170   4.496  1.00  0.00     0.005 C 
ATOM     81  C   UNL     1       4.152  -1.735   4.977  1.00  0.00     0.119 C 
ATOM     82  C   UNL     1       3.450  -3.004   5.432  1.00  0.00     0.022 C 
BRANCH  79  83
ATOM     83  C   UNL     1       2.953  -0.398   3.282  1.00  0.00     0.134 A 
ATOM     84  C   UNL     1       3.419   0.887   3.346  1.00  0.00     0.076 A 
ATOM     85  N   UNL     1       1.786  -0.700   2.716  1.00  0.00    -0.211 NA
ATOM     86  C   UNL     1       2.640   1.850   2.736  1.00  0.00     0.076 A 
ATOM     87  C   UNL     1       1.090   0.287   2.152  1.00  0.00     0.162 A 
ATOM     88  N   UNL     1       1.469   1.570   2.119  1.00  0.00    -0.228 NA
BRANCH  86  89
ATOM     89  C   UNL     1       3.056   3.252   2.743  1.00  0.00     0.000 A 
ATOM     90  C   UNL     1       2.289   4.202   3.433  1.00  0.00     0.010 A 
ATOM     91  C   UNL     1       4.242   3.672   2.117  1.00  0.00     0.010 A 
ATOM     92  C   UNL     1       2.703   5.532   3.513  1.00  0.00     0.001 A 
ATOM     93  C   UNL     1       4.652   5.006   2.189  1.00  0.00     0.001 A 
ATOM     94  C   UNL     1       3.884   5.932   2.891  1.00  0.00     0.000 A 
ENDBRANCH  86  89
BRANCH  87  95
ATOM     95  C   UNL     1      -0.129  -0.154   1.479  1.00  0.00     0.021 A 
ATOM     96  C   UNL     1      -0.985  -1.076   2.118  1.00  0.00     0.012 A 
ATOM     97  C   UNL     1      -0.420   0.222   0.162  1.00  0.00     0.032 A 
ATOM     98  C   UNL     1      -2.105  -1.595   1.472  1.00  0.00     0.002 A 
ATOM     99  C   UNL     1      -1.532  -0.313  -0.488  1.00  0.00     0.041 A 
ATOM    100  C   UNL     1      -2.378  -1.212   0.162  1.00  0.00     0.020 A 
ATOM    101  Cl  UNL     1      -1.851   0.118  -2.124  1.00  0.00    -0.084 Cl
ENDBRANCH  87  95
ENDBRANCH  79  83
ENDBRANCH  75  77
ENDBRANCH  74  75
ENDBRANCH  73  74
ENDBRANCH  72  73
ENDBRANCH   1  72
TORSDOF 17
