REMARK SMILES O=C(OCCOCCOC(=O)[C@H]1CCCN(c2cc(-c3ccccn3)nc(-c3ccccc3F)n2)C1)c1ccc(-c2c3nc(c(-c4c(F)c(F)c(F)c(F)c4F)c4ccc([nH]4)c(-c4c(F)c(F)c(F)c(F)c4F)c4nc(c(-c5c(F)c(F)c(F)c(F)c5F)c5ccc2[nH]5)C=C4)C=C3)cc1
REMARK SMILES IDX 6 1 5 2 4 3 3 4 2 5 1 6 37 7 38 8 99 9 39 10 98 11 40 12
REMARK SMILES IDX 41 13 42 14 92 15 43 16 97 17 91 18 93 19 44 20 96 21 90 22
REMARK SMILES IDX 89 23 45 25 77 26 57 27 76 28 58 29 61 30 75 31 94 32 59 33
REMARK SMILES IDX 60 34 74 36 95 37 62 38 46 39 47 40 55 41 48 42 49 43 53 44
REMARK SMILES IDX 56 45 50 46 51 47 54 48 52 49 78 50 79 51 87 52 80 53 81 54
REMARK SMILES IDX 85 55 88 56 82 57 83 58 86 59 84 60 63 61 64 62 72 63 65 64
REMARK SMILES IDX 66 65 70 66 73 67 67 68 68 69 71 70 69 71 7 72 8 73 9 74
REMARK SMILES IDX 10 75 11 76 12 77 13 78 36 79 14 80 16 81 15 82 17 83 18 84
REMARK SMILES IDX 35 85 19 86 27 87 26 88 20 89 21 90 25 91 22 92 24 93 23 94
REMARK SMILES IDX 28 95 29 96 33 97 30 98 32 99 34 100 31 101
REMARK H PARENT 93 24 61 35
REMARK Flexibility Score: inf
ROOT
ATOM      1  O   UNL     1       6.768  -2.559   2.117  1.00  0.00    -0.374 OA
ENDROOT
BRANCH   1   2
ATOM      2  C   UNL     1       5.471  -3.031   2.478  1.00  0.00     0.202 C 
BRANCH   2   3
ATOM      3  C   UNL     1       5.005  -2.743   3.907  1.00  0.00     0.261 C 
BRANCH   3   4
ATOM      4  O   UNL     1       4.974  -1.330   4.141  1.00  0.00    -0.460 OA
BRANCH   4   5
ATOM      5  C   UNL     1       6.016  -0.565   4.536  1.00  0.00     0.338 C 
ATOM      6  O   UNL     1       5.940   0.659   4.449  1.00  0.00    -0.246 OA
BRANCH   5   7
ATOM      7  C   UNL     1       7.228  -1.151   5.167  1.00  0.00     0.060 A 
ATOM      8  C   UNL     1       7.833  -2.346   4.772  1.00  0.00     0.016 A 
ATOM      9  C   UNL     1       7.830  -0.404   6.188  1.00  0.00     0.016 A 
ATOM     10  C   UNL     1       8.969  -2.823   5.377  1.00  0.00     0.010 A 
ATOM     11  C   UNL     1       8.993  -0.863   6.800  1.00  0.00     0.010 A 
ATOM     12  C   UNL     1       9.548  -2.079   6.389  1.00  0.00    -0.014 A 
BRANCH  12  13
ATOM     13  C   UNL     1      10.663  -2.703   7.090  1.00  0.00     0.031 A 
ATOM     14  C   UNL     1      10.368  -3.347   8.396  1.00  0.00     0.074 A 
ATOM     15  C   UNL     1      11.846  -2.803   6.466  1.00  0.00     0.049 A 
ATOM     16  N   UNL     1      11.191  -3.823   9.283  1.00  0.00    -0.248 NA
ATOM     17  C   UNL     1       8.943  -3.483   8.752  1.00  0.00     0.031 C 
ATOM     18  C   UNL     1      12.111  -2.370   5.091  1.00  0.00     0.029 A 
ATOM     19  N   UNL     1      13.034  -3.315   6.895  1.00  0.00    -0.354 N 
ATOM     20  C   UNL     1      10.392  -4.253  10.329  1.00  0.00     0.074 A 
ATOM     21  C   UNL     1       9.017  -4.014   9.961  1.00  0.00     0.031 C 
ATOM     22  C   UNL     1      13.393  -2.630   4.793  1.00  0.00     0.029 A 
ATOM     23  C   UNL     1      14.047  -3.151   5.986  1.00  0.00     0.049 A 
ATOM     24  H   UNL     1      13.152  -3.758   7.766  1.00  0.00     0.167 HD
ATOM     25  C   UNL     1      10.809  -4.770  11.504  1.00  0.00     0.037 A 
ATOM     26  C   UNL     1      15.368  -3.335   6.150  1.00  0.00     0.037 A 
ATOM     27  C   UNL     1      12.201  -4.979  11.789  1.00  0.00     0.049 A 
ATOM     28  C   UNL     1      15.828  -3.803   7.502  1.00  0.00     0.074 A 
ATOM     29  C   UNL     1      12.789  -5.435  12.950  1.00  0.00     0.029 A 
ATOM     30  N   UNL     1      13.226  -4.735  10.878  1.00  0.00    -0.354 N 
ATOM     31  N   UNL     1      15.100  -4.109   8.552  1.00  0.00    -0.248 NA
ATOM     32  C   UNL     1      17.272  -3.927   7.712  1.00  0.00     0.031 C 
ATOM     33  C   UNL     1      14.174  -5.408  12.761  1.00  0.00     0.029 A 
ATOM     34  C   UNL     1      14.449  -5.005  11.459  1.00  0.00     0.049 A 
ATOM     35  H   UNL     1      13.097  -4.416   9.956  1.00  0.00     0.167 HD
ATOM     36  C   UNL     1      15.989  -4.478   9.546  1.00  0.00     0.074 A 
ATOM     37  C   UNL     1      17.317  -4.358   8.968  1.00  0.00     0.031 C 
ATOM     38  C   UNL     1      15.739  -4.881  10.816  1.00  0.00     0.037 A 
BRANCH  25  39
ATOM     39  C   UNL     1       9.771  -5.012  12.557  1.00  0.00     0.064 A 
ATOM     40  C   UNL     1       9.720  -4.181  13.687  1.00  0.00     0.173 A 
ATOM     41  C   UNL     1       8.798  -6.016  12.440  1.00  0.00     0.173 A 
ATOM     42  F   UNL     1      10.615  -3.194  13.842  1.00  0.00    -0.203 F 
ATOM     43  C   UNL     1       8.738  -4.347  14.659  1.00  0.00     0.198 A 
ATOM     44  C   UNL     1       7.796  -6.158  13.399  1.00  0.00     0.198 A 
ATOM     45  F   UNL     1       8.776  -6.814  11.362  1.00  0.00    -0.203 F 
ATOM     46  F   UNL     1       8.717  -3.543  15.731  1.00  0.00    -0.200 F 
ATOM     47  C   UNL     1       7.770  -5.327  14.509  1.00  0.00     0.200 A 
ATOM     48  F   UNL     1       6.836  -7.078  13.231  1.00  0.00    -0.200 F 
ATOM     49  F   UNL     1       6.802  -5.461  15.427  1.00  0.00    -0.200 F 
ENDBRANCH  25  39
BRANCH  26  50
ATOM     50  C   UNL     1      16.290  -3.014   5.032  1.00  0.00     0.064 A 
ATOM     51  C   UNL     1      16.431  -1.696   4.562  1.00  0.00     0.173 A 
ATOM     52  C   UNL     1      16.962  -4.025   4.336  1.00  0.00     0.173 A 
ATOM     53  F   UNL     1      15.801  -0.689   5.186  1.00  0.00    -0.203 F 
ATOM     54  C   UNL     1      17.173  -1.411   3.418  1.00  0.00     0.198 A 
ATOM     55  C   UNL     1      17.727  -3.735   3.206  1.00  0.00     0.198 A 
ATOM     56  F   UNL     1      16.869  -5.297   4.749  1.00  0.00    -0.203 F 
ATOM     57  F   UNL     1      17.239  -0.153   2.959  1.00  0.00    -0.200 F 
ATOM     58  C   UNL     1      17.820  -2.431   2.740  1.00  0.00     0.200 A 
ATOM     59  F   UNL     1      18.363  -4.721   2.559  1.00  0.00    -0.200 F 
ATOM     60  F   UNL     1      18.527  -2.159   1.634  1.00  0.00    -0.200 F 
ENDBRANCH  26  50
BRANCH  38  61
ATOM     61  C   UNL     1      16.914  -5.264  11.659  1.00  0.00     0.064 A 
ATOM     62  C   UNL     1      17.112  -6.610  12.002  1.00  0.00     0.173 A 
ATOM     63  C   UNL     1      17.724  -4.293  12.261  1.00  0.00     0.173 A 
ATOM     64  F   UNL     1      16.346  -7.566  11.456  1.00  0.00    -0.203 F 
ATOM     65  C   UNL     1      18.055  -6.966  12.958  1.00  0.00     0.198 A 
ATOM     66  C   UNL     1      18.686  -4.658  13.195  1.00  0.00     0.198 A 
ATOM     67  F   UNL     1      17.570  -2.997  11.951  1.00  0.00    -0.203 F 
ATOM     68  F   UNL     1      18.181  -8.249  13.324  1.00  0.00    -0.200 F 
ATOM     69  C   UNL     1      18.837  -5.990  13.557  1.00  0.00     0.200 A 
ATOM     70  F   UNL     1      19.454  -3.719  13.764  1.00  0.00    -0.200 F 
ATOM     71  F   UNL     1      19.732  -6.333  14.493  1.00  0.00    -0.200 F 
ENDBRANCH  38  61
ENDBRANCH  12  13
ENDBRANCH   5   7
ENDBRANCH   4   5
ENDBRANCH   3   4
ENDBRANCH   2   3
ENDBRANCH   1   2
BRANCH   1  72
ATOM     72  C   UNL     1       6.805  -1.299   1.447  1.00  0.00     0.202 C 
BRANCH  72  73
ATOM     73  C   UNL     1       6.985  -1.489  -0.058  1.00  0.00     0.261 C 
BRANCH  73  74
ATOM     74  O   UNL     1       5.862  -2.208  -0.607  1.00  0.00    -0.463 OA
BRANCH  74  75
ATOM     75  C   UNL     1       6.032  -3.556  -0.735  1.00  0.00     0.310 C 
ATOM     76  O   UNL     1       7.076  -4.151  -0.517  1.00  0.00    -0.252 OA
BRANCH  75  77
ATOM     77  C   UNL     1       4.734  -4.231  -1.154  1.00  0.00     0.118 C 
ATOM     78  C   UNL     1       5.015  -5.683  -1.563  1.00  0.00     0.019 C 
ATOM     79  C   UNL     1       3.744  -4.189   0.004  1.00  0.00     0.133 C 
ATOM     80  C   UNL     1       3.721  -6.462  -1.786  1.00  0.00     0.022 C 
ATOM     81  N   UNL     1       2.572  -5.033  -0.212  1.00  0.00    -0.356 N 
ATOM     82  C   UNL     1       2.820  -6.423  -0.550  1.00  0.00     0.118 C 
BRANCH  81  83
ATOM     83  C   UNL     1       1.380  -4.575   0.308  1.00  0.00     0.133 A 
ATOM     84  C   UNL     1       0.511  -5.370   1.024  1.00  0.00     0.077 A 
ATOM     85  N   UNL     1       1.082  -3.290   0.068  1.00  0.00    -0.211 NA
ATOM     86  C   UNL     1      -0.667  -4.792   1.471  1.00  0.00     0.095 A 
ATOM     87  C   UNL     1      -0.090  -2.806   0.513  1.00  0.00     0.165 A 
ATOM     88  N   UNL     1      -0.981  -3.503   1.226  1.00  0.00    -0.226 NA
BRANCH  86  89
ATOM     89  C   UNL     1      -1.658  -5.563   2.233  1.00  0.00     0.089 A 
ATOM     90  C   UNL     1      -1.450  -5.915   3.567  1.00  0.00     0.030 A 
ATOM     91  N   UNL     1      -2.780  -5.926   1.558  1.00  0.00    -0.255 NA
ATOM     92  C   UNL     1      -2.430  -6.649   4.233  1.00  0.00     0.004 A 
ATOM     93  C   UNL     1      -3.720  -6.620   2.234  1.00  0.00     0.112 A 
ATOM     94  C   UNL     1      -3.590  -7.005   3.557  1.00  0.00     0.020 A 
ENDBRANCH  86  89
BRANCH  87  95
ATOM     95  C   UNL     1      -0.436  -1.454   0.084  1.00  0.00     0.055 A 
ATOM     96  C   UNL     1      -0.248  -1.062  -1.257  1.00  0.00     0.015 A 
ATOM     97  C   UNL     1      -0.948  -0.502   0.970  1.00  0.00     0.134 A 
ATOM     98  C   UNL     1      -0.568   0.228  -1.690  1.00  0.00     0.001 A 
ATOM     99  C   UNL     1      -1.262   0.791   0.547  1.00  0.00     0.040 A 
ATOM    100  F   UNL     1      -1.115  -0.796   2.268  1.00  0.00    -0.206 F 
ATOM    101  C   UNL     1      -1.074   1.156  -0.785  1.00  0.00     0.003 A 
ENDBRANCH  87  95
ENDBRANCH  81  83
ENDBRANCH  75  77
ENDBRANCH  74  75
ENDBRANCH  73  74
ENDBRANCH  72  73
ENDBRANCH   1  72
TORSDOF 17
