REMARK SMILES C[C@H]1[C@H](C(=O)OCCOCCOC(=O)c2ccc(-c3c4nc(c(-c5c(F)c(F)c(F)c(F)c5F)c5ccc([nH]5)c(-c5c(F)c(F)c(F)c(F)c5F)c5nc(c(-c6c(F)c(F)c(F)c(F)c6F)c6ccc3[nH]6)C=C5)C=C4)cc2)CC[N@@H+]1Cc1cscn1
REMARK SMILES IDX 9 1 8 2 7 3 6 4 4 5 5 6 3 7 1 8 2 9 80 10 78 11 79 12 81 14
REMARK SMILES IDX 82 15 83 16 86 17 84 18 85 19 10 20 11 21 12 22 13 23 14 24
REMARK SMILES IDX 15 25 16 26 77 27 17 28 76 29 18 30 19 31 20 32 70 33 21 34
REMARK SMILES IDX 75 35 69 36 71 37 22 38 74 39 68 40 67 41 23 43 55 44 35 45
REMARK SMILES IDX 54 46 36 47 39 48 53 49 72 50 37 51 38 52 52 54 73 55 40 56
REMARK SMILES IDX 24 57 25 58 33 59 26 60 27 61 31 62 34 63 28 64 29 65 32 66
REMARK SMILES IDX 30 67 56 68 57 69 65 70 58 71 59 72 63 73 66 74 60 75 61 76
REMARK SMILES IDX 64 77 62 78 41 79 42 80 50 81 43 82 44 83 48 84 51 85 45 86
REMARK SMILES IDX 46 87 49 88 47 89
REMARK H PARENT 80 13 71 42 39 53
REMARK Flexibility Score: inf
ROOT
ATOM      1  O   UNL     1       1.606   4.260   2.571  1.00  0.00    -0.374 OA
ENDROOT
BRANCH   1   2
ATOM      2  C   UNL     1       0.487   3.839   3.356  1.00  0.00     0.202 C 
BRANCH   2   3
ATOM      3  C   UNL     1      -0.809   3.614   2.572  1.00  0.00     0.261 C 
BRANCH   3   4
ATOM      4  O   UNL     1      -0.711   2.405   1.798  1.00  0.00    -0.463 OA
BRANCH   4   5
ATOM      5  C   UNL     1      -0.916   2.514   0.464  1.00  0.00     0.315 C 
ATOM      6  O   UNL     1      -1.330   3.522  -0.098  1.00  0.00    -0.252 OA
BRANCH   5   7
ATOM      7  C   UNL     1      -0.622   1.235  -0.293  1.00  0.00     0.162 C 
ATOM      8  C   UNL     1       1.641   0.097  -0.366  1.00  0.00     0.076 C 
ATOM      9  C   UNL     1       0.306   0.209   0.382  1.00  0.00     0.195 C 
ATOM     10  N   UNL     1      -0.365  -1.096   0.274  1.00  0.00    -0.327 N 
ATOM     11  C   UNL     1      -1.922   0.494  -0.560  1.00  0.00     0.083 C 
ATOM     12  C   UNL     1      -1.522  -0.964  -0.601  1.00  0.00     0.263 C 
ATOM     13  H   UNL     1       0.278  -1.752  -0.169  1.00  0.00     0.348 HD
BRANCH  10  14
ATOM     14  C   UNL     1      -0.590  -1.796   1.544  1.00  0.00     0.320 C 
BRANCH  14  15
ATOM     15  C   UNL     1      -1.372  -1.028   2.576  1.00  0.00     0.105 A 
ATOM     16  C   UNL     1      -2.740  -0.820   2.607  1.00  0.00     0.096 A 
ATOM     17  N   UNL     1      -0.690  -0.502   3.671  1.00  0.00    -0.244 NA
ATOM     18  S   UNL     1      -3.177   0.087   3.995  1.00  0.00    -0.130 S 
ATOM     19  C   UNL     1      -1.536   0.099   4.477  1.00  0.00     0.176 A 
ENDBRANCH  14  15
ENDBRANCH  10  14
ENDBRANCH   5   7
ENDBRANCH   4   5
ENDBRANCH   3   4
ENDBRANCH   2   3
ENDBRANCH   1   2
BRANCH   1  20
ATOM     20  C   UNL     1       2.264   3.255   1.801  1.00  0.00     0.202 C 
BRANCH  20  21
ATOM     21  C   UNL     1       3.304   2.417   2.552  1.00  0.00     0.261 C 
BRANCH  21  22
ATOM     22  O   UNL     1       2.715   1.655   3.622  1.00  0.00    -0.460 OA
BRANCH  22  23
ATOM     23  C   UNL     1       3.007   2.115   4.858  1.00  0.00     0.338 C 
ATOM     24  O   UNL     1       3.773   3.027   5.145  1.00  0.00    -0.246 OA
BRANCH  23  25
ATOM     25  C   UNL     1       2.168   1.466   5.884  1.00  0.00     0.060 A 
ATOM     26  C   UNL     1       1.607   2.300   6.859  1.00  0.00     0.016 A 
ATOM     27  C   UNL     1       2.022   0.080   5.973  1.00  0.00     0.016 A 
ATOM     28  C   UNL     1       0.978   1.750   7.971  1.00  0.00     0.010 A 
ATOM     29  C   UNL     1       1.390  -0.474   7.095  1.00  0.00     0.010 A 
ATOM     30  C   UNL     1       0.916   0.359   8.124  1.00  0.00    -0.014 A 
BRANCH  30  31
ATOM     31  C   UNL     1       0.524  -0.188   9.448  1.00  0.00     0.031 A 
ATOM     32  C   UNL     1       1.604  -0.583  10.420  1.00  0.00     0.074 A 
ATOM     33  C   UNL     1      -0.767  -0.241   9.819  1.00  0.00     0.049 A 
ATOM     34  N   UNL     1       1.499  -0.986  11.662  1.00  0.00    -0.248 NA
ATOM     35  C   UNL     1       2.989  -0.506   9.928  1.00  0.00     0.031 C 
ATOM     36  C   UNL     1      -1.902   0.142   8.983  1.00  0.00     0.029 A 
ATOM     37  N   UNL     1      -1.336  -0.627  11.007  1.00  0.00    -0.354 N 
ATOM     38  C   UNL     1       2.800  -1.203  12.099  1.00  0.00     0.074 A 
ATOM     39  C   UNL     1       3.675  -0.927  10.980  1.00  0.00     0.031 C 
ATOM     40  C   UNL     1      -3.036  -0.027   9.685  1.00  0.00     0.029 A 
ATOM     41  C   UNL     1      -2.706  -0.539  11.015  1.00  0.00     0.049 A 
ATOM     42  H   UNL     1      -0.812  -0.939  11.780  1.00  0.00     0.167 HD
ATOM     43  C   UNL     1       3.229  -1.580  13.327  1.00  0.00     0.037 A 
ATOM     44  C   UNL     1      -3.590  -0.835  11.986  1.00  0.00     0.037 A 
ATOM     45  C   UNL     1       2.363  -1.854  14.443  1.00  0.00     0.049 A 
ATOM     46  C   UNL     1      -3.090  -1.299  13.329  1.00  0.00     0.074 A 
ATOM     47  C   UNL     1       2.705  -2.231  15.730  1.00  0.00     0.029 A 
ATOM     48  N   UNL     1       0.979  -1.786  14.400  1.00  0.00    -0.354 N 
ATOM     49  N   UNL     1      -1.857  -1.462  13.745  1.00  0.00    -0.248 NA
ATOM     50  C   UNL     1      -4.108  -1.606  14.345  1.00  0.00     0.031 C 
ATOM     51  C   UNL     1       1.524  -2.431  16.455  1.00  0.00     0.029 A 
ATOM     52  C   UNL     1       0.450  -2.134  15.632  1.00  0.00     0.049 A 
ATOM     53  H   UNL     1       0.450  -1.529  13.610  1.00  0.00     0.167 HD
ATOM     54  C   UNL     1      -1.949  -1.860  15.072  1.00  0.00     0.074 A 
ATOM     55  C   UNL     1      -3.359  -1.901  15.398  1.00  0.00     0.031 C 
ATOM     56  C   UNL     1      -0.956  -2.163  15.944  1.00  0.00     0.037 A 
BRANCH  43  57
ATOM     57  C   UNL     1       4.709  -1.734  13.522  1.00  0.00     0.064 A 
ATOM     58  C   UNL     1       5.561  -0.621  13.590  1.00  0.00     0.173 A 
ATOM     59  C   UNL     1       5.278  -3.007  13.671  1.00  0.00     0.173 A 
ATOM     60  F   UNL     1       5.067   0.617  13.438  1.00  0.00    -0.203 F 
ATOM     61  C   UNL     1       6.932  -0.779  13.776  1.00  0.00     0.198 A 
ATOM     62  C   UNL     1       6.645  -3.160  13.883  1.00  0.00     0.198 A 
ATOM     63  F   UNL     1       4.506  -4.103  13.618  1.00  0.00    -0.203 F 
ATOM     64  F   UNL     1       7.733   0.295  13.794  1.00  0.00    -0.200 F 
ATOM     65  C   UNL     1       7.472  -2.048  13.928  1.00  0.00     0.200 A 
ATOM     66  F   UNL     1       7.165  -4.386  14.040  1.00  0.00    -0.200 F 
ATOM     67  F   UNL     1       8.791  -2.198  14.112  1.00  0.00    -0.200 F 
ENDBRANCH  43  57
BRANCH  44  68
ATOM     68  C   UNL     1      -5.046  -0.689  11.732  1.00  0.00     0.064 A 
ATOM     69  C   UNL     1      -5.797   0.312  12.365  1.00  0.00     0.173 A 
ATOM     70  C   UNL     1      -5.719  -1.560  10.864  1.00  0.00     0.173 A 
ATOM     71  F   UNL     1      -5.201   1.153  13.222  1.00  0.00    -0.203 F 
ATOM     72  C   UNL     1      -7.170   0.423  12.153  1.00  0.00     0.198 A 
ATOM     73  C   UNL     1      -7.087  -1.432  10.633  1.00  0.00     0.198 A 
ATOM     74  F   UNL     1      -5.046  -2.535  10.235  1.00  0.00    -0.203 F 
ATOM     75  F   UNL     1      -7.872   1.359  12.806  1.00  0.00    -0.200 F 
ATOM     76  C   UNL     1      -7.813  -0.446  11.284  1.00  0.00     0.200 A 
ATOM     77  F   UNL     1      -7.702  -2.267   9.785  1.00  0.00    -0.200 F 
ATOM     78  F   UNL     1      -9.133  -0.338  11.081  1.00  0.00    -0.200 F 
ENDBRANCH  44  68
BRANCH  56  79
ATOM     79  C   UNL     1      -1.357  -2.533  17.342  1.00  0.00     0.064 A 
ATOM     80  C   UNL     1      -1.967  -3.762  17.632  1.00  0.00     0.173 A 
ATOM     81  C   UNL     1      -1.101  -1.658  18.409  1.00  0.00     0.173 A 
ATOM     82  F   UNL     1      -2.245  -4.628  16.645  1.00  0.00    -0.203 F 
ATOM     83  C   UNL     1      -2.335  -4.088  18.935  1.00  0.00     0.198 A 
ATOM     84  C   UNL     1      -1.445  -2.000  19.714  1.00  0.00     0.198 A 
ATOM     85  F   UNL     1      -0.513  -0.474  18.186  1.00  0.00    -0.203 F 
ATOM     86  F   UNL     1      -2.963  -5.246  19.182  1.00  0.00    -0.200 F 
ATOM     87  C   UNL     1      -2.069  -3.210  19.975  1.00  0.00     0.200 A 
ATOM     88  F   UNL     1      -1.176  -1.155  20.719  1.00  0.00    -0.200 F 
ATOM     89  F   UNL     1      -2.422  -3.526  21.228  1.00  0.00    -0.200 F 
ENDBRANCH  56  79
ENDBRANCH  30  31
ENDBRANCH  23  25
ENDBRANCH  22  23
ENDBRANCH  21  22
ENDBRANCH  20  21
ENDBRANCH   1  20
TORSDOF 16
