REMARK SMILES CCOc1oc(-c2ccccc2SC)nc1C(=O)OCCOCCOC(=O)c1ccc(-c2c3nc(c(-c4c(F)c(F)c(F)c(F)c4F)c4ccc([nH]4)c(-c4c(F)c(F)c(F)c(F)c4F)c4nc(c(-c5c(F)c(F)c(F)c(F)c5F)c5ccc2[nH]5)C=C4)C=C3)cc1
REMARK SMILES IDX 22 1 21 2 20 3 19 4 17 5 18 6 16 7 4 8 5 9 6 10 15 11 3 12
REMARK SMILES IDX 2 13 1 14 7 15 8 16 12 17 9 18 11 19 10 20 13 21 14 22 23 23
REMARK SMILES IDX 24 24 25 25 26 26 27 27 28 28 29 29 90 30 30 31 89 32 31 33
REMARK SMILES IDX 32 34 33 35 83 36 34 37 88 38 82 39 84 40 35 41 87 42 81 43
REMARK SMILES IDX 80 44 36 46 68 47 48 48 67 49 49 50 52 51 66 52 85 53 50 54
REMARK SMILES IDX 51 55 65 57 86 58 53 59 37 60 38 61 46 62 39 63 40 64 44 65
REMARK SMILES IDX 47 66 41 67 42 68 45 69 43 70 69 71 70 72 78 73 71 74 72 75
REMARK SMILES IDX 76 76 79 77 73 78 74 79 77 80 75 81 54 82 55 83 63 84 56 85
REMARK SMILES IDX 57 86 61 87 64 88 58 89 59 90 62 91 60 92
REMARK H PARENT 84 45 52 56
REMARK Flexibility Score: inf
ROOT
ATOM      1  O   UNL     1       1.925   2.268  -0.393  1.00  0.00    -0.374 OA
ENDROOT
BRANCH   1   2
ATOM      2  C   UNL     1       2.896   2.718   0.552  1.00  0.00     0.202 C 
BRANCH   2   3
ATOM      3  C   UNL     1       3.116   1.852   1.794  1.00  0.00     0.261 C 
BRANCH   3   4
ATOM      4  O   UNL     1       3.613   0.562   1.422  1.00  0.00    -0.458 OA
BRANCH   4   5
ATOM      5  C   UNL     1       2.816  -0.483   1.780  1.00  0.00     0.364 C 
ATOM      6  O   UNL     1       1.897  -0.414   2.588  1.00  0.00    -0.244 OA
BRANCH   5   7
ATOM      7  C   UNL     1       3.142  -1.696   1.063  1.00  0.00     0.233 A 
ATOM      8  C   UNL     1       2.254  -2.663   0.647  1.00  0.00     0.321 A 
ATOM      9  O   UNL     1       2.976  -3.783   0.339  1.00  0.00    -0.405 OA
ATOM     10  C   UNL     1       4.280  -3.411   0.559  1.00  0.00     0.232 A 
ATOM     11  N   UNL     1       4.434  -2.131   0.828  1.00  0.00    -0.198 NA
BRANCH   8  12
ATOM     12  O   UNL     1       0.935  -2.814   0.583  1.00  0.00    -0.464 OA
BRANCH  12  13
ATOM     13  C   UNL     1       0.261  -1.928  -0.316  1.00  0.00     0.230 C 
ATOM     14  C   UNL     1      -0.365  -0.742   0.399  1.00  0.00     0.049 C 
ENDBRANCH  12  13
ENDBRANCH   8  12
BRANCH  10  15
ATOM     15  C   UNL     1       5.266  -4.479   0.534  1.00  0.00     0.051 A 
ATOM     16  C   UNL     1       5.383  -5.205  -0.677  1.00  0.00     0.015 A 
ATOM     17  C   UNL     1       6.086  -4.837   1.629  1.00  0.00     0.020 A 
ATOM     18  C   UNL     1       6.290  -6.256  -0.820  1.00  0.00     0.001 A 
ATOM     19  C   UNL     1       6.998  -5.904   1.447  1.00  0.00     0.016 A 
ATOM     20  C   UNL     1       7.102  -6.604   0.246  1.00  0.00     0.001 A 
BRANCH  17  21
ATOM     21  S   UNL     1       6.169  -4.252   3.337  1.00  0.00    -0.129 SA
ATOM     22  C   UNL     1       5.126  -2.793   3.504  1.00  0.00     0.091 C 
ENDBRANCH  17  21
ENDBRANCH  10  15
ENDBRANCH   5   7
ENDBRANCH   4   5
ENDBRANCH   3   4
ENDBRANCH   2   3
ENDBRANCH   1   2
BRANCH   1  23
ATOM     23  C   UNL     1       2.253   1.163  -1.234  1.00  0.00     0.202 C 
BRANCH  23  24
ATOM     24  C   UNL     1       3.211   1.388  -2.408  1.00  0.00     0.261 C 
BRANCH  24  25
ATOM     25  O   UNL     1       4.491   1.879  -1.998  1.00  0.00    -0.460 OA
BRANCH  25  26
ATOM     26  C   UNL     1       4.676   3.200  -2.224  1.00  0.00     0.338 C 
ATOM     27  O   UNL     1       3.911   3.977  -2.774  1.00  0.00    -0.246 OA
BRANCH  26  28
ATOM     28  C   UNL     1       5.894   3.644  -1.530  1.00  0.00     0.060 A 
ATOM     29  C   UNL     1       5.791   4.764  -0.695  1.00  0.00     0.016 A 
ATOM     30  C   UNL     1       7.121   3.009  -1.733  1.00  0.00     0.016 A 
ATOM     31  C   UNL     1       6.930   5.290  -0.098  1.00  0.00     0.010 A 
ATOM     32  C   UNL     1       8.266   3.546  -1.145  1.00  0.00     0.010 A 
ATOM     33  C   UNL     1       8.177   4.710  -0.362  1.00  0.00    -0.014 A 
BRANCH  33  34
ATOM     34  C   UNL     1       9.405   5.433   0.028  1.00  0.00     0.031 A 
ATOM     35  C   UNL     1      10.091   6.278  -1.006  1.00  0.00     0.074 A 
ATOM     36  C   UNL     1       9.877   5.351   1.283  1.00  0.00     0.049 A 
ATOM     37  N   UNL     1      11.197   6.969  -0.915  1.00  0.00    -0.248 NA
ATOM     38  C   UNL     1       9.443   6.350  -2.326  1.00  0.00     0.031 C 
ATOM     39  C   UNL     1       9.261   4.590   2.368  1.00  0.00     0.029 A 
ATOM     40  N   UNL     1      10.990   5.912   1.851  1.00  0.00    -0.354 N 
ATOM     41  C   UNL     1      11.382   7.546  -2.164  1.00  0.00     0.074 A 
ATOM     42  C   UNL     1      10.292   7.106  -3.006  1.00  0.00     0.031 C 
ATOM     43  C   UNL     1      10.013   4.723   3.474  1.00  0.00     0.029 A 
ATOM     44  C   UNL     1      11.176   5.552   3.162  1.00  0.00     0.049 A 
ATOM     45  H   UNL     1      11.598   6.515   1.366  1.00  0.00     0.167 HD
ATOM     46  C   UNL     1      12.372   8.377  -2.567  1.00  0.00     0.037 A 
ATOM     47  C   UNL     1      12.187   5.846   4.002  1.00  0.00     0.037 A 
ATOM     48  C   UNL     1      13.448   8.809  -1.716  1.00  0.00     0.049 A 
ATOM     49  C   UNL     1      13.309   6.723   3.509  1.00  0.00     0.074 A 
ATOM     50  C   UNL     1      14.492   9.666  -2.010  1.00  0.00     0.029 A 
ATOM     51  N   UNL     1      13.618   8.406  -0.398  1.00  0.00    -0.354 N 
ATOM     52  N   UNL     1      13.464   7.292   2.337  1.00  0.00    -0.248 NA
ATOM     53  C   UNL     1      14.396   7.001   4.457  1.00  0.00     0.031 C 
ATOM     54  C   UNL     1      15.323   9.741  -0.888  1.00  0.00     0.029 A 
ATOM     55  C   UNL     1      14.766   8.976   0.125  1.00  0.00     0.049 A 
ATOM     56  H   UNL     1      13.012   7.803   0.091  1.00  0.00     0.167 HD
ATOM     57  C   UNL     1      14.643   8.020   2.416  1.00  0.00     0.074 A 
ATOM     58  C   UNL     1      15.158   7.829   3.757  1.00  0.00     0.031 C 
ATOM     59  C   UNL     1      15.248   8.779   1.469  1.00  0.00     0.037 A 
BRANCH  46  60
ATOM     60  C   UNL     1      12.353   8.843  -3.993  1.00  0.00     0.064 A 
ATOM     61  C   UNL     1      11.397   9.759  -4.459  1.00  0.00     0.173 A 
ATOM     62  C   UNL     1      13.321   8.387  -4.899  1.00  0.00     0.173 A 
ATOM     63  F   UNL     1      10.438  10.212  -3.637  1.00  0.00    -0.203 F 
ATOM     64  C   UNL     1      11.399  10.182  -5.786  1.00  0.00     0.198 A 
ATOM     65  C   UNL     1      13.338   8.835  -6.218  1.00  0.00     0.198 A 
ATOM     66  F   UNL     1      14.257   7.511  -4.506  1.00  0.00    -0.203 F 
ATOM     67  F   UNL     1      10.449  11.022  -6.221  1.00  0.00    -0.200 F 
ATOM     68  C   UNL     1      12.373   9.727  -6.662  1.00  0.00     0.200 A 
ATOM     69  F   UNL     1      14.286   8.401  -7.060  1.00  0.00    -0.200 F 
ATOM     70  F   UNL     1      12.378  10.141  -7.936  1.00  0.00    -0.200 F 
ENDBRANCH  46  60
BRANCH  47  71
ATOM     71  C   UNL     1      12.188   5.307   5.386  1.00  0.00     0.064 A 
ATOM     72  C   UNL     1      12.040   6.156   6.492  1.00  0.00     0.173 A 
ATOM     73  C   UNL     1      12.355   3.937   5.635  1.00  0.00     0.173 A 
ATOM     74  F   UNL     1      11.900   7.477   6.308  1.00  0.00    -0.203 F 
ATOM     75  C   UNL     1      12.080   5.658   7.793  1.00  0.00     0.198 A 
ATOM     76  C   UNL     1      12.366   3.436   6.935  1.00  0.00     0.198 A 
ATOM     77  F   UNL     1      12.502   3.081   4.613  1.00  0.00    -0.203 F 
ATOM     78  F   UNL     1      11.985   6.498   8.832  1.00  0.00    -0.200 F 
ATOM     79  C   UNL     1      12.238   4.298   8.014  1.00  0.00     0.200 A 
ATOM     80  F   UNL     1      12.507   2.120   7.143  1.00  0.00    -0.200 F 
ATOM     81  F   UNL     1      12.275   3.820   9.265  1.00  0.00    -0.200 F 
ENDBRANCH  47  71
BRANCH  59  82
ATOM     82  C   UNL     1      16.506   9.495   1.863  1.00  0.00     0.064 A 
ATOM     83  C   UNL     1      17.713   8.810   2.062  1.00  0.00     0.173 A 
ATOM     84  C   UNL     1      16.512  10.892   1.999  1.00  0.00     0.173 A 
ATOM     85  F   UNL     1      17.756   7.473   1.958  1.00  0.00    -0.203 F 
ATOM     86  C   UNL     1      18.875   9.496   2.410  1.00  0.00     0.198 A 
ATOM     87  C   UNL     1      17.681  11.577   2.314  1.00  0.00     0.198 A 
ATOM     88  F   UNL     1      15.384  11.595   1.810  1.00  0.00    -0.203 F 
ATOM     89  F   UNL     1      20.006   8.817   2.643  1.00  0.00    -0.200 F 
ATOM     90  C   UNL     1      18.859  10.878   2.527  1.00  0.00     0.200 A 
ATOM     91  F   UNL     1      17.668  12.913   2.412  1.00  0.00    -0.200 F 
ATOM     92  F   UNL     1      19.980  11.536   2.853  1.00  0.00    -0.200 F 
ENDBRANCH  59  82
ENDBRANCH  33  34
ENDBRANCH  26  28
ENDBRANCH  25  26
ENDBRANCH  24  25
ENDBRANCH  23  24
ENDBRANCH   1  23
TORSDOF 18
