REMARK SMILES COc1cc([C@@H]2CC(=O)Nc3c(C(=O)OCCOCCOC(=O)c4ccc(-c5c6nc(c(-c7c(F)c(F)c(F)c(F)c7F)c7ccc([nH]7)c(-c7c(F)c(F)c(F)c(F)c7F)c7nc(c(-c8c(F)c(F)c(F)c(F)c8F)c8ccc5[nH]8)C=C7)C=C6)cc4)cn(-c4ccc(F)cc4)c32)c(OC)c2c1OCO2
REMARK SMILES IDX 18 1 17 2 16 3 15 4 13 5 14 6 12 7 6 8 7 9 96 10 8 11 11 12
REMARK SMILES IDX 88 13 9 14 10 15 87 16 5 18 3 19 4 20 101 21 100 22 102 23
REMARK SMILES IDX 97 24 104 25 103 26 2 27 1 28 98 29 99 30 89 31 90 32 95 33
REMARK SMILES IDX 91 34 94 35 92 36 93 37 19 38 20 39 21 40 22 41 23 42 24 43
REMARK SMILES IDX 25 44 86 45 26 46 85 47 27 48 28 49 29 50 79 51 30 52 84 53
REMARK SMILES IDX 78 54 80 55 31 56 83 57 77 58 76 59 32 61 64 62 44 63 63 64
REMARK SMILES IDX 45 65 48 66 62 67 81 68 46 69 47 70 61 72 82 73 49 74 33 75
REMARK SMILES IDX 34 76 42 77 35 78 36 79 40 80 43 81 37 82 38 83 41 84 39 85
REMARK SMILES IDX 65 86 66 87 74 88 67 89 68 90 72 91 75 92 69 93 70 94 73 95
REMARK SMILES IDX 71 96 50 97 51 98 59 99 52 100 53 101 57 102 60 103 54 104
REMARK SMILES IDX 55 105 58 106 56 107
REMARK H PARENT 10 17 80 60 48 71
REMARK Flexibility Score: inf
ROOT
ATOM      1  O   UNL     1      -2.144  11.796  -3.498  1.00  0.00    -0.374 OA
ENDROOT
BRANCH   1   2
ATOM      2  C   UNL     1      -1.097  11.804  -4.467  1.00  0.00     0.202 C 
BRANCH   2   3
ATOM      3  C   UNL     1       0.179  11.032  -4.121  1.00  0.00     0.261 C 
BRANCH   3   4
ATOM      4  O   UNL     1      -0.024   9.607  -4.145  1.00  0.00    -0.460 OA
BRANCH   4   5
ATOM      5  C   UNL     1      -0.140   9.027  -2.918  1.00  0.00     0.341 C 
ATOM      6  O   UNL     1       0.009   9.614  -1.850  1.00  0.00    -0.246 OA
BRANCH   5   7
ATOM      7  C   UNL     1      -0.591   7.646  -2.983  1.00  0.00     0.102 A 
ATOM      8  C   UNL     1      -0.648   4.127  -4.137  1.00  0.00     0.082 C 
ATOM      9  C   UNL     1      -0.453   4.349  -5.648  1.00  0.00     0.115 C 
ATOM     10  C   UNL     1      -0.843   5.451  -3.458  1.00  0.00     0.055 A 
ATOM     11  C   UNL     1       0.274   5.630  -6.045  1.00  0.00     0.225 C 
ATOM     12  C   UNL     1      -0.410   6.654  -3.971  1.00  0.00     0.078 A 
ATOM     13  N   UNL     1      -1.494   5.708  -2.270  1.00  0.00    -0.317 N 
ATOM     14  O   UNL     1       0.839   5.734  -7.135  1.00  0.00    -0.275 OA
ATOM     15  N   UNL     1       0.173   6.720  -5.213  1.00  0.00    -0.324 N 
ATOM     16  C   UNL     1      -1.357   7.047  -1.992  1.00  0.00     0.109 A 
ATOM     17  H   UNL     1       0.533   7.583  -5.520  1.00  0.00     0.170 HD
BRANCH   8  18
ATOM     18  C   UNL     1       0.466   3.275  -3.512  1.00  0.00     0.012 A 
ATOM     19  C   UNL     1       1.001   1.237  -2.242  1.00  0.00     0.165 A 
ATOM     20  C   UNL     1       0.101   2.010  -2.978  1.00  0.00     0.059 A 
ATOM     21  C   UNL     1       2.303   1.685  -2.145  1.00  0.00     0.211 A 
ATOM     22  C   UNL     1       2.699   2.881  -2.711  1.00  0.00     0.211 A 
ATOM     23  O   UNL     1       3.330   1.042  -1.521  1.00  0.00    -0.449 OA
ATOM     24  C   UNL     1       1.809   3.707  -3.388  1.00  0.00     0.168 A 
ATOM     25  O   UNL     1       4.026   3.115  -2.491  1.00  0.00    -0.449 OA
ATOM     26  C   UNL     1       4.429   1.915  -1.816  1.00  0.00     0.468 C 
BRANCH  19  27
ATOM     27  O   UNL     1       0.510   0.090  -1.689  1.00  0.00    -0.493 OA
ATOM     28  C   UNL     1       0.876  -0.081  -0.320  1.00  0.00     0.278 C 
ENDBRANCH  19  27
BRANCH  24  29
ATOM     29  O   UNL     1       2.106   4.912  -3.945  1.00  0.00    -0.492 OA
ATOM     30  C   UNL     1       3.434   5.407  -3.877  1.00  0.00     0.278 C 
ENDBRANCH  24  29
ENDBRANCH   8  18
BRANCH  13  31
ATOM     31  C   UNL     1      -2.192   4.799  -1.452  1.00  0.00     0.046 A 
ATOM     32  C   UNL     1      -1.493   3.769  -0.820  1.00  0.00     0.029 A 
ATOM     33  C   UNL     1      -3.573   4.942  -1.280  1.00  0.00     0.029 A 
ATOM     34  C   UNL     1      -2.191   2.815  -0.084  1.00  0.00     0.041 A 
ATOM     35  C   UNL     1      -4.265   3.983  -0.538  1.00  0.00     0.041 A 
ATOM     36  C   UNL     1      -3.571   2.922   0.038  1.00  0.00     0.123 A 
ATOM     37  F   UNL     1      -4.242   1.989   0.726  1.00  0.00    -0.207 F 
ENDBRANCH  13  31
ENDBRANCH   5   7
ENDBRANCH   4   5
ENDBRANCH   3   4
ENDBRANCH   2   3
ENDBRANCH   1   2
BRANCH   1  38
ATOM     38  C   UNL     1      -2.952  10.634  -3.352  1.00  0.00     0.202 C 
BRANCH  38  39
ATOM     39  C   UNL     1      -3.977  10.347  -4.438  1.00  0.00     0.261 C 
BRANCH  39  40
ATOM     40  O   UNL     1      -3.369  10.024  -5.684  1.00  0.00    -0.460 OA
BRANCH  40  41
ATOM     41  C   UNL     1      -3.442  11.010  -6.605  1.00  0.00     0.338 C 
ATOM     42  O   UNL     1      -3.675  12.190  -6.405  1.00  0.00    -0.246 OA
BRANCH  41  43
ATOM     43  C   UNL     1      -3.366  10.408  -7.942  1.00  0.00     0.060 A 
ATOM     44  C   UNL     1      -3.646  11.256  -9.014  1.00  0.00     0.016 A 
ATOM     45  C   UNL     1      -3.258   9.017  -8.110  1.00  0.00     0.016 A 
ATOM     46  C   UNL     1      -3.992  10.694 -10.222  1.00  0.00     0.010 A 
ATOM     47  C   UNL     1      -3.607   8.456  -9.321  1.00  0.00     0.010 A 
ATOM     48  C   UNL     1      -4.038   9.298 -10.340  1.00  0.00    -0.014 A 
BRANCH  48  49
ATOM     49  C   UNL     1      -4.509   8.770 -11.602  1.00  0.00     0.031 A 
ATOM     50  C   UNL     1      -3.598   9.014 -12.740  1.00  0.00     0.074 A 
ATOM     51  C   UNL     1      -5.670   8.108 -11.742  1.00  0.00     0.049 A 
ATOM     52  N   UNL     1      -3.803   9.776 -13.761  1.00  0.00    -0.248 NA
ATOM     53  C   UNL     1      -2.252   8.431 -12.670  1.00  0.00     0.031 C 
ATOM     54  C   UNL     1      -6.545   7.561 -10.704  1.00  0.00     0.029 A 
ATOM     55  N   UNL     1      -6.272   7.719 -12.898  1.00  0.00    -0.354 N 
ATOM     56  C   UNL     1      -2.666   9.662 -14.550  1.00  0.00     0.074 A 
ATOM     57  C   UNL     1      -1.699   8.921 -13.780  1.00  0.00     0.031 C 
ATOM     58  C   UNL     1      -7.450   6.737 -11.282  1.00  0.00     0.029 A 
ATOM     59  C   UNL     1      -7.301   6.811 -12.726  1.00  0.00     0.049 A 
ATOM     60  H   UNL     1      -5.998   8.056 -13.782  1.00  0.00     0.167 HD
ATOM     61  C   UNL     1      -2.677  10.018 -15.861  1.00  0.00     0.037 A 
ATOM     62  C   UNL     1      -7.925   6.124 -13.712  1.00  0.00     0.037 A 
ATOM     63  C   UNL     1      -3.784  10.880 -16.174  1.00  0.00     0.049 A 
ATOM     64  C   UNL     1      -7.709   6.860 -14.984  1.00  0.00     0.074 A 
ATOM     65  C   UNL     1      -4.175  12.142 -15.771  1.00  0.00     0.029 A 
ATOM     66  N   UNL     1      -4.884  10.326 -16.779  1.00  0.00    -0.354 N 
ATOM     67  N   UNL     1      -8.249   8.014 -15.261  1.00  0.00    -0.248 NA
ATOM     68  C   UNL     1      -6.558   6.500 -15.799  1.00  0.00     0.031 C 
ATOM     69  C   UNL     1      -5.599  12.100 -15.735  1.00  0.00     0.029 A 
ATOM     70  C   UNL     1      -5.994  10.826 -16.148  1.00  0.00     0.049 A 
ATOM     71  H   UNL     1      -4.878   9.687 -17.528  1.00  0.00     0.167 HD
ATOM     72  C   UNL     1      -7.270   8.700 -15.964  1.00  0.00     0.074 A 
ATOM     73  C   UNL     1      -6.303   7.684 -16.363  1.00  0.00     0.031 C 
ATOM     74  C   UNL     1      -7.197  10.062 -15.916  1.00  0.00     0.037 A 
BRANCH  61  75
ATOM     75  C   UNL     1      -1.882   9.309 -16.920  1.00  0.00     0.064 A 
ATOM     76  C   UNL     1      -1.772   9.876 -18.203  1.00  0.00     0.173 A 
ATOM     77  C   UNL     1      -1.483   7.959 -16.807  1.00  0.00     0.173 A 
ATOM     78  F   UNL     1      -2.155  11.143 -18.424  1.00  0.00    -0.203 F 
ATOM     79  C   UNL     1      -1.354   9.125 -19.303  1.00  0.00     0.198 A 
ATOM     80  C   UNL     1      -1.014   7.230 -17.895  1.00  0.00     0.198 A 
ATOM     81  F   UNL     1      -1.642   7.266 -15.672  1.00  0.00    -0.203 F 
ATOM     82  F   UNL     1      -1.381   9.668 -20.528  1.00  0.00    -0.200 F 
ATOM     83  C   UNL     1      -0.978   7.802 -19.149  1.00  0.00     0.200 A 
ATOM     84  F   UNL     1      -0.677   5.943 -17.730  1.00  0.00    -0.200 F 
ATOM     85  F   UNL     1      -0.635   7.064 -20.212  1.00  0.00    -0.200 F 
ENDBRANCH  61  75
BRANCH  62  86
ATOM     86  C   UNL     1      -8.423   4.731 -13.677  1.00  0.00     0.064 A 
ATOM     87  C   UNL     1      -9.297   4.251 -14.665  1.00  0.00     0.173 A 
ATOM     88  C   UNL     1      -7.831   3.765 -12.839  1.00  0.00     0.173 A 
ATOM     89  F   UNL     1      -9.868   5.101 -15.531  1.00  0.00    -0.203 F 
ATOM     90  C   UNL     1      -9.540   2.883 -14.825  1.00  0.00     0.198 A 
ATOM     91  C   UNL     1      -8.082   2.402 -12.994  1.00  0.00     0.198 A 
ATOM     92  F   UNL     1      -6.923   4.115 -11.917  1.00  0.00    -0.203 F 
ATOM     93  F   UNL     1     -10.327   2.457 -15.823  1.00  0.00    -0.200 F 
ATOM     94  C   UNL     1      -8.923   1.960 -13.997  1.00  0.00     0.200 A 
ATOM     95  F   UNL     1      -7.451   1.518 -12.208  1.00  0.00    -0.200 F 
ATOM     96  F   UNL     1      -9.105   0.647 -14.191  1.00  0.00    -0.200 F 
ENDBRANCH  62  86
BRANCH  74  97
ATOM     97  C   UNL     1      -8.373  10.800 -15.342  1.00  0.00     0.064 A 
ATOM     98  C   UNL     1      -8.807  10.671 -14.011  1.00  0.00     0.173 A 
ATOM     99  C   UNL     1      -9.005  11.765 -16.137  1.00  0.00     0.173 A 
ATOM    100  F   UNL     1      -8.185   9.846 -13.159  1.00  0.00    -0.203 F 
ATOM    101  C   UNL     1      -9.863  11.437 -13.520  1.00  0.00     0.198 A 
ATOM    102  C   UNL     1     -10.034  12.556 -15.632  1.00  0.00     0.198 A 
ATOM    103  F   UNL     1      -8.594  11.973 -17.398  1.00  0.00    -0.203 F 
ATOM    104  F   UNL     1     -10.273  11.281 -12.252  1.00  0.00    -0.200 F 
ATOM    105  C   UNL     1     -10.471  12.382 -14.329  1.00  0.00     0.200 A 
ATOM    106  F   UNL     1     -10.585  13.503 -16.403  1.00  0.00    -0.200 F 
ATOM    107  F   UNL     1     -11.461  13.145 -13.845  1.00  0.00    -0.200 F 
ENDBRANCH  74  97
ENDBRANCH  48  49
ENDBRANCH  41  43
ENDBRANCH  40  41
ENDBRANCH  39  40
ENDBRANCH  38  39
ENDBRANCH   1  38
TORSDOF 18
