REMARK SMILES Cc1noc(C)c1[C@H](C)NC(=O)NC[C@@](C)(O)C(=O)OCCOCCOC(=O)c1ccc(-c2c3nc(c(-c4c(F)c(F)c(F)c(F)c4F)c4ccc([nH]4)c(-c4c(F)c(F)c(F)c(F)c4F)c4nc(c(-c5c(F)c(F)c(F)c(F)c5F)c5ccc2[nH]5)C=C4)C=C3)cc1
REMARK SMILES IDX 22 1 21 2 20 3 18 4 19 5 15 6 16 7 14 8 13 9 10 10 11 11
REMARK SMILES IDX 12 13 8 15 9 16 7 17 1 18 2 19 3 20 4 21 5 22 6 23 17 24
REMARK SMILES IDX 23 26 24 27 25 28 26 29 27 30 28 31 29 32 30 33 91 34 31 35
REMARK SMILES IDX 90 36 32 37 33 38 34 39 84 40 35 41 89 42 83 43 85 44 36 45
REMARK SMILES IDX 88 46 82 47 81 48 37 50 69 51 49 52 68 53 50 54 53 55 67 56
REMARK SMILES IDX 86 57 51 58 52 59 66 61 87 62 54 63 38 64 39 65 47 66 40 67
REMARK SMILES IDX 41 68 45 69 48 70 42 71 43 72 46 73 44 74 70 75 71 76 79 77
REMARK SMILES IDX 72 78 73 79 77 80 80 81 74 82 75 83 78 84 76 85 55 86 56 87
REMARK SMILES IDX 64 88 57 89 58 90 62 91 65 92 59 93 60 94 63 95 61 96
REMARK H PARENT 10 12 13 14 17 25 85 49 53 60
REMARK Flexibility Score: inf
ROOT
ATOM      1  C   UNL     1       0.208   7.519  -2.203  1.00  0.00     0.202 C 
ENDROOT
BRANCH   1   2
ATOM      2  C   UNL     1       0.731   7.885  -0.817  1.00  0.00     0.261 C 
BRANCH   2   3
ATOM      3  O   UNL     1       1.887   7.078  -0.549  1.00  0.00    -0.461 OA
BRANCH   3   4
ATOM      4  C   UNL     1       1.874   6.386   0.623  1.00  0.00     0.339 C 
ATOM      5  O   UNL     1       1.155   6.668   1.572  1.00  0.00    -0.249 OA
BRANCH   4   6
ATOM      6  C   UNL     1       2.954   5.272   0.622  1.00  0.00     0.176 C 
ATOM      7  C   UNL     1       4.141   5.859   1.396  1.00  0.00     0.057 C 
BRANCH   6   8
ATOM      8  C   UNL     1       2.462   3.929   1.234  1.00  0.00     0.164 C 
BRANCH   8   9
ATOM      9  N   UNL     1       1.427   3.994   2.246  1.00  0.00    -0.335 N 
ATOM     10  N   UNL     1      -0.562   2.974   1.439  1.00  0.00    -0.331 N 
ATOM     11  C   UNL     1       0.157   3.601   2.370  1.00  0.00     0.315 C 
ATOM     12  H   UNL     1      -1.490   2.822   1.730  1.00  0.00     0.165 HD
ATOM     13  O   UNL     1      -0.403   3.842   3.443  1.00  0.00    -0.249 OA
ATOM     14  H   UNL     1       1.744   4.449   3.059  1.00  0.00     0.165 HD
BRANCH  10  15
ATOM     15  C   UNL     1      -0.320   2.460   0.103  1.00  0.00     0.116 C 
ATOM     16  C   UNL     1       0.031   0.978   0.215  1.00  0.00     0.036 C 
BRANCH  15  17
ATOM     17  C   UNL     1      -1.510   2.769  -0.769  1.00  0.00     0.040 A 
ATOM     18  C   UNL     1      -2.132   5.204   0.037  1.00  0.00     0.071 C 
ATOM     19  C   UNL     1      -2.281   3.980  -0.789  1.00  0.00     0.086 A 
ATOM     20  N   UNL     1      -3.255   3.932  -1.704  1.00  0.00    -0.085 NA
ATOM     21  O   UNL     1      -3.117   2.723  -2.337  1.00  0.00    -0.361 OA
ATOM     22  C   UNL     1      -2.077   2.035  -1.799  1.00  0.00     0.139 A 
ATOM     23  C   UNL     1      -1.823   0.726  -2.433  1.00  0.00     0.091 C 
ENDBRANCH  15  17
ENDBRANCH  10  15
ENDBRANCH   8   9
ENDBRANCH   6   8
BRANCH   6  24
ATOM     24  O   UNL     1       3.421   4.948  -0.703  1.00  0.00    -0.377 OA
ATOM     25  H   UNL     1       4.092   4.250  -0.648  1.00  0.00     0.212 HD
ENDBRANCH   6  24
ENDBRANCH   4   6
ENDBRANCH   3   4
ENDBRANCH   2   3
ENDBRANCH   1   2
BRANCH   1  26
ATOM     26  O   UNL     1      -0.191   6.151  -2.302  1.00  0.00    -0.374 OA
BRANCH  26  27
ATOM     27  C   UNL     1       0.881   5.229  -2.518  1.00  0.00     0.202 C 
BRANCH  27  28
ATOM     28  C   UNL     1       0.674   4.433  -3.805  1.00  0.00     0.261 C 
BRANCH  28  29
ATOM     29  O   UNL     1       1.109   5.259  -4.895  1.00  0.00    -0.460 OA
BRANCH  29  30
ATOM     30  C   UNL     1       0.175   6.128  -5.344  1.00  0.00     0.338 C 
ATOM     31  O   UNL     1      -1.037   6.008  -5.288  1.00  0.00    -0.246 OA
BRANCH  30  32
ATOM     32  C   UNL     1       0.860   7.377  -5.739  1.00  0.00     0.060 A 
ATOM     33  C   UNL     1       0.172   8.587  -5.560  1.00  0.00     0.016 A 
ATOM     34  C   UNL     1       2.170   7.372  -6.226  1.00  0.00     0.016 A 
ATOM     35  C   UNL     1       0.772   9.793  -5.916  1.00  0.00     0.010 A 
ATOM     36  C   UNL     1       2.768   8.574  -6.590  1.00  0.00     0.010 A 
ATOM     37  C   UNL     1       2.053   9.779  -6.478  1.00  0.00    -0.014 A 
BRANCH  37  38
ATOM     38  C   UNL     1       2.568  10.955  -7.207  1.00  0.00     0.031 A 
ATOM     39  C   UNL     1       2.388  10.958  -8.698  1.00  0.00     0.074 A 
ATOM     40  C   UNL     1       3.244  11.931  -6.579  1.00  0.00     0.049 A 
ATOM     41  N   UNL     1       2.939  11.722  -9.603  1.00  0.00    -0.248 NA
ATOM     42  C   UNL     1       1.482   9.932  -9.246  1.00  0.00     0.031 C 
ATOM     43  C   UNL     1       3.439  12.031  -5.134  1.00  0.00     0.029 A 
ATOM     44  N   UNL     1       3.927  13.004  -7.090  1.00  0.00    -0.354 N 
ATOM     45  C   UNL     1       2.474  11.246 -10.822  1.00  0.00     0.074 A 
ATOM     46  C   UNL     1       1.609  10.123 -10.549  1.00  0.00     0.031 C 
ATOM     47  C   UNL     1       4.228  13.090  -4.876  1.00  0.00     0.029 A 
ATOM     48  C   UNL     1       4.626  13.708  -6.140  1.00  0.00     0.049 A 
ATOM     49  H   UNL     1       3.917  13.246  -8.044  1.00  0.00     0.167 HD
ATOM     50  C   UNL     1       2.755  11.710 -12.060  1.00  0.00     0.037 A 
ATOM     51  C   UNL     1       5.519  14.706  -6.293  1.00  0.00     0.037 A 
ATOM     52  C   UNL     1       3.608  12.839 -12.306  1.00  0.00     0.049 A 
ATOM     53  C   UNL     1       5.839  15.185  -7.688  1.00  0.00     0.074 A 
ATOM     54  C   UNL     1       3.942  13.420 -13.514  1.00  0.00     0.029 A 
ATOM     55  N   UNL     1       4.262  13.556 -11.315  1.00  0.00    -0.354 N 
ATOM     56  N   UNL     1       5.382  14.751  -8.839  1.00  0.00    -0.248 NA
ATOM     57  C   UNL     1       6.800  16.291  -7.809  1.00  0.00     0.031 C 
ATOM     58  C   UNL     1       4.838  14.461 -13.258  1.00  0.00     0.029 A 
ATOM     59  C   UNL     1       5.011  14.567 -11.886  1.00  0.00     0.049 A 
ATOM     60  H   UNL     1       4.201  13.373 -10.350  1.00  0.00     0.167 HD
ATOM     61  C   UNL     1       5.961  15.556  -9.812  1.00  0.00     0.074 A 
ATOM     62  C   UNL     1       6.806  16.504  -9.118  1.00  0.00     0.031 C 
ATOM     63  C   UNL     1       5.807  15.521 -11.158  1.00  0.00     0.037 A 
BRANCH  50  64
ATOM     64  C   UNL     1       2.165  10.988 -13.233  1.00  0.00     0.064 A 
ATOM     65  C   UNL     1       0.796  11.056 -13.531  1.00  0.00     0.173 A 
ATOM     66  C   UNL     1       2.990  10.255 -14.099  1.00  0.00     0.173 A 
ATOM     67  F   UNL     1      -0.039  11.727 -12.723  1.00  0.00    -0.203 F 
ATOM     68  C   UNL     1       0.274  10.406 -14.646  1.00  0.00     0.198 A 
ATOM     69  C   UNL     1       2.470   9.632 -15.229  1.00  0.00     0.198 A 
ATOM     70  F   UNL     1       4.306  10.155 -13.856  1.00  0.00    -0.203 F 
ATOM     71  F   UNL     1      -1.043  10.454 -14.892  1.00  0.00    -0.200 F 
ATOM     72  C   UNL     1       1.112   9.704 -15.500  1.00  0.00     0.200 A 
ATOM     73  F   UNL     1       3.283   8.963 -16.057  1.00  0.00    -0.200 F 
ATOM     74  F   UNL     1       0.610   9.094 -16.582  1.00  0.00    -0.200 F 
ENDBRANCH  50  64
BRANCH  51  75
ATOM     75  C   UNL     1       6.196  15.300  -5.109  1.00  0.00     0.064 A 
ATOM     76  C   UNL     1       5.964  16.631  -4.736  1.00  0.00     0.173 A 
ATOM     77  C   UNL     1       7.118  14.565  -4.348  1.00  0.00     0.173 A 
ATOM     78  F   UNL     1       5.109  17.385  -5.444  1.00  0.00    -0.203 F 
ATOM     79  C   UNL     1       6.649  17.213  -3.670  1.00  0.00     0.198 A 
ATOM     80  C   UNL     1       7.779  15.138  -3.263  1.00  0.00     0.198 A 
ATOM     81  F   UNL     1       7.378  13.286  -4.659  1.00  0.00    -0.203 F 
ATOM     82  F   UNL     1       6.451  18.505  -3.375  1.00  0.00    -0.200 F 
ATOM     83  C   UNL     1       7.553  16.465  -2.932  1.00  0.00     0.200 A 
ATOM     84  F   UNL     1       8.642  14.406  -2.544  1.00  0.00    -0.200 F 
ATOM     85  F   UNL     1       8.214  17.025  -1.910  1.00  0.00    -0.200 F 
ENDBRANCH  51  75
BRANCH  63  86
ATOM     86  C   UNL     1       6.495  16.579 -11.967  1.00  0.00     0.064 A 
ATOM     87  C   UNL     1       7.876  16.553 -12.199  1.00  0.00     0.173 A 
ATOM     88  C   UNL     1       5.736  17.577 -12.599  1.00  0.00     0.173 A 
ATOM     89  F   UNL     1       8.642  15.624 -11.608  1.00  0.00    -0.203 F 
ATOM     90  C   UNL     1       8.476  17.496 -13.028  1.00  0.00     0.198 A 
ATOM     91  C   UNL     1       6.335  18.499 -13.450  1.00  0.00     0.198 A 
ATOM     92  F   UNL     1       4.408  17.635 -12.416  1.00  0.00    -0.203 F 
ATOM     93  F   UNL     1       9.803  17.472 -13.215  1.00  0.00    -0.200 F 
ATOM     94  C   UNL     1       7.705  18.460 -13.662  1.00  0.00     0.200 A 
ATOM     95  F   UNL     1       5.585  19.417 -14.076  1.00  0.00    -0.200 F 
ATOM     96  F   UNL     1       8.283  19.352 -14.478  1.00  0.00    -0.200 F 
ENDBRANCH  63  86
ENDBRANCH  37  38
ENDBRANCH  30  32
ENDBRANCH  29  30
ENDBRANCH  28  29
ENDBRANCH  27  28
ENDBRANCH  26  27
ENDBRANCH   1  26
TORSDOF 19
