REMARK SMILES O=C(OCCOCCOC(=O)c1ccc(-c2c3nc(c(-c4c(F)c(F)c(F)c(F)c4F)c4ccc([nH]4)c(-c4c(F)c(F)c(F)c(F)c4F)c4nc(c(-c5c(F)c(F)c(F)c(F)c5F)c5ccc2[nH]5)C=C4)C=C3)cc1)C1=Cc2c(ccc(Cl)c2Oc2ccccc2)O[C@H]1C(F)(F)F
REMARK SMILES IDX 6 1 5 2 4 3 3 4 2 5 1 6 75 7 76 8 92 9 77 10 91 11 78 12
REMARK SMILES IDX 83 13 79 14 81 15 80 16 82 17 93 18 94 19 95 20 96 21 84 22
REMARK SMILES IDX 85 23 86 24 90 25 87 26 89 27 88 28 7 29 8 30 9 31 10 32
REMARK SMILES IDX 11 33 12 34 13 35 74 36 14 37 73 38 15 39 16 40 17 41 67 42
REMARK SMILES IDX 18 43 72 44 66 45 68 46 19 47 71 48 65 49 64 50 20 52 52 53
REMARK SMILES IDX 32 54 51 55 33 56 36 57 50 58 69 59 34 60 35 61 49 63 70 64
REMARK SMILES IDX 37 65 21 66 22 67 30 68 23 69 24 70 28 71 31 72 25 73 26 74
REMARK SMILES IDX 29 75 27 76 53 77 54 78 62 79 55 80 56 81 60 82 63 83 57 84
REMARK SMILES IDX 58 85 61 86 59 87 38 88 39 89 47 90 40 91 41 92 45 93 48 94
REMARK SMILES IDX 42 95 43 96 46 97 44 98
REMARK H PARENT 68 51 36 62
REMARK Flexibility Score: inf
ROOT
ATOM      1  O   UNL     1       2.352   1.109   2.709  1.00  0.00    -0.374 OA
ENDROOT
BRANCH   1   2
ATOM      2  C   UNL     1       2.750  -0.039   2.027  1.00  0.00     0.202 C 
BRANCH   2   3
ATOM      3  C   UNL     1       2.096  -0.564   0.688  1.00  0.00     0.261 C 
BRANCH   3   4
ATOM      4  O   UNL     1       1.774  -1.954   0.808  1.00  0.00    -0.460 OA
BRANCH   4   5
ATOM      5  C   UNL     1       2.734  -2.897   0.872  1.00  0.00     0.338 C 
ATOM      6  O   UNL     1       2.441  -4.082   0.973  1.00  0.00    -0.246 OA
BRANCH   5   7
ATOM      7  C   UNL     1       4.152  -2.494   0.833  1.00  0.00     0.088 C 
ATOM      8  C   UNL     1       4.647  -1.274   1.082  1.00  0.00     0.031 C 
ATOM      9  C   UNL     1       5.174  -3.512   1.143  1.00  0.00     0.316 C 
ATOM     10  C   UNL     1       5.434  -0.790  -0.009  1.00  0.00     0.062 A 
ATOM     11  O   UNL     1       6.439  -3.054   0.475  1.00  0.00    -0.475 OA
ATOM     12  C   UNL     1       6.385  -1.859  -0.290  1.00  0.00     0.131 A 
ATOM     13  C   UNL     1       5.238   0.423  -0.735  1.00  0.00     0.156 A 
ATOM     14  C   UNL     1       7.222  -1.745  -1.368  1.00  0.00     0.049 A 
ATOM     15  C   UNL     1       6.053   0.389  -1.896  1.00  0.00     0.084 A 
ATOM     16  C   UNL     1       7.036  -0.627  -2.180  1.00  0.00     0.028 A 
ATOM     17  Cl  UNL     1       5.776   1.456  -3.215  1.00  0.00    -0.080 Cl
BRANCH   9  18
ATOM     18  C   UNL     1       5.204  -3.626   2.709  1.00  0.00     0.430 C 
ATOM     19  F   UNL     1       4.142  -2.993   3.292  1.00  0.00    -0.167 F 
ATOM     20  F   UNL     1       5.160  -4.901   3.145  1.00  0.00    -0.167 F 
ATOM     21  F   UNL     1       6.303  -3.036   3.235  1.00  0.00    -0.167 F 
ENDBRANCH   9  18
BRANCH  13  22
ATOM     22  O   UNL     1       4.235   1.459  -0.703  1.00  0.00    -0.455 OA
BRANCH  22  23
ATOM     23  C   UNL     1       3.410   2.137   0.284  1.00  0.00     0.127 A 
ATOM     24  C   UNL     1       1.742   2.610  -0.268  1.00  0.00     0.047 A 
ATOM     25  C   UNL     1       3.926   2.659   1.911  1.00  0.00     0.047 A 
ATOM     26  C   UNL     1       0.559   3.444   0.858  1.00  0.00     0.004 A 
ATOM     27  C   UNL     1       2.776   3.466   3.080  1.00  0.00     0.004 A 
ATOM     28  C   UNL     1       1.096   3.920   2.550  1.00  0.00     0.000 A 
ENDBRANCH  22  23
ENDBRANCH  13  22
ENDBRANCH   5   7
ENDBRANCH   4   5
ENDBRANCH   3   4
ENDBRANCH   2   3
ENDBRANCH   1   2
BRANCH   1  29
ATOM     29  C   UNL     1       1.830   2.133   1.788  1.00  0.00     0.202 C 
BRANCH  29  30
ATOM     30  C   UNL     1       2.555   4.039   1.085  1.00  0.00     0.261 C 
BRANCH  30  31
ATOM     31  O   UNL     1       3.256   4.377  -0.197  1.00  0.00    -0.460 OA
BRANCH  31  32
ATOM     32  C   UNL     1       4.401   5.076  -0.148  1.00  0.00     0.338 C 
ATOM     33  O   UNL     1       5.049   5.466   0.802  1.00  0.00    -0.246 OA
BRANCH  32  34
ATOM     34  C   UNL     1       4.803   5.102  -1.542  1.00  0.00     0.060 A 
ATOM     35  C   UNL     1       6.052   4.579  -1.858  1.00  0.00     0.016 A 
ATOM     36  C   UNL     1       3.896   5.535  -2.517  1.00  0.00     0.016 A 
ATOM     37  C   UNL     1       6.426   4.523  -3.191  1.00  0.00     0.010 A 
ATOM     38  C   UNL     1       4.262   5.458  -3.846  1.00  0.00     0.010 A 
ATOM     39  C   UNL     1       5.538   4.978  -4.179  1.00  0.00    -0.014 A 
BRANCH  39  40
ATOM     40  C   UNL     1       6.035   5.274  -5.529  1.00  0.00     0.031 A 
ATOM     41  C   UNL     1       6.628   6.633  -5.720  1.00  0.00     0.074 A 
ATOM     42  C   UNL     1       5.866   4.430  -6.556  1.00  0.00     0.049 A 
ATOM     43  N   UNL     1       6.954   7.245  -6.823  1.00  0.00    -0.248 NA
ATOM     44  C   UNL     1       6.844   7.424  -4.495  1.00  0.00     0.031 C 
ATOM     45  C   UNL     1       5.301   3.090  -6.471  1.00  0.00     0.029 A 
ATOM     46  N   UNL     1       6.130   4.605  -7.890  1.00  0.00    -0.354 N 
ATOM     47  C   UNL     1       7.389   8.499  -6.426  1.00  0.00     0.074 A 
ATOM     48  C   UNL     1       7.271   8.570  -4.989  1.00  0.00     0.031 C 
ATOM     49  C   UNL     1       5.256   2.557  -7.704  1.00  0.00     0.029 A 
ATOM     50  C   UNL     1       5.714   3.555  -8.669  1.00  0.00     0.049 A 
ATOM     51  H   UNL     1       6.573   5.405  -8.254  1.00  0.00     0.167 HD
ATOM     52  C   UNL     1       7.833   9.511  -7.202  1.00  0.00     0.037 A 
ATOM     53  C   UNL     1       5.655   3.443 -10.010  1.00  0.00     0.037 A 
ATOM     54  C   UNL     1       7.902   9.441  -8.633  1.00  0.00     0.049 A 
ATOM     55  C   UNL     1       6.095   4.607 -10.861  1.00  0.00     0.074 A 
ATOM     56  C   UNL     1       8.353  10.401  -9.518  1.00  0.00     0.029 A 
ATOM     57  N   UNL     1       7.481   8.356  -9.390  1.00  0.00    -0.354 N 
ATOM     58  N   UNL     1       6.545   5.782 -10.490  1.00  0.00    -0.248 NA
ATOM     59  C   UNL     1       6.005   4.438 -12.318  1.00  0.00     0.031 C 
ATOM     60  C   UNL     1       8.136   9.927 -10.814  1.00  0.00     0.029 A 
ATOM     61  C   UNL     1       7.629   8.639 -10.737  1.00  0.00     0.049 A 
ATOM     62  H   UNL     1       7.130   7.513  -9.024  1.00  0.00     0.167 HD
ATOM     63  C   UNL     1       6.817   6.479 -11.661  1.00  0.00     0.074 A 
ATOM     64  C   UNL     1       6.485   5.594 -12.757  1.00  0.00     0.031 C 
ATOM     65  C   UNL     1       7.303   7.736 -11.814  1.00  0.00     0.037 A 
BRANCH  52  66
ATOM     66  C   UNL     1       8.200  10.785  -6.506  1.00  0.00     0.064 A 
ATOM     67  C   UNL     1       9.301  10.868  -5.640  1.00  0.00     0.173 A 
ATOM     68  C   UNL     1       7.410  11.930  -6.678  1.00  0.00     0.173 A 
ATOM     69  F   UNL     1      10.070   9.790  -5.419  1.00  0.00    -0.203 F 
ATOM     70  C   UNL     1       9.572  12.039  -4.940  1.00  0.00     0.198 A 
ATOM     71  C   UNL     1       7.708  13.111  -6.008  1.00  0.00     0.198 A 
ATOM     72  F   UNL     1       6.340  11.900  -7.488  1.00  0.00    -0.203 F 
ATOM     73  F   UNL     1      10.581  12.072  -4.059  1.00  0.00    -0.200 F 
ATOM     74  C   UNL     1       8.780  13.161  -5.129  1.00  0.00     0.200 A 
ATOM     75  F   UNL     1       6.947  14.198  -6.200  1.00  0.00    -0.200 F 
ATOM     76  F   UNL     1       9.040  14.288  -4.453  1.00  0.00    -0.200 F 
ENDBRANCH  52  66
BRANCH  53  77
ATOM     77  C   UNL     1       5.116   2.202 -10.625  1.00  0.00     0.064 A 
ATOM     78  C   UNL     1       5.940   1.342 -11.363  1.00  0.00     0.173 A 
ATOM     79  C   UNL     1       3.765   1.847 -10.484  1.00  0.00     0.173 A 
ATOM     80  F   UNL     1       7.232   1.650 -11.550  1.00  0.00    -0.203 F 
ATOM     81  C   UNL     1       5.432   0.183 -11.947  1.00  0.00     0.198 A 
ATOM     82  C   UNL     1       3.266   0.671 -11.040  1.00  0.00     0.198 A 
ATOM     83  F   UNL     1       2.931   2.636  -9.790  1.00  0.00    -0.203 F 
ATOM     84  F   UNL     1       6.232  -0.598 -12.686  1.00  0.00    -0.200 F 
ATOM     85  C   UNL     1       4.098  -0.157 -11.777  1.00  0.00     0.200 A 
ATOM     86  F   UNL     1       1.980   0.340 -10.859  1.00  0.00    -0.200 F 
ATOM     87  F   UNL     1       3.614  -1.278 -12.328  1.00  0.00    -0.200 F 
ENDBRANCH  53  77
BRANCH  65  88
ATOM     88  C   UNL     1       7.563   8.224 -13.210  1.00  0.00     0.064 A 
ATOM     89  C   UNL     1       6.523   8.566 -14.085  1.00  0.00     0.173 A 
ATOM     90  C   UNL     1       8.883   8.445 -13.639  1.00  0.00     0.173 A 
ATOM     91  F   UNL     1       5.246   8.363 -13.729  1.00  0.00    -0.203 F 
ATOM     92  C   UNL     1       6.794   9.103 -15.342  1.00  0.00     0.198 A 
ATOM     93  C   UNL     1       9.148   9.013 -14.881  1.00  0.00     0.198 A 
ATOM     94  F   UNL     1       9.914   8.144 -12.835  1.00  0.00    -0.203 F 
ATOM     95  F   UNL     1       5.786   9.394 -16.176  1.00  0.00    -0.200 F 
ATOM     96  C   UNL     1       8.105   9.338 -15.733  1.00  0.00     0.200 A 
ATOM     97  F   UNL     1      10.414   9.259 -15.246  1.00  0.00    -0.200 F 
ATOM     98  F   UNL     1       8.361   9.879 -16.932  1.00  0.00    -0.200 F 
ENDBRANCH  65  88
ENDBRANCH  39  40
ENDBRANCH  32  34
ENDBRANCH  31  32
ENDBRANCH  30  31
ENDBRANCH  29  30
ENDBRANCH   1  29
TORSDOF 17
