REMARK SMILES CC(C)Cc1ccc([C@@H](C)C(=O)OCCOCCOC(=O)c2ccc(-c3c4nc(c(-c5c(F)c(F)c(F)c(F)c5F)c5ccc([nH]5)c(-c5c(F)c(F)c(F)c(F)c5F)c5nc(c(-c6c(F)c(F)c(F)c(F)c6F)c6ccc3[nH]6)C=C5)C=C4)cc2)cc1
REMARK SMILES IDX 15 1 14 2 13 3 11 4 12 5 9 6 10 7 8 8 5 9 6 10 86 11 7 12
REMARK SMILES IDX 85 13 4 14 2 15 1 16 3 17 16 18 17 19 18 20 19 21 20 22
REMARK SMILES IDX 21 23 22 24 23 25 84 26 24 27 83 28 25 29 26 30 27 31 77 32
REMARK SMILES IDX 28 33 82 34 76 35 78 36 29 37 81 38 75 39 74 40 30 42 62 43
REMARK SMILES IDX 42 44 61 45 43 46 46 47 60 48 79 49 44 50 45 51 59 53 80 54
REMARK SMILES IDX 47 55 31 56 32 57 40 58 33 59 34 60 38 61 41 62 35 63 36 64
REMARK SMILES IDX 39 65 37 66 63 67 64 68 72 69 65 70 66 71 70 72 73 73 67 74
REMARK SMILES IDX 68 75 71 76 69 77 48 78 49 79 57 80 50 81 51 82 55 83 58 84
REMARK SMILES IDX 52 85 53 86 56 87 54 88
REMARK H PARENT 78 41 46 52
REMARK Flexibility Score: inf
ROOT
ATOM      1  C   UNL     1      -5.178   6.523  -0.717  1.00  0.00     0.202 C 
ENDROOT
BRANCH   1   2
ATOM      2  C   UNL     1      -4.021   7.242  -0.020  1.00  0.00     0.261 C 
BRANCH   2   3
ATOM      3  O   UNL     1      -2.972   6.314   0.311  1.00  0.00    -0.463 OA
BRANCH   3   4
ATOM      4  C   UNL     1      -2.679   6.191   1.631  1.00  0.00     0.313 C 
ATOM      5  O   UNL     1      -3.133   6.918   2.511  1.00  0.00    -0.252 OA
BRANCH   4   6
ATOM      6  C   UNL     1      -1.682   5.087   1.941  1.00  0.00     0.126 C 
ATOM      7  C   UNL     1      -0.289   5.695   2.096  1.00  0.00     0.025 C 
BRANCH   6   8
ATOM      8  C   UNL     1      -1.659   3.866   1.028  1.00  0.00    -0.034 A 
ATOM      9  C   UNL     1      -1.308   1.506  -0.495  1.00  0.00    -0.048 A 
ATOM     10  C   UNL     1      -1.047   2.762  -1.055  1.00  0.00     0.004 A 
ATOM     11  C   UNL     1      -1.821   1.442   0.805  1.00  0.00     0.004 A 
ATOM     12  C   UNL     1      -1.217   3.928  -0.301  1.00  0.00     0.005 A 
ATOM     13  C   UNL     1      -1.993   2.607   1.557  1.00  0.00     0.005 A 
BRANCH   9  14
ATOM     14  C   UNL     1      -0.948   0.240  -1.238  1.00  0.00     0.038 C 
BRANCH  14  15
ATOM     15  C   UNL     1       0.578   0.007  -1.315  1.00  0.00    -0.013 C 
ATOM     16  C   UNL     1       1.215  -0.160   0.069  1.00  0.00     0.008 C 
ATOM     17  C   UNL     1       0.886  -1.225  -2.168  1.00  0.00     0.008 C 
ENDBRANCH  14  15
ENDBRANCH   9  14
ENDBRANCH   6   8
ENDBRANCH   4   6
ENDBRANCH   3   4
ENDBRANCH   2   3
ENDBRANCH   1   2
BRANCH   1  18
ATOM     18  O   UNL     1      -5.942   5.642   0.106  1.00  0.00    -0.374 OA
BRANCH  18  19
ATOM     19  C   UNL     1      -5.376   4.360   0.387  1.00  0.00     0.202 C 
BRANCH  19  20
ATOM     20  C   UNL     1      -5.508   3.314  -0.725  1.00  0.00     0.261 C 
BRANCH  20  21
ATOM     21  O   UNL     1      -4.708   3.646  -1.874  1.00  0.00    -0.460 OA
BRANCH  21  22
ATOM     22  C   UNL     1      -5.405   3.973  -2.985  1.00  0.00     0.338 C 
ATOM     23  O   UNL     1      -6.617   3.943  -3.140  1.00  0.00    -0.246 OA
BRANCH  22  24
ATOM     24  C   UNL     1      -4.500   4.555  -3.993  1.00  0.00     0.060 A 
ATOM     25  C   UNL     1      -4.861   5.788  -4.552  1.00  0.00     0.016 A 
ATOM     26  C   UNL     1      -3.362   3.879  -4.441  1.00  0.00     0.016 A 
ATOM     27  C   UNL     1      -4.115   6.327  -5.599  1.00  0.00     0.010 A 
ATOM     28  C   UNL     1      -2.621   4.416  -5.499  1.00  0.00     0.010 A 
ATOM     29  C   UNL     1      -3.015   5.623  -6.105  1.00  0.00    -0.014 A 
BRANCH  29  30
ATOM     30  C   UNL     1      -2.369   6.077  -7.361  1.00  0.00     0.031 A 
ATOM     31  C   UNL     1      -2.753   5.417  -8.656  1.00  0.00     0.074 A 
ATOM     32  C   UNL     1      -1.462   7.069  -7.352  1.00  0.00     0.049 A 
ATOM     33  N   UNL     1      -2.273   5.604  -9.859  1.00  0.00    -0.248 NA
ATOM     34  C   UNL     1      -3.820   4.406  -8.585  1.00  0.00     0.031 C 
ATOM     35  C   UNL     1      -1.033   7.810  -6.168  1.00  0.00     0.029 A 
ATOM     36  N   UNL     1      -0.726   7.613  -8.376  1.00  0.00    -0.354 N 
ATOM     37  C   UNL     1      -2.966   4.727 -10.682  1.00  0.00     0.074 A 
ATOM     38  C   UNL     1      -3.890   3.995  -9.843  1.00  0.00     0.031 C 
ATOM     39  C   UNL     1      -0.088   8.697  -6.528  1.00  0.00     0.029 A 
ATOM     40  C   UNL     1       0.174   8.563  -7.960  1.00  0.00     0.049 A 
ATOM     41  H   UNL     1      -0.833   7.347  -9.318  1.00  0.00     0.167 HD
ATOM     42  C   UNL     1      -2.845   4.552 -12.019  1.00  0.00     0.037 A 
ATOM     43  C   UNL     1       1.121   9.225  -8.653  1.00  0.00     0.037 A 
ATOM     44  C   UNL     1      -1.941   5.294 -12.857  1.00  0.00     0.049 A 
ATOM     45  C   UNL     1       1.268   8.977 -10.133  1.00  0.00     0.074 A 
ATOM     46  C   UNL     1      -1.781   5.220 -14.230  1.00  0.00     0.029 A 
ATOM     47  N   UNL     1      -1.040   6.242 -12.399  1.00  0.00    -0.354 N 
ATOM     48  N   UNL     1       0.582   8.174 -10.910  1.00  0.00    -0.248 NA
ATOM     49  C   UNL     1       2.320   9.728 -10.833  1.00  0.00     0.031 C 
ATOM     50  C   UNL     1      -0.747   6.087 -14.596  1.00  0.00     0.029 A 
ATOM     51  C   UNL     1      -0.298   6.738 -13.458  1.00  0.00     0.049 A 
ATOM     52  H   UNL     1      -0.941   6.521 -11.460  1.00  0.00     0.167 HD
ATOM     53  C   UNL     1       1.099   8.343 -12.188  1.00  0.00     0.074 A 
ATOM     54  C   UNL     1       2.150   9.333 -12.087  1.00  0.00     0.031 C 
ATOM     55  C   UNL     1       0.736   7.733 -13.342  1.00  0.00     0.037 A 
BRANCH  42  56
ATOM     56  C   UNL     1      -3.693   3.498 -12.666  1.00  0.00     0.064 A 
ATOM     57  C   UNL     1      -5.067   3.681 -12.874  1.00  0.00     0.173 A 
ATOM     58  C   UNL     1      -3.107   2.314 -13.137  1.00  0.00     0.173 A 
ATOM     59  F   UNL     1      -5.675   4.791 -12.430  1.00  0.00    -0.203 F 
ATOM     60  C   UNL     1      -5.827   2.709 -13.520  1.00  0.00     0.198 A 
ATOM     61  C   UNL     1      -3.865   1.355 -13.804  1.00  0.00     0.198 A 
ATOM     62  F   UNL     1      -1.794   2.094 -12.966  1.00  0.00    -0.203 F 
ATOM     63  F   UNL     1      -7.145   2.890 -13.682  1.00  0.00    -0.200 F 
ATOM     64  C   UNL     1      -5.224   1.552 -13.992  1.00  0.00     0.200 A 
ATOM     65  F   UNL     1      -3.278   0.243 -14.269  1.00  0.00    -0.200 F 
ATOM     66  F   UNL     1      -5.955   0.624 -14.625  1.00  0.00    -0.200 F 
ENDBRANCH  42  56
BRANCH  43  67
ATOM     67  C   UNL     1       2.033  10.166  -7.952  1.00  0.00     0.064 A 
ATOM     68  C   UNL     1       1.977  11.546  -8.190  1.00  0.00     0.173 A 
ATOM     69  C   UNL     1       3.002   9.697  -7.053  1.00  0.00     0.173 A 
ATOM     70  F   UNL     1       1.086  12.040  -9.063  1.00  0.00    -0.203 F 
ATOM     71  C   UNL     1       2.870  12.419  -7.570  1.00  0.00     0.198 A 
ATOM     72  C   UNL     1       3.875  10.574  -6.412  1.00  0.00     0.198 A 
ATOM     73  F   UNL     1       3.099   8.385  -6.793  1.00  0.00    -0.203 F 
ATOM     74  F   UNL     1       2.829  13.728  -7.854  1.00  0.00    -0.200 F 
ATOM     75  C   UNL     1       3.814  11.933  -6.679  1.00  0.00     0.200 A 
ATOM     76  F   UNL     1       4.779  10.101  -5.544  1.00  0.00    -0.200 F 
ATOM     77  F   UNL     1       4.673  12.773  -6.085  1.00  0.00    -0.200 F 
ENDBRANCH  43  67
BRANCH  55  78
ATOM     78  C   UNL     1       1.451   8.139 -14.597  1.00  0.00     0.064 A 
ATOM     79  C   UNL     1       2.769   7.738 -14.854  1.00  0.00     0.173 A 
ATOM     80  C   UNL     1       0.788   8.891 -15.580  1.00  0.00     0.173 A 
ATOM     81  F   UNL     1       3.450   7.031 -13.940  1.00  0.00    -0.203 F 
ATOM     82  C   UNL     1       3.404   8.089 -16.043  1.00  0.00     0.198 A 
ATOM     83  C   UNL     1       1.416   9.216 -16.778  1.00  0.00     0.198 A 
ATOM     84  F   UNL     1      -0.477   9.292 -15.384  1.00  0.00    -0.203 F 
ATOM     85  F   UNL     1       4.677   7.726 -16.253  1.00  0.00    -0.200 F 
ATOM     86  C   UNL     1       2.725   8.820 -17.007  1.00  0.00     0.200 A 
ATOM     87  F   UNL     1       0.754   9.911 -17.714  1.00  0.00    -0.200 F 
ATOM     88  F   UNL     1       3.334   9.146 -18.155  1.00  0.00    -0.200 F 
ENDBRANCH  55  78
ENDBRANCH  29  30
ENDBRANCH  22  24
ENDBRANCH  21  22
ENDBRANCH  20  21
ENDBRANCH  19  20
ENDBRANCH  18  19
ENDBRANCH   1  18
TORSDOF 17
