REMARK SMILES Cn1cc(S(=O)(=O)N[C@@H]2C=C[C@@H](C(=O)OCCOCCOC(=O)c3ccc(-c4c5nc(c(-c6c(F)c(F)c(F)c(F)c6F)c6ccc([nH]6)c(-c6c(F)c(F)c(F)c(F)c6F)c6nc(c(-c7c(F)c(F)c(F)c(F)c7F)c7ccc4[nH]7)C=C6)C=C5)cc3)C2)cc1C(N)=O
REMARK SMILES IDX 17 1 16 2 15 3 13 4 14 5 12 6 9 7 10 8 87 9 11 10 8 11 5 13
REMARK SMILES IDX 6 14 7 15 4 16 1 17 2 18 3 19 89 20 88 21 90 22 91 23 92 24
REMARK SMILES IDX 18 27 19 28 20 29 21 30 22 31 23 32 24 33 25 34 86 35 26 36
REMARK SMILES IDX 85 37 27 38 28 39 29 40 79 41 30 42 84 43 78 44 80 45 31 46
REMARK SMILES IDX 83 47 77 48 76 49 32 51 64 52 44 53 63 54 45 55 48 56 62 57
REMARK SMILES IDX 81 58 46 59 47 60 61 62 82 63 49 64 33 65 34 66 42 67 35 68
REMARK SMILES IDX 36 69 40 70 43 71 37 72 38 73 41 74 39 75 65 76 66 77 74 78
REMARK SMILES IDX 67 79 68 80 72 81 75 82 69 83 70 84 73 85 71 86 50 87 51 88
REMARK SMILES IDX 59 89 52 90 53 91 57 92 60 93 54 94 55 95 58 96 56 97
REMARK H PARENT 8 12 91 25 91 26 80 50 48 61
REMARK Flexibility Score: inf
ROOT
ATOM      1  C   UNL     1      -1.615  -5.397  -0.934  1.00  0.00     0.202 C 
ENDROOT
BRANCH   1   2
ATOM      2  C   UNL     1      -3.126  -5.367  -0.704  1.00  0.00     0.261 C 
BRANCH   2   3
ATOM      3  O   UNL     1      -3.556  -4.056  -0.300  1.00  0.00    -0.463 OA
BRANCH   3   4
ATOM      4  C   UNL     1      -4.196  -3.984   0.896  1.00  0.00     0.312 C 
ATOM      5  O   UNL     1      -4.501  -4.946   1.593  1.00  0.00    -0.252 OA
BRANCH   4   6
ATOM      6  C   UNL     1      -4.580  -2.567   1.274  1.00  0.00     0.123 C 
ATOM      7  C   UNL     1      -4.511  -0.196   0.740  1.00  0.00     0.093 C 
ATOM      8  C   UNL     1      -5.775  -0.838   0.267  1.00  0.00    -0.011 C 
ATOM      9  C   UNL     1      -3.610  -1.436   0.904  1.00  0.00     0.043 C 
ATOM     10  C   UNL     1      -5.827  -2.142   0.563  1.00  0.00    -0.015 C 
BRANCH   7  11
ATOM     11  N   UNL     1      -4.661   0.432   2.064  1.00  0.00    -0.204 NA
ATOM     12  H   UNL     1      -4.798  -0.324   2.735  1.00  0.00     0.142 HD
BRANCH  11  13
ATOM     13  S   UNL     1      -5.898   1.549   2.327  1.00  0.00     0.242 S 
ATOM     14  O   UNL     1      -6.093   2.306   1.112  1.00  0.00    -0.207 OA
ATOM     15  O   UNL     1      -5.616   2.177   3.598  1.00  0.00    -0.207 OA
BRANCH  13  16
ATOM     16  C   UNL     1      -7.371   0.691   2.591  1.00  0.00     0.100 A 
ATOM     17  C   UNL     1     -10.942   0.205   2.416  1.00  0.00     0.150 C 
ATOM     18  N   UNL     1      -9.508   0.080   2.576  1.00  0.00    -0.345 N 
ATOM     19  C   UNL     1      -8.648   1.126   2.325  1.00  0.00     0.107 A 
ATOM     20  C   UNL     1      -8.793  -1.051   2.944  1.00  0.00     0.107 A 
ATOM     21  C   UNL     1      -7.473  -0.631   3.081  1.00  0.00     0.055 A 
BRANCH  20  22
ATOM     22  C   UNL     1      -9.338  -2.384   3.126  1.00  0.00     0.265 C 
ATOM     23  N   UNL     1      -8.420  -3.394   3.196  1.00  0.00    -0.364 N 
ATOM     24  O   UNL     1     -10.531  -2.663   3.178  1.00  0.00    -0.268 OA
ATOM     25  H   UNL     1      -7.458  -3.188   3.156  1.00  0.00     0.160 HD
ATOM     26  H   UNL     1      -8.720  -4.327   3.286  1.00  0.00     0.160 HD
ENDBRANCH  20  22
ENDBRANCH  13  16
ENDBRANCH  11  13
ENDBRANCH   7  11
ENDBRANCH   4   6
ENDBRANCH   3   4
ENDBRANCH   2   3
ENDBRANCH   1   2
BRANCH   1  27
ATOM     27  O   UNL     1      -0.815  -5.247   0.238  1.00  0.00    -0.374 OA
BRANCH  27  28
ATOM     28  C   UNL     1      -0.668  -3.932   0.773  1.00  0.00     0.202 C 
BRANCH  28  29
ATOM     29  C   UNL     1       0.298  -3.009   0.020  1.00  0.00     0.261 C 
BRANCH  29  30
ATOM     30  O   UNL     1      -0.226  -2.613  -1.262  1.00  0.00    -0.460 OA
BRANCH  30  31
ATOM     31  C   UNL     1       0.497  -3.038  -2.328  1.00  0.00     0.338 C 
ATOM     32  O   UNL     1       1.555  -3.643  -2.311  1.00  0.00    -0.246 OA
BRANCH  31  33
ATOM     33  C   UNL     1      -0.259  -2.817  -3.575  1.00  0.00     0.060 A 
ATOM     34  C   UNL     1      -0.457  -3.919  -4.416  1.00  0.00     0.016 A 
ATOM     35  C   UNL     1      -0.684  -1.544  -3.961  1.00  0.00     0.016 A 
ATOM     36  C   UNL     1      -1.045  -3.746  -5.668  1.00  0.00     0.010 A 
ATOM     37  C   UNL     1      -1.264  -1.371  -5.223  1.00  0.00     0.010 A 
ATOM     38  C   UNL     1      -1.418  -2.465  -6.094  1.00  0.00    -0.014 A 
BRANCH  38  39
ATOM     39  C   UNL     1      -1.842  -2.252  -7.498  1.00  0.00     0.031 A 
ATOM     40  C   UNL     1      -0.833  -1.772  -8.503  1.00  0.00     0.074 A 
ATOM     41  C   UNL     1      -3.107  -2.501  -7.879  1.00  0.00     0.049 A 
ATOM     42  N   UNL     1      -0.994  -1.477  -9.768  1.00  0.00    -0.248 NA
ATOM     43  C   UNL     1       0.546  -1.603  -8.016  1.00  0.00     0.031 C 
ATOM     44  C   UNL     1      -4.165  -3.008  -7.010  1.00  0.00     0.029 A 
ATOM     45  N   UNL     1      -3.716  -2.349  -9.101  1.00  0.00    -0.354 N 
ATOM     46  C   UNL     1       0.256  -1.085 -10.226  1.00  0.00     0.074 A 
ATOM     47  C   UNL     1       1.163  -1.156  -9.101  1.00  0.00     0.031 C 
ATOM     48  C   UNL     1      -5.301  -3.111  -7.722  1.00  0.00     0.029 A 
ATOM     49  C   UNL     1      -5.055  -2.649  -9.087  1.00  0.00     0.049 A 
ATOM     50  H   UNL     1      -3.237  -2.054  -9.909  1.00  0.00     0.167 HD
ATOM     51  C   UNL     1       0.617  -0.707 -11.476  1.00  0.00     0.037 A 
ATOM     52  C   UNL     1      -5.980  -2.537 -10.060  1.00  0.00     0.037 A 
ATOM     53  C   UNL     1      -0.283  -0.638 -12.596  1.00  0.00     0.049 A 
ATOM     54  C   UNL     1      -5.569  -2.038 -11.421  1.00  0.00     0.074 A 
ATOM     55  C   UNL     1      -0.005  -0.294 -13.908  1.00  0.00     0.029 A 
ATOM     56  N   UNL     1      -1.641  -0.911 -12.534  1.00  0.00    -0.354 N 
ATOM     57  N   UNL     1      -4.380  -1.696 -11.853  1.00  0.00    -0.248 NA
ATOM     58  C   UNL     1      -6.633  -1.907 -12.428  1.00  0.00     0.031 C 
ATOM     59  C   UNL     1      -1.203  -0.315 -14.629  1.00  0.00     0.029 A 
ATOM     60  C   UNL     1      -2.220  -0.714 -13.777  1.00  0.00     0.049 A 
ATOM     61  H   UNL     1      -2.122  -1.202 -11.726  1.00  0.00     0.167 HD
ATOM     62  C   UNL     1      -4.547  -1.331 -13.183  1.00  0.00     0.074 A 
ATOM     63  C   UNL     1      -5.951  -1.504 -13.491  1.00  0.00     0.031 C 
ATOM     64  C   UNL     1      -3.619  -0.894 -14.068  1.00  0.00     0.037 A 
BRANCH  51  65
ATOM     65  C   UNL     1       2.047  -0.315 -11.694  1.00  0.00     0.064 A 
ATOM     66  C   UNL     1       3.072  -1.271 -11.737  1.00  0.00     0.173 A 
ATOM     67  C   UNL     1       2.390   1.029 -11.902  1.00  0.00     0.173 A 
ATOM     68  F   UNL     1       2.796  -2.567 -11.531  1.00  0.00    -0.203 F 
ATOM     69  C   UNL     1       4.394  -0.892 -11.961  1.00  0.00     0.198 A 
ATOM     70  C   UNL     1       3.709   1.401 -12.148  1.00  0.00     0.198 A 
ATOM     71  F   UNL     1       1.445   1.980 -11.873  1.00  0.00    -0.203 F 
ATOM     72  F   UNL     1       5.363  -1.818 -11.960  1.00  0.00    -0.200 F 
ATOM     73  C   UNL     1       4.710   0.442 -12.172  1.00  0.00     0.200 A 
ATOM     74  F   UNL     1       4.011   2.689 -12.360  1.00  0.00    -0.200 F 
ATOM     75  F   UNL     1       5.981   0.804 -12.392  1.00  0.00    -0.200 F 
ENDBRANCH  51  65
BRANCH  52  76
ATOM     76  C   UNL     1      -7.396  -2.885  -9.777  1.00  0.00     0.064 A 
ATOM     77  C   UNL     1      -7.991  -4.016 -10.352  1.00  0.00     0.173 A 
ATOM     78  C   UNL     1      -8.185  -2.084  -8.939  1.00  0.00     0.173 A 
ATOM     79  F   UNL     1      -7.284  -4.796 -11.181  1.00  0.00    -0.203 F 
ATOM     80  C   UNL     1      -9.328  -4.326 -10.108  1.00  0.00     0.198 A 
ATOM     81  C   UNL     1      -9.514  -2.409  -8.676  1.00  0.00     0.198 A 
ATOM     82  F   UNL     1      -7.662  -0.989  -8.369  1.00  0.00    -0.203 F 
ATOM     83  F   UNL     1      -9.885  -5.391 -10.701  1.00  0.00    -0.200 F 
ATOM     84  C   UNL     1     -10.086  -3.526  -9.266  1.00  0.00     0.200 A 
ATOM     85  F   UNL     1     -10.240  -1.638  -7.855  1.00  0.00    -0.200 F 
ATOM     86  F   UNL     1     -11.370  -3.826  -9.029  1.00  0.00    -0.200 F 
ENDBRANCH  52  76
BRANCH  64  87
ATOM     87  C   UNL     1      -4.083  -0.592 -15.463  1.00  0.00     0.064 A 
ATOM     88  C   UNL     1      -4.822   0.563 -15.755  1.00  0.00     0.173 A 
ATOM     89  C   UNL     1      -3.737  -1.440 -16.526  1.00  0.00     0.173 A 
ATOM     90  F   UNL     1      -5.189   1.396 -14.769  1.00  0.00    -0.203 F 
ATOM     91  C   UNL     1      -5.212   0.851 -17.060  1.00  0.00     0.198 A 
ATOM     92  C   UNL     1      -4.107  -1.136 -17.833  1.00  0.00     0.198 A 
ATOM     93  F   UNL     1      -3.025  -2.554 -16.299  1.00  0.00    -0.203 F 
ATOM     94  F   UNL     1      -5.948   1.942 -17.312  1.00  0.00    -0.200 F 
ATOM     95  C   UNL     1      -4.848   0.006 -18.099  1.00  0.00     0.200 A 
ATOM     96  F   UNL     1      -3.745  -1.947 -18.837  1.00  0.00    -0.200 F 
ATOM     97  F   UNL     1      -5.216   0.290 -19.355  1.00  0.00    -0.200 F 
ENDBRANCH  64  87
ENDBRANCH  38  39
ENDBRANCH  31  33
ENDBRANCH  30  31
ENDBRANCH  29  30
ENDBRANCH  28  29
ENDBRANCH  27  28
ENDBRANCH   1  27
TORSDOF 18
