REMARK SMILES COCC1CC[NH+]([C@@H]2CCC[C@@]([NH3+])(C(=O)OCCOCCOC(=O)c3ccc(-c4c5nc(c(-c6c(F)c(F)c(F)c(F)c6F)c6ccc([nH]6)c(-c6c(F)c(F)c(F)c(F)c6F)c6nc(c(-c7c(F)c(F)c(F)c(F)c7F)c7ccc4[nH]7)C=C6)C=C5)cc3)C2)CC1
REMARK SMILES IDX 18 1 17 2 16 3 14 4 15 5 12 6 8 7 9 8 88 9 10 10 11 11 7 12
REMARK SMILES IDX 4 13 5 14 90 15 6 16 89 17 3 19 2 20 1 21 13 22 19 26 20 27
REMARK SMILES IDX 21 28 22 29 23 30 24 31 25 32 26 33 87 34 27 35 86 36 28 37
REMARK SMILES IDX 29 38 30 39 80 40 31 41 85 42 79 43 81 44 32 45 84 46 78 47
REMARK SMILES IDX 77 48 33 50 65 51 45 52 64 53 46 54 49 55 63 56 82 57 47 58
REMARK SMILES IDX 48 59 62 61 83 62 50 63 34 64 35 65 43 66 36 67 37 68 41 69
REMARK SMILES IDX 44 70 38 71 39 72 42 73 40 74 66 75 67 76 75 77 68 78 69 79
REMARK SMILES IDX 73 80 76 81 70 82 71 83 74 84 72 85 51 86 52 87 60 88 53 89
REMARK SMILES IDX 54 90 58 91 61 92 55 93 56 94 59 95 57 96
REMARK H PARENT 7 18 13 23 13 24 13 25 81 49 49 60
REMARK Flexibility Score: inf
ROOT
ATOM      1  C   UNL     1       5.178   7.449  -1.176  1.00  0.00     0.202 C 
ENDROOT
BRANCH   1   2
ATOM      2  C   UNL     1       3.820   7.701  -0.515  1.00  0.00     0.261 C 
BRANCH   2   3
ATOM      3  O   UNL     1       3.336   6.567   0.235  1.00  0.00    -0.459 OA
BRANCH   3   4
ATOM      4  C   UNL     1       2.054   6.202  -0.045  1.00  0.00     0.368 C 
ATOM      5  O   UNL     1       1.362   6.733  -0.912  1.00  0.00    -0.245 OA
BRANCH   4   6
ATOM      6  C   UNL     1       1.480   5.085   0.879  1.00  0.00     0.198 C 
ATOM      7  C   UNL     1       1.846   3.053  -0.675  1.00  0.00     0.190 C 
ATOM      8  C   UNL     1       2.675   2.378   0.438  1.00  0.00     0.065 C 
ATOM      9  C   UNL     1       0.821   4.005  -0.014  1.00  0.00     0.145 C 
ATOM     10  C   UNL     1       3.386   3.406   1.315  1.00  0.00     0.013 C 
ATOM     11  C   UNL     1       2.444   4.453   1.897  1.00  0.00     0.081 C 
BRANCH   7  12
ATOM     12  N   UNL     1       1.228   2.130  -1.661  1.00  0.00    -0.332 N 
ATOM     13  C   UNL     1       0.486  -0.530  -2.757  1.00  0.00     0.026 C 
ATOM     14  C   UNL     1       1.597   0.332  -3.369  1.00  0.00     0.067 C 
ATOM     15  C   UNL     1      -0.557   0.414  -2.160  1.00  0.00     0.067 C 
ATOM     16  C   UNL     1       2.212   1.261  -2.319  1.00  0.00     0.262 C 
ATOM     17  C   UNL     1       0.029   1.434  -1.182  1.00  0.00     0.262 C 
ATOM     18  H   UNL     1       0.862   2.735  -2.397  1.00  0.00     0.348 HD
BRANCH  13  19
ATOM     19  C   UNL     1       1.069  -1.595  -1.800  1.00  0.00     0.163 C 
BRANCH  19  20
ATOM     20  O   UNL     1       0.341  -1.726  -0.584  1.00  0.00    -0.384 OA
ATOM     21  C   UNL     1       1.140  -1.571   0.583  1.00  0.00     0.194 C 
ENDBRANCH  19  20
ENDBRANCH  13  19
ENDBRANCH   7  12
BRANCH   6  22
ATOM     22  N   UNL     1       0.409   5.753   1.679  1.00  0.00    -0.343 N 
ATOM     23  H   UNL     1       0.826   6.469   2.275  1.00  0.00     0.345 HD
ATOM     24  H   UNL     1      -0.063   5.061   2.260  1.00  0.00     0.345 HD
ATOM     25  H   UNL     1      -0.266   6.186   1.049  1.00  0.00     0.345 HD
ENDBRANCH   6  22
ENDBRANCH   4   6
ENDBRANCH   3   4
ENDBRANCH   2   3
ENDBRANCH   1   2
BRANCH   1  26
ATOM     26  O   UNL     1       5.197   6.507  -2.250  1.00  0.00    -0.374 OA
BRANCH  26  27
ATOM     27  C   UNL     1       4.982   5.138  -1.912  1.00  0.00     0.202 C 
BRANCH  27  28
ATOM     28  C   UNL     1       6.174   4.428  -1.264  1.00  0.00     0.261 C 
BRANCH  28  29
ATOM     29  O   UNL     1       6.516   5.040  -0.008  1.00  0.00    -0.460 OA
BRANCH  29  30
ATOM     30  C   UNL     1       7.837   5.289   0.141  1.00  0.00     0.338 C 
ATOM     31  O   UNL     1       8.753   4.861  -0.538  1.00  0.00    -0.246 OA
BRANCH  30  32
ATOM     32  C   UNL     1       8.044   6.333   1.159  1.00  0.00     0.060 A 
ATOM     33  C   UNL     1       8.550   7.560   0.716  1.00  0.00     0.016 A 
ATOM     34  C   UNL     1       7.897   6.069   2.522  1.00  0.00     0.016 A 
ATOM     35  C   UNL     1       9.001   8.498   1.641  1.00  0.00     0.010 A 
ATOM     36  C   UNL     1       8.357   7.012   3.451  1.00  0.00     0.010 A 
ATOM     37  C   UNL     1       8.967   8.200   3.010  1.00  0.00    -0.014 A 
BRANCH  37  38
ATOM     38  C   UNL     1       9.790   9.031   3.926  1.00  0.00     0.031 A 
ATOM     39  C   UNL     1      11.188   8.572   4.249  1.00  0.00     0.074 A 
ATOM     40  C   UNL     1       9.350  10.218   4.378  1.00  0.00     0.049 A 
ATOM     41  N   UNL     1      12.126   9.175   4.936  1.00  0.00    -0.248 NA
ATOM     42  C   UNL     1      11.586   7.258   3.717  1.00  0.00     0.031 C 
ATOM     43  C   UNL     1       8.035  10.790   4.106  1.00  0.00     0.029 A 
ATOM     44  N   UNL     1       9.979  11.162   5.151  1.00  0.00    -0.354 N 
ATOM     45  C   UNL     1      13.221   8.320   4.910  1.00  0.00     0.074 A 
ATOM     46  C   UNL     1      12.823   7.140   4.175  1.00  0.00     0.031 C 
ATOM     47  C   UNL     1       7.954  11.994   4.700  1.00  0.00     0.029 A 
ATOM     48  C   UNL     1       9.208  12.270   5.401  1.00  0.00     0.049 A 
ATOM     49  H   UNL     1      10.896  11.056   5.493  1.00  0.00     0.167 HD
ATOM     50  C   UNL     1      14.454   8.507   5.436  1.00  0.00     0.037 A 
ATOM     51  C   UNL     1       9.487  13.379   6.112  1.00  0.00     0.037 A 
ATOM     52  C   UNL     1      14.857   9.678   6.168  1.00  0.00     0.049 A 
ATOM     53  C   UNL     1      10.852  13.543   6.730  1.00  0.00     0.074 A 
ATOM     54  C   UNL     1      16.084   9.959   6.742  1.00  0.00     0.029 A 
ATOM     55  N   UNL     1      14.034  10.763   6.427  1.00  0.00    -0.354 N 
ATOM     56  N   UNL     1      11.888  12.742   6.675  1.00  0.00    -0.248 NA
ATOM     57  C   UNL     1      11.088  14.774   7.500  1.00  0.00     0.031 C 
ATOM     58  C   UNL     1      15.993  11.200   7.382  1.00  0.00     0.029 A 
ATOM     59  C   UNL     1      14.723  11.710   7.168  1.00  0.00     0.049 A 
ATOM     60  H   UNL     1      13.100  10.848   6.130  1.00  0.00     0.167 HD
ATOM     61  C   UNL     1      12.905  13.384   7.371  1.00  0.00     0.074 A 
ATOM     62  C   UNL     1      12.364  14.645   7.833  1.00  0.00     0.031 C 
ATOM     63  C   UNL     1      14.174  12.967   7.606  1.00  0.00     0.037 A 
BRANCH  50  64
ATOM     64  C   UNL     1      15.454   7.405   5.253  1.00  0.00     0.064 A 
ATOM     65  C   UNL     1      16.060   7.163   4.011  1.00  0.00     0.173 A 
ATOM     66  C   UNL     1      15.827   6.596   6.336  1.00  0.00     0.173 A 
ATOM     67  F   UNL     1      15.723   7.899   2.941  1.00  0.00    -0.203 F 
ATOM     68  C   UNL     1      16.987   6.136   3.855  1.00  0.00     0.198 A 
ATOM     69  C   UNL     1      16.773   5.586   6.183  1.00  0.00     0.198 A 
ATOM     70  F   UNL     1      15.277   6.788   7.544  1.00  0.00    -0.203 F 
ATOM     71  F   UNL     1      17.522   5.894   2.651  1.00  0.00    -0.200 F 
ATOM     72  C   UNL     1      17.347   5.352   4.942  1.00  0.00     0.200 A 
ATOM     73  F   UNL     1      17.125   4.835   7.235  1.00  0.00    -0.200 F 
ATOM     74  F   UNL     1      18.242   4.366   4.792  1.00  0.00    -0.200 F 
ENDBRANCH  50  64
BRANCH  51  75
ATOM     75  C   UNL     1       8.455  14.436   6.270  1.00  0.00     0.064 A 
ATOM     76  C   UNL     1       8.592  15.684   5.646  1.00  0.00     0.173 A 
ATOM     77  C   UNL     1       7.320  14.225   7.066  1.00  0.00     0.173 A 
ATOM     78  F   UNL     1       9.674  15.942   4.896  1.00  0.00    -0.203 F 
ATOM     79  C   UNL     1       7.641  16.686   5.826  1.00  0.00     0.198 A 
ATOM     80  C   UNL     1       6.357  15.219   7.225  1.00  0.00     0.198 A 
ATOM     81  F   UNL     1       7.146  13.050   7.687  1.00  0.00    -0.203 F 
ATOM     82  F   UNL     1       7.817  17.885   5.254  1.00  0.00    -0.200 F 
ATOM     83  C   UNL     1       6.522  16.451   6.611  1.00  0.00     0.200 A 
ATOM     84  F   UNL     1       5.274  14.985   7.978  1.00  0.00    -0.200 F 
ATOM     85  F   UNL     1       5.607  17.415   6.784  1.00  0.00    -0.200 F 
ENDBRANCH  51  75
BRANCH  63  86
ATOM     86  C   UNL     1      15.078  13.896   8.360  1.00  0.00     0.064 A 
ATOM     87  C   UNL     1      14.935  14.104   9.739  1.00  0.00     0.173 A 
ATOM     88  C   UNL     1      16.128  14.553   7.700  1.00  0.00     0.173 A 
ATOM     89  F   UNL     1      13.940  13.508  10.412  1.00  0.00    -0.203 F 
ATOM     90  C   UNL     1      15.797  14.955  10.427  1.00  0.00     0.198 A 
ATOM     91  C   UNL     1      17.003  15.383   8.395  1.00  0.00     0.198 A 
ATOM     92  F   UNL     1      16.312  14.380   6.383  1.00  0.00    -0.203 F 
ATOM     93  F   UNL     1      15.616  15.172  11.737  1.00  0.00    -0.200 F 
ATOM     94  C   UNL     1      16.833  15.589   9.756  1.00  0.00     0.200 A 
ATOM     95  F   UNL     1      18.010  15.985   7.748  1.00  0.00    -0.200 F 
ATOM     96  F   UNL     1      17.663  16.404  10.421  1.00  0.00    -0.200 F 
ENDBRANCH  63  86
ENDBRANCH  37  38
ENDBRANCH  30  32
ENDBRANCH  29  30
ENDBRANCH  28  29
ENDBRANCH  27  28
ENDBRANCH  26  27
ENDBRANCH   1  26
TORSDOF 18
