REMARK SMILES CCCCCn1c(SCC(=O)OCCOCCOC(=O)c2ccc(-c3c4nc(c(-c5c(F)c(F)c(F)c(F)c5F)c5ccc([nH]5)c(-c5c(F)c(F)c(F)c(F)c5F)c5nc(c(-c6c(F)c(F)c(F)c(F)c6F)c6ccc3[nH]6)C=C5)C=C4)cc2)nc2ccccc2c1=O
REMARK SMILES IDX 13 1 12 2 10 3 11 4 9 5 8 6 7 7 6 8 91 9 84 10 90 11 92 12
REMARK SMILES IDX 85 13 89 14 86 15 88 16 87 17 5 18 4 19 3 20 2 21 1 22 14 23
REMARK SMILES IDX 15 24 16 25 17 26 18 27 19 28 20 29 21 30 22 31 83 32 23 33
REMARK SMILES IDX 82 34 24 35 25 36 26 37 76 38 27 39 81 40 75 41 77 42 28 43
REMARK SMILES IDX 80 44 74 45 73 46 29 48 61 49 41 50 60 51 42 52 45 53 59 54
REMARK SMILES IDX 78 55 43 56 44 57 58 59 79 60 46 61 30 62 31 63 39 64 32 65
REMARK SMILES IDX 33 66 37 67 40 68 34 69 35 70 38 71 36 72 62 73 63 74 71 75
REMARK SMILES IDX 64 76 65 77 69 78 72 79 66 80 67 81 70 82 68 83 47 84 48 85
REMARK SMILES IDX 56 86 49 87 50 88 54 89 57 90 51 91 52 92 55 93 53 94
REMARK H PARENT 77 47 45 58
REMARK Flexibility Score: inf
ROOT
ATOM      1  C   UNL     1      -4.241  -1.175   1.786  1.00  0.00     0.261 C 
ENDROOT
BRANCH   1   2
ATOM      2  O   UNL     1      -3.705  -0.670   0.546  1.00  0.00    -0.463 OA
BRANCH   2   3
ATOM      3  C   UNL     1      -2.384  -0.349   0.552  1.00  0.00     0.316 C 
ATOM      4  O   UNL     1      -1.639  -0.489   1.517  1.00  0.00    -0.251 OA
BRANCH   3   5
ATOM      5  C   UNL     1      -1.901   0.290  -0.725  1.00  0.00     0.200 C 
BRANCH   5   6
ATOM      6  S   UNL     1      -2.560  -0.330  -2.246  1.00  0.00    -0.076 SA
BRANCH   6   7
ATOM      7  C   UNL     1      -1.823  -1.744  -2.960  1.00  0.00     0.171 A 
ATOM      8  N   UNL     1      -0.983  -2.684  -2.375  1.00  0.00    -0.287 N 
ATOM      9  C   UNL     1      -0.884  -3.965  -2.956  1.00  0.00     0.262 A 
ATOM     10  N   UNL     1      -2.293  -1.891  -4.160  1.00  0.00    -0.224 NA
ATOM     11  C   UNL     1      -1.499  -4.173  -4.274  1.00  0.00     0.066 A 
ATOM     12  O   UNL     1      -0.359  -4.931  -2.404  1.00  0.00    -0.269 OA
ATOM     13  C   UNL     1      -2.094  -3.073  -4.865  1.00  0.00     0.079 A 
ATOM     14  C   UNL     1      -1.518  -5.426  -4.901  1.00  0.00     0.016 A 
ATOM     15  C   UNL     1      -2.647  -3.205  -6.141  1.00  0.00     0.029 A 
ATOM     16  C   UNL     1      -2.114  -5.561  -6.155  1.00  0.00     0.001 A 
ATOM     17  C   UNL     1      -2.658  -4.444  -6.787  1.00  0.00     0.002 A 
BRANCH   8  18
ATOM     18  C   UNL     1      -0.216  -2.552  -1.137  1.00  0.00     0.128 C 
BRANCH  18  19
ATOM     19  C   UNL     1       1.315  -2.593  -1.299  1.00  0.00     0.022 C 
BRANCH  19  20
ATOM     20  C   UNL     1       1.964  -1.476  -2.118  1.00  0.00     0.002 C 
BRANCH  20  21
ATOM     21  C   UNL     1       1.734  -0.038  -1.657  1.00  0.00    -0.003 C 
ATOM     22  C   UNL     1       1.883   0.196  -0.160  1.00  0.00     0.004 C 
ENDBRANCH  20  21
ENDBRANCH  19  20
ENDBRANCH  18  19
ENDBRANCH   8  18
ENDBRANCH   6   7
ENDBRANCH   5   6
ENDBRANCH   3   5
ENDBRANCH   2   3
ENDBRANCH   1   2
BRANCH   1  23
ATOM     23  C   UNL     1      -4.880  -2.558   1.629  1.00  0.00     0.202 C 
BRANCH  23  24
ATOM     24  O   UNL     1      -3.981  -3.653   1.471  1.00  0.00    -0.374 OA
BRANCH  24  25
ATOM     25  C   UNL     1      -3.248  -3.734   0.250  1.00  0.00     0.202 C 
BRANCH  25  26
ATOM     26  C   UNL     1      -4.053  -4.129  -0.990  1.00  0.00     0.261 C 
BRANCH  26  27
ATOM     27  O   UNL     1      -4.972  -3.088  -1.353  1.00  0.00    -0.460 OA
BRANCH  27  28
ATOM     28  C   UNL     1      -6.235  -3.515  -1.587  1.00  0.00     0.338 C 
ATOM     29  O   UNL     1      -6.632  -4.662  -1.680  1.00  0.00    -0.246 OA
BRANCH  28  30
ATOM     30  C   UNL     1      -7.143  -2.363  -1.480  1.00  0.00     0.060 A 
ATOM     31  C   UNL     1      -7.110  -1.315  -2.401  1.00  0.00     0.016 A 
ATOM     32  C   UNL     1      -8.074  -2.376  -0.434  1.00  0.00     0.016 A 
ATOM     33  C   UNL     1      -8.055  -0.291  -2.295  1.00  0.00     0.010 A 
ATOM     34  C   UNL     1      -9.003  -1.348  -0.322  1.00  0.00     0.010 A 
ATOM     35  C   UNL     1      -9.019  -0.316  -1.270  1.00  0.00    -0.014 A 
BRANCH  35  36
ATOM     36  C   UNL     1     -10.151   0.638  -1.261  1.00  0.00     0.031 A 
ATOM     37  C   UNL     1     -10.189   1.789  -0.305  1.00  0.00     0.074 A 
ATOM     38  C   UNL     1     -11.184   0.392  -2.089  1.00  0.00     0.049 A 
ATOM     39  N   UNL     1     -11.125   2.688  -0.138  1.00  0.00    -0.248 NA
ATOM     40  C   UNL     1      -9.030   1.953   0.585  1.00  0.00     0.031 C 
ATOM     41  C   UNL     1     -11.253  -0.727  -3.031  1.00  0.00     0.029 A 
ATOM     42  N   UNL     1     -12.372   1.052  -2.267  1.00  0.00    -0.354 N 
ATOM     43  C   UNL     1     -10.661   3.539   0.855  1.00  0.00     0.074 A 
ATOM     44  C   UNL     1      -9.381   3.022   1.291  1.00  0.00     0.031 C 
ATOM     45  C   UNL     1     -12.415  -0.666  -3.701  1.00  0.00     0.029 A 
ATOM     46  C   UNL     1     -13.182   0.474  -3.214  1.00  0.00     0.049 A 
ATOM     47  H   UNL     1     -12.620   1.861  -1.764  1.00  0.00     0.167 HD
ATOM     48  C   UNL     1     -11.249   4.660   1.335  1.00  0.00     0.037 A 
ATOM     49  C   UNL     1     -14.410   0.829  -3.637  1.00  0.00     0.037 A 
ATOM     50  C   UNL     1     -12.535   5.148   0.904  1.00  0.00     0.049 A 
ATOM     51  C   UNL     1     -15.061   2.042  -3.034  1.00  0.00     0.074 A 
ATOM     52  C   UNL     1     -13.215   6.278   1.326  1.00  0.00     0.029 A 
ATOM     53  N   UNL     1     -13.337   4.531  -0.046  1.00  0.00    -0.354 N 
ATOM     54  N   UNL     1     -14.590   2.872  -2.135  1.00  0.00    -0.248 NA
ATOM     55  C   UNL     1     -16.413   2.371  -3.505  1.00  0.00     0.031 C 
ATOM     56  C   UNL     1     -14.443   6.324   0.660  1.00  0.00     0.029 A 
ATOM     57  C   UNL     1     -14.510   5.249  -0.211  1.00  0.00     0.049 A 
ATOM     58  H   UNL     1     -13.106   3.706  -0.530  1.00  0.00     0.167 HD
ATOM     59  C   UNL     1     -15.571   3.836  -1.955  1.00  0.00     0.074 A 
ATOM     60  C   UNL     1     -16.658   3.498  -2.850  1.00  0.00     0.031 C 
ATOM     61  C   UNL     1     -15.573   4.903  -1.120  1.00  0.00     0.037 A 
BRANCH  48  62
ATOM     62  C   UNL     1     -10.505   5.466   2.359  1.00  0.00     0.064 A 
ATOM     63  C   UNL     1      -9.394   6.242   1.996  1.00  0.00     0.173 A 
ATOM     64  C   UNL     1     -10.968   5.559   3.680  1.00  0.00     0.173 A 
ATOM     65  F   UNL     1      -8.909   6.184   0.747  1.00  0.00    -0.203 F 
ATOM     66  C   UNL     1      -8.774   7.081   2.918  1.00  0.00     0.198 A 
ATOM     67  C   UNL     1     -10.359   6.417   4.594  1.00  0.00     0.198 A 
ATOM     68  F   UNL     1     -12.032   4.845   4.077  1.00  0.00    -0.203 F 
ATOM     69  F   UNL     1      -7.705   7.802   2.552  1.00  0.00    -0.200 F 
ATOM     70  C   UNL     1      -9.264   7.177   4.212  1.00  0.00     0.200 A 
ATOM     71  F   UNL     1     -10.842   6.520   5.840  1.00  0.00    -0.200 F 
ATOM     72  F   UNL     1      -8.681   8.005   5.091  1.00  0.00    -0.200 F 
ENDBRANCH  48  62
BRANCH  49  73
ATOM     73  C   UNL     1     -15.082   0.052  -4.710  1.00  0.00     0.064 A 
ATOM     74  C   UNL     1     -15.291   0.619  -5.976  1.00  0.00     0.173 A 
ATOM     75  C   UNL     1     -15.530  -1.260  -4.501  1.00  0.00     0.173 A 
ATOM     76  F   UNL     1     -14.896   1.877  -6.218  1.00  0.00    -0.203 F 
ATOM     77  C   UNL     1     -15.941  -0.089  -6.984  1.00  0.00     0.198 A 
ATOM     78  C   UNL     1     -16.154  -1.978  -5.520  1.00  0.00     0.198 A 
ATOM     79  F   UNL     1     -15.351  -1.851  -3.311  1.00  0.00    -0.203 F 
ATOM     80  F   UNL     1     -16.169   0.494  -8.168  1.00  0.00    -0.200 F 
ATOM     81  C   UNL     1     -16.367  -1.389  -6.757  1.00  0.00     0.200 A 
ATOM     82  F   UNL     1     -16.551  -3.239  -5.302  1.00  0.00    -0.200 F 
ATOM     83  F   UNL     1     -16.990  -2.071  -7.728  1.00  0.00    -0.200 F 
ENDBRANCH  49  73
BRANCH  61  84
ATOM     84  C   UNL     1     -16.774   5.801  -1.155  1.00  0.00     0.064 A 
ATOM     85  C   UNL     1     -18.002   5.403  -0.607  1.00  0.00     0.173 A 
ATOM     86  C   UNL     1     -16.676   7.097  -1.683  1.00  0.00     0.173 A 
ATOM     87  F   UNL     1     -18.148   4.168  -0.104  1.00  0.00    -0.203 F 
ATOM     88  C   UNL     1     -19.094   6.265  -0.603  1.00  0.00     0.198 A 
ATOM     89  C   UNL     1     -17.762   7.967  -1.649  1.00  0.00     0.198 A 
ATOM     90  F   UNL     1     -15.521   7.528  -2.211  1.00  0.00    -0.203 F 
ATOM     91  F   UNL     1     -20.269   5.850  -0.109  1.00  0.00    -0.200 F 
ATOM     92  C   UNL     1     -18.971   7.548  -1.114  1.00  0.00     0.200 A 
ATOM     93  F   UNL     1     -17.637   9.212  -2.129  1.00  0.00    -0.200 F 
ATOM     94  F   UNL     1     -20.020   8.382  -1.093  1.00  0.00    -0.200 F 
ENDBRANCH  61  84
ENDBRANCH  35  36
ENDBRANCH  28  30
ENDBRANCH  27  28
ENDBRANCH  26  27
ENDBRANCH  25  26
ENDBRANCH  24  25
ENDBRANCH  23  24
ENDBRANCH   1  23
TORSDOF 20
