REMARK SMILES O=C(OCCOCCOC(=O)c1ccc([C@@H]2CC(O)=Nc3c2ncn3-c2cccc(Cl)c2)cc1)c1ccc(-c2c3nc(c(-c4c(F)c(F)c(F)c(F)c4F)c4ccc([nH]4)c(-c4c(F)c(F)c(F)c(F)c4F)c4nc(c(-c5c(F)c(F)c(F)c(F)c5F)c5ccc2[nH]5)C=C4)C=C3)cc1
REMARK SMILES IDX 6 1 5 2 4 3 3 4 2 5 1 6 35 7 36 8 97 9 37 10 96 11 38 12
REMARK SMILES IDX 39 13 40 14 90 15 41 16 95 17 89 18 91 19 42 20 94 21 88 22
REMARK SMILES IDX 87 23 43 25 75 26 55 27 74 28 56 29 59 30 73 31 92 32 57 33
REMARK SMILES IDX 58 34 72 36 93 37 60 38 44 39 45 40 53 41 46 42 47 43 51 44
REMARK SMILES IDX 54 45 48 46 49 47 52 48 50 49 76 50 77 51 85 52 78 53 79 54
REMARK SMILES IDX 83 55 86 56 80 57 81 58 84 59 82 60 61 61 62 62 70 63 63 64
REMARK SMILES IDX 64 65 68 66 71 67 65 68 66 69 69 70 67 71 7 72 8 73 9 74
REMARK SMILES IDX 10 75 11 76 12 77 13 78 34 79 14 80 33 81 15 82 16 83 17 84
REMARK SMILES IDX 22 85 18 86 21 87 23 88 20 89 25 90 24 91 19 92 26 94 27 95
REMARK SMILES IDX 32 96 28 97 30 98 29 99 31 100
REMARK H PARENT 91 24 59 35 19 93
REMARK Flexibility Score: inf
ROOT
ATOM      1  O   UNL     1       4.165   0.254  -1.307  1.00  0.00    -0.374 OA
ENDROOT
BRANCH   1   2
ATOM      2  C   UNL     1       4.747  -0.683  -0.411  1.00  0.00     0.202 C 
BRANCH   2   3
ATOM      3  C   UNL     1       4.475  -0.543   1.085  1.00  0.00     0.261 C 
BRANCH   3   4
ATOM      4  O   UNL     1       3.104  -0.763   1.453  1.00  0.00    -0.460 OA
BRANCH   4   5
ATOM      5  C   UNL     1       2.051  -0.056   0.991  1.00  0.00     0.338 C 
ATOM      6  O   UNL     1       1.014  -0.626   0.660  1.00  0.00    -0.246 OA
BRANCH   5   7
ATOM      7  C   UNL     1       2.044   1.418   1.164  1.00  0.00     0.060 A 
ATOM      8  C   UNL     1       3.174   2.212   1.348  1.00  0.00     0.016 A 
ATOM      9  C   UNL     1       0.771   1.997   1.287  1.00  0.00     0.016 A 
ATOM     10  C   UNL     1       3.050   3.444   1.952  1.00  0.00     0.010 A 
ATOM     11  C   UNL     1       0.635   3.261   1.820  1.00  0.00     0.010 A 
ATOM     12  C   UNL     1       1.777   3.924   2.250  1.00  0.00    -0.014 A 
BRANCH  12  13
ATOM     13  C   UNL     1       1.682   5.235   2.858  1.00  0.00     0.031 A 
ATOM     14  C   UNL     1       2.222   6.300   1.978  1.00  0.00     0.074 A 
ATOM     15  C   UNL     1       1.078   5.427   4.047  1.00  0.00     0.049 A 
ATOM     16  N   UNL     1       3.247   7.055   2.195  1.00  0.00    -0.248 NA
ATOM     17  C   UNL     1       1.689   6.395   0.607  1.00  0.00     0.031 C 
ATOM     18  C   UNL     1       0.340   4.446   4.847  1.00  0.00     0.029 A 
ATOM     19  N   UNL     1       0.908   6.579   4.752  1.00  0.00    -0.354 N 
ATOM     20  C   UNL     1       3.341   7.882   1.080  1.00  0.00     0.074 A 
ATOM     21  C   UNL     1       2.509   7.296   0.066  1.00  0.00     0.031 C 
ATOM     22  C   UNL     1      -0.393   5.091   5.782  1.00  0.00     0.029 A 
ATOM     23  C   UNL     1      -0.076   6.506   5.735  1.00  0.00     0.049 A 
ATOM     24  H   UNL     1       1.435   7.393   4.581  1.00  0.00     0.167 HD
ATOM     25  C   UNL     1       3.837   9.141   1.213  1.00  0.00     0.037 A 
ATOM     26  C   UNL     1      -0.632   7.561   6.385  1.00  0.00     0.037 A 
ATOM     27  C   UNL     1       4.674   9.234   2.386  1.00  0.00     0.049 A 
ATOM     28  C   UNL     1       0.296   8.711   6.229  1.00  0.00     0.074 A 
ATOM     29  C   UNL     1       5.821   8.594   2.815  1.00  0.00     0.029 A 
ATOM     30  N   UNL     1       4.137   9.822   3.504  1.00  0.00    -0.354 N 
ATOM     31  N   UNL     1       1.474   8.766   6.787  1.00  0.00    -0.248 NA
ATOM     32  C   UNL     1       0.115   9.566   5.064  1.00  0.00     0.031 C 
ATOM     33  C   UNL     1       5.653   8.432   4.222  1.00  0.00     0.029 A 
ATOM     34  C   UNL     1       4.460   9.053   4.589  1.00  0.00     0.049 A 
ATOM     35  H   UNL     1       3.610  10.654   3.522  1.00  0.00     0.167 HD
ATOM     36  C   UNL     1       2.301   9.287   5.803  1.00  0.00     0.074 A 
ATOM     37  C   UNL     1       1.396   9.828   4.790  1.00  0.00     0.031 C 
ATOM     38  C   UNL     1       3.625   8.957   5.761  1.00  0.00     0.037 A 
BRANCH  25  39
ATOM     39  C   UNL     1       3.174  10.356   0.593  1.00  0.00     0.064 A 
ATOM     40  C   UNL     1       3.749  11.622   0.827  1.00  0.00     0.173 A 
ATOM     41  C   UNL     1       1.853  10.381   0.088  1.00  0.00     0.173 A 
ATOM     42  F   UNL     1       4.998  11.727   1.305  1.00  0.00    -0.203 F 
ATOM     43  C   UNL     1       3.017  12.804   0.688  1.00  0.00     0.198 A 
ATOM     44  C   UNL     1       1.143  11.565  -0.095  1.00  0.00     0.198 A 
ATOM     45  F   UNL     1       1.145   9.273  -0.150  1.00  0.00    -0.203 F 
ATOM     46  F   UNL     1       3.559  13.968   1.069  1.00  0.00    -0.200 F 
ATOM     47  C   UNL     1       1.709  12.773   0.242  1.00  0.00     0.200 A 
ATOM     48  F   UNL     1      -0.129  11.509  -0.515  1.00  0.00    -0.200 F 
ATOM     49  F   UNL     1       0.981  13.894   0.181  1.00  0.00    -0.200 F 
ENDBRANCH  25  39
BRANCH  26  50
ATOM     50  C   UNL     1      -2.043   7.744   6.812  1.00  0.00     0.064 A 
ATOM     51  C   UNL     1      -2.406   8.787   7.682  1.00  0.00     0.173 A 
ATOM     52  C   UNL     1      -3.101   7.086   6.155  1.00  0.00     0.173 A 
ATOM     53  F   UNL     1      -1.461   9.500   8.311  1.00  0.00    -0.203 F 
ATOM     54  C   UNL     1      -3.742   9.165   7.860  1.00  0.00     0.198 A 
ATOM     55  C   UNL     1      -4.434   7.459   6.339  1.00  0.00     0.198 A 
ATOM     56  F   UNL     1      -2.861   6.132   5.244  1.00  0.00    -0.203 F 
ATOM     57  F   UNL     1      -4.043  10.209   8.647  1.00  0.00    -0.200 F 
ATOM     58  C   UNL     1      -4.754   8.508   7.181  1.00  0.00     0.200 A 
ATOM     59  F   UNL     1      -5.399   6.840   5.645  1.00  0.00    -0.200 F 
ATOM     60  F   UNL     1      -6.027   8.910   7.301  1.00  0.00    -0.200 F 
ENDBRANCH  26  50
BRANCH  38  61
ATOM     61  C   UNL     1       4.210   8.260   6.957  1.00  0.00     0.064 A 
ATOM     62  C   UNL     1       3.809   6.991   7.413  1.00  0.00     0.173 A 
ATOM     63  C   UNL     1       5.312   8.852   7.586  1.00  0.00     0.173 A 
ATOM     64  F   UNL     1       2.830   6.313   6.800  1.00  0.00    -0.203 F 
ATOM     65  C   UNL     1       4.455   6.372   8.483  1.00  0.00     0.198 A 
ATOM     66  C   UNL     1       5.980   8.216   8.627  1.00  0.00     0.198 A 
ATOM     67  F   UNL     1       5.772  10.038   7.156  1.00  0.00    -0.203 F 
ATOM     68  F   UNL     1       4.046   5.169   8.912  1.00  0.00    -0.200 F 
ATOM     69  C   UNL     1       5.544   6.983   9.084  1.00  0.00     0.200 A 
ATOM     70  F   UNL     1       7.064   8.787   9.169  1.00  0.00    -0.200 F 
ATOM     71  F   UNL     1       6.191   6.372  10.086  1.00  0.00    -0.200 F 
ENDBRANCH  38  61
ENDBRANCH  12  13
ENDBRANCH   5   7
ENDBRANCH   4   5
ENDBRANCH   3   4
ENDBRANCH   2   3
ENDBRANCH   1   2
BRANCH   1  72
ATOM     72  C   UNL     1       2.981  -0.142  -2.016  1.00  0.00     0.202 C 
BRANCH  72  73
ATOM     73  C   UNL     1       2.995  -1.338  -2.987  1.00  0.00     0.261 C 
BRANCH  73  74
ATOM     74  O   UNL     1       3.308  -2.593  -2.358  1.00  0.00    -0.460 OA
BRANCH  74  75
ATOM     75  C   UNL     1       4.572  -3.030  -2.589  1.00  0.00     0.338 C 
ATOM     76  O   UNL     1       5.396  -2.528  -3.326  1.00  0.00    -0.246 OA
BRANCH  75  77
ATOM     77  C   UNL     1       4.930  -4.082  -1.615  1.00  0.00     0.060 A 
ATOM     78  C   UNL     1       6.087  -3.870  -0.857  1.00  0.00     0.016 A 
ATOM     79  C   UNL     1       4.219  -5.275  -1.505  1.00  0.00     0.016 A 
ATOM     80  C   UNL     1       6.585  -4.881  -0.048  1.00  0.00     0.005 A 
ATOM     81  C   UNL     1       4.747  -6.310  -0.725  1.00  0.00     0.005 A 
ATOM     82  C   UNL     1       5.967  -6.140  -0.039  1.00  0.00    -0.038 A 
BRANCH  82  83
ATOM     83  C   UNL     1       6.797  -7.305   0.468  1.00  0.00     0.081 C 
ATOM     84  C   UNL     1       7.302  -8.133  -0.738  1.00  0.00     0.111 C 
ATOM     85  C   UNL     1       6.018  -8.120   1.421  1.00  0.00     0.093 A 
ATOM     86  C   UNL     1       6.907  -9.596  -0.727  1.00  0.00     0.188 C 
ATOM     87  C   UNL     1       5.920  -9.483   1.261  1.00  0.00     0.164 A 
ATOM     88  N   UNL     1       5.413  -7.702   2.574  1.00  0.00    -0.238 NA
ATOM     89  N   UNL     1       6.309 -10.248   0.214  1.00  0.00    -0.198 NA
ATOM     90  N   UNL     1       5.250  -9.934   2.378  1.00  0.00    -0.283 N 
ATOM     91  C   UNL     1       4.919  -8.806   3.102  1.00  0.00     0.206 A 
BRANCH  86  92
ATOM     92  O   UNL     1       7.253 -10.262  -1.846  1.00  0.00    -0.496 OA
ATOM     93  H   UNL     1       7.687  -9.813  -2.544  1.00  0.00     0.294 HD
ENDBRANCH  86  92
BRANCH  90  94
ATOM     94  C   UNL     1       4.981 -11.278   2.714  1.00  0.00     0.050 A 
ATOM     95  C   UNL     1       3.733 -11.639   3.228  1.00  0.00     0.027 A 
ATOM     96  C   UNL     1       5.970 -12.248   2.494  1.00  0.00     0.047 A 
ATOM     97  C   UNL     1       3.459 -12.988   3.467  1.00  0.00     0.004 A 
ATOM     98  C   UNL     1       5.700 -13.581   2.784  1.00  0.00     0.043 A 
ATOM     99  C   UNL     1       4.443 -13.957   3.251  1.00  0.00     0.020 A 
ATOM    100  Cl  UNL     1       6.928 -14.767   2.571  1.00  0.00    -0.084 Cl
ENDBRANCH  90  94
ENDBRANCH  82  83
ENDBRANCH  75  77
ENDBRANCH  74  75
ENDBRANCH  73  74
ENDBRANCH  72  73
ENDBRANCH   1  72
TORSDOF 17
