REMARK SMILES O=C(OCCOCCOC(=O)c1cn(C2CC2)c2cc(N3CC[NH2+]CC3)ccc2c1=O)c1ccc(-c2c3nc(c(-c4c(F)c(F)c(F)c(F)c4F)c4ccc([nH]4)c(-c4c(F)c(F)c(F)c(F)c4F)c4nc(c(-c5c(F)c(F)c(F)c(F)c5F)c5ccc2[nH]5)C=C4)C=C3)cc1
REMARK SMILES IDX 5 1 4 2 3 3 2 4 1 5 32 6 33 7 94 8 34 9 93 10 35 11 36 12
REMARK SMILES IDX 37 13 87 14 38 15 92 16 86 17 88 18 39 19 91 20 85 21 84 22
REMARK SMILES IDX 40 24 72 25 52 26 71 27 53 28 56 29 70 30 89 31 54 32 55 33
REMARK SMILES IDX 69 35 90 36 57 37 41 38 42 39 50 40 43 41 44 42 48 43 51 44
REMARK SMILES IDX 45 45 46 46 49 47 47 48 73 49 74 50 82 51 75 52 76 53 80 54
REMARK SMILES IDX 83 55 77 56 78 57 81 58 79 59 58 60 59 61 67 62 60 63 61 64
REMARK SMILES IDX 65 65 68 66 62 67 63 68 66 69 64 70 6 71 7 72 8 73 9 74
REMARK SMILES IDX 10 75 11 76 12 77 13 78 30 79 14 80 29 81 31 82 18 83 28 84
REMARK SMILES IDX 19 85 27 86 20 87 15 88 16 89 17 90 21 91 22 92 26 93 23 94
REMARK SMILES IDX 25 95 24 96
REMARK H PARENT 88 23 56 34 24 97 24 98
REMARK Flexibility Score: inf
ROOT
ATOM      1  C   UNL     1       4.157  -0.095  -1.402  1.00  0.00     0.202 C 
ENDROOT
BRANCH   1   2
ATOM      2  C   UNL     1       4.067  -1.431  -0.673  1.00  0.00     0.261 C 
BRANCH   2   3
ATOM      3  O   UNL     1       2.778  -1.664  -0.089  1.00  0.00    -0.460 OA
BRANCH   3   4
ATOM      4  C   UNL     1       2.231  -1.138   1.030  1.00  0.00     0.338 C 
ATOM      5  O   UNL     1       1.066  -1.448   1.285  1.00  0.00    -0.246 OA
BRANCH   4   6
ATOM      6  C   UNL     1       2.908  -0.181   1.973  1.00  0.00     0.060 A 
ATOM      7  C   UNL     1       2.071   0.439   2.923  1.00  0.00     0.016 A 
ATOM      8  C   UNL     1       4.267   0.152   2.003  1.00  0.00     0.016 A 
ATOM      9  C   UNL     1       2.567   1.367   3.842  1.00  0.00     0.010 A 
ATOM     10  C   UNL     1       4.768   1.099   2.898  1.00  0.00     0.010 A 
ATOM     11  C   UNL     1       3.921   1.703   3.825  1.00  0.00    -0.014 A 
BRANCH  11  12
ATOM     12  C   UNL     1       4.495   2.570   4.866  1.00  0.00     0.031 A 
ATOM     13  C   UNL     1       4.692   4.030   4.634  1.00  0.00     0.074 A 
ATOM     14  C   UNL     1       4.889   1.982   6.009  1.00  0.00     0.049 A 
ATOM     15  N   UNL     1       5.048   4.953   5.489  1.00  0.00    -0.248 NA
ATOM     16  C   UNL     1       4.476   4.521   3.265  1.00  0.00     0.031 C 
ATOM     17  C   UNL     1       4.816   0.544   6.272  1.00  0.00     0.029 A 
ATOM     18  N   UNL     1       5.432   2.508   7.148  1.00  0.00    -0.354 N 
ATOM     19  C   UNL     1       5.066   6.140   4.773  1.00  0.00     0.074 A 
ATOM     20  C   UNL     1       4.743   5.814   3.400  1.00  0.00     0.031 C 
ATOM     21  C   UNL     1       5.286   0.302   7.504  1.00  0.00     0.029 A 
ATOM     22  C   UNL     1       5.678   1.567   8.115  1.00  0.00     0.049 A 
ATOM     23  H   UNL     1       5.627   3.466   7.263  1.00  0.00     0.167 HD
ATOM     24  C   UNL     1       5.310   7.386   5.244  1.00  0.00     0.037 A 
ATOM     25  C   UNL     1       6.139   1.719   9.368  1.00  0.00     0.037 A 
ATOM     26  C   UNL     1       5.659   7.664   6.614  1.00  0.00     0.049 A 
ATOM     27  C   UNL     1       6.402   3.107   9.870  1.00  0.00     0.074 A 
ATOM     28  C   UNL     1       5.836   8.888   7.233  1.00  0.00     0.029 A 
ATOM     29  N   UNL     1       5.913   6.690   7.572  1.00  0.00    -0.354 N 
ATOM     30  N   UNL     1       6.262   4.247   9.238  1.00  0.00    -0.248 NA
ATOM     31  C   UNL     1       6.864   3.237  11.256  1.00  0.00     0.031 C 
ATOM     32  C   UNL     1       6.246   8.653   8.550  1.00  0.00     0.029 A 
ATOM     33  C   UNL     1       6.287   7.284   8.766  1.00  0.00     0.049 A 
ATOM     34  H   UNL     1       5.838   5.719   7.424  1.00  0.00     0.167 HD
ATOM     35  C   UNL     1       6.613   5.234  10.145  1.00  0.00     0.074 A 
ATOM     36  C   UNL     1       6.955   4.555  11.382  1.00  0.00     0.031 C 
ATOM     37  C   UNL     1       6.648   6.577   9.971  1.00  0.00     0.037 A 
BRANCH  24  38
ATOM     38  C   UNL     1       5.189   8.536   4.287  1.00  0.00     0.064 A 
ATOM     39  C   UNL     1       3.940   8.944   3.794  1.00  0.00     0.173 A 
ATOM     40  C   UNL     1       6.316   9.281   3.909  1.00  0.00     0.173 A 
ATOM     41  F   UNL     1       2.829   8.266   4.123  1.00  0.00    -0.203 F 
ATOM     42  C   UNL     1       3.826  10.041   2.943  1.00  0.00     0.198 A 
ATOM     43  C   UNL     1       6.195  10.392   3.076  1.00  0.00     0.198 A 
ATOM     44  F   UNL     1       7.533   8.942   4.358  1.00  0.00    -0.203 F 
ATOM     45  F   UNL     1       2.625  10.392   2.462  1.00  0.00    -0.200 F 
ATOM     46  C   UNL     1       4.952  10.768   2.591  1.00  0.00     0.200 A 
ATOM     47  F   UNL     1       7.283  11.103   2.747  1.00  0.00    -0.200 F 
ATOM     48  F   UNL     1       4.839  11.831   1.782  1.00  0.00    -0.200 F 
ENDBRANCH  24  38
BRANCH  25  49
ATOM     49  C   UNL     1       6.271   0.517  10.226  1.00  0.00     0.064 A 
ATOM     50  C   UNL     1       5.311   0.234  11.204  1.00  0.00     0.173 A 
ATOM     51  C   UNL     1       7.278  -0.433   9.998  1.00  0.00     0.173 A 
ATOM     52  F   UNL     1       4.333   1.115  11.457  1.00  0.00    -0.203 F 
ATOM     53  C   UNL     1       5.345  -0.963  11.917  1.00  0.00     0.198 A 
ATOM     54  C   UNL     1       7.300  -1.637  10.699  1.00  0.00     0.198 A 
ATOM     55  F   UNL     1       8.208  -0.213   9.057  1.00  0.00    -0.203 F 
ATOM     56  F   UNL     1       4.411  -1.213  12.845  1.00  0.00    -0.200 F 
ATOM     57  C   UNL     1       6.332  -1.901  11.656  1.00  0.00     0.200 A 
ATOM     58  F   UNL     1       8.242  -2.550  10.429  1.00  0.00    -0.200 F 
ATOM     59  F   UNL     1       6.344  -3.066  12.319  1.00  0.00    -0.200 F 
ENDBRANCH  25  49
BRANCH  37  60
ATOM     60  C   UNL     1       7.109   7.402  11.133  1.00  0.00     0.064 A 
ATOM     61  C   UNL     1       8.469   7.482  11.464  1.00  0.00     0.173 A 
ATOM     62  C   UNL     1       6.201   8.181  11.863  1.00  0.00     0.173 A 
ATOM     63  F   UNL     1       9.370   6.742  10.800  1.00  0.00    -0.203 F 
ATOM     64  C   UNL     1       8.904   8.313  12.491  1.00  0.00     0.198 A 
ATOM     65  C   UNL     1       6.643   9.028  12.875  1.00  0.00     0.198 A 
ATOM     66  F   UNL     1       4.891   8.140  11.578  1.00  0.00    -0.203 F 
ATOM     67  F   UNL     1      10.206   8.361  12.806  1.00  0.00    -0.200 F 
ATOM     68  C   UNL     1       7.993   9.094  13.187  1.00  0.00     0.200 A 
ATOM     69  F   UNL     1       5.764   9.791  13.540  1.00  0.00    -0.200 F 
ATOM     70  F   UNL     1       8.416   9.909  14.163  1.00  0.00    -0.200 F 
ENDBRANCH  37  60
ENDBRANCH  11  12
ENDBRANCH   4   6
ENDBRANCH   3   4
ENDBRANCH   2   3
ENDBRANCH   1   2
BRANCH   1  71
ATOM     71  O   UNL     1       3.694   1.013  -0.635  1.00  0.00    -0.374 OA
BRANCH  71  72
ATOM     72  C   UNL     1       2.514   1.642  -1.139  1.00  0.00     0.202 C 
BRANCH  72  73
ATOM     73  C   UNL     1       2.851   2.805  -2.075  1.00  0.00     0.261 C 
BRANCH  73  74
ATOM     74  O   UNL     1       3.415   2.293  -3.293  1.00  0.00    -0.459 OA
BRANCH  74  75
ATOM     75  C   UNL     1       4.775   2.350  -3.406  1.00  0.00     0.343 C 
ATOM     76  O   UNL     1       5.532   2.980  -2.704  1.00  0.00    -0.246 OA
BRANCH  75  77
ATOM     77  C   UNL     1       5.168   1.391  -4.459  1.00  0.00     0.124 A 
ATOM     78  C   UNL     1       4.522   1.395  -5.632  1.00  0.00     0.106 A 
ATOM     79  C   UNL     1       6.179   0.339  -4.234  1.00  0.00     0.203 A 
ATOM     80  N   UNL     1       4.691   0.490  -6.664  1.00  0.00    -0.343 N 
ATOM     81  C   UNL     1       6.280  -0.733  -5.251  1.00  0.00     0.047 A 
ATOM     82  O   UNL     1       6.884   0.300  -3.233  1.00  0.00    -0.288 OA
ATOM     83  C   UNL     1       5.596  -0.600  -6.473  1.00  0.00     0.054 A 
ATOM     84  C   UNL     1       7.064  -1.860  -4.967  1.00  0.00     0.016 A 
ATOM     85  C   UNL     1       5.839  -1.583  -7.442  1.00  0.00     0.053 A 
ATOM     86  C   UNL     1       7.219  -2.856  -5.928  1.00  0.00     0.027 A 
ATOM     87  C   UNL     1       6.642  -2.711  -7.189  1.00  0.00     0.039 A 
BRANCH  80  88
ATOM     88  C   UNL     1       3.868   0.614  -7.895  1.00  0.00     0.087 C 
ATOM     89  C   UNL     1       2.693   1.539  -8.101  1.00  0.00     0.027 C 
ATOM     90  C   UNL     1       4.001   1.831  -8.775  1.00  0.00     0.027 C 
ENDBRANCH  80  88
BRANCH  87  91
ATOM     91  N   UNL     1       6.884  -3.611  -8.204  1.00  0.00    -0.360 N 
ATOM     92  C   UNL     1       7.741  -3.183  -9.315  1.00  0.00     0.178 C 
ATOM     93  C   UNL     1       6.615  -5.043  -8.060  1.00  0.00     0.178 C 
ATOM     94  C   UNL     1       8.989  -4.087  -9.415  1.00  0.00     0.282 C 
ATOM     95  C   UNL     1       7.892  -5.888  -8.269  1.00  0.00     0.282 C 
ATOM     96  N   UNL     1       8.662  -5.528  -9.479  1.00  0.00    -0.343 N 
ATOM     97  H   UNL     1       9.522  -6.075  -9.515  1.00  0.00     0.346 HD
ATOM     98  H   UNL     1       8.113  -5.724 -10.316  1.00  0.00     0.346 HD
ENDBRANCH  87  91
ENDBRANCH  75  77
ENDBRANCH  74  75
ENDBRANCH  73  74
ENDBRANCH  72  73
ENDBRANCH  71  72
ENDBRANCH   1  71
TORSDOF 16
