REMARK SMILES CS(=O)(=O)c1ccc(C2=NN(c3ccc(C(=O)OCCOCCOC(=O)c4ccc(-c5c6nc(c(-c7c(F)c(F)c(F)c(F)c7F)c7ccc([nH]7)c(-c7c(F)c(F)c(F)c(F)c7F)c7nc(c(-c8c(F)c(F)c(F)c(F)c8F)c8ccc5[nH]8)C=C7)C=C6)cc4)cc3)[C@H](c3ccc(Cl)cc3)C2)cc1
REMARK SMILES IDX 20 1 19 2 18 3 16 4 17 5 15 6 12 7 13 8 91 9 14 10 90 11
REMARK SMILES IDX 11 12 9 13 10 14 100 15 92 16 8 17 5 18 6 19 102 20 7 21
REMARK SMILES IDX 101 22 2 23 1 24 3 25 4 26 93 27 94 28 99 29 95 30 98 31
REMARK SMILES IDX 96 32 97 33 21 34 22 35 23 36 24 37 25 38 26 39 27 40 28 41
REMARK SMILES IDX 89 42 29 43 88 44 30 45 31 46 32 47 82 48 33 49 87 50 81 51
REMARK SMILES IDX 83 52 34 53 86 54 80 55 79 56 35 58 67 59 47 60 66 61 48 62
REMARK SMILES IDX 51 63 65 64 84 65 49 66 50 67 64 69 85 70 52 71 36 72 37 73
REMARK SMILES IDX 45 74 38 75 39 76 43 77 46 78 40 79 41 80 44 81 42 82 68 83
REMARK SMILES IDX 69 84 77 85 70 86 71 87 75 88 78 89 72 90 73 91 76 92 74 93
REMARK SMILES IDX 53 94 54 95 62 96 55 97 56 98 60 99 63 100 57 101 58 102
REMARK SMILES IDX 61 103 59 104
REMARK H PARENT 83 57 51 68
REMARK Flexibility Score: inf
ROOT
ATOM      1  C   UNL     1       0.916  -3.579 -16.525  1.00  0.00     0.202 C 
ENDROOT
BRANCH   1   2
ATOM      2  C   UNL     1       1.760  -2.314 -16.351  1.00  0.00     0.261 C 
BRANCH   2   3
ATOM      3  O   UNL     1       2.207  -2.185 -14.992  1.00  0.00    -0.460 OA
BRANCH   3   4
ATOM      4  C   UNL     1       1.673  -1.147 -14.304  1.00  0.00     0.338 C 
ATOM      5  O   UNL     1       0.995  -0.241 -14.765  1.00  0.00    -0.246 OA
BRANCH   4   6
ATOM      6  C   UNL     1       1.942  -1.289 -12.851  1.00  0.00     0.060 A 
ATOM      7  C   UNL     1       2.496  -1.286 -10.099  1.00  0.00     0.060 A 
ATOM      8  C   UNL     1       1.407  -0.565 -10.599  1.00  0.00     0.029 A 
ATOM      9  C   UNL     1       3.227  -2.102 -10.975  1.00  0.00     0.029 A 
ATOM     10  C   UNL     1       1.137  -0.559 -11.968  1.00  0.00     0.018 A 
ATOM     11  C   UNL     1       2.962  -2.102 -12.347  1.00  0.00     0.018 A 
BRANCH   7  12
ATOM     12  N   UNL     1       2.970  -1.073  -8.799  1.00  0.00    -0.257 N 
ATOM     13  C   UNL     1       2.489  -0.587  -6.778  1.00  0.00     0.071 C 
ATOM     14  N   UNL     1       2.197  -1.413  -7.734  1.00  0.00    -0.176 NA
ATOM     15  C   UNL     1       3.423   0.533  -7.141  1.00  0.00     0.091 C 
ATOM     16  C   UNL     1       3.797   0.125  -8.571  1.00  0.00     0.144 C 
BRANCH  13  17
ATOM     17  C   UNL     1       1.950  -0.726  -5.412  1.00  0.00    -0.002 A 
ATOM     18  C   UNL     1       0.937  -1.084  -2.840  1.00  0.00     0.067 A 
ATOM     19  C   UNL     1       1.346  -2.194  -3.584  1.00  0.00     0.021 A 
ATOM     20  C   UNL     1       1.029   0.206  -3.376  1.00  0.00     0.021 A 
ATOM     21  C   UNL     1       1.839  -2.014  -4.876  1.00  0.00     0.011 A 
ATOM     22  C   UNL     1       1.551   0.386  -4.662  1.00  0.00     0.011 A 
BRANCH  18  23
ATOM     23  S   UNL     1       0.272  -1.341  -1.209  1.00  0.00     0.175 S 
ATOM     24  C   UNL     1       1.016  -0.101  -0.186  1.00  0.00     0.163 C 
ATOM     25  O   UNL     1       0.767  -2.623  -0.743  1.00  0.00    -0.224 OA
ATOM     26  O   UNL     1      -1.148  -1.068  -1.295  1.00  0.00    -0.224 OA
ENDBRANCH  18  23
ENDBRANCH  13  17
BRANCH  16  27
ATOM     27  C   UNL     1       5.255  -0.194  -8.873  1.00  0.00    -0.023 A 
ATOM     28  C   UNL     1       6.158  -0.678  -7.915  1.00  0.00     0.007 A 
ATOM     29  C   UNL     1       5.697  -0.101 -10.210  1.00  0.00     0.007 A 
ATOM     30  C   UNL     1       7.453  -1.061  -8.284  1.00  0.00     0.021 A 
ATOM     31  C   UNL     1       6.975  -0.518 -10.585  1.00  0.00     0.021 A 
ATOM     32  C   UNL     1       7.849  -0.996  -9.617  1.00  0.00     0.041 A 
ATOM     33  Cl  UNL     1       9.418  -1.531 -10.075  1.00  0.00    -0.084 Cl
ENDBRANCH  16  27
ENDBRANCH   7  12
ENDBRANCH   4   6
ENDBRANCH   3   4
ENDBRANCH   2   3
ENDBRANCH   1   2
BRANCH   1  34
ATOM     34  O   UNL     1      -0.328  -3.601 -15.827  1.00  0.00    -0.374 OA
BRANCH  34  35
ATOM     35  C   UNL     1      -0.292  -3.931 -14.437  1.00  0.00     0.202 C 
BRANCH  35  36
ATOM     36  C   UNL     1      -0.187  -5.423 -14.099  1.00  0.00     0.261 C 
BRANCH  36  37
ATOM     37  O   UNL     1       1.071  -5.984 -14.517  1.00  0.00    -0.460 OA
BRANCH  37  38
ATOM     38  C   UNL     1       0.993  -6.841 -15.561  1.00  0.00     0.338 C 
ATOM     39  O   UNL     1      -0.018  -7.242 -16.122  1.00  0.00    -0.246 OA
BRANCH  38  40
ATOM     40  C   UNL     1       2.343  -7.125 -16.080  1.00  0.00     0.060 A 
ATOM     41  C   UNL     1       2.562  -6.936 -17.450  1.00  0.00     0.016 A 
ATOM     42  C   UNL     1       3.357  -7.627 -15.262  1.00  0.00     0.016 A 
ATOM     43  C   UNL     1       3.785  -7.288 -18.017  1.00  0.00     0.010 A 
ATOM     44  C   UNL     1       4.581  -7.989 -15.834  1.00  0.00     0.010 A 
ATOM     45  C   UNL     1       4.790  -7.849 -17.218  1.00  0.00    -0.014 A 
BRANCH  45  46
ATOM     46  C   UNL     1       6.012  -8.399 -17.853  1.00  0.00     0.031 A 
ATOM     47  C   UNL     1       6.112  -9.879 -18.093  1.00  0.00     0.074 A 
ATOM     48  C   UNL     1       7.012  -7.584 -18.232  1.00  0.00     0.049 A 
ATOM     49  N   UNL     1       7.100 -10.575 -18.597  1.00  0.00    -0.248 NA
ATOM     50  C   UNL     1       4.941 -10.684 -17.713  1.00  0.00     0.031 C 
ATOM     51  C   UNL     1       7.015  -6.130 -18.088  1.00  0.00     0.029 A 
ATOM     52  N   UNL     1       8.224  -7.870 -18.810  1.00  0.00    -0.354 N 
ATOM     53  C   UNL     1       6.672 -11.896 -18.593  1.00  0.00     0.074 A 
ATOM     54  C   UNL     1       5.348 -11.910 -18.008  1.00  0.00     0.031 C 
ATOM     55  C   UNL     1       8.180  -5.649 -18.556  1.00  0.00     0.029 A 
ATOM     56  C   UNL     1       9.014  -6.764 -19.001  1.00  0.00     0.049 A 
ATOM     57  H   UNL     1       8.500  -8.780 -19.063  1.00  0.00     0.167 HD
ATOM     58  C   UNL     1       7.321 -12.995 -19.044  1.00  0.00     0.037 A 
ATOM     59  C   UNL     1      10.277  -6.668 -19.462  1.00  0.00     0.037 A 
ATOM     60  C   UNL     1       8.639 -12.979 -19.624  1.00  0.00     0.049 A 
ATOM     61  C   UNL     1      11.007  -7.916 -19.884  1.00  0.00     0.074 A 
ATOM     62  C   UNL     1       9.372 -14.038 -20.131  1.00  0.00     0.029 A 
ATOM     63  N   UNL     1       9.424 -11.845 -19.767  1.00  0.00    -0.354 N 
ATOM     64  N   UNL     1      10.586  -9.157 -19.903  1.00  0.00    -0.248 NA
ATOM     65  C   UNL     1      12.391  -7.748 -20.351  1.00  0.00     0.031 C 
ATOM     66  C   UNL     1      10.621 -13.552 -20.534  1.00  0.00     0.029 A 
ATOM     67  C   UNL     1      10.646 -12.183 -20.326  1.00  0.00     0.049 A 
ATOM     68  H   UNL     1       9.153 -10.934 -19.508  1.00  0.00     0.167 HD
ATOM     69  C   UNL     1      11.638  -9.912 -20.405  1.00  0.00     0.074 A 
ATOM     70  C   UNL     1      12.715  -8.987 -20.692  1.00  0.00     0.031 C 
ATOM     71  C   UNL     1      11.707 -11.250 -20.611  1.00  0.00     0.037 A 
BRANCH  58  72
ATOM     72  C   UNL     1       6.624 -14.317 -18.908  1.00  0.00     0.064 A 
ATOM     73  C   UNL     1       5.524 -14.655 -19.710  1.00  0.00     0.173 A 
ATOM     74  C   UNL     1       7.085 -15.272 -17.989  1.00  0.00     0.173 A 
ATOM     75  F   UNL     1       5.036 -13.773 -20.595  1.00  0.00    -0.203 F 
ATOM     76  C   UNL     1       4.898 -15.893 -19.582  1.00  0.00     0.198 A 
ATOM     77  C   UNL     1       6.474 -16.518 -17.883  1.00  0.00     0.198 A 
ATOM     78  F   UNL     1       8.136 -14.999 -17.202  1.00  0.00    -0.203 F 
ATOM     79  F   UNL     1       3.823 -16.179 -20.329  1.00  0.00    -0.200 F 
ATOM     80  C   UNL     1       5.377 -16.825 -18.674  1.00  0.00     0.200 A 
ATOM     81  F   UNL     1       6.946 -17.422 -17.013  1.00  0.00    -0.200 F 
ATOM     82  F   UNL     1       4.779 -18.018 -18.557  1.00  0.00    -0.200 F 
ENDBRANCH  58  72
BRANCH  59  83
ATOM     83  C   UNL     1      10.940  -5.340 -19.537  1.00  0.00     0.064 A 
ATOM     84  C   UNL     1      11.244  -4.753 -20.772  1.00  0.00     0.173 A 
ATOM     85  C   UNL     1      11.298  -4.641 -18.375  1.00  0.00     0.173 A 
ATOM     86  F   UNL     1      10.946  -5.395 -21.911  1.00  0.00    -0.203 F 
ATOM     87  C   UNL     1      11.897  -3.523 -20.843  1.00  0.00     0.198 A 
ATOM     88  C   UNL     1      11.926  -3.399 -18.447  1.00  0.00     0.198 A 
ATOM     89  F   UNL     1      11.032  -5.162 -17.168  1.00  0.00    -0.203 F 
ATOM     90  F   UNL     1      12.218  -3.005 -22.036  1.00  0.00    -0.200 F 
ATOM     91  C   UNL     1      12.232  -2.845 -19.680  1.00  0.00     0.200 A 
ATOM     92  F   UNL     1      12.237  -2.742 -17.321  1.00  0.00    -0.200 F 
ATOM     93  F   UNL     1      12.857  -1.662 -19.748  1.00  0.00    -0.200 F 
ENDBRANCH  59  83
BRANCH  71  94
ATOM     94  C   UNL     1      12.975 -11.794 -21.202  1.00  0.00     0.064 A 
ATOM     95  C   UNL     1      14.161 -11.869 -20.456  1.00  0.00     0.173 A 
ATOM     96  C   UNL     1      12.993 -12.286 -22.516  1.00  0.00     0.173 A 
ATOM     97  F   UNL     1      14.200 -11.399 -19.201  1.00  0.00    -0.203 F 
ATOM     98  C   UNL     1      15.324 -12.395 -21.014  1.00  0.00     0.198 A 
ATOM     99  C   UNL     1      14.150 -12.837 -23.060  1.00  0.00     0.198 A 
ATOM    100  F   UNL     1      11.884 -12.243 -23.269  1.00  0.00    -0.203 F 
ATOM    101  F   UNL     1      16.457 -12.415 -20.298  1.00  0.00    -0.200 F 
ATOM    102  C   UNL     1      15.316 -12.885 -22.311  1.00  0.00     0.200 A 
ATOM    103  F   UNL     1      14.136 -13.323 -24.309  1.00  0.00    -0.200 F 
ATOM    104  F   UNL     1      16.434 -13.398 -22.843  1.00  0.00    -0.200 F 
ENDBRANCH  71  94
ENDBRANCH  45  46
ENDBRANCH  38  40
ENDBRANCH  37  38
ENDBRANCH  36  37
ENDBRANCH  35  36
ENDBRANCH  34  35
ENDBRANCH   1  34
TORSDOF 18
