REMARK SMILES O=C(Cn1cnc(-c2ccccc2)c1-c1ccccc1)OCCOCCOC(=O)c1ccc(-c2c3nc(c(-c4c(F)c(F)c(F)c(F)c4F)c4ccc([nH]4)c(-c4c(F)c(F)c(F)c(F)c4F)c4nc(c(-c5c(F)c(F)c(F)c(F)c5F)c5ccc2[nH]5)C=C4)C=C3)cc1
REMARK SMILES IDX 24 1 23 2 22 3 21 4 2 5 1 6 3 7 4 8 5 9 14 10 6 11 7 12
REMARK SMILES IDX 15 13 16 14 20 15 17 16 19 17 18 18 8 19 9 20 13 21 10 22
REMARK SMILES IDX 12 23 11 24 25 25 26 26 27 27 28 28 29 29 30 30 31 31 92 32
REMARK SMILES IDX 32 33 91 34 33 35 34 36 35 37 85 38 36 39 90 40 84 41 86 42
REMARK SMILES IDX 37 43 89 44 83 45 82 46 38 48 70 49 50 50 69 51 51 52 54 53
REMARK SMILES IDX 68 54 87 55 52 56 53 57 67 59 88 60 55 61 39 62 40 63 48 64
REMARK SMILES IDX 41 65 42 66 46 67 49 68 43 69 44 70 47 71 45 72 71 73 72 74
REMARK SMILES IDX 80 75 73 76 74 77 78 78 81 79 75 80 76 81 79 82 77 83 56 84
REMARK SMILES IDX 57 85 65 86 58 87 59 88 63 89 66 90 60 91 61 92 64 93 62 94
REMARK H PARENT 86 47 54 58
REMARK Flexibility Score: inf
ROOT
ATOM      1  O   UNL     1       4.554   1.959   0.811  1.00  0.00    -0.374 OA
ENDROOT
BRANCH   1   2
ATOM      2  C   UNL     1       5.020   1.081  -0.204  1.00  0.00     0.202 C 
BRANCH   2   3
ATOM      3  C   UNL     1       4.166  -0.111  -0.629  1.00  0.00     0.261 C 
BRANCH   3   4
ATOM      4  O   UNL     1       2.749   0.100  -0.623  1.00  0.00    -0.462 OA
BRANCH   4   5
ATOM      5  C   UNL     1       1.917  -0.068   0.431  1.00  0.00     0.326 C 
ATOM      6  O   UNL     1       0.709   0.107   0.258  1.00  0.00    -0.250 OA
BRANCH   5   7
ATOM      7  C   UNL     1       2.452  -0.265   1.830  1.00  0.00     0.246 C 
BRANCH   7   8
ATOM      8  N   UNL     1       3.408  -1.331   2.028  1.00  0.00    -0.319 N 
ATOM      9  C   UNL     1       4.606  -1.194   2.673  1.00  0.00     0.201 A 
ATOM     10  C   UNL     1       3.255  -2.648   1.667  1.00  0.00     0.076 A 
ATOM     11  N   UNL     1       5.220  -2.349   2.786  1.00  0.00    -0.236 NA
ATOM     12  C   UNL     1       4.391  -3.256   2.172  1.00  0.00     0.096 A 
BRANCH  10  13
ATOM     13  C   UNL     1       2.090  -3.169   0.968  1.00  0.00     0.000 A 
ATOM     14  C   UNL     1       0.977  -3.604   1.690  1.00  0.00     0.010 A 
ATOM     15  C   UNL     1       2.047  -3.162  -0.432  1.00  0.00     0.010 A 
ATOM     16  C   UNL     1      -0.181  -3.994   1.018  1.00  0.00     0.001 A 
ATOM     17  C   UNL     1       0.884  -3.538  -1.102  1.00  0.00     0.001 A 
ATOM     18  C   UNL     1      -0.231  -3.948  -0.376  1.00  0.00     0.000 A 
ENDBRANCH  10  13
BRANCH  12  19
ATOM     19  C   UNL     1       4.620  -4.680   2.162  1.00  0.00     0.002 A 
ATOM     20  C   UNL     1       4.705  -5.360   3.380  1.00  0.00     0.010 A 
ATOM     21  C   UNL     1       4.644  -5.393   0.959  1.00  0.00     0.010 A 
ATOM     22  C   UNL     1       4.752  -6.752   3.395  1.00  0.00     0.001 A 
ATOM     23  C   UNL     1       4.695  -6.785   0.977  1.00  0.00     0.001 A 
ATOM     24  C   UNL     1       4.733  -7.463   2.195  1.00  0.00     0.000 A 
ENDBRANCH  12  19
ENDBRANCH   7   8
ENDBRANCH   5   7
ENDBRANCH   4   5
ENDBRANCH   3   4
ENDBRANCH   2   3
ENDBRANCH   1   2
BRANCH   1  25
ATOM     25  C   UNL     1       3.397   2.775   0.646  1.00  0.00     0.202 C 
BRANCH  25  26
ATOM     26  C   UNL     1       3.150   3.607  -0.596  1.00  0.00     0.261 C 
BRANCH  26  27
ATOM     27  O   UNL     1       3.323   2.876  -1.794  1.00  0.00    -0.460 OA
BRANCH  27  28
ATOM     28  C   UNL     1       4.447   3.244  -2.444  1.00  0.00     0.338 C 
ATOM     29  O   UNL     1       5.453   3.727  -1.959  1.00  0.00    -0.246 OA
BRANCH  28  30
ATOM     30  C   UNL     1       4.187   3.212  -3.880  1.00  0.00     0.060 A 
ATOM     31  C   UNL     1       5.248   3.643  -4.674  1.00  0.00     0.016 A 
ATOM     32  C   UNL     1       2.861   3.165  -4.340  1.00  0.00     0.016 A 
ATOM     33  C   UNL     1       4.946   4.251  -5.864  1.00  0.00     0.010 A 
ATOM     34  C   UNL     1       2.560   3.789  -5.524  1.00  0.00     0.010 A 
ATOM     35  C   UNL     1       3.600   4.387  -6.226  1.00  0.00    -0.014 A 
BRANCH  35  36
ATOM     36  C   UNL     1       3.337   5.081  -7.459  1.00  0.00     0.031 A 
ATOM     37  C   UNL     1       3.678   4.268  -8.640  1.00  0.00     0.074 A 
ATOM     38  C   UNL     1       2.808   6.312  -7.513  1.00  0.00     0.049 A 
ATOM     39  N   UNL     1       4.637   4.466  -9.479  1.00  0.00    -0.248 NA
ATOM     40  C   UNL     1       2.981   2.983  -8.796  1.00  0.00     0.031 C 
ATOM     41  C   UNL     1       2.172   7.081  -6.444  1.00  0.00     0.029 A 
ATOM     42  N   UNL     1       2.654   7.101  -8.606  1.00  0.00    -0.354 N 
ATOM     43  C   UNL     1       4.558   3.413 -10.381  1.00  0.00     0.074 A 
ATOM     44  C   UNL     1       3.657   2.448  -9.810  1.00  0.00     0.031 C 
ATOM     45  C   UNL     1       1.513   8.128  -6.993  1.00  0.00     0.029 A 
ATOM     46  C   UNL     1       1.790   8.165  -8.421  1.00  0.00     0.049 A 
ATOM     47  H   UNL     1       3.118   6.931  -9.458  1.00  0.00     0.167 HD
ATOM     48  C   UNL     1       5.045   3.546 -11.642  1.00  0.00     0.037 A 
ATOM     49  C   UNL     1       1.286   8.947  -9.405  1.00  0.00     0.037 A 
ATOM     50  C   UNL     1       6.007   4.618 -11.713  1.00  0.00     0.049 A 
ATOM     51  C   UNL     1       2.158   8.786 -10.600  1.00  0.00     0.074 A 
ATOM     52  C   UNL     1       7.224   4.868 -11.109  1.00  0.00     0.029 A 
ATOM     53  N   UNL     1       5.592   5.820 -12.231  1.00  0.00    -0.354 N 
ATOM     54  N   UNL     1       3.377   9.240 -10.684  1.00  0.00    -0.248 NA
ATOM     55  C   UNL     1       1.815   7.750 -11.565  1.00  0.00     0.031 C 
ATOM     56  C   UNL     1       7.264   6.279 -10.909  1.00  0.00     0.029 A 
ATOM     57  C   UNL     1       6.089   6.819 -11.435  1.00  0.00     0.049 A 
ATOM     58  H   UNL     1       5.036   5.943 -13.034  1.00  0.00     0.167 HD
ATOM     59  C   UNL     1       4.068   8.271 -11.398  1.00  0.00     0.074 A 
ATOM     60  C   UNL     1       3.036   7.444 -12.013  1.00  0.00     0.031 C 
ATOM     61  C   UNL     1       5.400   8.064 -11.186  1.00  0.00     0.037 A 
BRANCH  48  62
ATOM     62  C   UNL     1       4.352   2.986 -12.861  1.00  0.00     0.064 A 
ATOM     63  C   UNL     1       4.961   3.158 -14.119  1.00  0.00     0.173 A 
ATOM     64  C   UNL     1       3.000   2.572 -12.895  1.00  0.00     0.173 A 
ATOM     65  F   UNL     1       6.240   3.552 -14.212  1.00  0.00    -0.203 F 
ATOM     66  C   UNL     1       4.243   3.033 -15.310  1.00  0.00     0.198 A 
ATOM     67  C   UNL     1       2.303   2.394 -14.087  1.00  0.00     0.198 A 
ATOM     68  F   UNL     1       2.258   2.428 -11.793  1.00  0.00    -0.203 F 
ATOM     69  F   UNL     1       4.828   3.348 -16.473  1.00  0.00    -0.200 F 
ATOM     70  C   UNL     1       2.912   2.662 -15.293  1.00  0.00     0.200 A 
ATOM     71  F   UNL     1       1.009   2.045 -14.045  1.00  0.00    -0.200 F 
ATOM     72  F   UNL     1       2.202   2.611 -16.427  1.00  0.00    -0.200 F 
ENDBRANCH  48  62
BRANCH  49  73
ATOM     73  C   UNL     1      -0.047   9.587  -9.480  1.00  0.00     0.064 A 
ATOM     74  C   UNL     1      -0.308  10.593 -10.424  1.00  0.00     0.173 A 
ATOM     75  C   UNL     1      -1.165   9.041  -8.820  1.00  0.00     0.173 A 
ATOM     76  F   UNL     1       0.697  11.136 -11.127  1.00  0.00    -0.203 F 
ATOM     77  C   UNL     1      -1.612  11.005 -10.714  1.00  0.00     0.198 A 
ATOM     78  C   UNL     1      -2.465   9.462  -9.102  1.00  0.00     0.198 A 
ATOM     79  F   UNL     1      -1.031   8.021  -7.961  1.00  0.00    -0.203 F 
ATOM     80  F   UNL     1      -1.825  11.918 -11.672  1.00  0.00    -0.200 F 
ATOM     81  C   UNL     1      -2.689  10.432 -10.060  1.00  0.00     0.200 A 
ATOM     82  F   UNL     1      -3.501   8.874  -8.486  1.00  0.00    -0.200 F 
ATOM     83  F   UNL     1      -3.942  10.781 -10.383  1.00  0.00    -0.200 F 
ENDBRANCH  49  73
BRANCH  61  84
ATOM     84  C   UNL     1       6.154   9.115 -10.421  1.00  0.00     0.064 A 
ATOM     85  C   UNL     1       5.887   9.461  -9.085  1.00  0.00     0.173 A 
ATOM     86  C   UNL     1       7.274   9.700 -11.028  1.00  0.00     0.173 A 
ATOM     87  F   UNL     1       4.899   8.869  -8.402  1.00  0.00    -0.203 F 
ATOM     88  C   UNL     1       6.676  10.392  -8.410  1.00  0.00     0.198 A 
ATOM     89  C   UNL     1       8.084  10.597 -10.339  1.00  0.00     0.198 A 
ATOM     90  F   UNL     1       7.610   9.364 -12.284  1.00  0.00    -0.203 F 
ATOM     91  F   UNL     1       6.389  10.722  -7.142  1.00  0.00    -0.200 F 
ATOM     92  C   UNL     1       7.778  10.952  -9.035  1.00  0.00     0.200 A 
ATOM     93  F   UNL     1       9.177  11.097 -10.930  1.00  0.00    -0.200 F 
ATOM     94  F   UNL     1       8.561  11.815  -8.373  1.00  0.00    -0.200 F 
ENDBRANCH  61  84
ENDBRANCH  35  36
ENDBRANCH  28  30
ENDBRANCH  27  28
ENDBRANCH  26  27
ENDBRANCH  25  26
ENDBRANCH   1  25
TORSDOF 17
