REMARK SMILES C=CCc1cc([C@H]([NH3+])C(=O)OCCOCCOC(=O)c2ccc(-c3c4nc(c(-c5c(F)c(F)c(F)c(F)c5F)c5ccc([nH]5)c(-c5c(F)c(F)c(F)c(F)c5F)c5nc(c(-c6c(F)c(F)c(F)c(F)c6F)c6ccc3[nH]6)C=C5)C=C4)cc2)cc(OC)c1OCC
REMARK SMILES IDX 13 1 12 2 11 3 9 4 10 5 7 6 6 7 4 8 5 9 87 10 84 11 83 12
REMARK SMILES IDX 3 13 2 14 1 15 88 16 89 17 90 18 85 19 86 20 8 21 14 25
REMARK SMILES IDX 15 26 16 27 17 28 18 29 19 30 20 31 21 32 82 33 22 34 81 35
REMARK SMILES IDX 23 36 24 37 25 38 75 39 26 40 80 41 74 42 76 43 27 44 79 45
REMARK SMILES IDX 73 46 72 47 28 49 60 50 40 51 59 52 41 53 44 54 58 55 77 56
REMARK SMILES IDX 42 57 43 58 57 60 78 61 45 62 29 63 30 64 38 65 31 66 32 67
REMARK SMILES IDX 36 68 39 69 33 70 34 71 37 72 35 73 61 74 62 75 70 76 63 77
REMARK SMILES IDX 64 78 68 79 71 80 65 81 66 82 69 83 67 84 46 85 47 86 55 87
REMARK SMILES IDX 48 88 49 89 53 90 56 91 50 92 51 93 54 94 52 95
REMARK H PARENT 8 22 8 23 8 24 76 48 44 59
REMARK Flexibility Score: inf
ROOT
ATOM      1  C   UNL     1      -6.876  -2.620  -2.622  1.00  0.00     0.202 C 
ENDROOT
BRANCH   1   2
ATOM      2  C   UNL     1      -7.354  -2.429  -1.180  1.00  0.00     0.261 C 
BRANCH   2   3
ATOM      3  O   UNL     1      -6.292  -2.680  -0.247  1.00  0.00    -0.459 OA
BRANCH   3   4
ATOM      4  C   UNL     1      -6.554  -3.626   0.705  1.00  0.00     0.369 C 
ATOM      5  O   UNL     1      -7.662  -4.104   0.926  1.00  0.00    -0.245 OA
BRANCH   4   6
ATOM      6  C   UNL     1      -5.291  -4.024   1.494  1.00  0.00     0.323 C 
BRANCH   6   7
ATOM      7  C   UNL     1      -5.248  -3.385   2.861  1.00  0.00     0.025 A 
ATOM      8  C   UNL     1      -4.927  -3.624   5.287  1.00  0.00     0.002 A 
ATOM      9  C   UNL     1      -5.037  -4.175   3.991  1.00  0.00     0.018 A 
ATOM     10  C   UNL     1      -5.085  -2.227   5.441  1.00  0.00     0.164 A 
ATOM     11  C   UNL     1      -5.264  -1.413   4.301  1.00  0.00     0.161 A 
ATOM     12  C   UNL     1      -5.352  -2.005   3.033  1.00  0.00     0.061 A 
BRANCH   8  13
ATOM     13  C   UNL     1      -4.705  -4.666   6.372  1.00  0.00     0.066 C 
BRANCH  13  14
ATOM     14  C   UNL     1      -4.159  -4.252   7.701  1.00  0.00    -0.030 C 
ATOM     15  C   UNL     1      -4.691  -4.647   8.867  1.00  0.00     0.004 C 
ENDBRANCH  13  14
ENDBRANCH   8  13
BRANCH  10  16
ATOM     16  O   UNL     1      -4.920  -1.650   6.666  1.00  0.00    -0.490 OA
BRANCH  16  17
ATOM     17  C   UNL     1      -6.036  -1.621   7.566  1.00  0.00     0.226 C 
ATOM     18  C   UNL     1      -7.342  -2.290   7.167  1.00  0.00     0.049 C 
ENDBRANCH  16  17
ENDBRANCH  10  16
BRANCH  11  19
ATOM     19  O   UNL     1      -5.373  -0.051   4.202  1.00  0.00    -0.493 OA
ATOM     20  C   UNL     1      -5.112   0.761   5.330  1.00  0.00     0.278 C 
ENDBRANCH  11  19
ENDBRANCH   6   7
BRANCH   6  21
ATOM     21  N   UNL     1      -4.026  -3.768   0.764  1.00  0.00    -0.342 N 
ATOM     22  H   UNL     1      -3.911  -2.764   0.624  1.00  0.00     0.345 HD
ATOM     23  H   UNL     1      -4.055  -4.236  -0.142  1.00  0.00     0.345 HD
ATOM     24  H   UNL     1      -3.241  -4.127   1.307  1.00  0.00     0.345 HD
ENDBRANCH   6  21
ENDBRANCH   4   6
ENDBRANCH   3   4
ENDBRANCH   2   3
ENDBRANCH   1   2
BRANCH   1  25
ATOM     25  O   UNL     1      -6.496  -3.940  -3.007  1.00  0.00    -0.374 OA
BRANCH  25  26
ATOM     26  C   UNL     1      -5.284  -4.469  -2.468  1.00  0.00     0.202 C 
BRANCH  26  27
ATOM     27  C   UNL     1      -3.966  -3.908  -3.019  1.00  0.00     0.261 C 
BRANCH  27  28
ATOM     28  O   UNL     1      -3.807  -2.494  -2.798  1.00  0.00    -0.460 OA
BRANCH  28  29
ATOM     29  C   UNL     1      -3.806  -1.744  -3.927  1.00  0.00     0.338 C 
ATOM     30  O   UNL     1      -3.874  -2.131  -5.080  1.00  0.00    -0.246 OA
BRANCH  29  31
ATOM     31  C   UNL     1      -3.862  -0.311  -3.585  1.00  0.00     0.060 A 
ATOM     32  C   UNL     1      -4.949   0.428  -4.069  1.00  0.00     0.016 A 
ATOM     33  C   UNL     1      -2.812   0.321  -2.918  1.00  0.00     0.016 A 
ATOM     34  C   UNL     1      -4.968   1.813  -3.927  1.00  0.00     0.010 A 
ATOM     35  C   UNL     1      -2.827   1.714  -2.786  1.00  0.00     0.010 A 
ATOM     36  C   UNL     1      -3.887   2.468  -3.323  1.00  0.00    -0.014 A 
BRANCH  36  37
ATOM     37  C   UNL     1      -3.799   3.946  -3.398  1.00  0.00     0.031 A 
ATOM     38  C   UNL     1      -2.965   4.574  -4.481  1.00  0.00     0.074 A 
ATOM     39  C   UNL     1      -4.484   4.721  -2.539  1.00  0.00     0.049 A 
ATOM     40  N   UNL     1      -2.732   5.838  -4.725  1.00  0.00    -0.248 NA
ATOM     41  C   UNL     1      -2.305   3.649  -5.417  1.00  0.00     0.031 C 
ATOM     42  C   UNL     1      -5.358   4.232  -1.476  1.00  0.00     0.029 A 
ATOM     43  N   UNL     1      -4.547   6.088  -2.428  1.00  0.00    -0.354 N 
ATOM     44  C   UNL     1      -1.900   5.862  -5.836  1.00  0.00     0.074 A 
ATOM     45  C   UNL     1      -1.645   4.485  -6.204  1.00  0.00     0.031 C 
ATOM     46  C   UNL     1      -5.864   5.285  -0.810  1.00  0.00     0.029 A 
ATOM     47  C   UNL     1      -5.327   6.518  -1.384  1.00  0.00     0.049 A 
ATOM     48  H   UNL     1      -4.077   6.700  -3.039  1.00  0.00     0.167 HD
ATOM     49  C   UNL     1      -1.402   6.934  -6.496  1.00  0.00     0.037 A 
ATOM     50  C   UNL     1      -5.563   7.765  -0.934  1.00  0.00     0.037 A 
ATOM     51  C   UNL     1      -1.657   8.302  -6.132  1.00  0.00     0.049 A 
ATOM     52  C   UNL     1      -4.939   8.939  -1.643  1.00  0.00     0.074 A 
ATOM     53  C   UNL     1      -1.212   9.458  -6.749  1.00  0.00     0.029 A 
ATOM     54  N   UNL     1      -2.423   8.698  -5.045  1.00  0.00    -0.354 N 
ATOM     55  N   UNL     1      -4.173   8.953  -2.707  1.00  0.00    -0.248 NA
ATOM     56  C   UNL     1      -5.215  10.272  -1.087  1.00  0.00     0.031 C 
ATOM     57  C   UNL     1      -1.672  10.554  -6.010  1.00  0.00     0.029 A 
ATOM     58  C   UNL     1      -2.441  10.081  -4.959  1.00  0.00     0.049 A 
ATOM     59  H   UNL     1      -2.884   8.087  -4.427  1.00  0.00     0.167 HD
ATOM     60  C   UNL     1      -3.896  10.290  -2.962  1.00  0.00     0.074 A 
ATOM     61  C   UNL     1      -4.587  11.060  -1.949  1.00  0.00     0.031 C 
ATOM     62  C   UNL     1      -3.138  10.832  -3.947  1.00  0.00     0.037 A 
BRANCH  49  63
ATOM     63  C   UNL     1      -0.508   6.669  -7.671  1.00  0.00     0.064 A 
ATOM     64  C   UNL     1      -1.016   6.194  -8.890  1.00  0.00     0.173 A 
ATOM     65  C   UNL     1       0.868   6.926  -7.588  1.00  0.00     0.173 A 
ATOM     66  F   UNL     1      -2.323   5.920  -9.015  1.00  0.00    -0.203 F 
ATOM     67  C   UNL     1      -0.174   5.966  -9.975  1.00  0.00     0.198 A 
ATOM     68  C   UNL     1       1.703   6.721  -8.682  1.00  0.00     0.198 A 
ATOM     69  F   UNL     1       1.403   7.384  -6.446  1.00  0.00    -0.203 F 
ATOM     70  F   UNL     1      -0.673   5.474 -11.117  1.00  0.00    -0.200 F 
ATOM     71  C   UNL     1       1.183   6.235  -9.873  1.00  0.00     0.200 A 
ATOM     72  F   UNL     1       3.012   6.991  -8.585  1.00  0.00    -0.200 F 
ATOM     73  F   UNL     1       1.991   6.021 -10.920  1.00  0.00    -0.200 F 
ENDBRANCH  49  63
BRANCH  50  74
ATOM     74  C   UNL     1      -6.420   7.971   0.262  1.00  0.00     0.064 A 
ATOM     75  C   UNL     1      -7.680   8.574   0.154  1.00  0.00     0.173 A 
ATOM     76  C   UNL     1      -5.986   7.588   1.539  1.00  0.00     0.173 A 
ATOM     77  F   UNL     1      -8.127   8.983  -1.043  1.00  0.00    -0.203 F 
ATOM     78  C   UNL     1      -8.468   8.800   1.281  1.00  0.00     0.198 A 
ATOM     79  C   UNL     1      -6.785   7.790   2.662  1.00  0.00     0.198 A 
ATOM     80  F   UNL     1      -4.785   7.012   1.696  1.00  0.00    -0.203 F 
ATOM     81  F   UNL     1      -9.650   9.418   1.157  1.00  0.00    -0.200 F 
ATOM     82  C   UNL     1      -8.023   8.402   2.533  1.00  0.00     0.200 A 
ATOM     83  F   UNL     1      -6.355   7.396   3.868  1.00  0.00    -0.200 F 
ATOM     84  F   UNL     1      -8.781   8.618   3.616  1.00  0.00    -0.200 F 
ENDBRANCH  50  74
BRANCH  62  85
ATOM     85  C   UNL     1      -3.038  12.329  -3.995  1.00  0.00     0.064 A 
ATOM     86  C   UNL     1      -2.276  13.044  -3.060  1.00  0.00     0.173 A 
ATOM     87  C   UNL     1      -3.677  13.051  -5.014  1.00  0.00     0.173 A 
ATOM     88  F   UNL     1      -1.659  12.400  -2.058  1.00  0.00    -0.203 F 
ATOM     89  C   UNL     1      -2.176  14.431  -3.131  1.00  0.00     0.198 A 
ATOM     90  C   UNL     1      -3.552  14.435  -5.098  1.00  0.00     0.198 A 
ATOM     91  F   UNL     1      -4.412  12.413  -5.937  1.00  0.00    -0.203 F 
ATOM     92  F   UNL     1      -1.478  15.099  -2.202  1.00  0.00    -0.200 F 
ATOM     93  C   UNL     1      -2.808  15.124  -4.153  1.00  0.00     0.200 A 
ATOM     94  F   UNL     1      -4.153  15.102  -6.093  1.00  0.00    -0.200 F 
ATOM     95  F   UNL     1      -2.704  16.459  -4.223  1.00  0.00    -0.200 F 
ENDBRANCH  62  85
ENDBRANCH  36  37
ENDBRANCH  29  31
ENDBRANCH  28  29
ENDBRANCH  27  28
ENDBRANCH  26  27
ENDBRANCH  25  26
ENDBRANCH   1  25
TORSDOF 21
