REMARK SMILES C[C@@H]1[C@@H](C(=O)OCCOCCOC(=O)c2ccc(-c3c4nc(c(-c5c(F)c(F)c(F)c(F)c5F)c5ccc([nH]5)c(-c5c(F)c(F)c(F)c(F)c5F)c5nc(c(-c6c(F)c(F)c(F)c(F)c6F)c6ccc3[nH]6)C=C5)C=C4)cc2)CCN1C(=O)Nc1nccs1
REMARK SMILES IDX 9 1 8 2 7 3 6 4 4 5 5 6 3 7 1 8 2 9 80 10 78 11 79 12 81 13
REMARK SMILES IDX 82 14 83 15 84 17 85 18 88 19 86 20 87 21 10 22 11 23 12 24
REMARK SMILES IDX 13 25 14 26 15 27 16 28 77 29 17 30 76 31 18 32 19 33 20 34
REMARK SMILES IDX 70 35 21 36 75 37 69 38 71 39 22 40 74 41 68 42 67 43 23 45
REMARK SMILES IDX 55 46 35 47 54 48 36 49 39 50 53 51 72 52 37 53 38 54 52 56
REMARK SMILES IDX 73 57 40 58 24 59 25 60 33 61 26 62 27 63 31 64 34 65 28 66
REMARK SMILES IDX 29 67 32 68 30 69 56 70 57 71 65 72 58 73 59 74 63 75 66 76
REMARK SMILES IDX 60 77 61 78 64 79 62 80 41 81 42 82 50 83 43 84 44 85 48 86
REMARK SMILES IDX 51 87 45 88 46 89 49 90 47 91
REMARK H PARENT 83 16 71 44 39 55
REMARK Flexibility Score: inf
ROOT
ATOM      1  O   UNL     1      -0.064   2.342  -4.470  1.00  0.00    -0.374 OA
ENDROOT
BRANCH   1   2
ATOM      2  C   UNL     1      -1.488   2.390  -4.471  1.00  0.00     0.202 C 
BRANCH   2   3
ATOM      3  C   UNL     1      -2.219   1.326  -3.650  1.00  0.00     0.261 C 
BRANCH   3   4
ATOM      4  O   UNL     1      -1.907   1.427  -2.251  1.00  0.00    -0.463 OA
BRANCH   4   5
ATOM      5  C   UNL     1      -1.131   0.411  -1.776  1.00  0.00     0.311 C 
ATOM      6  O   UNL     1      -0.813  -0.576  -2.424  1.00  0.00    -0.252 OA
BRANCH   5   7
ATOM      7  C   UNL     1      -0.665   0.715  -0.358  1.00  0.00     0.123 C 
ATOM      8  C   UNL     1       1.416   0.466   1.083  1.00  0.00     0.032 C 
ATOM      9  C   UNL     1       0.593  -0.112  -0.073  1.00  0.00     0.098 C 
ATOM     10  N   UNL     1       0.049  -1.424   0.284  1.00  0.00    -0.321 N 
ATOM     11  C   UNL     1      -1.655   0.209   0.681  1.00  0.00     0.039 C 
ATOM     12  C   UNL     1      -1.307  -1.273   0.810  1.00  0.00     0.122 C 
BRANCH  10  13
ATOM     13  C   UNL     1       0.416  -2.669  -0.150  1.00  0.00     0.323 C 
ATOM     14  O   UNL     1      -0.291  -3.652   0.116  1.00  0.00    -0.248 OA
ATOM     15  N   UNL     1       1.433  -2.897  -1.004  1.00  0.00    -0.283 N 
ATOM     16  H   UNL     1       1.327  -3.719  -1.535  1.00  0.00     0.174 HD
BRANCH  15  17
ATOM     17  C   UNL     1       2.577  -2.216  -1.275  1.00  0.00     0.190 A 
ATOM     18  N   UNL     1       3.179  -1.259  -0.616  1.00  0.00    -0.228 NA
ATOM     19  S   UNL     1       3.354  -2.740  -2.708  1.00  0.00    -0.105 S 
ATOM     20  C   UNL     1       4.294  -0.845  -1.318  1.00  0.00     0.125 A 
ATOM     21  C   UNL     1       4.531  -1.510  -2.501  1.00  0.00     0.088 A 
ENDBRANCH  15  17
ENDBRANCH  10  13
ENDBRANCH   5   7
ENDBRANCH   4   5
ENDBRANCH   3   4
ENDBRANCH   2   3
ENDBRANCH   1   2
BRANCH   1  22
ATOM     22  C   UNL     1       0.627   2.852  -3.329  1.00  0.00     0.202 C 
BRANCH  22  23
ATOM     23  C   UNL     1       0.641   4.375  -3.148  1.00  0.00     0.261 C 
BRANCH  23  24
ATOM     24  O   UNL     1      -0.663   4.892  -2.819  1.00  0.00    -0.460 OA
BRANCH  24  25
ATOM     25  C   UNL     1      -1.194   5.725  -3.743  1.00  0.00     0.338 C 
ATOM     26  O   UNL     1      -0.660   6.142  -4.764  1.00  0.00    -0.246 OA
BRANCH  25  27
ATOM     27  C   UNL     1      -2.624   5.944  -3.466  1.00  0.00     0.060 A 
ATOM     28  C   UNL     1      -3.535   5.649  -4.489  1.00  0.00     0.016 A 
ATOM     29  C   UNL     1      -3.061   6.509  -2.266  1.00  0.00     0.016 A 
ATOM     30  C   UNL     1      -4.883   5.964  -4.336  1.00  0.00     0.010 A 
ATOM     31  C   UNL     1      -4.413   6.837  -2.119  1.00  0.00     0.010 A 
ATOM     32  C   UNL     1      -5.321   6.599  -3.167  1.00  0.00    -0.014 A 
BRANCH  32  33
ATOM     33  C   UNL     1      -6.695   7.154  -3.114  1.00  0.00     0.031 A 
ATOM     34  C   UNL     1      -6.902   8.611  -3.420  1.00  0.00     0.074 A 
ATOM     35  C   UNL     1      -7.746   6.364  -2.835  1.00  0.00     0.049 A 
ATOM     36  N   UNL     1      -8.007   9.313  -3.417  1.00  0.00    -0.248 NA
ATOM     37  C   UNL     1      -5.700   9.382  -3.778  1.00  0.00     0.031 C 
ATOM     38  C   UNL     1      -7.676   4.931  -2.562  1.00  0.00     0.029 A 
ATOM     39  N   UNL     1      -9.082   6.664  -2.732  1.00  0.00    -0.354 N 
ATOM     40  C   UNL     1      -7.634  10.604  -3.769  1.00  0.00     0.074 A 
ATOM     41  C   UNL     1      -6.199  10.597  -3.950  1.00  0.00     0.031 C 
ATOM     42  C   UNL     1      -8.915   4.475  -2.312  1.00  0.00     0.029 A 
ATOM     43  C   UNL     1      -9.859   5.590  -2.380  1.00  0.00     0.049 A 
ATOM     44  H   UNL     1      -9.447   7.564  -2.895  1.00  0.00     0.167 HD
ATOM     45  C   UNL     1      -8.420  11.694  -3.935  1.00  0.00     0.037 A 
ATOM     46  C   UNL     1     -11.180   5.522  -2.124  1.00  0.00     0.037 A 
ATOM     47  C   UNL     1      -9.848  11.699  -3.756  1.00  0.00     0.049 A 
ATOM     48  C   UNL     1     -12.023   6.764  -2.250  1.00  0.00     0.074 A 
ATOM     49  C   UNL     1     -10.735  12.749  -3.918  1.00  0.00     0.029 A 
ATOM     50  N   UNL     1     -10.597  10.598  -3.368  1.00  0.00    -0.354 N 
ATOM     51  N   UNL     1     -11.667   7.974  -2.607  1.00  0.00    -0.248 NA
ATOM     52  C   UNL     1     -13.454   6.629  -1.939  1.00  0.00     0.031 C 
ATOM     53  C   UNL     1     -12.015  12.295  -3.583  1.00  0.00     0.029 A 
ATOM     54  C   UNL     1     -11.933  10.950  -3.260  1.00  0.00     0.049 A 
ATOM     55  H   UNL     1     -10.233   9.700  -3.194  1.00  0.00     0.167 HD
ATOM     56  C   UNL     1     -12.829   8.736  -2.592  1.00  0.00     0.074 A 
ATOM     57  C   UNL     1     -13.904   7.848  -2.200  1.00  0.00     0.031 C 
ATOM     58  C   UNL     1     -12.991  10.051  -2.877  1.00  0.00     0.037 A 
BRANCH  45  59
ATOM     59  C   UNL     1      -7.747  12.981  -4.310  1.00  0.00     0.064 A 
ATOM     60  C   UNL     1      -7.225  13.191  -5.595  1.00  0.00     0.173 A 
ATOM     61  C   UNL     1      -7.654  14.029  -3.383  1.00  0.00     0.173 A 
ATOM     62  F   UNL     1      -7.276  12.214  -6.513  1.00  0.00    -0.203 F 
ATOM     63  C   UNL     1      -6.613  14.396  -5.930  1.00  0.00     0.198 A 
ATOM     64  C   UNL     1      -7.065  15.242  -3.729  1.00  0.00     0.198 A 
ATOM     65  F   UNL     1      -8.140  13.879  -2.142  1.00  0.00    -0.203 F 
ATOM     66  F   UNL     1      -6.083  14.560  -7.150  1.00  0.00    -0.200 F 
ATOM     67  C   UNL     1      -6.540  15.422  -5.000  1.00  0.00     0.200 A 
ATOM     68  F   UNL     1      -7.003  16.235  -2.832  1.00  0.00    -0.200 F 
ATOM     69  F   UNL     1      -5.956  16.584  -5.326  1.00  0.00    -0.200 F 
ENDBRANCH  45  59
BRANCH  46  70
ATOM     70  C   UNL     1     -11.790   4.231  -1.712  1.00  0.00     0.064 A 
ATOM     71  C   UNL     1     -12.675   3.547  -2.556  1.00  0.00     0.173 A 
ATOM     72  C   UNL     1     -11.515   3.666  -0.458  1.00  0.00     0.173 A 
ATOM     73  F   UNL     1     -12.990   4.061  -3.754  1.00  0.00    -0.203 F 
ATOM     74  C   UNL     1     -13.275   2.355  -2.155  1.00  0.00     0.198 A 
ATOM     75  C   UNL     1     -12.094   2.461  -0.069  1.00  0.00     0.198 A 
ATOM     76  F   UNL     1     -10.677   4.284   0.387  1.00  0.00    -0.203 F 
ATOM     77  F   UNL     1     -14.153   1.744  -2.963  1.00  0.00    -0.200 F 
ATOM     78  C   UNL     1     -12.980   1.810  -0.914  1.00  0.00     0.200 A 
ATOM     79  F   UNL     1     -11.799   1.933   1.127  1.00  0.00    -0.200 F 
ATOM     80  F   UNL     1     -13.556   0.663  -0.530  1.00  0.00    -0.200 F 
ENDBRANCH  46  70
BRANCH  58  81
ATOM     81  C   UNL     1     -14.385  10.604  -2.812  1.00  0.00     0.064 A 
ATOM     82  C   UNL     1     -15.034  10.821  -1.587  1.00  0.00     0.173 A 
ATOM     83  C   UNL     1     -15.063  10.961  -3.987  1.00  0.00     0.173 A 
ATOM     84  F   UNL     1     -14.433  10.483  -0.436  1.00  0.00    -0.203 F 
ATOM     85  C   UNL     1     -16.319  11.355  -1.544  1.00  0.00     0.198 A 
ATOM     86  C   UNL     1     -16.337  11.520  -3.939  1.00  0.00     0.198 A 
ATOM     87  F   UNL     1     -14.483  10.780  -5.184  1.00  0.00    -0.203 F 
ATOM     88  F   UNL     1     -16.937  11.513  -0.365  1.00  0.00    -0.200 F 
ATOM     89  C   UNL     1     -16.966  11.710  -2.718  1.00  0.00     0.200 A 
ATOM     90  F   UNL     1     -16.955  11.875  -5.074  1.00  0.00    -0.200 F 
ATOM     91  F   UNL     1     -18.201  12.230  -2.674  1.00  0.00    -0.200 F 
ENDBRANCH  58  81
ENDBRANCH  32  33
ENDBRANCH  25  27
ENDBRANCH  24  25
ENDBRANCH  23  24
ENDBRANCH  22  23
ENDBRANCH   1  22
TORSDOF 16
