REMARK SMILES Cc1coc2c(C)c3oc(=O)c(CCC(=O)N[C@H](CC(C)C)C(=O)OCCOCCOC(=O)c4ccc(-c5c6nc(c(-c7c(F)c(F)c(F)c(F)c7F)c7ccc([nH]7)c(-c7c(F)c(F)c(F)c(F)c7F)c7nc(c(-c8c(F)c(F)c(F)c(F)c8F)c8ccc5[nH]8)C=C7)C=C6)cc4)c(C)c3cc12
REMARK SMILES IDX 27 1 26 2 25 3 23 4 24 5 18 6 17 7 15 8 16 9 14 11 13 12
REMARK SMILES IDX 12 13 1 14 2 15 3 16 101 17 4 18 5 19 100 20 6 21 99 22 7 23
REMARK SMILES IDX 8 24 97 25 9 26 98 27 10 28 11 29 19 30 20 31 21 32 22 33
REMARK SMILES IDX 28 34 29 35 30 36 31 37 32 38 33 39 34 40 35 41 96 42 36 43
REMARK SMILES IDX 95 44 37 45 38 46 39 47 89 48 40 49 94 50 88 51 90 52 41 53
REMARK SMILES IDX 93 54 87 55 86 56 42 58 74 59 54 60 73 61 55 62 58 63 72 64
REMARK SMILES IDX 91 65 56 66 57 67 71 69 92 70 59 71 43 72 44 73 52 74 45 75
REMARK SMILES IDX 46 76 50 77 53 78 47 79 48 80 51 81 49 82 75 83 76 84 84 85
REMARK SMILES IDX 77 86 78 87 82 88 85 89 79 90 80 91 83 92 81 93 60 94 61 95
REMARK SMILES IDX 69 96 62 97 63 98 67 99 70 100 64 101 65 102 68 103 66 104
REMARK H PARENT 17 10 90 57 58 68
REMARK Flexibility Score: inf
ROOT
ATOM      1  C   UNL     1      -4.292  -2.078  -2.108  1.00  0.00     0.202 C 
ENDROOT
BRANCH   1   2
ATOM      2  C   UNL     1      -2.550  -1.559  -2.104  1.00  0.00     0.261 C 
BRANCH   2   3
ATOM      3  O   UNL     1      -1.898  -0.226  -2.830  1.00  0.00    -0.462 OA
BRANCH   3   4
ATOM      4  C   UNL     1      -2.094   1.155  -2.745  1.00  0.00     0.328 C 
ATOM      5  O   UNL     1      -2.831   1.760  -1.961  1.00  0.00    -0.250 OA
BRANCH   4   6
ATOM      6  C   UNL     1      -1.508   2.101  -3.782  1.00  0.00     0.192 C 
BRANCH   6   7
ATOM      7  N   UNL     1      -0.410   1.563  -4.537  1.00  0.00    -0.343 N 
ATOM      8  C   UNL     1      -0.645   0.859  -5.707  1.00  0.00     0.221 C 
ATOM      9  O   UNL     1       0.102  -0.076  -5.993  1.00  0.00    -0.275 OA
ATOM     10  H   UNL     1       0.513   1.696  -4.222  1.00  0.00     0.164 HD
BRANCH   8  11
ATOM     11  C   UNL     1      -1.767   1.338  -6.665  1.00  0.00     0.105 C 
BRANCH  11  12
ATOM     12  C   UNL     1      -3.081   0.523  -6.888  1.00  0.00     0.053 C 
BRANCH  12  13
ATOM     13  C   UNL     1      -4.091   0.373  -5.741  1.00  0.00     0.042 A 
ATOM     14  C   UNL     1      -4.145  -1.062   1.716  1.00  0.00     0.048 C 
ATOM     15  C   UNL     1      -5.400  -0.796   0.951  1.00  0.00    -0.005 A 
ATOM     16  C   UNL     1      -6.731  -1.010   1.314  1.00  0.00     0.199 A 
ATOM     17  C   UNL     1      -5.453  -0.335  -0.384  1.00  0.00     0.024 A 
ATOM     18  O   UNL     1      -7.684  -0.829   0.324  1.00  0.00    -0.464 OA
ATOM     19  C   UNL     1      -7.035  -0.565  -0.859  1.00  0.00     0.140 A 
ATOM     20  C   UNL     1      -4.231   0.028  -1.627  1.00  0.00     0.024 A 
ATOM     21  C   UNL     1      -7.562  -0.518  -2.567  1.00  0.00     0.036 A 
ATOM     22  C   UNL     1      -4.607  -0.177  -3.463  1.00  0.00     0.022 A 
ATOM     23  C   UNL     1      -8.909   0.159  -2.763  1.00  0.00     0.052 C 
ATOM     24  C   UNL     1      -6.303  -0.405  -3.882  1.00  0.00     0.145 A 
ATOM     25  C   UNL     1      -3.794  -0.393  -4.683  1.00  0.00    -0.030 A 
ATOM     26  O   UNL     1      -6.558   0.239  -5.149  1.00  0.00    -0.422 OA
ATOM     27  C   UNL     1      -2.952  -1.636  -4.946  1.00  0.00     0.046 C 
ATOM     28  C   UNL     1      -5.509   0.881  -5.881  1.00  0.00     0.339 A 
ATOM     29  O   UNL     1      -5.769   1.746  -6.713  1.00  0.00    -0.246 OA
ENDBRANCH  12  13
ENDBRANCH  11  12
ENDBRANCH   8  11
ENDBRANCH   6   7
BRANCH   6  30
ATOM     30  C   UNL     1      -1.428   3.518  -3.088  1.00  0.00     0.040 C 
BRANCH  30  31
ATOM     31  C   UNL     1      -2.526   4.549  -3.567  1.00  0.00    -0.015 C 
ATOM     32  C   UNL     1      -3.909   4.032  -4.018  1.00  0.00     0.007 C 
ATOM     33  C   UNL     1      -2.823   5.611  -2.490  1.00  0.00     0.007 C 
ENDBRANCH  30  31
ENDBRANCH   6  30
ENDBRANCH   4   6
ENDBRANCH   3   4
ENDBRANCH   2   3
ENDBRANCH   1   2
BRANCH   1  34
ATOM     34  O   UNL     1      -5.688  -1.023  -2.174  1.00  0.00    -0.374 OA
BRANCH  34  35
ATOM     35  C   UNL     1      -5.926   0.999  -2.226  1.00  0.00     0.202 C 
BRANCH  35  36
ATOM     36  C   UNL     1      -6.308   2.108  -1.182  1.00  0.00     0.261 C 
BRANCH  36  37
ATOM     37  O   UNL     1      -5.502   2.179  -0.049  1.00  0.00    -0.460 OA
BRANCH  37  38
ATOM     38  C   UNL     1      -6.242   2.142   1.069  1.00  0.00     0.338 C 
ATOM     39  O   UNL     1      -7.455   2.195   1.185  1.00  0.00    -0.246 OA
BRANCH  38  40
ATOM     40  C   UNL     1      -5.287   2.116   2.185  1.00  0.00     0.060 A 
ATOM     41  C   UNL     1      -5.973   1.906   3.381  1.00  0.00     0.016 A 
ATOM     42  C   UNL     1      -4.324   3.114   2.009  1.00  0.00     0.016 A 
ATOM     43  C   UNL     1      -6.098   2.994   4.190  1.00  0.00     0.010 A 
ATOM     44  C   UNL     1      -4.529   4.239   2.739  1.00  0.00     0.010 A 
ATOM     45  C   UNL     1      -5.446   4.165   3.789  1.00  0.00    -0.014 A 
BRANCH  45  46
ATOM     46  C   UNL     1      -5.463   5.261   4.703  1.00  0.00     0.031 A 
ATOM     47  C   UNL     1      -4.516   4.978   5.803  1.00  0.00     0.074 A 
ATOM     48  C   UNL     1      -6.130   6.386   4.431  1.00  0.00     0.049 A 
ATOM     49  N   UNL     1      -4.808   4.633   7.012  1.00  0.00    -0.248 NA
ATOM     50  C   UNL     1      -3.109   4.712   5.429  1.00  0.00     0.031 C 
ATOM     51  C   UNL     1      -6.832   6.777   3.210  1.00  0.00     0.029 A 
ATOM     52  N   UNL     1      -6.182   7.493   5.201  1.00  0.00    -0.354 N 
ATOM     53  C   UNL     1      -3.585   4.323   7.588  1.00  0.00     0.074 A 
ATOM     54  C   UNL     1      -2.668   4.082   6.514  1.00  0.00     0.031 C 
ATOM     55  C   UNL     1      -7.038   8.114   3.239  1.00  0.00     0.029 A 
ATOM     56  C   UNL     1      -6.572   8.630   4.513  1.00  0.00     0.049 A 
ATOM     57  H   UNL     1      -5.964   7.492   6.161  1.00  0.00     0.167 HD
ATOM     58  C   UNL     1      -3.327   4.627   8.885  1.00  0.00     0.037 A 
ATOM     59  C   UNL     1      -6.344   9.880   4.985  1.00  0.00     0.037 A 
ATOM     60  C   UNL     1      -4.545   4.902   9.600  1.00  0.00     0.049 A 
ATOM     61  C   UNL     1      -6.049   9.737   6.450  1.00  0.00     0.074 A 
ATOM     62  C   UNL     1      -5.666   4.144   9.882  1.00  0.00     0.029 A 
ATOM     63  N   UNL     1      -4.928   6.219   9.716  1.00  0.00    -0.354 N 
ATOM     64  N   UNL     1      -6.937   9.339   7.326  1.00  0.00    -0.248 NA
ATOM     65  C   UNL     1      -4.660   9.521   6.847  1.00  0.00     0.031 C 
ATOM     66  C   UNL     1      -6.766   5.032   9.711  1.00  0.00     0.029 A 
ATOM     67  C   UNL     1      -6.265   6.301   9.411  1.00  0.00     0.049 A 
ATOM     68  H   UNL     1      -4.346   6.971   9.973  1.00  0.00     0.167 HD
ATOM     69  C   UNL     1      -6.251   8.481   8.182  1.00  0.00     0.074 A 
ATOM     70  C   UNL     1      -4.838   8.686   7.877  1.00  0.00     0.031 C 
ATOM     71  C   UNL     1      -6.896   7.471   8.838  1.00  0.00     0.037 A 
BRANCH  58  72
ATOM     72  C   UNL     1      -1.968   5.037   9.374  1.00  0.00     0.064 A 
ATOM     73  C   UNL     1      -1.723   5.067  10.755  1.00  0.00     0.173 A 
ATOM     74  C   UNL     1      -0.974   5.633   8.562  1.00  0.00     0.173 A 
ATOM     75  F   UNL     1      -2.617   4.556  11.615  1.00  0.00    -0.203 F 
ATOM     76  C   UNL     1      -0.590   5.688  11.283  1.00  0.00     0.198 A 
ATOM     77  C   UNL     1       0.185   6.191   9.087  1.00  0.00     0.198 A 
ATOM     78  F   UNL     1      -1.126   5.806   7.244  1.00  0.00    -0.203 F 
ATOM     79  F   UNL     1      -0.452   5.794  12.611  1.00  0.00    -0.200 F 
ATOM     80  C   UNL     1       0.364   6.246  10.450  1.00  0.00     0.200 A 
ATOM     81  F   UNL     1       1.085   6.740   8.258  1.00  0.00    -0.200 F 
ATOM     82  F   UNL     1       1.427   6.881  10.957  1.00  0.00    -0.200 F 
ENDBRANCH  58  72
BRANCH  59  83
ATOM     83  C   UNL     1      -6.040  11.094   4.197  1.00  0.00     0.064 A 
ATOM     84  C   UNL     1      -6.124  12.367   4.777  1.00  0.00     0.173 A 
ATOM     85  C   UNL     1      -5.446  11.027   2.919  1.00  0.00     0.173 A 
ATOM     86  F   UNL     1      -6.631  12.513   6.010  1.00  0.00    -0.203 F 
ATOM     87  C   UNL     1      -5.635  13.504   4.123  1.00  0.00     0.198 A 
ATOM     88  C   UNL     1      -4.971  12.162   2.263  1.00  0.00     0.198 A 
ATOM     89  F   UNL     1      -5.231   9.851   2.314  1.00  0.00    -0.203 F 
ATOM     90  F   UNL     1      -5.684  14.697   4.732  1.00  0.00    -0.200 F 
ATOM     91  C   UNL     1      -5.055  13.399   2.870  1.00  0.00     0.200 A 
ATOM     92  F   UNL     1      -4.382  12.039   1.064  1.00  0.00    -0.200 F 
ATOM     93  F   UNL     1      -4.542  14.480   2.265  1.00  0.00    -0.200 F 
ENDBRANCH  59  83
BRANCH  71  94
ATOM     94  C   UNL     1      -8.400   7.436   8.762  1.00  0.00     0.064 A 
ATOM     95  C   UNL     1      -9.112   7.211   7.571  1.00  0.00     0.173 A 
ATOM     96  C   UNL     1      -9.132   7.433   9.955  1.00  0.00     0.173 A 
ATOM     97  F   UNL     1      -8.473   7.090   6.402  1.00  0.00    -0.203 F 
ATOM     98  C   UNL     1     -10.494   7.028   7.571  1.00  0.00     0.198 A 
ATOM     99  C   UNL     1     -10.507   7.210   9.959  1.00  0.00     0.198 A 
ATOM    100  F   UNL     1      -8.499   7.577  11.130  1.00  0.00    -0.203 F 
ATOM    101  F   UNL     1     -11.144   6.816   6.417  1.00  0.00    -0.200 F 
ATOM    102  C   UNL     1     -11.188   7.017   8.768  1.00  0.00     0.200 A 
ATOM    103  F   UNL     1     -11.166   7.144  11.123  1.00  0.00    -0.200 F 
ATOM    104  F   UNL     1     -12.509   6.786   8.777  1.00  0.00    -0.200 F 
ENDBRANCH  71  94
ENDBRANCH  45  46
ENDBRANCH  38  40
ENDBRANCH  37  38
ENDBRANCH  36  37
ENDBRANCH  35  36
ENDBRANCH  34  35
ENDBRANCH   1  34
TORSDOF 20
