REMARK SMILES Cc1cscc1C(=O)N1C[C@@H](C(=O)OCCOCCOC(=O)c2ccc(-c3c4nc(c(-c5c(F)c(F)c(F)c(F)c5F)c5ccc([nH]5)c(-c5c(F)c(F)c(F)c(F)c5F)c5nc(c(-c6c(F)c(F)c(F)c(F)c6F)c6ccc3[nH]6)C=C5)C=C4)cc2)Oc2ccccc21
REMARK SMILES IDX 17 1 16 2 15 3 14 4 12 5 13 6 11 7 9 8 10 9 92 10 87 11
REMARK SMILES IDX 91 12 86 13 88 14 90 15 89 16 7 17 8 18 6 19 1 20 2 21 3 22
REMARK SMILES IDX 4 23 5 24 18 25 19 26 20 27 21 28 22 29 23 30 24 31 85 32
REMARK SMILES IDX 25 33 84 34 26 35 27 36 28 37 78 38 29 39 83 40 77 41 79 42
REMARK SMILES IDX 30 43 82 44 76 45 75 46 31 48 63 49 43 50 62 51 44 52 47 53
REMARK SMILES IDX 61 54 80 55 45 56 46 57 60 59 81 60 48 61 32 62 33 63 41 64
REMARK SMILES IDX 34 65 35 66 39 67 42 68 36 69 37 70 40 71 38 72 64 73 65 74
REMARK SMILES IDX 73 75 66 76 67 77 71 78 74 79 68 80 69 81 72 82 70 83 49 84
REMARK SMILES IDX 50 85 58 86 51 87 52 88 56 89 59 90 53 91 54 92 57 93 55 94
REMARK H PARENT 79 47 47 58
REMARK Flexibility Score: inf
ROOT
ATOM      1  O   UNL     1       3.084   5.580  -4.267  1.00  0.00    -0.374 OA
ENDROOT
BRANCH   1   2
ATOM      2  C   UNL     1       2.693   6.424  -3.186  1.00  0.00     0.202 C 
BRANCH   2   3
ATOM      3  C   UNL     1       2.273   5.731  -1.889  1.00  0.00     0.261 C 
BRANCH   3   4
ATOM      4  O   UNL     1       3.288   4.854  -1.388  1.00  0.00    -0.460 OA
BRANCH   4   5
ATOM      5  C   UNL     1       3.118   3.553  -1.741  1.00  0.00     0.349 C 
ATOM      6  O   UNL     1       2.207   3.127  -2.444  1.00  0.00    -0.248 OA
BRANCH   5   7
ATOM      7  C   UNL     1       4.213   2.642  -1.185  1.00  0.00     0.302 C 
ATOM      8  N   UNL     1       2.804   1.955   0.674  1.00  0.00    -0.300 N 
ATOM      9  C   UNL     1       3.494   1.471  -0.527  1.00  0.00     0.183 C 
ATOM     10  C   UNL     1       3.626   2.776   1.508  1.00  0.00     0.086 A 
ATOM     11  C   UNL     1       4.827   3.295   0.997  1.00  0.00     0.144 A 
ATOM     12  C   UNL     1       3.290   3.033   2.842  1.00  0.00     0.030 A 
ATOM     13  O   UNL     1       5.208   3.189  -0.321  1.00  0.00    -0.475 OA
ATOM     14  C   UNL     1       5.702   3.998   1.828  1.00  0.00     0.049 A 
ATOM     15  C   UNL     1       4.156   3.755   3.664  1.00  0.00     0.002 A 
ATOM     16  C   UNL     1       5.368   4.223   3.163  1.00  0.00     0.004 A 
BRANCH   8  17
ATOM     17  C   UNL     1       1.416   1.925   0.837  1.00  0.00     0.259 C 
ATOM     18  O   UNL     1       0.813   2.837   1.405  1.00  0.00    -0.269 OA
BRANCH  17  19
ATOM     19  C   UNL     1       0.648   0.791   0.295  1.00  0.00     0.053 A 
ATOM     20  C   UNL     1       2.305  -1.251   0.517  1.00  0.00     0.046 C 
ATOM     21  C   UNL     1       0.999  -0.614   0.170  1.00  0.00    -0.028 A 
ATOM     22  C   UNL     1      -0.073  -1.356  -0.295  1.00  0.00     0.069 A 
ATOM     23  S   UNL     1      -1.470  -0.425  -0.578  1.00  0.00    -0.151 S 
ATOM     24  C   UNL     1      -0.674   0.994  -0.081  1.00  0.00     0.079 A 
ENDBRANCH  17  19
ENDBRANCH   8  17
ENDBRANCH   5   7
ENDBRANCH   4   5
ENDBRANCH   3   4
ENDBRANCH   2   3
ENDBRANCH   1   2
BRANCH   1  25
ATOM     25  C   UNL     1       4.429   5.094  -4.268  1.00  0.00     0.202 C 
BRANCH  25  26
ATOM     26  C   UNL     1       5.504   6.089  -4.714  1.00  0.00     0.261 C 
BRANCH  26  27
ATOM     27  O   UNL     1       5.718   7.102  -3.714  1.00  0.00    -0.460 OA
BRANCH  27  28
ATOM     28  C   UNL     1       5.357   8.351  -4.081  1.00  0.00     0.338 C 
ATOM     29  O   UNL     1       4.989   8.723  -5.189  1.00  0.00    -0.246 OA
BRANCH  28  30
ATOM     30  C   UNL     1       5.274   9.220  -2.894  1.00  0.00     0.060 A 
ATOM     31  C   UNL     1       4.084   9.935  -2.704  1.00  0.00     0.016 A 
ATOM     32  C   UNL     1       6.352   9.390  -2.023  1.00  0.00     0.016 A 
ATOM     33  C   UNL     1       3.987  10.868  -1.678  1.00  0.00     0.010 A 
ATOM     34  C   UNL     1       6.258  10.338  -0.998  1.00  0.00     0.010 A 
ATOM     35  C   UNL     1       5.091  11.108  -0.849  1.00  0.00    -0.014 A 
BRANCH  35  36
ATOM     36  C   UNL     1       5.061  12.275   0.064  1.00  0.00     0.031 A 
ATOM     37  C   UNL     1       5.701  13.561  -0.381  1.00  0.00     0.074 A 
ATOM     38  C   UNL     1       4.431  12.203   1.249  1.00  0.00     0.049 A 
ATOM     39  N   UNL     1       5.782  14.709   0.243  1.00  0.00    -0.248 NA
ATOM     40  C   UNL     1       6.337  13.552  -1.708  1.00  0.00     0.031 C 
ATOM     41  C   UNL     1       3.752  11.020   1.772  1.00  0.00     0.029 A 
ATOM     42  N   UNL     1       4.263  13.151   2.227  1.00  0.00    -0.354 N 
ATOM     43  C   UNL     1       6.477  15.554  -0.611  1.00  0.00     0.074 A 
ATOM     44  C   UNL     1       6.821  14.783  -1.786  1.00  0.00     0.031 C 
ATOM     45  C   UNL     1       3.249  11.308   2.985  1.00  0.00     0.029 A 
ATOM     46  C   UNL     1       3.591  12.687   3.329  1.00  0.00     0.049 A 
ATOM     47  H   UNL     1       4.594  14.074   2.145  1.00  0.00     0.167 HD
ATOM     48  C   UNL     1       6.791  16.859  -0.434  1.00  0.00     0.037 A 
ATOM     49  C   UNL     1       3.301  13.305   4.491  1.00  0.00     0.037 A 
ATOM     50  C   UNL     1       6.438  17.626   0.731  1.00  0.00     0.049 A 
ATOM     51  C   UNL     1       3.702  14.745   4.681  1.00  0.00     0.074 A 
ATOM     52  C   UNL     1       6.675  18.965   0.988  1.00  0.00     0.029 A 
ATOM     53  N   UNL     1       5.778  17.116   1.840  1.00  0.00    -0.354 N 
ATOM     54  N   UNL     1       4.321  15.549   3.850  1.00  0.00    -0.248 NA
ATOM     55  C   UNL     1       3.358  15.364   5.968  1.00  0.00     0.031 C 
ATOM     56  C   UNL     1       6.204  19.253   2.273  1.00  0.00     0.029 A 
ATOM     57  C   UNL     1       5.628  18.106   2.796  1.00  0.00     0.049 A 
ATOM     58  H   UNL     1       5.464  16.188   1.933  1.00  0.00     0.167 HD
ATOM     59  C   UNL     1       4.421  16.771   4.503  1.00  0.00     0.074 A 
ATOM     60  C   UNL     1       3.782  16.608   5.792  1.00  0.00     0.031 C 
ATOM     61  C   UNL     1       4.991  17.924   4.075  1.00  0.00     0.037 A 
BRANCH  48  62
ATOM     62  C   UNL     1       7.576  17.539  -1.516  1.00  0.00     0.064 A 
ATOM     63  C   UNL     1       6.994  17.884  -2.745  1.00  0.00     0.173 A 
ATOM     64  C   UNL     1       8.916  17.893  -1.300  1.00  0.00     0.173 A 
ATOM     65  F   UNL     1       5.720  17.554  -3.005  1.00  0.00    -0.203 F 
ATOM     66  C   UNL     1       7.731  18.543  -3.725  1.00  0.00     0.198 A 
ATOM     67  C   UNL     1       9.643  18.575  -2.273  1.00  0.00     0.198 A 
ATOM     68  F   UNL     1       9.518  17.588  -0.141  1.00  0.00    -0.203 F 
ATOM     69  F   UNL     1       7.167  18.831  -4.906  1.00  0.00    -0.200 F 
ATOM     70  C   UNL     1       9.052  18.895  -3.486  1.00  0.00     0.200 A 
ATOM     71  F   UNL     1      10.915  18.923  -2.036  1.00  0.00    -0.200 F 
ATOM     72  F   UNL     1       9.756  19.539  -4.426  1.00  0.00    -0.200 F 
ENDBRANCH  48  62
BRANCH  49  73
ATOM     73  C   UNL     1       2.608  12.559   5.574  1.00  0.00     0.064 A 
ATOM     74  C   UNL     1       1.297  12.877   5.951  1.00  0.00     0.173 A 
ATOM     75  C   UNL     1       3.255  11.526   6.267  1.00  0.00     0.173 A 
ATOM     76  F   UNL     1       0.646  13.875   5.336  1.00  0.00    -0.203 F 
ATOM     77  C   UNL     1       0.665  12.202   6.994  1.00  0.00     0.198 A 
ATOM     78  C   UNL     1       2.613  10.833   7.291  1.00  0.00     0.198 A 
ATOM     79  F   UNL     1       4.513  11.186   5.947  1.00  0.00    -0.203 F 
ATOM     80  F   UNL     1      -0.571  12.558   7.368  1.00  0.00    -0.200 F 
ATOM     81  C   UNL     1       1.322  11.177   7.659  1.00  0.00     0.200 A 
ATOM     82  F   UNL     1       3.249   9.838   7.924  1.00  0.00    -0.200 F 
ATOM     83  F   UNL     1       0.715  10.529   8.662  1.00  0.00    -0.200 F 
ENDBRANCH  49  73
BRANCH  61  84
ATOM     84  C   UNL     1       4.932  19.104   5.001  1.00  0.00     0.064 A 
ATOM     85  C   UNL     1       5.714  19.164   6.164  1.00  0.00     0.173 A 
ATOM     86  C   UNL     1       4.111  20.203   4.704  1.00  0.00     0.173 A 
ATOM     87  F   UNL     1       6.505  18.134   6.499  1.00  0.00    -0.203 F 
ATOM     88  C   UNL     1       5.656  20.269   7.009  1.00  0.00     0.198 A 
ATOM     89  C   UNL     1       4.078  21.318   5.535  1.00  0.00     0.198 A 
ATOM     90  F   UNL     1       3.349  20.198   3.599  1.00  0.00    -0.203 F 
ATOM     91  F   UNL     1       6.376  20.284   8.139  1.00  0.00    -0.200 F 
ATOM     92  C   UNL     1       4.844  21.347   6.691  1.00  0.00     0.200 A 
ATOM     93  F   UNL     1       3.302  22.365   5.220  1.00  0.00    -0.200 F 
ATOM     94  F   UNL     1       4.793  22.412   7.503  1.00  0.00    -0.200 F 
ENDBRANCH  61  84
ENDBRANCH  35  36
ENDBRANCH  28  30
ENDBRANCH  27  28
ENDBRANCH  26  27
ENDBRANCH  25  26
ENDBRANCH   1  25
TORSDOF 16
