REMARK SMILES CC(=O)N[C@H](CSCC(=O)Nc1ccc2c(c1)N1CC[NH+]=C1S2)C(=O)OCCOCCOC(=O)c1ccc(-c2c3nc(c(-c4c(F)c(F)c(F)c(F)c4F)c4ccc([nH]4)c(-c4c(F)c(F)c(F)c(F)c4F)c4nc(c(-c5c(F)c(F)c(F)c(F)c5F)c5ccc2[nH]5)C=C4)C=C3)cc1
REMARK SMILES IDX 27 1 26 2 24 3 25 4 5 5 4 6 1 7 2 8 3 9 6 11 7 12 8 13 9 14
REMARK SMILES IDX 10 15 11 16 12 18 13 19 17 20 14 21 16 22 15 23 18 24 23 25
REMARK SMILES IDX 19 26 22 27 20 28 21 29 28 31 29 32 30 33 31 34 32 35 33 36
REMARK SMILES IDX 34 37 35 38 36 39 97 40 37 41 96 42 38 43 39 44 40 45 90 46
REMARK SMILES IDX 41 47 95 48 89 49 91 50 42 51 94 52 88 53 87 54 43 56 75 57
REMARK SMILES IDX 55 58 74 59 56 60 59 61 73 62 92 63 57 64 58 65 72 67 93 68
REMARK SMILES IDX 60 69 44 70 45 71 53 72 46 73 47 74 51 75 54 76 48 77 49 78
REMARK SMILES IDX 52 79 50 80 76 81 77 82 85 83 78 84 79 85 83 86 86 87 80 88
REMARK SMILES IDX 81 89 84 90 82 91 61 92 62 93 70 94 63 95 64 96 68 97 71 98
REMARK SMILES IDX 65 99 66 100 69 101 67 102
REMARK H PARENT 4 10 11 17 21 30 91 55 59 66
REMARK Flexibility Score: inf
ROOT
ATOM      1  C   UNL     1       0.569   5.929  -2.033  1.00  0.00     0.261 C 
ENDROOT
BRANCH   1   2
ATOM      2  O   UNL     1       1.228   4.671  -2.279  1.00  0.00    -0.462 OA
BRANCH   2   3
ATOM      3  C   UNL     1       1.867   4.109  -1.225  1.00  0.00     0.329 C 
ATOM      4  O   UNL     1       1.959   4.612  -0.112  1.00  0.00    -0.250 OA
BRANCH   3   5
ATOM      5  C   UNL     1       2.563   2.797  -1.603  1.00  0.00     0.202 C 
BRANCH   5   6
ATOM      6  N   UNL     1       3.886   3.035  -2.177  1.00  0.00    -0.342 N 
ATOM      7  C   UNL     1       4.977   3.815  -0.104  1.00  0.00     0.114 C 
ATOM      8  C   UNL     1       5.030   3.425  -1.555  1.00  0.00     0.217 C 
ATOM      9  O   UNL     1       6.072   3.487  -2.204  1.00  0.00    -0.275 OA
ATOM     10  H   UNL     1       3.958   2.894  -3.149  1.00  0.00     0.164 HD
ENDBRANCH   5   6
BRANCH   5  11
ATOM     11  C   UNL     1       1.674   1.856  -2.444  1.00  0.00     0.107 C 
BRANCH  11  12
ATOM     12  S   UNL     1       2.318   1.356  -4.090  1.00  0.00    -0.149 SA
BRANCH  12  13
ATOM     13  C   UNL     1       1.383   2.405  -5.243  1.00  0.00     0.169 C 
BRANCH  13  14
ATOM     14  C   UNL     1      -0.041   2.708  -4.840  1.00  0.00     0.234 C 
ATOM     15  O   UNL     1      -0.339   3.835  -4.430  1.00  0.00    -0.274 OA
ATOM     16  N   UNL     1      -1.069   1.825  -4.990  1.00  0.00    -0.325 N 
ATOM     17  H   UNL     1      -1.895   2.051  -4.504  1.00  0.00     0.169 HD
BRANCH  16  18
ATOM     18  C   UNL     1      -1.113   0.646  -5.737  1.00  0.00     0.045 A 
ATOM     19  C   UNL     1      -0.301  -0.462  -5.471  1.00  0.00     0.027 A 
ATOM     20  C   UNL     1      -2.047   0.604  -6.777  1.00  0.00     0.079 A 
ATOM     21  C   UNL     1      -0.357  -1.598  -6.285  1.00  0.00     0.022 A 
ATOM     22  C   UNL     1      -2.066  -0.483  -7.624  1.00  0.00     0.144 A 
ATOM     23  C   UNL     1      -1.221  -1.582  -7.365  1.00  0.00     0.067 A 
ATOM     24  N   UNL     1      -2.774  -0.615  -8.784  1.00  0.00    -0.216 N 
ATOM     25  S   UNL     1      -1.409  -2.818  -8.660  1.00  0.00     0.002 SA
ATOM     26  C   UNL     1      -3.700   0.205  -9.498  1.00  0.00     0.289 C 
ATOM     27  C   UNL     1      -2.486  -1.729  -9.509  1.00  0.00     0.316 C 
ATOM     28  C   UNL     1      -3.662  -0.501 -10.878  1.00  0.00     0.280 C 
ATOM     29  N   UNL     1      -2.982  -1.841 -10.705  1.00  0.00    -0.264 N 
ATOM     30  H   UNL     1      -2.929  -2.597 -11.333  1.00  0.00     0.305 HD
ENDBRANCH  16  18
ENDBRANCH  13  14
ENDBRANCH  12  13
ENDBRANCH  11  12
ENDBRANCH   5  11
ENDBRANCH   3   5
ENDBRANCH   2   3
ENDBRANCH   1   2
BRANCH   1  31
ATOM     31  C   UNL     1      -0.942   5.750  -1.870  1.00  0.00     0.202 C 
BRANCH  31  32
ATOM     32  O   UNL     1      -1.323   5.136  -0.638  1.00  0.00    -0.374 OA
BRANCH  32  33
ATOM     33  C   UNL     1      -1.491   3.720  -0.689  1.00  0.00     0.202 C 
BRANCH  33  34
ATOM     34  C   UNL     1      -2.900   3.264  -1.092  1.00  0.00     0.261 C 
BRANCH  34  35
ATOM     35  O   UNL     1      -3.135   3.478  -2.497  1.00  0.00    -0.460 OA
BRANCH  35  36
ATOM     36  C   UNL     1      -3.889   4.563  -2.808  1.00  0.00     0.338 C 
ATOM     37  O   UNL     1      -4.487   5.299  -2.045  1.00  0.00    -0.246 OA
BRANCH  36  38
ATOM     38  C   UNL     1      -3.728   4.837  -4.251  1.00  0.00     0.060 A 
ATOM     39  C   UNL     1      -3.873   3.824  -5.197  1.00  0.00     0.016 A 
ATOM     40  C   UNL     1      -3.390   6.135  -4.654  1.00  0.00     0.016 A 
ATOM     41  C   UNL     1      -3.618   4.104  -6.540  1.00  0.00     0.010 A 
ATOM     42  C   UNL     1      -3.172   6.418  -6.007  1.00  0.00     0.010 A 
ATOM     43  C   UNL     1      -3.277   5.402  -6.965  1.00  0.00    -0.014 A 
BRANCH  43  44
ATOM     44  C   UNL     1      -3.159   5.693  -8.421  1.00  0.00     0.031 A 
ATOM     45  C   UNL     1      -1.866   6.135  -9.050  1.00  0.00     0.074 A 
ATOM     46  C   UNL     1      -4.255   5.540  -9.191  1.00  0.00     0.049 A 
ATOM     47  N   UNL     1      -1.627   6.438 -10.304  1.00  0.00    -0.248 NA
ATOM     48  C   UNL     1      -0.694   6.254  -8.171  1.00  0.00     0.031 C 
ATOM     49  C   UNL     1      -5.572   5.130  -8.700  1.00  0.00     0.029 A 
ATOM     50  N   UNL     1      -4.438   5.693 -10.542  1.00  0.00    -0.354 N 
ATOM     51  C   UNL     1      -0.287   6.800 -10.364  1.00  0.00     0.074 A 
ATOM     52  C   UNL     1       0.233   6.694  -9.015  1.00  0.00     0.031 C 
ATOM     53  C   UNL     1      -6.411   5.010  -9.738  1.00  0.00     0.029 A 
ATOM     54  C   UNL     1      -5.715   5.407 -10.957  1.00  0.00     0.049 A 
ATOM     55  H   UNL     1      -3.723   5.981 -11.155  1.00  0.00     0.167 HD
ATOM     56  C   UNL     1       0.438   7.179 -11.445  1.00  0.00     0.037 A 
ATOM     57  C   UNL     1      -6.281   5.476 -12.176  1.00  0.00     0.037 A 
ATOM     58  C   UNL     1      -0.076   7.272 -12.791  1.00  0.00     0.049 A 
ATOM     59  C   UNL     1      -5.463   5.938 -13.345  1.00  0.00     0.074 A 
ATOM     60  C   UNL     1       0.602   7.616 -13.950  1.00  0.00     0.029 A 
ATOM     61  N   UNL     1      -1.390   7.026 -13.160  1.00  0.00    -0.354 N 
ATOM     62  N   UNL     1      -4.196   6.265 -13.385  1.00  0.00    -0.248 NA
ATOM     63  C   UNL     1      -6.158   6.053 -14.634  1.00  0.00     0.031 C 
ATOM     64  C   UNL     1      -0.309   7.620 -15.011  1.00  0.00     0.029 A 
ATOM     65  C   UNL     1      -1.546   7.231 -14.524  1.00  0.00     0.049 A 
ATOM     66  H   UNL     1      -2.106   6.747 -12.546  1.00  0.00     0.167 HD
ATOM     67  C   UNL     1      -3.939   6.621 -14.701  1.00  0.00     0.074 A 
ATOM     68  C   UNL     1      -5.175   6.442 -15.433  1.00  0.00     0.031 C 
ATOM     69  C   UNL     1      -2.780   7.064 -15.247  1.00  0.00     0.037 A 
BRANCH  56  70
ATOM     70  C   UNL     1       1.885   7.529 -11.241  1.00  0.00     0.064 A 
ATOM     71  C   UNL     1       2.852   6.539 -11.012  1.00  0.00     0.173 A 
ATOM     72  C   UNL     1       2.326   8.854 -11.389  1.00  0.00     0.173 A 
ATOM     73  F   UNL     1       2.483   5.259 -10.857  1.00  0.00    -0.203 F 
ATOM     74  C   UNL     1       4.205   6.863 -10.933  1.00  0.00     0.198 A 
ATOM     75  C   UNL     1       3.681   9.171 -11.334  1.00  0.00     0.198 A 
ATOM     76  F   UNL     1       1.443   9.837 -11.623  1.00  0.00    -0.203 F 
ATOM     77  F   UNL     1       5.109   5.903 -10.696  1.00  0.00    -0.200 F 
ATOM     78  C   UNL     1       4.619   8.176 -11.106  1.00  0.00     0.200 A 
ATOM     79  F   UNL     1       4.080  10.437 -11.519  1.00  0.00    -0.200 F 
ATOM     80  F   UNL     1       5.923   8.482 -11.054  1.00  0.00    -0.200 F 
ENDBRANCH  56  70
BRANCH  57  81
ATOM     81  C   UNL     1      -7.704   5.088 -12.340  1.00  0.00     0.064 A 
ATOM     82  C   UNL     1      -8.049   3.906 -13.008  1.00  0.00     0.173 A 
ATOM     83  C   UNL     1      -8.740   5.859 -11.793  1.00  0.00     0.173 A 
ATOM     84  F   UNL     1      -7.091   3.144 -13.557  1.00  0.00    -0.203 F 
ATOM     85  C   UNL     1      -9.379   3.510 -13.123  1.00  0.00     0.198 A 
ATOM     86  C   UNL     1     -10.066   5.446 -11.882  1.00  0.00     0.198 A 
ATOM     87  F   UNL     1      -8.456   6.992 -11.134  1.00  0.00    -0.203 F 
ATOM     88  F   UNL     1      -9.685   2.386 -13.785  1.00  0.00    -0.200 F 
ATOM     89  C   UNL     1     -10.385   4.274 -12.551  1.00  0.00     0.200 A 
ATOM     90  F   UNL     1     -11.032   6.175 -11.307  1.00  0.00    -0.200 F 
ATOM     91  F   UNL     1     -11.662   3.879 -12.641  1.00  0.00    -0.200 F 
ENDBRANCH  57  81
BRANCH  69  92
ATOM     92  C   UNL     1      -2.790   7.382 -16.713  1.00  0.00     0.064 A 
ATOM     93  C   UNL     1      -3.434   8.525 -17.209  1.00  0.00     0.173 A 
ATOM     94  C   UNL     1      -2.118   6.557 -17.628  1.00  0.00     0.173 A 
ATOM     95  F   UNL     1      -4.106   9.335 -16.378  1.00  0.00    -0.203 F 
ATOM     96  C   UNL     1      -3.422   8.819 -18.570  1.00  0.00     0.198 A 
ATOM     97  C   UNL     1      -2.085   6.869 -18.985  1.00  0.00     0.198 A 
ATOM     98  F   UNL     1      -1.484   5.454 -17.204  1.00  0.00    -0.203 F 
ATOM     99  F   UNL     1      -4.080   9.893 -19.027  1.00  0.00    -0.200 F 
ATOM    100  C   UNL     1      -2.742   7.996 -19.455  1.00  0.00     0.200 A 
ATOM    101  F   UNL     1      -1.419   6.078 -19.837  1.00  0.00    -0.200 F 
ATOM    102  F   UNL     1      -2.726   8.285 -20.764  1.00  0.00    -0.200 F 
ENDBRANCH  69  92
ENDBRANCH  43  44
ENDBRANCH  36  38
ENDBRANCH  35  36
ENDBRANCH  34  35
ENDBRANCH  33  34
ENDBRANCH  32  33
ENDBRANCH  31  32
ENDBRANCH   1  31
TORSDOF 20
