REMARK SMILES Cc1ccccc1OCC(=O)N1C[C@@H](O)C[C@H]1C(=O)OCCOCCOC(=O)c1ccc(-c2c3nc(c(-c4c(F)c(F)c(F)c(F)c4F)c4ccc([nH]4)c(-c4c(F)c(F)c(F)c(F)c4F)c4nc(c(-c5c(F)c(F)c(F)c(F)c5F)c5ccc2[nH]5)C=C4)C=C3)cc1
REMARK SMILES IDX 22 1 21 2 20 3 18 4 19 5 17 6 12 7 13 8 14 9 16 10 10 11
REMARK SMILES IDX 11 12 9 13 8 14 7 15 1 16 2 17 3 18 4 19 6 20 5 21 15 22
REMARK SMILES IDX 23 24 24 25 25 26 26 27 27 28 28 29 29 30 30 31 91 32 31 33
REMARK SMILES IDX 90 34 32 35 33 36 34 37 84 38 35 39 89 40 83 41 85 42 36 43
REMARK SMILES IDX 88 44 82 45 81 46 37 48 69 49 49 50 68 51 50 52 53 53 67 54
REMARK SMILES IDX 86 55 51 56 52 57 66 59 87 60 54 61 38 62 39 63 47 64 40 65
REMARK SMILES IDX 41 66 45 67 48 68 42 69 43 70 46 71 44 72 70 73 71 74 79 75
REMARK SMILES IDX 72 76 73 77 77 78 80 79 74 80 75 81 78 82 76 83 55 84 56 85
REMARK SMILES IDX 64 86 57 87 58 88 62 89 65 90 59 91 60 92 63 93 61 94
REMARK H PARENT 15 23 85 47 53 58
REMARK Flexibility Score: inf
ROOT
ATOM      1  C   UNL     1       3.029  -0.824   2.348  1.00  0.00     0.202 C 
ENDROOT
BRANCH   1   2
ATOM      2  C   UNL     1       2.509  -0.325   3.658  1.00  0.00     0.261 C 
BRANCH   2   3
ATOM      3  O   UNL     1       2.400   1.101   3.633  1.00  0.00    -0.462 OA
BRANCH   3   4
ATOM      4  C   UNL     1       3.510   1.862   3.890  1.00  0.00     0.329 C 
ATOM      5  O   UNL     1       4.492   1.498   4.520  1.00  0.00    -0.250 OA
BRANCH   4   6
ATOM      6  C   UNL     1       3.240   3.309   3.470  1.00  0.00     0.198 C 
ATOM      7  N   UNL     1       2.346   3.338   2.305  1.00  0.00    -0.323 N 
ATOM      8  C   UNL     1       0.977   3.572   2.711  1.00  0.00     0.152 C 
ATOM      9  C   UNL     1       1.097   4.342   4.026  1.00  0.00     0.136 C 
ATOM     10  C   UNL     1       2.469   3.987   4.606  1.00  0.00     0.070 C 
BRANCH   7  11
ATOM     11  C   UNL     1       2.822   2.992   1.060  1.00  0.00     0.261 C 
ATOM     12  O   UNL     1       4.024   2.759   0.895  1.00  0.00    -0.271 OA
BRANCH  11  13
ATOM     13  C   UNL     1       1.880   3.000  -0.161  1.00  0.00     0.329 C 
BRANCH  13  14
ATOM     14  O   UNL     1       0.539   2.594  -0.057  1.00  0.00    -0.484 OA
BRANCH  14  15
ATOM     15  C   UNL     1       0.091   1.311  -0.106  1.00  0.00     0.122 A 
ATOM     16  C   UNL     1       2.081   0.002  -1.104  1.00  0.00     0.048 C 
ATOM     17  C   UNL     1       0.727   0.116  -0.469  1.00  0.00    -0.009 A 
ATOM     18  C   UNL     1       0.006  -1.098  -0.346  1.00  0.00     0.007 A 
ATOM     19  C   UNL     1      -1.332  -1.125   0.044  1.00  0.00     0.001 A 
ATOM     20  C   UNL     1      -1.270   1.263   0.248  1.00  0.00     0.047 A 
ATOM     21  C   UNL     1      -1.982   0.067   0.311  1.00  0.00     0.004 A 
ENDBRANCH  14  15
ENDBRANCH  13  14
ENDBRANCH  11  13
ENDBRANCH   7  11
BRANCH   9  22
ATOM     22  O   UNL     1       0.062   4.023   4.944  1.00  0.00    -0.391 OA
ATOM     23  H   UNL     1       0.094   3.076   5.151  1.00  0.00     0.211 HD
ENDBRANCH   9  22
ENDBRANCH   4   6
ENDBRANCH   3   4
ENDBRANCH   2   3
ENDBRANCH   1   2
BRANCH   1  24
ATOM     24  O   UNL     1       4.418  -0.530   2.374  1.00  0.00    -0.374 OA
BRANCH  24  25
ATOM     25  C   UNL     1       5.084  -0.498   1.129  1.00  0.00     0.202 C 
BRANCH  25  26
ATOM     26  C   UNL     1       4.924  -1.792   0.323  1.00  0.00     0.261 C 
BRANCH  26  27
ATOM     27  O   UNL     1       5.597  -2.894   0.970  1.00  0.00    -0.460 OA
BRANCH  27  28
ATOM     28  C   UNL     1       4.811  -3.678   1.760  1.00  0.00     0.338 C 
ATOM     29  O   UNL     1       3.794  -4.253   1.389  1.00  0.00    -0.246 OA
BRANCH  28  30
ATOM     30  C   UNL     1       5.180  -3.483   3.192  1.00  0.00     0.060 A 
ATOM     31  C   UNL     1       4.309  -3.907   4.214  1.00  0.00     0.016 A 
ATOM     32  C   UNL     1       6.162  -2.541   3.469  1.00  0.00     0.016 A 
ATOM     33  C   UNL     1       4.306  -3.246   5.453  1.00  0.00     0.010 A 
ATOM     34  C   UNL     1       6.013  -1.776   4.603  1.00  0.00     0.010 A 
ATOM     35  C   UNL     1       5.089  -2.108   5.607  1.00  0.00    -0.014 A 
BRANCH  35  36
ATOM     36  C   UNL     1       5.084  -1.162   6.730  1.00  0.00     0.031 A 
ATOM     37  C   UNL     1       6.392  -0.960   7.418  1.00  0.00     0.074 A 
ATOM     38  C   UNL     1       4.060  -0.296   6.963  1.00  0.00     0.049 A 
ATOM     39  N   UNL     1       6.554  -0.184   8.428  1.00  0.00    -0.248 NA
ATOM     40  C   UNL     1       7.643  -1.632   7.047  1.00  0.00     0.031 C 
ATOM     41  C   UNL     1       4.125   1.000   7.652  1.00  0.00     0.029 A 
ATOM     42  N   UNL     1       2.690  -0.378   6.639  1.00  0.00    -0.354 N 
ATOM     43  C   UNL     1       7.900   0.019   8.604  1.00  0.00     0.074 A 
ATOM     44  C   UNL     1       8.537  -0.983   7.799  1.00  0.00     0.031 C 
ATOM     45  C   UNL     1       2.887   1.394   7.998  1.00  0.00     0.029 A 
ATOM     46  C   UNL     1       1.992   0.308   7.652  1.00  0.00     0.049 A 
ATOM     47  H   UNL     1       2.297  -0.827   5.855  1.00  0.00     0.167 HD
ATOM     48  C   UNL     1       8.275   1.103   9.338  1.00  0.00     0.037 A 
ATOM     49  C   UNL     1       1.117  -0.338   8.467  1.00  0.00     0.037 A 
ATOM     50  C   UNL     1       7.108   1.641  10.053  1.00  0.00     0.049 A 
ATOM     51  C   UNL     1       1.616  -0.251   9.878  1.00  0.00     0.074 A 
ATOM     52  C   UNL     1       6.333   2.779   9.921  1.00  0.00     0.029 A 
ATOM     53  N   UNL     1       6.384   0.772  10.876  1.00  0.00    -0.354 N 
ATOM     54  N   UNL     1       2.874  -0.040  10.157  1.00  0.00    -0.248 NA
ATOM     55  C   UNL     1       0.772  -0.273  11.065  1.00  0.00     0.031 C 
ATOM     56  C   UNL     1       5.097   2.542  10.596  1.00  0.00     0.029 A 
ATOM     57  C   UNL     1       5.135   1.280  11.175  1.00  0.00     0.049 A 
ATOM     58  H   UNL     1       6.722  -0.093  11.202  1.00  0.00     0.167 HD
ATOM     59  C   UNL     1       3.013   0.193  11.488  1.00  0.00     0.074 A 
ATOM     60  C   UNL     1       1.677  -0.004  12.025  1.00  0.00     0.031 C 
ATOM     61  C   UNL     1       4.211   0.543  12.037  1.00  0.00     0.037 A 
BRANCH  48  62
ATOM     62  C   UNL     1       9.639   1.766   9.320  1.00  0.00     0.064 A 
ATOM     63  C   UNL     1       9.885   2.889  10.142  1.00  0.00     0.173 A 
ATOM     64  C   UNL     1      10.712   1.429   8.464  1.00  0.00     0.173 A 
ATOM     65  F   UNL     1       8.953   3.348  10.988  1.00  0.00    -0.203 F 
ATOM     66  C   UNL     1      11.092   3.600  10.112  1.00  0.00     0.198 A 
ATOM     67  C   UNL     1      11.934   2.111   8.469  1.00  0.00     0.198 A 
ATOM     68  F   UNL     1      10.620   0.464   7.546  1.00  0.00    -0.203 F 
ATOM     69  F   UNL     1      11.245   4.684  10.885  1.00  0.00    -0.200 F 
ATOM     70  C   UNL     1      12.123   3.202   9.286  1.00  0.00     0.200 A 
ATOM     71  F   UNL     1      12.920   1.710   7.651  1.00  0.00    -0.200 F 
ATOM     72  F   UNL     1      13.281   3.874   9.264  1.00  0.00    -0.200 F 
ENDBRANCH  48  62
BRANCH  49  73
ATOM     73  C   UNL     1       0.430  -1.453   7.751  1.00  0.00     0.064 A 
ATOM     74  C   UNL     1      -0.431  -1.068   6.696  1.00  0.00     0.173 A 
ATOM     75  C   UNL     1       0.990  -2.736   7.680  1.00  0.00     0.173 A 
ATOM     76  F   UNL     1      -0.988   0.155   6.702  1.00  0.00    -0.203 F 
ATOM     77  C   UNL     1      -0.571  -1.847   5.548  1.00  0.00     0.198 A 
ATOM     78  C   UNL     1       0.828  -3.522   6.531  1.00  0.00     0.198 A 
ATOM     79  F   UNL     1       1.820  -3.166   8.640  1.00  0.00    -0.203 F 
ATOM     80  F   UNL     1      -1.245  -1.366   4.492  1.00  0.00    -0.200 F 
ATOM     81  C   UNL     1       0.098  -3.053   5.448  1.00  0.00     0.200 A 
ATOM     82  F   UNL     1       1.478  -4.691   6.422  1.00  0.00    -0.200 F 
ATOM     83  F   UNL     1       0.095  -3.727   4.288  1.00  0.00    -0.200 F 
ENDBRANCH  49  73
BRANCH  61  84
ATOM     84  C   UNL     1       4.576   0.278  13.474  1.00  0.00     0.064 A 
ATOM     85  C   UNL     1       3.917  -0.673  14.275  1.00  0.00     0.173 A 
ATOM     86  C   UNL     1       5.738   0.849  14.043  1.00  0.00     0.173 A 
ATOM     87  F   UNL     1       2.896  -1.403  13.810  1.00  0.00    -0.203 F 
ATOM     88  C   UNL     1       4.331  -0.959  15.575  1.00  0.00     0.198 A 
ATOM     89  C   UNL     1       6.195   0.498  15.310  1.00  0.00     0.198 A 
ATOM     90  F   UNL     1       6.493   1.732  13.374  1.00  0.00    -0.203 F 
ATOM     91  F   UNL     1       3.627  -1.827  16.315  1.00  0.00    -0.200 F 
ATOM     92  C   UNL     1       5.477  -0.384  16.087  1.00  0.00     0.200 A 
ATOM     93  F   UNL     1       7.351   1.005  15.761  1.00  0.00    -0.200 F 
ATOM     94  F   UNL     1       5.900  -0.702  17.317  1.00  0.00    -0.200 F 
ENDBRANCH  61  84
ENDBRANCH  35  36
ENDBRANCH  28  30
ENDBRANCH  27  28
ENDBRANCH  26  27
ENDBRANCH  25  26
ENDBRANCH  24  25
ENDBRANCH   1  24
TORSDOF 19
