REMARK SMILES CCOc1cc(OCC)cc(-c2ccc([C@@H](C)C(=O)OCCOCCOC(=O)c3ccc(-c4c5nc(c(-c6c(F)c(F)c(F)c(F)c6F)c6ccc([nH]6)c(-c6c(F)c(F)c(F)c(F)c6F)c6nc(c(-c7c(F)c(F)c(F)c(F)c7F)c7ccc4[nH]7)C=C6)C=C5)cc3)cc2)c1
REMARK SMILES IDX 22 1 21 2 20 3 18 4 19 5 16 6 17 7 15 8 12 9 13 10 93 11
REMARK SMILES IDX 14 12 92 13 11 14 4 15 5 16 94 17 6 18 10 19 3 20 2 21 1 22
REMARK SMILES IDX 7 23 8 24 9 25 23 26 24 27 25 28 26 29 27 30 28 31 29 32
REMARK SMILES IDX 30 33 91 34 31 35 90 36 32 37 33 38 34 39 84 40 35 41 89 42
REMARK SMILES IDX 83 43 85 44 36 45 88 46 82 47 81 48 37 50 69 51 49 52 68 53
REMARK SMILES IDX 50 54 53 55 67 56 86 57 51 58 52 59 66 61 87 62 54 63 38 64
REMARK SMILES IDX 39 65 47 66 40 67 41 68 45 69 48 70 42 71 43 72 46 73 44 74
REMARK SMILES IDX 70 75 71 76 79 77 72 78 73 79 77 80 80 81 74 82 75 83 78 84
REMARK SMILES IDX 76 85 55 86 56 87 64 88 57 89 58 90 62 91 65 92 59 93 60 94
REMARK SMILES IDX 63 95 61 96
REMARK H PARENT 85 49 53 60
REMARK Flexibility Score: inf
ROOT
ATOM      1  C   UNL     1       7.935   0.701   4.899  1.00  0.00     0.202 C 
ENDROOT
BRANCH   1   2
ATOM      2  C   UNL     1       9.166  -0.132   4.537  1.00  0.00     0.261 C 
BRANCH   2   3
ATOM      3  O   UNL     1       8.920  -0.935   3.369  1.00  0.00    -0.463 OA
BRANCH   3   4
ATOM      4  C   UNL     1       8.976  -2.280   3.547  1.00  0.00     0.313 C 
ATOM      5  O   UNL     1       9.355  -2.827   4.578  1.00  0.00    -0.252 OA
BRANCH   4   6
ATOM      6  C   UNL     1       8.569  -3.080   2.319  1.00  0.00     0.126 C 
ATOM      7  C   UNL     1       9.820  -3.489   1.546  1.00  0.00     0.025 C 
BRANCH   6   8
ATOM      8  C   UNL     1       7.512  -2.479   1.398  1.00  0.00    -0.034 A 
ATOM      9  C   UNL     1       5.602  -1.583  -0.509  1.00  0.00    -0.018 A 
ATOM     10  C   UNL     1       6.809  -0.895  -0.309  1.00  0.00     0.009 A 
ATOM     11  C   UNL     1       5.340  -2.692   0.306  1.00  0.00     0.009 A 
ATOM     12  C   UNL     1       7.753  -1.337   0.625  1.00  0.00     0.005 A 
ATOM     13  C   UNL     1       6.279  -3.133   1.245  1.00  0.00     0.005 A 
BRANCH   9  14
ATOM     14  C   UNL     1       4.681  -1.198  -1.591  1.00  0.00    -0.011 A 
ATOM     15  C   UNL     1       2.464  -0.650  -2.415  1.00  0.00     0.123 A 
ATOM     16  C   UNL     1       2.960  -0.525  -3.712  1.00  0.00     0.092 A 
ATOM     17  C   UNL     1       3.313  -1.004  -1.366  1.00  0.00     0.055 A 
ATOM     18  C   UNL     1       4.314  -0.742  -3.968  1.00  0.00     0.123 A 
ATOM     19  C   UNL     1       5.162  -1.069  -2.908  1.00  0.00     0.055 A 
BRANCH  15  20
ATOM     20  O   UNL     1       1.111  -0.559  -2.233  1.00  0.00    -0.494 OA
BRANCH  20  21
ATOM     21  C   UNL     1       0.709   0.571  -1.450  1.00  0.00     0.226 C 
ATOM     22  C   UNL     1       0.545   0.205   0.017  1.00  0.00     0.049 C 
ENDBRANCH  20  21
ENDBRANCH  15  20
BRANCH  18  23
ATOM     23  O   UNL     1       4.701  -0.596  -5.272  1.00  0.00    -0.494 OA
BRANCH  23  24
ATOM     24  C   UNL     1       5.934  -1.200  -5.673  1.00  0.00     0.226 C 
ATOM     25  C   UNL     1       7.089  -0.218  -5.558  1.00  0.00     0.049 C 
ENDBRANCH  23  24
ENDBRANCH  18  23
ENDBRANCH   9  14
ENDBRANCH   6   8
ENDBRANCH   4   6
ENDBRANCH   3   4
ENDBRANCH   2   3
ENDBRANCH   1   2
BRANCH   1  26
ATOM     26  O   UNL     1       6.803  -0.031   5.367  1.00  0.00    -0.374 OA
BRANCH  26  27
ATOM     27  C   UNL     1       6.001  -0.693   4.388  1.00  0.00     0.202 C 
BRANCH  27  28
ATOM     28  C   UNL     1       5.028   0.194   3.603  1.00  0.00     0.261 C 
BRANCH  28  29
ATOM     29  O   UNL     1       5.713   1.083   2.702  1.00  0.00    -0.460 OA
BRANCH  29  30
ATOM     30  C   UNL     1       5.667   2.390   3.036  1.00  0.00     0.338 C 
ATOM     31  O   UNL     1       5.061   2.901   3.970  1.00  0.00    -0.246 OA
BRANCH  30  32
ATOM     32  C   UNL     1       6.606   3.156   2.198  1.00  0.00     0.060 A 
ATOM     33  C   UNL     1       7.507   4.014   2.844  1.00  0.00     0.016 A 
ATOM     34  C   UNL     1       6.548   3.104   0.804  1.00  0.00     0.016 A 
ATOM     35  C   UNL     1       8.315   4.870   2.098  1.00  0.00     0.010 A 
ATOM     36  C   UNL     1       7.350   3.973   0.058  1.00  0.00     0.010 A 
ATOM     37  C   UNL     1       8.204   4.887   0.703  1.00  0.00    -0.014 A 
BRANCH  37  38
ATOM     38  C   UNL     1       8.824   5.983  -0.079  1.00  0.00     0.031 A 
ATOM     39  C   UNL     1       7.960   7.143  -0.490  1.00  0.00     0.074 A 
ATOM     40  C   UNL     1      10.122   5.950  -0.425  1.00  0.00     0.049 A 
ATOM     41  N   UNL     1       8.230   8.142  -1.289  1.00  0.00    -0.248 NA
ATOM     42  C   UNL     1       6.601   7.175   0.076  1.00  0.00     0.031 C 
ATOM     43  C   UNL     1      11.075   4.915  -0.031  1.00  0.00     0.029 A 
ATOM     44  N   UNL     1      10.855   6.807  -1.206  1.00  0.00    -0.354 N 
ATOM     45  C   UNL     1       7.072   8.907  -1.339  1.00  0.00     0.074 A 
ATOM     46  C   UNL     1       6.091   8.252  -0.502  1.00  0.00     0.031 C 
ATOM     47  C   UNL     1      12.265   5.184  -0.596  1.00  0.00     0.029 A 
ATOM     48  C   UNL     1      12.143   6.384  -1.424  1.00  0.00     0.049 A 
ATOM     49  H   UNL     1      10.493   7.645  -1.575  1.00  0.00     0.167 HD
ATOM     50  C   UNL     1       6.849  10.053  -2.024  1.00  0.00     0.037 A 
ATOM     51  C   UNL     1      13.098   6.889  -2.230  1.00  0.00     0.037 A 
ATOM     52  C   UNL     1       7.831  10.705  -2.848  1.00  0.00     0.049 A 
ATOM     53  C   UNL     1      12.803   8.124  -3.043  1.00  0.00     0.074 A 
ATOM     54  C   UNL     1       7.707  11.874  -3.577  1.00  0.00     0.029 A 
ATOM     55  N   UNL     1       9.120  10.237  -3.053  1.00  0.00    -0.354 N 
ATOM     56  N   UNL     1      11.707   8.842  -3.089  1.00  0.00    -0.248 NA
ATOM     57  C   UNL     1      13.875   8.616  -3.922  1.00  0.00     0.031 C 
ATOM     58  C   UNL     1       8.908  12.090  -4.260  1.00  0.00     0.029 A 
ATOM     59  C   UNL     1       9.797  11.084  -3.913  1.00  0.00     0.049 A 
ATOM     60  H   UNL     1       9.498   9.424  -2.647  1.00  0.00     0.167 HD
ATOM     61  C   UNL     1      11.970   9.888  -3.965  1.00  0.00     0.074 A 
ATOM     62  C   UNL     1      13.328   9.710  -4.433  1.00  0.00     0.031 C 
ATOM     63  C   UNL     1      11.160  10.908  -4.342  1.00  0.00     0.037 A 
BRANCH  50  64
ATOM     64  C   UNL     1       5.479  10.658  -1.938  1.00  0.00     0.064 A 
ATOM     65  C   UNL     1       5.022  11.291  -0.774  1.00  0.00     0.173 A 
ATOM     66  C   UNL     1       4.625  10.631  -3.051  1.00  0.00     0.173 A 
ATOM     67  F   UNL     1       5.796  11.329   0.322  1.00  0.00    -0.203 F 
ATOM     68  C   UNL     1       3.750  11.855  -0.719  1.00  0.00     0.198 A 
ATOM     69  C   UNL     1       3.365  11.221  -3.002  1.00  0.00     0.198 A 
ATOM     70  F   UNL     1       5.016  10.041  -4.190  1.00  0.00    -0.203 F 
ATOM     71  F   UNL     1       3.317  12.417   0.418  1.00  0.00    -0.200 F 
ATOM     72  C   UNL     1       2.926  11.827  -1.834  1.00  0.00     0.200 A 
ATOM     73  F   UNL     1       2.575  11.203  -4.084  1.00  0.00    -0.200 F 
ATOM     74  F   UNL     1       1.706  12.377  -1.782  1.00  0.00    -0.200 F 
ENDBRANCH  50  64
BRANCH  51  75
ATOM     75  C   UNL     1      14.418   6.213  -2.330  1.00  0.00     0.064 A 
ATOM     76  C   UNL     1      15.579   6.817  -1.831  1.00  0.00     0.173 A 
ATOM     77  C   UNL     1      14.547   4.956  -2.940  1.00  0.00     0.173 A 
ATOM     78  F   UNL     1      15.511   8.030  -1.262  1.00  0.00    -0.203 F 
ATOM     79  C   UNL     1      16.822   6.197  -1.950  1.00  0.00     0.198 A 
ATOM     80  C   UNL     1      15.785   4.325  -3.035  1.00  0.00     0.198 A 
ATOM     81  F   UNL     1      13.466   4.336  -3.437  1.00  0.00    -0.203 F 
ATOM     82  F   UNL     1      17.922   6.816  -1.504  1.00  0.00    -0.200 F 
ATOM     83  C   UNL     1      16.923   4.949  -2.547  1.00  0.00     0.200 A 
ATOM     84  F   UNL     1      15.876   3.114  -3.602  1.00  0.00    -0.200 F 
ATOM     85  F   UNL     1      18.117   4.352  -2.659  1.00  0.00    -0.200 F 
ENDBRANCH  51  75
BRANCH  63  86
ATOM     86  C   UNL     1      11.729  11.953  -5.256  1.00  0.00     0.064 A 
ATOM     87  C   UNL     1      11.923  11.713  -6.623  1.00  0.00     0.173 A 
ATOM     88  C   UNL     1      11.997  13.242  -4.767  1.00  0.00     0.173 A 
ATOM     89  F   UNL     1      11.693  10.495  -7.134  1.00  0.00    -0.203 F 
ATOM     90  C   UNL     1      12.371  12.726  -7.468  1.00  0.00     0.198 A 
ATOM     91  C   UNL     1      12.420  14.257  -5.619  1.00  0.00     0.198 A 
ATOM     92  F   UNL     1      11.819  13.521  -3.467  1.00  0.00    -0.203 F 
ATOM     93  F   UNL     1      12.573  12.470  -8.768  1.00  0.00    -0.200 F 
ATOM     94  C   UNL     1      12.608  13.998  -6.968  1.00  0.00     0.200 A 
ATOM     95  F   UNL     1      12.634  15.489  -5.136  1.00  0.00    -0.200 F 
ATOM     96  F   UNL     1      13.020  14.976  -7.787  1.00  0.00    -0.200 F 
ENDBRANCH  63  86
ENDBRANCH  37  38
ENDBRANCH  30  32
ENDBRANCH  29  30
ENDBRANCH  28  29
ENDBRANCH  27  28
ENDBRANCH  26  27
ENDBRANCH   1  26
TORSDOF 20
