REMARK SMILES Cc1ccc(C)c(NC(=O)/C=C\C(=O)OCCOCCOC(=O)c2ccc(-c3c4nc(c(-c5c(F)c(F)c(F)c(F)c5F)c5ccc([nH]5)c(-c5c(F)c(F)c(F)c(F)c5F)c5nc(c(-c6c(F)c(F)c(F)c(F)c6F)c6ccc3[nH]6)C=C5)C=C4)cc2)c1
REMARK SMILES IDX 18 1 17 2 16 3 15 4 13 5 14 6 12 7 11 8 9 9 8 10 10 12 7 13
REMARK SMILES IDX 1 14 2 15 3 16 87 17 4 18 5 19 6 20 19 21 20 22 21 23 22 24
REMARK SMILES IDX 23 25 24 26 25 27 86 28 26 29 85 30 27 31 28 32 29 33 79 34
REMARK SMILES IDX 30 35 84 36 78 37 80 38 31 39 83 40 77 41 76 42 32 44 64 45
REMARK SMILES IDX 44 46 63 47 45 48 48 49 62 50 81 51 46 52 47 53 61 55 82 56
REMARK SMILES IDX 49 57 33 58 34 59 42 60 35 61 36 62 40 63 43 64 37 65 38 66
REMARK SMILES IDX 41 67 39 68 65 69 66 70 74 71 67 72 68 73 72 74 75 75 69 76
REMARK SMILES IDX 70 77 73 78 71 79 50 80 51 81 59 82 52 83 53 84 57 85 60 86
REMARK SMILES IDX 54 87 55 88 58 89 56 90
REMARK H PARENT 8 11 80 43 48 54
REMARK Flexibility Score: inf
ROOT
ATOM      1  O   UNL     1      -4.803  -1.432  -1.315  1.00  0.00    -0.374 OA
ENDROOT
BRANCH   1   2
ATOM      2  C   UNL     1      -6.184  -1.116  -1.417  1.00  0.00     0.202 C 
BRANCH   2   3
ATOM      3  C   UNL     1      -6.763  -0.840  -0.017  1.00  0.00     0.261 C 
BRANCH   3   4
ATOM      4  O   UNL     1      -6.560   0.552   0.296  1.00  0.00    -0.460 OA
BRANCH   4   5
ATOM      5  C   UNL     1      -5.316   0.863   0.777  1.00  0.00     0.331 C 
ATOM      6  O   UNL     1      -4.789   0.324   1.708  1.00  0.00    -0.247 OA
BRANCH   5   7
ATOM      7  C   UNL     1      -4.754   1.863  -0.198  1.00  0.00     0.099 C 
ATOM      8  C   UNL     1      -3.634   2.575  -0.441  1.00  0.00     0.079 C 
BRANCH   8   9
ATOM      9  C   UNL     1      -2.359   2.993   0.230  1.00  0.00     0.248 C 
ATOM     10  N   UNL     1      -1.076   2.593  -0.075  1.00  0.00    -0.322 N 
ATOM     11  H   UNL     1      -0.471   3.370  -0.061  1.00  0.00     0.170 HD
ATOM     12  O   UNL     1      -2.444   4.062   0.854  1.00  0.00    -0.270 OA
BRANCH  10  13
ATOM     13  C   UNL     1      -0.344   1.413  -0.404  1.00  0.00     0.044 A 
ATOM     14  C   UNL     1       3.401   0.432  -0.576  1.00  0.00     0.044 C 
ATOM     15  C   UNL     1       1.903   0.366  -0.574  1.00  0.00    -0.049 A 
ATOM     16  C   UNL     1       1.335  -0.897  -0.536  1.00  0.00     0.004 A 
ATOM     17  C   UNL     1       1.066   1.511  -0.489  1.00  0.00     0.029 A 
ATOM     18  C   UNL     1      -0.037  -1.002  -0.514  1.00  0.00     0.006 A 
ATOM     19  C   UNL     1      -0.869   0.134  -0.485  1.00  0.00    -0.027 A 
ATOM     20  C   UNL     1      -2.318  -0.091  -0.482  1.00  0.00     0.046 C 
ENDBRANCH  10  13
ENDBRANCH   8   9
ENDBRANCH   5   7
ENDBRANCH   4   5
ENDBRANCH   3   4
ENDBRANCH   2   3
ENDBRANCH   1   2
BRANCH   1  21
ATOM     21  C   UNL     1      -4.073  -1.592  -2.530  1.00  0.00     0.202 C 
BRANCH  21  22
ATOM     22  C   UNL     1      -4.654  -2.500  -3.609  1.00  0.00     0.261 C 
BRANCH  22  23
ATOM     23  O   UNL     1      -4.846  -3.911  -3.324  1.00  0.00    -0.460 OA
BRANCH  23  24
ATOM     24  C   UNL     1      -5.565  -4.327  -2.246  1.00  0.00     0.338 C 
ATOM     25  O   UNL     1      -6.713  -4.735  -2.307  1.00  0.00    -0.246 OA
BRANCH  24  26
ATOM     26  C   UNL     1      -4.777  -4.254  -0.990  1.00  0.00     0.060 A 
ATOM     27  C   UNL     1      -5.407  -3.983   0.230  1.00  0.00     0.016 A 
ATOM     28  C   UNL     1      -3.393  -4.212  -1.069  1.00  0.00     0.016 A 
ATOM     29  C   UNL     1      -4.661  -3.419   1.287  1.00  0.00     0.010 A 
ATOM     30  C   UNL     1      -2.683  -3.605  -0.040  1.00  0.00     0.010 A 
ATOM     31  C   UNL     1      -3.300  -3.103   1.125  1.00  0.00    -0.014 A 
BRANCH  31  32
ATOM     32  C   UNL     1      -2.391  -2.830   2.289  1.00  0.00     0.031 A 
ATOM     33  C   UNL     1      -2.224  -4.159   2.913  1.00  0.00     0.074 A 
ATOM     34  C   UNL     1      -1.735  -1.747   2.817  1.00  0.00     0.049 A 
ATOM     35  N   UNL     1      -2.929  -4.546   3.926  1.00  0.00    -0.248 NA
ATOM     36  C   UNL     1      -1.566  -5.266   2.196  1.00  0.00     0.031 C 
ATOM     37  C   UNL     1      -1.843  -0.340   2.483  1.00  0.00     0.029 A 
ATOM     38  N   UNL     1      -0.730  -1.675   3.793  1.00  0.00    -0.354 N 
ATOM     39  C   UNL     1      -2.483  -5.828   4.173  1.00  0.00     0.074 A 
ATOM     40  C   UNL     1      -1.947  -6.313   2.934  1.00  0.00     0.031 C 
ATOM     41  C   UNL     1      -0.785   0.390   2.899  1.00  0.00     0.029 A 
ATOM     42  C   UNL     1       0.009  -0.447   3.765  1.00  0.00     0.049 A 
ATOM     43  H   UNL     1      -0.550  -2.399   4.436  1.00  0.00     0.167 HD
ATOM     44  C   UNL     1      -2.089  -6.102   5.443  1.00  0.00     0.037 A 
ATOM     45  C   UNL     1       1.008   0.011   4.581  1.00  0.00     0.037 A 
ATOM     46  C   UNL     1      -2.669  -5.151   6.366  1.00  0.00     0.049 A 
ATOM     47  C   UNL     1       0.793  -0.650   5.871  1.00  0.00     0.074 A 
ATOM     48  C   UNL     1      -3.934  -4.837   6.821  1.00  0.00     0.029 A 
ATOM     49  N   UNL     1      -1.905  -4.029   6.531  1.00  0.00    -0.354 N 
ATOM     50  N   UNL     1      -0.169  -0.312   6.680  1.00  0.00    -0.248 NA
ATOM     51  C   UNL     1       1.390  -1.958   6.081  1.00  0.00     0.031 C 
ATOM     52  C   UNL     1      -3.888  -3.480   7.265  1.00  0.00     0.029 A 
ATOM     53  C   UNL     1      -2.583  -3.017   7.146  1.00  0.00     0.049 A 
ATOM     54  H   UNL     1      -0.967  -3.958   6.239  1.00  0.00     0.167 HD
ATOM     55  C   UNL     1      -0.622  -1.527   7.141  1.00  0.00     0.074 A 
ATOM     56  C   UNL     1       0.465  -2.473   6.892  1.00  0.00     0.031 C 
ATOM     57  C   UNL     1      -1.958  -1.730   7.314  1.00  0.00     0.037 A 
BRANCH  44  58
ATOM     58  C   UNL     1      -0.763  -6.766   5.746  1.00  0.00     0.064 A 
ATOM     59  C   UNL     1      -0.522  -7.196   7.060  1.00  0.00     0.173 A 
ATOM     60  C   UNL     1       0.375  -6.731   4.903  1.00  0.00     0.173 A 
ATOM     61  F   UNL     1      -1.515  -7.207   7.962  1.00  0.00    -0.203 F 
ATOM     62  C   UNL     1       0.761  -7.539   7.496  1.00  0.00     0.198 A 
ATOM     63  C   UNL     1       1.638  -7.130   5.322  1.00  0.00     0.198 A 
ATOM     64  F   UNL     1       0.360  -6.196   3.679  1.00  0.00    -0.203 F 
ATOM     65  F   UNL     1       0.965  -7.840   8.785  1.00  0.00    -0.200 F 
ATOM     66  C   UNL     1       1.837  -7.513   6.626  1.00  0.00     0.200 A 
ATOM     67  F   UNL     1       2.668  -7.053   4.467  1.00  0.00    -0.200 F 
ATOM     68  F   UNL     1       3.073  -7.800   7.053  1.00  0.00    -0.200 F 
ENDBRANCH  44  58
BRANCH  45  69
ATOM     69  C   UNL     1       2.173   0.935   4.398  1.00  0.00     0.064 A 
ATOM     70  C   UNL     1       3.000   1.334   5.470  1.00  0.00     0.173 A 
ATOM     71  C   UNL     1       2.707   1.159   3.126  1.00  0.00     0.173 A 
ATOM     72  F   UNL     1       2.590   1.182   6.737  1.00  0.00    -0.203 F 
ATOM     73  C   UNL     1       4.304   1.819   5.273  1.00  0.00     0.198 A 
ATOM     74  C   UNL     1       4.004   1.652   2.923  1.00  0.00     0.198 A 
ATOM     75  F   UNL     1       1.998   0.807   2.058  1.00  0.00    -0.203 F 
ATOM     76  F   UNL     1       5.086   2.096   6.326  1.00  0.00    -0.200 F 
ATOM     77  C   UNL     1       4.816   1.946   3.998  1.00  0.00     0.200 A 
ATOM     78  F   UNL     1       4.496   1.781   1.684  1.00  0.00    -0.200 F 
ATOM     79  F   UNL     1       6.091   2.312   3.801  1.00  0.00    -0.200 F 
ENDBRANCH  45  69
BRANCH  57  80
ATOM     80  C   UNL     1      -2.809  -0.542   7.627  1.00  0.00     0.064 A 
ATOM     81  C   UNL     1      -3.086   0.520   6.752  1.00  0.00     0.173 A 
ATOM     82  C   UNL     1      -3.413  -0.517   8.891  1.00  0.00     0.173 A 
ATOM     83  F   UNL     1      -2.590   0.537   5.507  1.00  0.00    -0.203 F 
ATOM     84  C   UNL     1      -3.910   1.576   7.148  1.00  0.00     0.198 A 
ATOM     85  C   UNL     1      -4.257   0.518   9.272  1.00  0.00     0.198 A 
ATOM     86  F   UNL     1      -3.200  -1.522   9.756  1.00  0.00    -0.203 F 
ATOM     87  F   UNL     1      -4.151   2.596   6.311  1.00  0.00    -0.200 F 
ATOM     88  C   UNL     1      -4.497   1.570   8.405  1.00  0.00     0.200 A 
ATOM     89  F   UNL     1      -4.846   0.485  10.475  1.00  0.00    -0.200 F 
ATOM     90  F   UNL     1      -5.305   2.572   8.780  1.00  0.00    -0.200 F 
ENDBRANCH  57  80
ENDBRANCH  31  32
ENDBRANCH  24  26
ENDBRANCH  23  24
ENDBRANCH  22  23
ENDBRANCH  21  22
ENDBRANCH   1  21
TORSDOF 16
