REMARK SMILES Cc1cc(C(=O)N[C@H](C(=O)OCCOCCOC(=O)c2ccc(-c3c4nc(c(-c5c(F)c(F)c(F)c(F)c5F)c5ccc([nH]5)c(-c5c(F)c(F)c(F)c(F)c5F)c5nc(c(-c6c(F)c(F)c(F)c(F)c6F)c6ccc3[nH]6)C=C5)C=C4)cc2)c2c(C)n[nH]c2C)c2ccc(C)c(C)c2n1
REMARK SMILES IDX 14 1 13 2 12 3 11 4 9 5 10 6 8 7 7 8 5 9 6 10 4 12 1 13 2 14
REMARK SMILES IDX 3 15 98 16 97 17 90 18 95 19 91 20 93 21 96 22 92 23 94 24
REMARK SMILES IDX 83 25 84 26 88 27 85 28 86 29 87 30 89 31 15 33 16 34 17 35
REMARK SMILES IDX 18 36 19 37 20 38 21 39 82 40 22 41 81 42 23 43 24 44 25 45
REMARK SMILES IDX 75 46 26 47 80 48 74 49 76 50 27 51 79 52 73 53 72 54 28 56
REMARK SMILES IDX 60 57 40 58 59 59 41 60 44 61 58 62 77 63 42 64 43 65 57 67
REMARK SMILES IDX 78 68 45 69 29 70 30 71 38 72 31 73 32 74 36 75 39 76 33 77
REMARK SMILES IDX 34 78 37 79 35 80 61 81 62 82 70 83 63 84 64 85 68 86 71 87
REMARK SMILES IDX 65 88 66 89 69 90 67 91 46 92 47 93 55 94 48 95 49 96 53 97
REMARK SMILES IDX 56 98 50 99 51 100 54 101 52 102
REMARK H PARENT 7 11 87 32 76 55 44 66
REMARK Flexibility Score: inf
ROOT
ATOM      1  O   UNL     1      -0.421   6.566   1.432  1.00  0.00    -0.374 OA
ENDROOT
BRANCH   1   2
ATOM      2  C   UNL     1       0.818   7.178   1.786  1.00  0.00     0.202 C 
BRANCH   2   3
ATOM      3  C   UNL     1       2.013   6.233   1.923  1.00  0.00     0.261 C 
BRANCH   3   4
ATOM      4  O   UNL     1       2.285   5.561   0.681  1.00  0.00    -0.461 OA
BRANCH   4   5
ATOM      5  C   UNL     1       2.632   4.247   0.794  1.00  0.00     0.333 C 
ATOM      6  O   UNL     1       2.887   3.689   1.857  1.00  0.00    -0.249 OA
BRANCH   5   7
ATOM      7  C   UNL     1       2.749   3.538  -0.575  1.00  0.00     0.227 C 
BRANCH   7   8
ATOM      8  N   UNL     1       1.852   4.014  -1.629  1.00  0.00    -0.335 N 
ATOM      9  C   UNL     1       0.647   3.518  -2.093  1.00  0.00     0.252 C 
ATOM     10  O   UNL     1       0.041   4.203  -2.916  1.00  0.00    -0.269 OA
ATOM     11  H   UNL     1       2.160   4.829  -2.087  1.00  0.00     0.165 HD
BRANCH   9  12
ATOM     12  C   UNL     1       0.055   2.220  -1.619  1.00  0.00     0.051 A 
ATOM     13  C   UNL     1       0.156   0.148   1.514  1.00  0.00     0.067 C 
ATOM     14  C   UNL     1      -0.221   0.638   0.149  1.00  0.00     0.039 A 
ATOM     15  C   UNL     1       0.166   1.891  -0.269  1.00  0.00     0.038 A 
ATOM     16  N   UNL     1      -0.867  -0.215  -0.660  1.00  0.00    -0.253 NA
ATOM     17  C   UNL     1      -1.159   0.141  -1.923  1.00  0.00     0.074 A 
ATOM     18  C   UNL     1      -0.675   1.347  -2.486  1.00  0.00     0.013 A 
ATOM     19  C   UNL     1      -1.976  -0.724  -2.676  1.00  0.00    -0.022 A 
ATOM     20  C   UNL     1      -0.977   1.592  -3.849  1.00  0.00     0.011 A 
ATOM     21  C   UNL     1      -2.309  -0.430  -4.014  1.00  0.00    -0.046 A 
ATOM     22  C   UNL     1      -2.503  -1.967  -1.989  1.00  0.00     0.047 C 
ATOM     23  C   UNL     1      -1.784   0.725  -4.593  1.00  0.00     0.004 A 
ATOM     24  C   UNL     1      -3.231  -1.304  -4.821  1.00  0.00     0.044 C 
ENDBRANCH   9  12
ENDBRANCH   7   8
BRANCH   7  25
ATOM     25  C   UNL     1       4.167   3.550  -1.044  1.00  0.00     0.029 A 
ATOM     26  C   UNL     1       5.052   4.636  -1.303  1.00  0.00     0.065 A 
ATOM     27  C   UNL     1       4.944   2.419  -1.242  1.00  0.00     0.038 A 
ATOM     28  C   UNL     1       4.801   6.100  -1.239  1.00  0.00     0.069 C 
ATOM     29  N   UNL     1       6.280   4.203  -1.613  1.00  0.00    -0.180 NA
ATOM     30  N   UNL     1       6.189   2.868  -1.568  1.00  0.00    -0.282 N 
ATOM     31  C   UNL     1       4.612   0.979  -1.113  1.00  0.00     0.066 C 
ATOM     32  H   UNL     1       6.948   2.268  -1.753  1.00  0.00     0.190 HD
ENDBRANCH   7  25
ENDBRANCH   5   7
ENDBRANCH   4   5
ENDBRANCH   3   4
ENDBRANCH   2   3
ENDBRANCH   1   2
BRANCH   1  33
ATOM     33  C   UNL     1      -0.564   6.094   0.090  1.00  0.00     0.202 C 
BRANCH  33  34
ATOM     34  C   UNL     1      -0.683   7.156  -1.010  1.00  0.00     0.261 C 
BRANCH  34  35
ATOM     35  O   UNL     1       0.534   7.910  -1.190  1.00  0.00    -0.460 OA
BRANCH  35  36
ATOM     36  C   UNL     1       0.414   9.238  -0.966  1.00  0.00     0.338 C 
ATOM     37  O   UNL     1      -0.595   9.859  -0.656  1.00  0.00    -0.246 OA
BRANCH  36  38
ATOM     38  C   UNL     1       1.734   9.883  -0.991  1.00  0.00     0.060 A 
ATOM     39  C   UNL     1       2.215  10.439   0.201  1.00  0.00     0.016 A 
ATOM     40  C   UNL     1       2.409  10.084  -2.196  1.00  0.00     0.016 A 
ATOM     41  C   UNL     1       3.352  11.242   0.185  1.00  0.00     0.010 A 
ATOM     42  C   UNL     1       3.541  10.905  -2.214  1.00  0.00     0.010 A 
ATOM     43  C   UNL     1       3.990  11.520  -1.031  1.00  0.00    -0.014 A 
BRANCH  43  44
ATOM     44  C   UNL     1       5.003  12.599  -1.084  1.00  0.00     0.031 A 
ATOM     45  C   UNL     1       4.557  13.996  -1.416  1.00  0.00     0.074 A 
ATOM     46  C   UNL     1       6.290  12.350  -0.793  1.00  0.00     0.049 A 
ATOM     47  N   UNL     1       5.263  15.093  -1.514  1.00  0.00    -0.248 NA
ATOM     48  C   UNL     1       3.118  14.182  -1.663  1.00  0.00     0.031 C 
ATOM     49  C   UNL     1       6.829  11.051  -0.401  1.00  0.00     0.029 A 
ATOM     50  N   UNL     1       7.377  13.188  -0.781  1.00  0.00    -0.354 N 
ATOM     51  C   UNL     1       4.355  16.099  -1.817  1.00  0.00     0.074 A 
ATOM     52  C   UNL     1       3.053  15.479  -1.924  1.00  0.00     0.031 C 
ATOM     53  C   UNL     1       8.150  11.176  -0.188  1.00  0.00     0.029 A 
ATOM     54  C   UNL     1       8.551  12.557  -0.457  1.00  0.00     0.049 A 
ATOM     55  H   UNL     1       7.320  14.149  -0.985  1.00  0.00     0.167 HD
ATOM     56  C   UNL     1       4.587  17.423  -1.979  1.00  0.00     0.037 A 
ATOM     57  C   UNL     1       9.807  13.040  -0.397  1.00  0.00     0.037 A 
ATOM     58  C   UNL     1       5.886  18.034  -1.894  1.00  0.00     0.049 A 
ATOM     59  C   UNL     1      10.057  14.495  -0.696  1.00  0.00     0.074 A 
ATOM     60  C   UNL     1       6.224  19.367  -2.050  1.00  0.00     0.029 A 
ATOM     61  N   UNL     1       7.064  17.348  -1.640  1.00  0.00    -0.354 N 
ATOM     62  N   UNL     1       9.194  15.442  -0.974  1.00  0.00    -0.248 NA
ATOM     63  C   UNL     1      11.456  14.947  -0.676  1.00  0.00     0.031 C 
ATOM     64  C   UNL     1       7.614  19.479  -1.937  1.00  0.00     0.029 A 
ATOM     65  C   UNL     1       8.136  18.225  -1.662  1.00  0.00     0.049 A 
ATOM     66  H   UNL     1       7.129  16.381  -1.468  1.00  0.00     0.167 HD
ATOM     67  C   UNL     1       9.939  16.602  -1.141  1.00  0.00     0.074 A 
ATOM     68  C   UNL     1      11.325  16.243  -0.924  1.00  0.00     0.031 C 
ATOM     69  C   UNL     1       9.511  17.852  -1.446  1.00  0.00     0.037 A 
BRANCH  56  70
ATOM     70  C   UNL     1       3.408  18.298  -2.281  1.00  0.00     0.064 A 
ATOM     71  C   UNL     1       2.458  18.612  -1.297  1.00  0.00     0.173 A 
ATOM     72  C   UNL     1       3.245  18.861  -3.556  1.00  0.00     0.173 A 
ATOM     73  F   UNL     1       2.563  18.087  -0.067  1.00  0.00    -0.203 F 
ATOM     74  C   UNL     1       1.378  19.443  -1.584  1.00  0.00     0.198 A 
ATOM     75  C   UNL     1       2.177  19.711  -3.832  1.00  0.00     0.198 A 
ATOM     76  F   UNL     1       4.127  18.594  -4.531  1.00  0.00    -0.203 F 
ATOM     77  F   UNL     1       0.463  19.700  -0.639  1.00  0.00    -0.200 F 
ATOM     78  C   UNL     1       1.243  19.997  -2.848  1.00  0.00     0.200 A 
ATOM     79  F   UNL     1       2.053  20.255  -5.050  1.00  0.00    -0.200 F 
ATOM     80  F   UNL     1       0.207  20.804  -3.119  1.00  0.00    -0.200 F 
ENDBRANCH  56  70
BRANCH  57  81
ATOM     81  C   UNL     1      10.924  12.132  -0.033  1.00  0.00     0.064 A 
ATOM     82  C   UNL     1      11.568  12.246   1.206  1.00  0.00     0.173 A 
ATOM     83  C   UNL     1      11.357  11.123  -0.906  1.00  0.00     0.173 A 
ATOM     84  F   UNL     1      11.206  13.213   2.062  1.00  0.00    -0.203 F 
ATOM     85  C   UNL     1      12.603  11.383   1.559  1.00  0.00     0.198 A 
ATOM     86  C   UNL     1      12.376  10.246  -0.542  1.00  0.00     0.198 A 
ATOM     87  F   UNL     1      10.775  10.978  -2.106  1.00  0.00    -0.203 F 
ATOM     88  F   UNL     1      13.220  11.529   2.740  1.00  0.00    -0.200 F 
ATOM     89  C   UNL     1      13.000  10.379   0.689  1.00  0.00     0.200 A 
ATOM     90  F   UNL     1      12.752   9.273  -1.383  1.00  0.00    -0.200 F 
ATOM     91  F   UNL     1      13.988   9.542   1.035  1.00  0.00    -0.200 F 
ENDBRANCH  57  81
BRANCH  69  92
ATOM     92  C   UNL     1      10.543  18.936  -1.551  1.00  0.00     0.064 A 
ATOM     93  C   UNL     1      11.403  19.021  -2.655  1.00  0.00     0.173 A 
ATOM     94  C   UNL     1      10.618  19.945  -0.578  1.00  0.00     0.173 A 
ATOM     95  F   UNL     1      11.378  18.075  -3.605  1.00  0.00    -0.203 F 
ATOM     96  C   UNL     1      12.309  20.072  -2.776  1.00  0.00     0.198 A 
ATOM     97  C   UNL     1      11.506  21.008  -0.716  1.00  0.00     0.198 A 
ATOM     98  F   UNL     1       9.810  19.912   0.492  1.00  0.00    -0.203 F 
ATOM     99  F   UNL     1      13.142  20.119  -3.825  1.00  0.00    -0.200 F 
ATOM    100  C   UNL     1      12.352  21.069  -1.812  1.00  0.00     0.200 A 
ATOM    101  F   UNL     1      11.536  21.978   0.209  1.00  0.00    -0.200 F 
ATOM    102  F   UNL     1      13.212  22.089  -1.940  1.00  0.00    -0.200 F 
ENDBRANCH  69  92
ENDBRANCH  43  44
ENDBRANCH  36  38
ENDBRANCH  35  36
ENDBRANCH  34  35
ENDBRANCH  33  34
ENDBRANCH   1  33
TORSDOF 17
