REMARK SMILES O=C(OCCOCCOC(=O)[C@@H]1C[C@H]1C(=O)N[C@@H]1CONC1=O)c1ccc(-c2c3nc(c(-c4c(F)c(F)c(F)c(F)c4F)c4ccc([nH]4)c(-c4c(F)c(F)c(F)c(F)c4F)c4nc(c(-c5c(F)c(F)c(F)c(F)c5F)c5ccc2[nH]5)C=C4)C=C3)cc1
REMARK SMILES IDX 6 1 5 2 4 3 3 4 2 5 1 6 24 7 25 8 86 9 26 10 85 11 27 12
REMARK SMILES IDX 28 13 29 14 79 15 30 16 84 17 78 18 80 19 31 20 83 21 77 22
REMARK SMILES IDX 76 23 32 25 64 26 44 27 63 28 45 29 48 30 62 31 81 32 46 33
REMARK SMILES IDX 47 34 61 36 82 37 49 38 33 39 34 40 42 41 35 42 36 43 40 44
REMARK SMILES IDX 43 45 37 46 38 47 41 48 39 49 65 50 66 51 74 52 67 53 68 54
REMARK SMILES IDX 72 55 75 56 69 57 70 58 73 59 71 60 50 61 51 62 59 63 52 64
REMARK SMILES IDX 53 65 57 66 60 67 54 68 55 69 58 70 56 71 7 72 8 73 9 74
REMARK SMILES IDX 10 75 11 76 12 77 13 78 14 79 15 80 16 81 17 82 18 84 19 85
REMARK SMILES IDX 22 86 20 87 21 88 23 89
REMARK H PARENT 80 24 48 35 17 83 21 90
REMARK Flexibility Score: inf
ROOT
ATOM      1  O   UNL     1       4.064  -1.762  -0.283  1.00  0.00    -0.374 OA
ENDROOT
BRANCH   1   2
ATOM      2  C   UNL     1       4.502  -1.260   0.984  1.00  0.00     0.202 C 
BRANCH   2   3
ATOM      3  C   UNL     1       4.318   0.246   1.196  1.00  0.00     0.261 C 
BRANCH   3   4
ATOM      4  O   UNL     1       2.939   0.616   1.037  1.00  0.00    -0.460 OA
BRANCH   4   5
ATOM      5  C   UNL     1       2.328   1.101  -0.068  1.00  0.00     0.338 C 
ATOM      6  O   UNL     1       1.118   1.316  -0.022  1.00  0.00    -0.246 OA
BRANCH   5   7
ATOM      7  C   UNL     1       3.037   1.394  -1.351  1.00  0.00     0.060 A 
ATOM      8  C   UNL     1       4.208   0.767  -1.786  1.00  0.00     0.016 A 
ATOM      9  C   UNL     1       2.416   2.302  -2.224  1.00  0.00     0.016 A 
ATOM     10  C   UNL     1       4.770   1.040  -3.018  1.00  0.00     0.010 A 
ATOM     11  C   UNL     1       2.961   2.571  -3.482  1.00  0.00     0.010 A 
ATOM     12  C   UNL     1       4.147   1.939  -3.869  1.00  0.00    -0.014 A 
BRANCH  12  13
ATOM     13  C   UNL     1       4.853   2.288  -5.105  1.00  0.00     0.031 A 
ATOM     14  C   UNL     1       5.604   3.575  -5.135  1.00  0.00     0.074 A 
ATOM     15  C   UNL     1       4.913   1.393  -6.104  1.00  0.00     0.049 A 
ATOM     16  N   UNL     1       6.244   4.139  -6.120  1.00  0.00    -0.248 NA
ATOM     17  C   UNL     1       5.647   4.330  -3.871  1.00  0.00     0.031 C 
ATOM     18  C   UNL     1       4.320   0.054  -6.071  1.00  0.00     0.029 A 
ATOM     19  N   UNL     1       5.511   1.467  -7.330  1.00  0.00    -0.354 N 
ATOM     20  C   UNL     1       6.732   5.331  -5.608  1.00  0.00     0.074 A 
ATOM     21  C   UNL     1       6.316   5.413  -4.227  1.00  0.00     0.031 C 
ATOM     22  C   UNL     1       4.575  -0.564  -7.234  1.00  0.00     0.029 A 
ATOM     23  C   UNL     1       5.281   0.362  -8.111  1.00  0.00     0.049 A 
ATOM     24  H   UNL     1       6.053   2.235  -7.624  1.00  0.00     0.167 HD
ATOM     25  C   UNL     1       7.453   6.272  -6.257  1.00  0.00     0.037 A 
ATOM     26  C   UNL     1       5.564   0.163  -9.410  1.00  0.00     0.037 A 
ATOM     27  C   UNL     1       7.832   6.142  -7.638  1.00  0.00     0.049 A 
ATOM     28  C   UNL     1       6.276   1.267 -10.145  1.00  0.00     0.074 A 
ATOM     29  C   UNL     1       8.521   7.033  -8.435  1.00  0.00     0.029 A 
ATOM     30  N   UNL     1       7.533   5.036  -8.428  1.00  0.00    -0.354 N 
ATOM     31  N   UNL     1       6.693   2.426  -9.687  1.00  0.00    -0.248 NA
ATOM     32  C   UNL     1       6.549   1.050 -11.569  1.00  0.00     0.031 C 
ATOM     33  C   UNL     1       8.580   6.495  -9.726  1.00  0.00     0.029 A 
ATOM     34  C   UNL     1       7.995   5.235  -9.716  1.00  0.00     0.049 A 
ATOM     35  H   UNL     1       7.062   4.230  -8.115  1.00  0.00     0.167 HD
ATOM     36  C   UNL     1       7.294   3.070 -10.757  1.00  0.00     0.074 A 
ATOM     37  C   UNL     1       7.195   2.164 -11.887  1.00  0.00     0.031 C 
ATOM     38  C   UNL     1       7.876   4.295 -10.806  1.00  0.00     0.037 A 
BRANCH  25  39
ATOM     39  C   UNL     1       7.757   7.534  -5.504  1.00  0.00     0.064 A 
ATOM     40  C   UNL     1       8.617   7.560  -4.395  1.00  0.00     0.173 A 
ATOM     41  C   UNL     1       7.107   8.728  -5.853  1.00  0.00     0.173 A 
ATOM     42  F   UNL     1       9.241   6.440  -3.996  1.00  0.00    -0.203 F 
ATOM     43  C   UNL     1       8.773   8.718  -3.635  1.00  0.00     0.198 A 
ATOM     44  C   UNL     1       7.294   9.892  -5.114  1.00  0.00     0.198 A 
ATOM     45  F   UNL     1       6.268   8.761  -6.899  1.00  0.00    -0.203 F 
ATOM     46  F   UNL     1       9.528   8.694  -2.527  1.00  0.00    -0.200 F 
ATOM     47  C   UNL     1       8.113   9.882  -3.995  1.00  0.00     0.200 A 
ATOM     48  F   UNL     1       6.658  11.018  -5.468  1.00  0.00    -0.200 F 
ATOM     49  F   UNL     1       8.248  10.990  -3.253  1.00  0.00    -0.200 F 
ENDBRANCH  25  39
BRANCH  26  50
ATOM     50  C   UNL     1       5.111  -1.083 -10.082  1.00  0.00     0.064 A 
ATOM     51  C   UNL     1       6.021  -2.033 -10.561  1.00  0.00     0.173 A 
ATOM     52  C   UNL     1       3.742  -1.364 -10.230  1.00  0.00     0.173 A 
ATOM     53  F   UNL     1       7.340  -1.807 -10.462  1.00  0.00    -0.203 F 
ATOM     54  C   UNL     1       5.582  -3.210 -11.167  1.00  0.00     0.198 A 
ATOM     55  C   UNL     1       3.304  -2.554 -10.807  1.00  0.00     0.198 A 
ATOM     56  F   UNL     1       2.825  -0.490  -9.789  1.00  0.00    -0.203 F 
ATOM     57  F   UNL     1       6.474  -4.087 -11.648  1.00  0.00    -0.200 F 
ATOM     58  C   UNL     1       4.225  -3.474 -11.281  1.00  0.00     0.200 A 
ATOM     59  F   UNL     1       1.992  -2.809 -10.898  1.00  0.00    -0.200 F 
ATOM     60  F   UNL     1       3.805  -4.611 -11.852  1.00  0.00    -0.200 F 
ENDBRANCH  26  50
BRANCH  38  61
ATOM     61  C   UNL     1       8.485   4.707 -12.113  1.00  0.00     0.064 A 
ATOM     62  C   UNL     1       7.695   5.077 -13.210  1.00  0.00     0.173 A 
ATOM     63  C   UNL     1       9.878   4.817 -12.232  1.00  0.00     0.173 A 
ATOM     64  F   UNL     1       6.359   4.973 -13.147  1.00  0.00    -0.203 F 
ATOM     65  C   UNL     1       8.281   5.535 -14.385  1.00  0.00     0.198 A 
ATOM     66  C   UNL     1      10.458   5.309 -13.395  1.00  0.00     0.198 A 
ATOM     67  F   UNL     1      10.674   4.482 -11.204  1.00  0.00    -0.203 F 
ATOM     68  F   UNL     1       7.512   5.853 -15.435  1.00  0.00    -0.200 F 
ATOM     69  C   UNL     1       9.660   5.664 -14.472  1.00  0.00     0.200 A 
ATOM     70  F   UNL     1      11.789   5.452 -13.469  1.00  0.00    -0.200 F 
ATOM     71  F   UNL     1      10.221   6.130 -15.596  1.00  0.00    -0.200 F 
ENDBRANCH  38  61
ENDBRANCH  12  13
ENDBRANCH   5   7
ENDBRANCH   4   5
ENDBRANCH   3   4
ENDBRANCH   2   3
ENDBRANCH   1   2
BRANCH   1  72
ATOM     72  C   UNL     1       2.671  -2.082  -0.388  1.00  0.00     0.202 C 
BRANCH  72  73
ATOM     73  C   UNL     1       2.508  -3.522  -0.880  1.00  0.00     0.261 C 
BRANCH  73  74
ATOM     74  O   UNL     1       3.085  -4.384   0.107  1.00  0.00    -0.463 OA
BRANCH  74  75
ATOM     75  C   UNL     1       4.423  -4.578  -0.051  1.00  0.00     0.309 C 
ATOM     76  O   UNL     1       5.033  -4.651  -1.103  1.00  0.00    -0.252 OA
BRANCH  75  77
ATOM     77  C   UNL     1       5.077  -4.569   1.270  1.00  0.00     0.112 C 
ATOM     78  C   UNL     1       6.565  -4.732   1.463  1.00  0.00     0.030 C 
ATOM     79  C   UNL     1       5.633  -5.845   1.830  1.00  0.00     0.093 C 
BRANCH  79  80
ATOM     80  C   UNL     1       5.225  -6.260   3.190  1.00  0.00     0.224 C 
ATOM     81  O   UNL     1       5.227  -7.459   3.455  1.00  0.00    -0.275 OA
ATOM     82  N   UNL     1       4.559  -5.425   4.051  1.00  0.00    -0.342 N 
ATOM     83  H   UNL     1       3.601  -5.625   4.151  1.00  0.00     0.164 HD
BRANCH  82  84
ATOM     84  C   UNL     1       5.030  -4.273   4.858  1.00  0.00     0.202 C 
ATOM     85  C   UNL     1       3.910  -3.898   5.849  1.00  0.00     0.228 C 
ATOM     86  C   UNL     1       5.348  -2.886   4.310  1.00  0.00     0.268 C 
ATOM     87  O   UNL     1       3.900  -2.488   6.065  1.00  0.00    -0.271 OA
ATOM     88  N   UNL     1       4.670  -1.946   5.029  1.00  0.00    -0.233 N 
ATOM     89  O   UNL     1       6.120  -2.583   3.415  1.00  0.00    -0.270 OA
ATOM     90  H   UNL     1       4.718  -0.981   4.838  1.00  0.00     0.199 HD
ENDBRANCH  82  84
ENDBRANCH  79  80
ENDBRANCH  75  77
ENDBRANCH  74  75
ENDBRANCH  73  74
ENDBRANCH  72  73
ENDBRANCH   1  72
TORSDOF 16
