REMARK SMILES O=C(OCCOCCOC(=O)[C@@H]1[C@@H](C(=O)Nc2cccc(C(F)(F)F)c2)[C@@H]2C=C[C@H]1O2)c1ccc(-c2c3nc(c(-c4c(F)c(F)c(F)c(F)c4F)c4ccc([nH]4)c(-c4c(F)c(F)c(F)c(F)c4F)c4nc(c(-c5c(F)c(F)c(F)c(F)c5F)c5ccc2[nH]5)C=C4)C=C3)cc1
REMARK SMILES IDX 7 1 6 2 5 3 4 4 3 5 2 6 1 7 32 8 33 9 94 10 34 11 93 12
REMARK SMILES IDX 35 13 36 14 37 15 87 16 38 17 92 18 86 19 88 20 39 21 91 22
REMARK SMILES IDX 85 23 84 24 40 26 72 27 52 28 71 29 53 30 56 31 70 32 89 33
REMARK SMILES IDX 54 34 55 35 69 37 90 38 57 39 41 40 42 41 50 42 43 43 44 44
REMARK SMILES IDX 48 45 51 46 45 47 46 48 49 49 47 50 73 51 74 52 82 53 75 54
REMARK SMILES IDX 76 55 80 56 83 57 77 58 78 59 81 60 79 61 58 62 59 63 67 64
REMARK SMILES IDX 60 65 61 66 65 67 68 68 62 69 63 70 66 71 64 72 8 73 9 74
REMARK SMILES IDX 10 75 11 76 12 77 13 78 30 79 27 80 29 81 31 82 28 83 14 84
REMARK SMILES IDX 15 85 16 86 17 88 18 89 26 90 19 91 21 92 20 93 22 94 23 95
REMARK SMILES IDX 24 96 25 97
REMARK H PARENT 88 25 56 36 16 87
REMARK Flexibility Score: inf
ROOT
ATOM      1  C   UNL     1       2.658   1.682   1.183  1.00  0.00     0.202 C 
ENDROOT
BRANCH   1   2
ATOM      2  O   UNL     1       4.006   1.255   0.981  1.00  0.00    -0.374 OA
BRANCH   2   3
ATOM      3  C   UNL     1       4.456   1.131  -0.368  1.00  0.00     0.202 C 
BRANCH   3   4
ATOM      4  C   UNL     1       4.008  -0.099  -1.170  1.00  0.00     0.261 C 
BRANCH   4   5
ATOM      5  O   UNL     1       2.592  -0.338  -1.034  1.00  0.00    -0.460 OA
BRANCH   5   6
ATOM      6  C   UNL     1       1.995  -1.292  -0.272  1.00  0.00     0.338 C 
ATOM      7  O   UNL     1       0.786  -1.481  -0.363  1.00  0.00    -0.246 OA
BRANCH   6   8
ATOM      8  C   UNL     1       2.780  -2.127   0.678  1.00  0.00     0.060 A 
ATOM      9  C   UNL     1       3.938  -1.662   1.279  1.00  0.00     0.016 A 
ATOM     10  C   UNL     1       2.334  -3.406   1.032  1.00  0.00     0.016 A 
ATOM     11  C   UNL     1       4.726  -2.438   2.078  1.00  0.00     0.010 A 
ATOM     12  C   UNL     1       3.072  -4.182   1.941  1.00  0.00     0.010 A 
ATOM     13  C   UNL     1       4.279  -3.690   2.453  1.00  0.00    -0.014 A 
BRANCH  13  14
ATOM     14  C   UNL     1       5.227  -4.422   3.300  1.00  0.00     0.031 A 
ATOM     15  C   UNL     1       6.045  -5.493   2.660  1.00  0.00     0.074 A 
ATOM     16  C   UNL     1       5.548  -3.887   4.496  1.00  0.00     0.049 A 
ATOM     17  N   UNL     1       6.976  -6.238   3.183  1.00  0.00    -0.248 NA
ATOM     18  C   UNL     1       5.804  -5.741   1.227  1.00  0.00     0.031 C 
ATOM     19  C   UNL     1       4.929  -2.685   5.075  1.00  0.00     0.029 A 
ATOM     20  N   UNL     1       6.528  -4.212   5.391  1.00  0.00    -0.354 N 
ATOM     21  C   UNL     1       7.401  -7.070   2.160  1.00  0.00     0.074 A 
ATOM     22  C   UNL     1       6.642  -6.735   0.979  1.00  0.00     0.031 C 
ATOM     23  C   UNL     1       5.584  -2.345   6.195  1.00  0.00     0.029 A 
ATOM     24  C   UNL     1       6.583  -3.365   6.472  1.00  0.00     0.049 A 
ATOM     25  H   UNL     1       7.136  -4.977   5.272  1.00  0.00     0.167 HD
ATOM     26  C   UNL     1       8.338  -8.040   2.229  1.00  0.00     0.037 A 
ATOM     27  C   UNL     1       7.328  -3.450   7.588  1.00  0.00     0.037 A 
ATOM     28  C   UNL     1       9.069  -8.326   3.432  1.00  0.00     0.049 A 
ATOM     29  C   UNL     1       8.272  -4.617   7.684  1.00  0.00     0.074 A 
ATOM     30  C   UNL     1       9.940  -9.364   3.698  1.00  0.00     0.029 A 
ATOM     31  N   UNL     1       9.013  -7.540   4.579  1.00  0.00    -0.354 N 
ATOM     32  N   UNL     1       8.559  -5.521   6.776  1.00  0.00    -0.248 NA
ATOM     33  C   UNL     1       8.970  -4.799   8.959  1.00  0.00     0.031 C 
ATOM     34  C   UNL     1      10.382  -9.226   5.019  1.00  0.00     0.029 A 
ATOM     35  C   UNL     1       9.827  -8.074   5.560  1.00  0.00     0.049 A 
ATOM     36  H   UNL     1       8.472  -6.724   4.677  1.00  0.00     0.167 HD
ATOM     37  C   UNL     1       9.468  -6.382   7.367  1.00  0.00     0.074 A 
ATOM     38  C   UNL     1       9.716  -5.863   8.699  1.00  0.00     0.031 C 
ATOM     39  C   UNL     1      10.035  -7.510   6.871  1.00  0.00     0.037 A 
BRANCH  26  40
ATOM     40  C   UNL     1       8.523  -8.894   1.013  1.00  0.00     0.064 A 
ATOM     41  C   UNL     1       9.159  -8.419  -0.143  1.00  0.00     0.173 A 
ATOM     42  C   UNL     1       7.998 -10.195   0.987  1.00  0.00     0.173 A 
ATOM     43  F   UNL     1       9.639  -7.167  -0.184  1.00  0.00    -0.203 F 
ATOM     44  C   UNL     1       9.245  -9.210  -1.288  1.00  0.00     0.198 A 
ATOM     45  C   UNL     1       8.106 -10.990  -0.150  1.00  0.00     0.198 A 
ATOM     46  F   UNL     1       7.360 -10.688   2.059  1.00  0.00    -0.203 F 
ATOM     47  F   UNL     1       9.804  -8.716  -2.401  1.00  0.00    -0.200 F 
ATOM     48  C   UNL     1       8.722 -10.495  -1.289  1.00  0.00     0.200 A 
ATOM     49  F   UNL     1       7.596 -12.229  -0.150  1.00  0.00    -0.200 F 
ATOM     50  F   UNL     1       8.796 -11.249  -2.394  1.00  0.00    -0.200 F 
ENDBRANCH  26  40
BRANCH  27  51
ATOM     51  C   UNL     1       7.126  -2.499   8.716  1.00  0.00     0.064 A 
ATOM     52  C   UNL     1       8.165  -1.691   9.198  1.00  0.00     0.173 A 
ATOM     53  C   UNL     1       5.884  -2.408   9.370  1.00  0.00     0.173 A 
ATOM     54  F   UNL     1       9.378  -1.751   8.631  1.00  0.00    -0.203 F 
ATOM     55  C   UNL     1       7.978  -0.854  10.299  1.00  0.00     0.198 A 
ATOM     56  C   UNL     1       5.687  -1.543  10.443  1.00  0.00     0.198 A 
ATOM     57  F   UNL     1       4.852  -3.162   8.963  1.00  0.00    -0.203 F 
ATOM     58  F   UNL     1       9.006  -0.141  10.778  1.00  0.00    -0.200 F 
ATOM     59  C   UNL     1       6.738  -0.776  10.917  1.00  0.00     0.200 A 
ATOM     60  F   UNL     1       4.482  -1.463  11.024  1.00  0.00    -0.200 F 
ATOM     61  F   UNL     1       6.561   0.025  11.976  1.00  0.00    -0.200 F 
ENDBRANCH  27  51
BRANCH  39  62
ATOM     62  C   UNL     1      10.986  -8.225   7.779  1.00  0.00     0.064 A 
ATOM     63  C   UNL     1      10.531  -8.943   8.893  1.00  0.00     0.173 A 
ATOM     64  C   UNL     1      12.362  -8.207   7.513  1.00  0.00     0.173 A 
ATOM     65  F   UNL     1       9.223  -8.969   9.193  1.00  0.00    -0.203 F 
ATOM     66  C   UNL     1      11.428  -9.594   9.732  1.00  0.00     0.198 A 
ATOM     67  C   UNL     1      13.252  -8.888   8.335  1.00  0.00     0.198 A 
ATOM     68  F   UNL     1      12.839  -7.538   6.453  1.00  0.00    -0.203 F 
ATOM     69  F   UNL     1      10.981 -10.227  10.825  1.00  0.00    -0.200 F 
ATOM     70  C   UNL     1      12.786  -9.572   9.448  1.00  0.00     0.200 A 
ATOM     71  F   UNL     1      14.562  -8.878   8.053  1.00  0.00    -0.200 F 
ATOM     72  F   UNL     1      13.649 -10.204  10.255  1.00  0.00    -0.200 F 
ENDBRANCH  39  62
ENDBRANCH  13  14
ENDBRANCH   6   8
ENDBRANCH   5   6
ENDBRANCH   4   5
ENDBRANCH   3   4
ENDBRANCH   2   3
ENDBRANCH   1   2
BRANCH   1  73
ATOM     73  C   UNL     1       2.656   3.023   1.909  1.00  0.00     0.261 C 
BRANCH  73  74
ATOM     74  O   UNL     1       3.187   4.010   1.011  1.00  0.00    -0.463 OA
BRANCH  74  75
ATOM     75  C   UNL     1       4.543   4.108   0.967  1.00  0.00     0.312 C 
ATOM     76  O   UNL     1       5.311   3.638   1.798  1.00  0.00    -0.252 OA
BRANCH  75  77
ATOM     77  C   UNL     1       5.008   4.866  -0.246  1.00  0.00     0.147 C 
ATOM     78  C   UNL     1       4.298   6.233  -0.359  1.00  0.00     0.129 C 
ATOM     79  C   UNL     1       4.710   4.248  -1.621  1.00  0.00     0.157 C 
ATOM     80  C   UNL     1       3.857   6.227  -1.836  1.00  0.00     0.155 C 
ATOM     81  C   UNL     1       3.245   4.051  -1.917  1.00  0.00     0.004 C 
ATOM     82  O   UNL     1       4.916   5.432  -2.437  1.00  0.00    -0.365 OA
ATOM     83  C   UNL     1       2.715   5.274  -2.021  1.00  0.00     0.004 C 
BRANCH  78  84
ATOM     84  C   UNL     1       5.224   7.391  -0.049  1.00  0.00     0.231 C 
ATOM     85  O   UNL     1       6.379   7.229   0.346  1.00  0.00    -0.274 OA
ATOM     86  N   UNL     1       4.777   8.672  -0.234  1.00  0.00    -0.326 N 
ATOM     87  H   UNL     1       5.453   9.380  -0.126  1.00  0.00     0.169 HD
BRANCH  86  88
ATOM     88  C   UNL     1       3.487   9.108  -0.556  1.00  0.00     0.041 A 
ATOM     89  C   UNL     1       3.369  10.083  -1.544  1.00  0.00     0.026 A 
ATOM     90  C   UNL     1       2.338   8.572   0.030  1.00  0.00     0.039 A 
ATOM     91  C   UNL     1       2.108  10.437  -2.020  1.00  0.00     0.003 A 
ATOM     92  C   UNL     1       1.064   8.910  -0.445  1.00  0.00     0.058 A 
ATOM     93  C   UNL     1       0.963   9.844  -1.485  1.00  0.00     0.013 A 
BRANCH  92  94
ATOM     94  C   UNL     1      -0.174   8.283   0.147  1.00  0.00     0.416 C 
ATOM     95  F   UNL     1      -0.925   9.171   0.851  1.00  0.00    -0.166 F 
ATOM     96  F   UNL     1      -0.996   7.760  -0.805  1.00  0.00    -0.166 F 
ATOM     97  F   UNL     1       0.097   7.257   1.002  1.00  0.00    -0.166 F 
ENDBRANCH  92  94
ENDBRANCH  86  88
ENDBRANCH  78  84
ENDBRANCH  75  77
ENDBRANCH  74  75
ENDBRANCH  73  74
ENDBRANCH   1  73
TORSDOF 17
