REMARK SMILES C#CCN(CC(=O)OCCOCCOC(=O)c1ccc(-c2c3nc(c(-c4c(F)c(F)c(F)c(F)c4F)c4ccc([nH]4)c(-c4c(F)c(F)c(F)c(F)c4F)c4nc(c(-c5c(F)c(F)c(F)c(F)c5F)c5ccc2[nH]5)C=C4)C=C3)cc1)c1ncccc1C(=O)OCC
REMARK SMILES IDX 9 1 8 2 6 3 7 4 5 5 4 6 3 7 2 8 1 9 80 10 81 11 85 12 82 13
REMARK SMILES IDX 84 14 83 15 86 16 87 17 88 18 89 19 90 20 10 21 11 22 12 23
REMARK SMILES IDX 13 24 14 25 15 26 16 27 17 28 18 29 79 30 19 31 78 32 20 33
REMARK SMILES IDX 21 34 22 35 72 36 23 37 77 38 71 39 73 40 24 41 76 42 70 43
REMARK SMILES IDX 69 44 25 46 57 47 37 48 56 49 38 50 41 51 55 52 74 53 39 54
REMARK SMILES IDX 40 55 54 57 75 58 42 59 26 60 27 61 35 62 28 63 29 64 33 65
REMARK SMILES IDX 36 66 30 67 31 68 34 69 32 70 58 71 59 72 67 73 60 74 61 75
REMARK SMILES IDX 65 76 68 77 62 78 63 79 66 80 64 81 43 82 44 83 52 84 45 85
REMARK SMILES IDX 46 86 50 87 53 88 47 89 48 90 51 91 49 92
REMARK H PARENT 73 45 41 56
REMARK Flexibility Score: inf
ROOT
ATOM      1  C   UNL     1      -6.425   1.877  -0.595  1.00  0.00     0.261 C 
ENDROOT
BRANCH   1   2
ATOM      2  O   UNL     1      -5.028   1.923  -0.253  1.00  0.00    -0.462 OA
BRANCH   2   3
ATOM      3  C   UNL     1      -4.147   1.750  -1.281  1.00  0.00     0.325 C 
ATOM      4  O   UNL     1      -4.457   1.353  -2.400  1.00  0.00    -0.250 OA
BRANCH   3   5
ATOM      5  C   UNL     1      -2.728   2.196  -0.909  1.00  0.00     0.241 C 
BRANCH   5   6
ATOM      6  N   UNL     1      -2.186   1.458   0.228  1.00  0.00    -0.334 N 
BRANCH   6   7
ATOM      7  C   UNL     1      -1.914   0.018   0.040  1.00  0.00     0.208 C 
BRANCH   7   8
ATOM      8  C   UNL     1      -0.394   0.018   0.040  1.00  0.00    -0.085 C 
ATOM      9  C   UNL     1       0.910   0.018   0.040  1.00  0.00     0.006 C 
ENDBRANCH   7   8
ENDBRANCH   6   7
BRANCH   6  10
ATOM     10  C   UNL     1      -1.705   2.184   1.311  1.00  0.00     0.144 A 
ATOM     11  N   UNL     1      -2.580   2.253   2.346  1.00  0.00    -0.238 NA
ATOM     12  C   UNL     1      -0.462   2.864   1.439  1.00  0.00     0.102 A 
ATOM     13  C   UNL     1      -2.271   3.001   3.440  1.00  0.00     0.113 A 
ATOM     14  C   UNL     1      -0.216   3.681   2.566  1.00  0.00     0.021 A 
ATOM     15  C   UNL     1      -1.133   3.755   3.585  1.00  0.00     0.021 A 
BRANCH  12  16
ATOM     16  C   UNL     1       0.741   2.764   0.571  1.00  0.00     0.341 C 
ATOM     17  O   UNL     1       0.813   3.048  -0.611  1.00  0.00    -0.246 OA
BRANCH  16  18
ATOM     18  O   UNL     1       1.760   2.350   1.394  1.00  0.00    -0.462 OA
BRANCH  18  19
ATOM     19  C   UNL     1       3.096   2.152   0.883  1.00  0.00     0.230 C 
ATOM     20  C   UNL     1       3.748   0.983   1.629  1.00  0.00     0.049 C 
ENDBRANCH  18  19
ENDBRANCH  16  18
ENDBRANCH  12  16
ENDBRANCH   6  10
ENDBRANCH   5   6
ENDBRANCH   3   5
ENDBRANCH   2   3
ENDBRANCH   1   2
BRANCH   1  21
ATOM     21  C   UNL     1      -7.239   2.982   0.101  1.00  0.00     0.202 C 
BRANCH  21  22
ATOM     22  O   UNL     1      -6.832   4.333  -0.130  1.00  0.00    -0.374 OA
BRANCH  22  23
ATOM     23  C   UNL     1      -5.509   4.703   0.264  1.00  0.00     0.202 C 
BRANCH  23  24
ATOM     24  C   UNL     1      -5.170   4.571   1.753  1.00  0.00     0.261 C 
BRANCH  24  25
ATOM     25  O   UNL     1      -5.483   3.266   2.259  1.00  0.00    -0.460 OA
BRANCH  25  26
ATOM     26  C   UNL     1      -5.569   3.185   3.599  1.00  0.00     0.338 C 
ATOM     27  O   UNL     1      -5.269   4.040   4.416  1.00  0.00    -0.246 OA
BRANCH  26  28
ATOM     28  C   UNL     1      -6.189   1.908   3.986  1.00  0.00     0.060 A 
ATOM     29  C   UNL     1      -7.582   1.861   4.080  1.00  0.00     0.016 A 
ATOM     30  C   UNL     1      -5.409   0.848   4.455  1.00  0.00     0.016 A 
ATOM     31  C   UNL     1      -8.194   0.791   4.733  1.00  0.00     0.010 A 
ATOM     32  C   UNL     1      -6.027  -0.234   5.093  1.00  0.00     0.010 A 
ATOM     33  C   UNL     1      -7.418  -0.235   5.295  1.00  0.00    -0.014 A 
BRANCH  33  34
ATOM     34  C   UNL     1      -8.063  -1.200   6.225  1.00  0.00     0.031 A 
ATOM     35  C   UNL     1      -7.886  -1.031   7.712  1.00  0.00     0.074 A 
ATOM     36  C   UNL     1      -8.857  -2.182   5.763  1.00  0.00     0.049 A 
ATOM     37  N   UNL     1      -8.446  -1.690   8.698  1.00  0.00    -0.248 NA
ATOM     38  C   UNL     1      -6.952   0.018   8.148  1.00  0.00     0.031 C 
ATOM     39  C   UNL     1      -9.112  -2.465   4.354  1.00  0.00     0.029 A 
ATOM     40  N   UNL     1      -9.601  -3.118   6.439  1.00  0.00    -0.354 N 
ATOM     41  C   UNL     1      -7.933  -1.137   9.864  1.00  0.00     0.074 A 
ATOM     42  C   UNL     1      -6.984  -0.119   9.465  1.00  0.00     0.031 C 
ATOM     43  C   UNL     1      -9.961  -3.503   4.267  1.00  0.00     0.029 A 
ATOM     44  C   UNL     1     -10.299  -3.963   5.614  1.00  0.00     0.049 A 
ATOM     45  H   UNL     1      -9.630  -3.176   7.421  1.00  0.00     0.167 HD
ATOM     46  C   UNL     1      -8.236  -1.432  11.152  1.00  0.00     0.037 A 
ATOM     47  C   UNL     1     -11.122  -4.988   5.909  1.00  0.00     0.037 A 
ATOM     48  C   UNL     1      -9.184  -2.437  11.560  1.00  0.00     0.049 A 
ATOM     49  C   UNL     1     -11.438  -5.309   7.346  1.00  0.00     0.074 A 
ATOM     50  C   UNL     1      -9.589  -2.773  12.840  1.00  0.00     0.029 A 
ATOM     51  N   UNL     1      -9.864  -3.279  10.693  1.00  0.00    -0.354 N 
ATOM     52  N   UNL     1     -11.004  -4.732   8.440  1.00  0.00    -0.248 NA
ATOM     53  C   UNL     1     -12.377  -6.415   7.587  1.00  0.00     0.031 C 
ATOM     54  C   UNL     1     -10.476  -3.853  12.752  1.00  0.00     0.029 A 
ATOM     55  C   UNL     1     -10.667  -4.152  11.413  1.00  0.00     0.049 A 
ATOM     56  H   UNL     1      -9.789  -3.260   9.712  1.00  0.00     0.167 HD
ATOM     57  C   UNL     1     -11.636  -5.381   9.493  1.00  0.00     0.074 A 
ATOM     58  C   UNL     1     -12.493  -6.390   8.907  1.00  0.00     0.031 C 
ATOM     59  C   UNL     1     -11.520  -5.155  10.826  1.00  0.00     0.037 A 
BRANCH  46  60
ATOM     60  C   UNL     1      -7.513  -0.664  12.221  1.00  0.00     0.064 A 
ATOM     61  C   UNL     1      -7.765   0.697  12.453  1.00  0.00     0.173 A 
ATOM     62  C   UNL     1      -6.563  -1.302  13.033  1.00  0.00     0.173 A 
ATOM     63  F   UNL     1      -8.657   1.357  11.698  1.00  0.00    -0.203 F 
ATOM     64  C   UNL     1      -7.065   1.399  13.431  1.00  0.00     0.198 A 
ATOM     65  C   UNL     1      -5.888  -0.604  14.031  1.00  0.00     0.198 A 
ATOM     66  F   UNL     1      -6.289  -2.604  12.860  1.00  0.00    -0.203 F 
ATOM     67  F   UNL     1      -7.281   2.712  13.596  1.00  0.00    -0.200 F 
ATOM     68  C   UNL     1      -6.131   0.747  14.222  1.00  0.00     0.200 A 
ATOM     69  F   UNL     1      -4.995  -1.239  14.803  1.00  0.00    -0.200 F 
ATOM     70  F   UNL     1      -5.458   1.425  15.162  1.00  0.00    -0.200 F 
ENDBRANCH  46  60
BRANCH  47  71
ATOM     71  C   UNL     1     -11.728  -5.774   4.805  1.00  0.00     0.064 A 
ATOM     72  C   UNL     1     -13.092  -5.669   4.502  1.00  0.00     0.173 A 
ATOM     73  C   UNL     1     -10.947  -6.638   4.023  1.00  0.00     0.173 A 
ATOM     74  F   UNL     1     -13.882  -4.875   5.238  1.00  0.00    -0.203 F 
ATOM     75  C   UNL     1     -13.655  -6.406   3.462  1.00  0.00     0.198 A 
ATOM     76  C   UNL     1     -11.506  -7.354   2.968  1.00  0.00     0.198 A 
ATOM     77  F   UNL     1      -9.637  -6.772   4.275  1.00  0.00    -0.203 F 
ATOM     78  F   UNL     1     -14.968  -6.315   3.215  1.00  0.00    -0.200 F 
ATOM     79  C   UNL     1     -12.860  -7.242   2.691  1.00  0.00     0.200 A 
ATOM     80  F   UNL     1     -10.732  -8.151   2.218  1.00  0.00    -0.200 F 
ATOM     81  F   UNL     1     -13.400  -7.943   1.685  1.00  0.00    -0.200 F 
ENDBRANCH  47  71
BRANCH  59  82
ATOM     82  C   UNL     1     -12.365  -5.990  11.747  1.00  0.00     0.064 A 
ATOM     83  C   UNL     1     -12.110  -7.354  11.954  1.00  0.00     0.173 A 
ATOM     84  C   UNL     1     -13.428  -5.409  12.456  1.00  0.00     0.173 A 
ATOM     85  F   UNL     1     -11.113  -7.963  11.293  1.00  0.00    -0.203 F 
ATOM     86  C   UNL     1     -12.908  -8.112  12.809  1.00  0.00     0.198 A 
ATOM     87  C   UNL     1     -14.205  -6.162  13.333  1.00  0.00     0.198 A 
ATOM     88  F   UNL     1     -13.711  -4.107  12.303  1.00  0.00    -0.203 F 
ATOM     89  F   UNL     1     -12.678  -9.425  12.949  1.00  0.00    -0.200 F 
ATOM     90  C   UNL     1     -13.950  -7.515  13.502  1.00  0.00     0.200 A 
ATOM     91  F   UNL     1     -15.203  -5.580  14.012  1.00  0.00    -0.200 F 
ATOM     92  F   UNL     1     -14.715  -8.244  14.326  1.00  0.00    -0.200 F 
ENDBRANCH  59  82
ENDBRANCH  33  34
ENDBRANCH  26  28
ENDBRANCH  25  26
ENDBRANCH  24  25
ENDBRANCH  23  24
ENDBRANCH  22  23
ENDBRANCH  21  22
ENDBRANCH   1  21
TORSDOF 21
