REMARK SMILES O=C(OCCOCCOC(=O)[C@@H]1CN(c2nc(-c3ccccc3)no2)CC[NH2+]1)c1ccc(-c2c3nc(c(-c4c(F)c(F)c(F)c(F)c4F)c4ccc([nH]4)c(-c4c(F)c(F)c(F)c(F)c4F)c4nc(c(-c5c(F)c(F)c(F)c(F)c5F)c5ccc2[nH]5)C=C4)C=C3)cc1
REMARK SMILES IDX 6 1 5 2 4 3 3 4 2 5 1 6 29 7 30 8 91 9 31 10 90 11 32 12
REMARK SMILES IDX 33 13 34 14 84 15 35 16 89 17 83 18 85 19 36 20 88 21 82 22
REMARK SMILES IDX 81 23 37 25 69 26 49 27 68 28 50 29 53 30 67 31 86 32 51 33
REMARK SMILES IDX 52 34 66 36 87 37 54 38 38 39 39 40 47 41 40 42 41 43 45 44
REMARK SMILES IDX 48 45 42 46 43 47 46 48 44 49 70 50 71 51 79 52 72 53 73 54
REMARK SMILES IDX 77 55 80 56 74 57 75 58 78 59 76 60 55 61 56 62 64 63 57 64
REMARK SMILES IDX 58 65 62 66 65 67 59 68 60 69 63 70 61 71 7 72 8 73 9 74
REMARK SMILES IDX 10 75 11 76 12 77 13 78 28 79 14 80 27 81 26 84 15 85 16 86
REMARK SMILES IDX 25 87 17 88 24 89 18 90 19 91 23 92 20 93 22 94 21 95
REMARK H PARENT 85 24 53 35 28 82 28 83
REMARK Flexibility Score: inf
ROOT
ATOM      1  O   UNL     1       4.114  -1.230  -1.295  1.00  0.00    -0.374 OA
ENDROOT
BRANCH   1   2
ATOM      2  C   UNL     1       4.406  -1.766  -0.000  1.00  0.00     0.202 C 
BRANCH   2   3
ATOM      3  C   UNL     1       4.183  -0.801   1.168  1.00  0.00     0.261 C 
BRANCH   3   4
ATOM      4  O   UNL     1       2.796  -0.428   1.242  1.00  0.00    -0.460 OA
BRANCH   4   5
ATOM      5  C   UNL     1       2.198   0.718   0.847  1.00  0.00     0.338 C 
ATOM      6  O   UNL     1       0.982   0.831   0.993  1.00  0.00    -0.246 OA
BRANCH   5   7
ATOM      7  C   UNL     1       2.935   1.871   0.249  1.00  0.00     0.060 A 
ATOM      8  C   UNL     1       4.114   1.772  -0.493  1.00  0.00     0.016 A 
ATOM      9  C   UNL     1       2.339   3.137   0.378  1.00  0.00     0.016 A 
ATOM     10  C   UNL     1       4.740   2.896  -1.010  1.00  0.00     0.010 A 
ATOM     11  C   UNL     1       2.937   4.270  -0.177  1.00  0.00     0.010 A 
ATOM     12  C   UNL     1       4.158   4.150  -0.846  1.00  0.00    -0.014 A 
BRANCH  12  13
ATOM     13  C   UNL     1       4.920   5.329  -1.284  1.00  0.00     0.031 A 
ATOM     14  C   UNL     1       5.636   6.132  -0.245  1.00  0.00     0.074 A 
ATOM     15  C   UNL     1       5.055   5.583  -2.596  1.00  0.00     0.049 A 
ATOM     16  N   UNL     1       6.328   7.230  -0.377  1.00  0.00    -0.248 NA
ATOM     17  C   UNL     1       5.574   5.617   1.134  1.00  0.00     0.031 C 
ATOM     18  C   UNL     1       4.488   4.768  -3.672  1.00  0.00     0.029 A 
ATOM     19  N   UNL     1       5.730   6.578  -3.247  1.00  0.00    -0.354 N 
ATOM     20  C   UNL     1       6.760   7.552   0.902  1.00  0.00     0.074 A 
ATOM     21  C   UNL     1       6.255   6.537   1.798  1.00  0.00     0.031 C 
ATOM     22  C   UNL     1       4.854   5.290  -4.853  1.00  0.00     0.029 A 
ATOM     23  C   UNL     1       5.622   6.507  -4.613  1.00  0.00     0.049 A 
ATOM     24  H   UNL     1       6.244   7.277  -2.781  1.00  0.00     0.167 HD
ATOM     25  C   UNL     1       7.504   8.615   1.284  1.00  0.00     0.037 A 
ATOM     26  C   UNL     1       6.069   7.359  -5.553  1.00  0.00     0.037 A 
ATOM     27  C   UNL     1       7.982   9.610   0.364  1.00  0.00     0.049 A 
ATOM     28  C   UNL     1       6.822   8.579  -5.096  1.00  0.00     0.074 A 
ATOM     29  C   UNL     1       8.678  10.774   0.626  1.00  0.00     0.029 A 
ATOM     30  N   UNL     1       7.805   9.546  -1.013  1.00  0.00    -0.354 N 
ATOM     31  N   UNL     1       7.165   8.929  -3.878  1.00  0.00    -0.248 NA
ATOM     32  C   UNL     1       7.235   9.531  -6.134  1.00  0.00     0.031 C 
ATOM     33  C   UNL     1       8.888  11.434  -0.591  1.00  0.00     0.029 A 
ATOM     34  C   UNL     1       8.365  10.658  -1.615  1.00  0.00     0.049 A 
ATOM     35  H   UNL     1       7.347   8.816  -1.490  1.00  0.00     0.167 HD
ATOM     36  C   UNL     1       7.843  10.132  -4.000  1.00  0.00     0.074 A 
ATOM     37  C   UNL     1       7.879  10.443  -5.417  1.00  0.00     0.031 C 
ATOM     38  C   UNL     1       8.382  10.917  -3.034  1.00  0.00     0.037 A 
BRANCH  25  39
ATOM     39  C   UNL     1       7.755   8.773   2.753  1.00  0.00     0.064 A 
ATOM     40  C   UNL     1       8.627   7.926   3.455  1.00  0.00     0.173 A 
ATOM     41  C   UNL     1       7.064   9.753   3.482  1.00  0.00     0.173 A 
ATOM     42  F   UNL     1       9.286   6.952   2.810  1.00  0.00    -0.203 F 
ATOM     43  C   UNL     1       8.770   8.032   4.837  1.00  0.00     0.198 A 
ATOM     44  C   UNL     1       7.229   9.872   4.860  1.00  0.00     0.198 A 
ATOM     45  F   UNL     1       6.211  10.581   2.862  1.00  0.00    -0.203 F 
ATOM     46  F   UNL     1       9.556   7.169   5.496  1.00  0.00    -0.200 F 
ATOM     47  C   UNL     1       8.072   9.005   5.537  1.00  0.00     0.200 A 
ATOM     48  F   UNL     1       6.554  10.813   5.535  1.00  0.00    -0.200 F 
ATOM     49  F   UNL     1       8.198   9.095   6.869  1.00  0.00    -0.200 F 
ENDBRANCH  25  39
BRANCH  26  50
ATOM     50  C   UNL     1       5.778   7.105  -6.988  1.00  0.00     0.064 A 
ATOM     51  C   UNL     1       6.801   6.806  -7.898  1.00  0.00     0.173 A 
ATOM     52  C   UNL     1       4.463   7.139  -7.479  1.00  0.00     0.173 A 
ATOM     53  F   UNL     1       8.077   6.782  -7.487  1.00  0.00    -0.203 F 
ATOM     54  C   UNL     1       6.521   6.559  -9.242  1.00  0.00     0.198 A 
ATOM     55  C   UNL     1       4.181   6.863  -8.815  1.00  0.00     0.198 A 
ATOM     56  F   UNL     1       3.445   7.422  -6.652  1.00  0.00    -0.203 F 
ATOM     57  F   UNL     1       7.521   6.311 -10.098  1.00  0.00    -0.200 F 
ATOM     58  C   UNL     1       5.211   6.579  -9.697  1.00  0.00     0.200 A 
ATOM     59  F   UNL     1       2.912   6.870  -9.245  1.00  0.00    -0.200 F 
ATOM     60  F   UNL     1       4.942   6.331 -10.986  1.00  0.00    -0.200 F 
ENDBRANCH  26  50
BRANCH  38  61
ATOM     61  C   UNL     1       9.076  12.164  -3.487  1.00  0.00     0.064 A 
ATOM     62  C   UNL     1       8.356  13.288  -3.913  1.00  0.00     0.173 A 
ATOM     63  C   UNL     1      10.475  12.251  -3.434  1.00  0.00     0.173 A 
ATOM     64  F   UNL     1       7.018  13.242  -3.993  1.00  0.00    -0.203 F 
ATOM     65  C   UNL     1       9.016  14.454  -4.288  1.00  0.00     0.198 A 
ATOM     66  C   UNL     1      11.129  13.427  -3.785  1.00  0.00     0.198 A 
ATOM     67  F   UNL     1      11.203  11.201  -3.025  1.00  0.00    -0.203 F 
ATOM     68  F   UNL     1       8.313  15.507  -4.728  1.00  0.00    -0.200 F 
ATOM     69  C   UNL     1      10.400  14.525  -4.216  1.00  0.00     0.200 A 
ATOM     70  F   UNL     1      12.464  13.499  -3.702  1.00  0.00    -0.200 F 
ATOM     71  F   UNL     1      11.032  15.653  -4.566  1.00  0.00    -0.200 F 
ENDBRANCH  38  61
ENDBRANCH  12  13
ENDBRANCH   5   7
ENDBRANCH   4   5
ENDBRANCH   3   4
ENDBRANCH   2   3
ENDBRANCH   1   2
BRANCH   1  72
ATOM     72  C   UNL     1       2.729  -1.258  -1.680  1.00  0.00     0.202 C 
BRANCH  72  73
ATOM     73  C   UNL     1       2.600  -1.817  -3.098  1.00  0.00     0.261 C 
BRANCH  73  74
ATOM     74  O   UNL     1       3.035  -3.180  -3.056  1.00  0.00    -0.459 OA
BRANCH  74  75
ATOM     75  C   UNL     1       4.380  -3.344  -3.226  1.00  0.00     0.366 C 
ATOM     76  O   UNL     1       5.096  -2.625  -3.914  1.00  0.00    -0.245 OA
BRANCH  75  77
ATOM     77  C   UNL     1       4.869  -4.486  -2.341  1.00  0.00     0.313 C 
ATOM     78  C   UNL     1       6.416  -4.467  -2.281  1.00  0.00     0.199 C 
ATOM     79  N   UNL     1       4.268  -5.780  -2.782  1.00  0.00    -0.332 N 
ATOM     80  N   UNL     1       6.916  -5.658  -1.595  1.00  0.00    -0.312 N 
ATOM     81  C   UNL     1       4.811  -6.857  -1.933  1.00  0.00     0.283 C 
ATOM     82  H   UNL     1       4.507  -5.957  -3.758  1.00  0.00     0.347 HD
ATOM     83  H   UNL     1       3.252  -5.743  -2.695  1.00  0.00     0.347 HD
ATOM     84  C   UNL     1       6.350  -6.940  -1.997  1.00  0.00     0.183 C 
BRANCH  80  85
ATOM     85  C   UNL     1       8.086  -5.616  -0.931  1.00  0.00     0.324 A 
ATOM     86  N   UNL     1       8.438  -4.858   0.078  1.00  0.00    -0.171 NA
ATOM     87  O   UNL     1       9.045  -6.529  -1.274  1.00  0.00    -0.315 OA
ATOM     88  C   UNL     1       9.667  -5.376   0.419  1.00  0.00     0.204 A 
ATOM     89  N   UNL     1      10.111  -6.342  -0.398  1.00  0.00    -0.055 NA
BRANCH  88  90
ATOM     90  C   UNL     1      10.356  -5.026   1.647  1.00  0.00     0.023 A 
ATOM     91  C   UNL     1      11.659  -4.516   1.618  1.00  0.00     0.012 A 
ATOM     92  C   UNL     1       9.743  -5.289   2.880  1.00  0.00     0.012 A 
ATOM     93  C   UNL     1      12.343  -4.277   2.813  1.00  0.00     0.001 A 
ATOM     94  C   UNL     1      10.436  -5.065   4.072  1.00  0.00     0.001 A 
ATOM     95  C   UNL     1      11.735  -4.560   4.037  1.00  0.00     0.000 A 
ENDBRANCH  88  90
ENDBRANCH  80  85
ENDBRANCH  75  77
ENDBRANCH  74  75
ENDBRANCH  73  74
ENDBRANCH  72  73
ENDBRANCH   1  72
TORSDOF 16
