REMARK SMILES O=C(C[C@@H](NS(=O)(=O)c1ccc2c(c1)OCCO2)c1ccccc1)OCCOCCOC(=O)c1ccc(-c2c3nc(c(-c4c(F)c(F)c(F)c(F)c4F)c4ccc([nH]4)c(-c4c(F)c(F)c(F)c(F)c4F)c4nc(c(-c5c(F)c(F)c(F)c(F)c5F)c5ccc2[nH]5)C=C4)C=C3)cc1
REMARK SMILES IDX 27 1 26 2 25 3 2 4 1 5 3 6 4 7 5 8 6 10 7 11 8 12 9 13 10 14
REMARK SMILES IDX 14 15 11 16 13 17 12 18 15 19 18 20 16 21 17 22 19 23 20 24
REMARK SMILES IDX 24 25 21 26 23 27 22 28 28 29 29 30 30 31 31 32 32 33 33 34
REMARK SMILES IDX 34 35 35 36 96 37 36 38 95 39 37 40 38 41 39 42 89 43 40 44
REMARK SMILES IDX 94 45 88 46 90 47 41 48 93 49 87 50 86 51 42 53 74 54 54 55
REMARK SMILES IDX 73 56 55 57 58 58 72 59 91 60 56 61 57 62 71 64 92 65 59 66
REMARK SMILES IDX 43 67 44 68 52 69 45 70 46 71 50 72 53 73 47 74 48 75 51 76
REMARK SMILES IDX 49 77 75 78 76 79 84 80 77 81 78 82 82 83 85 84 79 85 80 86
REMARK SMILES IDX 83 87 81 88 60 89 61 90 69 91 62 92 63 93 67 94 70 95 64 96
REMARK SMILES IDX 65 97 68 98 66 99
REMARK H PARENT 5 9 90 52 58 63
REMARK Flexibility Score: inf
ROOT
ATOM      1  C   UNL     1       4.350   0.776  -0.891  1.00  0.00     0.202 C 
ENDROOT
BRANCH   1   2
ATOM      2  C   UNL     1       3.805  -0.644  -1.055  1.00  0.00     0.261 C 
BRANCH   2   3
ATOM      3  O   UNL     1       2.824  -1.222  -0.142  1.00  0.00    -0.463 OA
BRANCH   3   4
ATOM      4  C   UNL     1       2.138  -0.851   0.951  1.00  0.00     0.307 C 
ATOM      5  O   UNL     1       1.174  -1.523   1.314  1.00  0.00    -0.252 OA
BRANCH   4   6
ATOM      6  C   UNL     1       2.586   0.311   1.766  1.00  0.00     0.147 C 
BRANCH   6   7
ATOM      7  C   UNL     1       3.684  -0.040   2.782  1.00  0.00     0.111 C 
BRANCH   7   8
ATOM      8  N   UNL     1       4.883  -0.550   2.072  1.00  0.00    -0.203 NA
ATOM      9  H   UNL     1       5.316   0.254   1.619  1.00  0.00     0.142 HD
BRANCH   8  10
ATOM     10  S   UNL     1       6.106  -1.346   2.913  1.00  0.00     0.241 S 
ATOM     11  O   UNL     1       5.489  -2.036   4.026  1.00  0.00    -0.207 OA
ATOM     12  O   UNL     1       6.838  -2.060   1.893  1.00  0.00    -0.207 OA
BRANCH  10  13
ATOM     13  C   UNL     1       7.184  -0.099   3.540  1.00  0.00     0.086 A 
ATOM     14  C   UNL     1       7.931  -0.395   4.686  1.00  0.00     0.026 A 
ATOM     15  C   UNL     1       7.197   1.183   2.989  1.00  0.00     0.072 A 
ATOM     16  C   UNL     1       8.643   0.617   5.325  1.00  0.00     0.052 A 
ATOM     17  C   UNL     1       7.858   2.203   3.666  1.00  0.00     0.162 A 
ATOM     18  C   UNL     1       8.557   1.922   4.845  1.00  0.00     0.161 A 
ATOM     19  O   UNL     1       7.712   3.467   3.156  1.00  0.00    -0.486 OA
ATOM     20  O   UNL     1       9.146   2.899   5.606  1.00  0.00    -0.486 OA
ATOM     21  C   UNL     1       8.424   4.459   3.903  1.00  0.00     0.271 C 
ATOM     22  C   UNL     1       8.470   4.141   5.390  1.00  0.00     0.271 C 
ENDBRANCH  10  13
ENDBRANCH   8  10
ENDBRANCH   7   8
BRANCH   7  23
ATOM     23  C   UNL     1       3.978   1.187   3.642  1.00  0.00    -0.029 A 
ATOM     24  C   UNL     1       4.191   1.036   5.021  1.00  0.00     0.005 A 
ATOM     25  C   UNL     1       4.070   2.485   3.099  1.00  0.00     0.005 A 
ATOM     26  C   UNL     1       4.467   2.144   5.827  1.00  0.00     0.000 A 
ATOM     27  C   UNL     1       4.327   3.592   3.909  1.00  0.00     0.000 A 
ATOM     28  C   UNL     1       4.523   3.421   5.274  1.00  0.00     0.000 A 
ENDBRANCH   7  23
ENDBRANCH   6   7
ENDBRANCH   4   6
ENDBRANCH   3   4
ENDBRANCH   2   3
ENDBRANCH   1   2
BRANCH   1  29
ATOM     29  O   UNL     1       3.410   1.841  -0.849  1.00  0.00    -0.374 OA
BRANCH  29  30
ATOM     30  C   UNL     1       2.378   1.883  -1.828  1.00  0.00     0.202 C 
BRANCH  30  31
ATOM     31  C   UNL     1       2.855   2.298  -3.219  1.00  0.00     0.261 C 
BRANCH  31  32
ATOM     32  O   UNL     1       3.358   1.146  -3.915  1.00  0.00    -0.460 OA
BRANCH  32  33
ATOM     33  C   UNL     1       4.672   1.153  -4.235  1.00  0.00     0.338 C 
ATOM     34  O   UNL     1       5.479   2.044  -4.042  1.00  0.00    -0.246 OA
BRANCH  33  35
ATOM     35  C   UNL     1       5.037  -0.201  -4.699  1.00  0.00     0.060 A 
ATOM     36  C   UNL     1       6.244  -0.755  -4.254  1.00  0.00     0.016 A 
ATOM     37  C   UNL     1       4.196  -0.922  -5.551  1.00  0.00     0.016 A 
ATOM     38  C   UNL     1       6.621  -2.030  -4.675  1.00  0.00     0.010 A 
ATOM     39  C   UNL     1       4.578  -2.192  -5.979  1.00  0.00     0.010 A 
ATOM     40  C   UNL     1       5.798  -2.744  -5.556  1.00  0.00    -0.014 A 
BRANCH  40  41
ATOM     41  C   UNL     1       6.242  -4.031  -6.133  1.00  0.00     0.031 A 
ATOM     42  C   UNL     1       6.895  -4.033  -7.484  1.00  0.00     0.074 A 
ATOM     43  C   UNL     1       6.003  -5.183  -5.483  1.00  0.00     0.049 A 
ATOM     44  N   UNL     1       7.245  -5.046  -8.233  1.00  0.00    -0.248 NA
ATOM     45  C   UNL     1       7.185  -2.716  -8.073  1.00  0.00     0.031 C 
ATOM     46  C   UNL     1       5.386  -5.296  -4.163  1.00  0.00     0.029 A 
ATOM     47  N   UNL     1       6.225  -6.482  -5.865  1.00  0.00    -0.354 N 
ATOM     48  C   UNL     1       7.788  -4.491  -9.383  1.00  0.00     0.074 A 
ATOM     49  C   UNL     1       7.710  -3.053  -9.243  1.00  0.00     0.031 C 
ATOM     50  C   UNL     1       5.246  -6.598  -3.858  1.00  0.00     0.029 A 
ATOM     51  C   UNL     1       5.735  -7.404  -4.974  1.00  0.00     0.049 A 
ATOM     52  H   UNL     1       6.690  -6.729  -6.697  1.00  0.00     0.167 HD
ATOM     53  C   UNL     1       8.309  -5.129 -10.456  1.00  0.00     0.037 A 
ATOM     54  C   UNL     1       5.658  -8.745  -5.071  1.00  0.00     0.037 A 
ATOM     55  C   UNL     1       8.390  -6.558 -10.587  1.00  0.00     0.049 A 
ATOM     56  C   UNL     1       6.186  -9.426  -6.307  1.00  0.00     0.074 A 
ATOM     57  C   UNL     1       8.960  -7.301 -11.605  1.00  0.00     0.029 A 
ATOM     58  N   UNL     1       7.871  -7.460  -9.672  1.00  0.00    -0.354 N 
ATOM     59  N   UNL     1       6.749  -8.898  -7.366  1.00  0.00    -0.248 NA
ATOM     60  C   UNL     1       6.058 -10.890  -6.365  1.00  0.00     0.031 C 
ATOM     61  C   UNL     1       8.746  -8.655 -11.328  1.00  0.00     0.029 A 
ATOM     62  C   UNL     1       8.074  -8.755 -10.120  1.00  0.00     0.049 A 
ATOM     63  H   UNL     1       7.425  -7.218  -8.828  1.00  0.00     0.167 HD
ATOM     64  C   UNL     1       7.054  -9.959  -8.206  1.00  0.00     0.074 A 
ATOM     65  C   UNL     1       6.628 -11.166  -7.529  1.00  0.00     0.031 C 
ATOM     66  C   UNL     1       7.634  -9.939  -9.431  1.00  0.00     0.037 A 
BRANCH  53  67
ATOM     67  C   UNL     1       8.820  -4.288 -11.584  1.00  0.00     0.064 A 
ATOM     68  C   UNL     1      10.047  -3.616 -11.499  1.00  0.00     0.173 A 
ATOM     69  C   UNL     1       8.100  -4.201 -12.784  1.00  0.00     0.173 A 
ATOM     70  F   UNL     1      10.763  -3.659 -10.366  1.00  0.00    -0.203 F 
ATOM     71  C   UNL     1      10.531  -2.877 -12.575  1.00  0.00     0.198 A 
ATOM     72  C   UNL     1       8.596  -3.476 -13.864  1.00  0.00     0.198 A 
ATOM     73  F   UNL     1       6.920  -4.826 -12.912  1.00  0.00    -0.203 F 
ATOM     74  F   UNL     1      11.695  -2.221 -12.466  1.00  0.00    -0.200 F 
ATOM     75  C   UNL     1       9.810  -2.814 -13.758  1.00  0.00     0.200 A 
ATOM     76  F   UNL     1       7.900  -3.420 -15.008  1.00  0.00    -0.200 F 
ATOM     77  F   UNL     1      10.283  -2.110 -14.796  1.00  0.00    -0.200 F 
ENDBRANCH  53  67
BRANCH  54  78
ATOM     78  C   UNL     1       5.018  -9.535  -3.989  1.00  0.00     0.064 A 
ATOM     79  C   UNL     1       5.773 -10.379  -3.164  1.00  0.00     0.173 A 
ATOM     80  C   UNL     1       3.632  -9.486  -3.780  1.00  0.00     0.173 A 
ATOM     81  F   UNL     1       7.098 -10.482  -3.347  1.00  0.00    -0.203 F 
ATOM     82  C   UNL     1       5.164 -11.159  -2.184  1.00  0.00     0.198 A 
ATOM     83  C   UNL     1       3.026 -10.248  -2.784  1.00  0.00     0.198 A 
ATOM     84  F   UNL     1       2.864  -8.699  -4.549  1.00  0.00    -0.203 F 
ATOM     85  F   UNL     1       5.902 -11.996  -1.442  1.00  0.00    -0.200 F 
ATOM     86  C   UNL     1       3.792 -11.091  -1.992  1.00  0.00     0.200 A 
ATOM     87  F   UNL     1       1.701 -10.177  -2.600  1.00  0.00    -0.200 F 
ATOM     88  F   UNL     1       3.206 -11.847  -1.054  1.00  0.00    -0.200 F 
ENDBRANCH  54  78
BRANCH  66  89
ATOM     89  C   UNL     1       7.844 -11.257 -10.113  1.00  0.00     0.064 A 
ATOM     90  C   UNL     1       6.778 -11.944 -10.709  1.00  0.00     0.173 A 
ATOM     91  C   UNL     1       9.129 -11.810 -10.217  1.00  0.00     0.173 A 
ATOM     92  F   UNL     1       5.529 -11.460 -10.621  1.00  0.00    -0.203 F 
ATOM     93  C   UNL     1       6.989 -13.148 -11.375  1.00  0.00     0.198 A 
ATOM     94  C   UNL     1       9.339 -13.002 -10.904  1.00  0.00     0.198 A 
ATOM     95  F   UNL     1      10.181 -11.185  -9.668  1.00  0.00    -0.203 F 
ATOM     96  F   UNL     1       5.951 -13.806 -11.911  1.00  0.00    -0.200 F 
ATOM     97  C   UNL     1       8.269 -13.672 -11.478  1.00  0.00     0.200 A 
ATOM     98  F   UNL     1      10.578 -13.502 -11.012  1.00  0.00    -0.200 F 
ATOM     99  F   UNL     1       8.471 -14.826 -12.128  1.00  0.00    -0.200 F 
ENDBRANCH  66  89
ENDBRANCH  40  41
ENDBRANCH  33  35
ENDBRANCH  32  33
ENDBRANCH  31  32
ENDBRANCH  30  31
ENDBRANCH  29  30
ENDBRANCH   1  29
TORSDOF 19
