REMARK SMILES CCCc1cc2c(cc1Cl)C=C(C(=O)OCCOCCOC(=O)c1ccc(-c3c4nc(c(-c5c(F)c(F)c(F)c(F)c5F)c5ccc([nH]5)c(-c5c(F)c(F)c(F)c(F)c5F)c5nc(c(-c6c(F)c(F)c(F)c(F)c6F)c6ccc3[nH]6)C=C5)C=C4)cc1)[C@@H](C(F)(F)F)O2
REMARK SMILES IDX 18 1 17 2 16 3 15 4 13 5 14 6 12 7 4 8 5 9 9 10 6 11 8 12
REMARK SMILES IDX 10 13 7 14 92 15 11 16 87 17 3 18 2 19 1 20 88 21 89 22
REMARK SMILES IDX 90 23 91 24 19 25 20 26 21 27 22 28 23 29 24 30 25 31 86 32
REMARK SMILES IDX 26 33 85 34 27 35 28 36 29 37 79 38 30 39 84 40 78 41 80 42
REMARK SMILES IDX 31 43 83 44 77 45 76 46 32 48 64 49 44 50 63 51 45 52 48 53
REMARK SMILES IDX 62 54 81 55 46 56 47 57 61 59 82 60 49 61 33 62 34 63 42 64
REMARK SMILES IDX 35 65 36 66 40 67 43 68 37 69 38 70 41 71 39 72 65 73 66 74
REMARK SMILES IDX 74 75 67 76 68 77 72 78 75 79 69 80 70 81 73 82 71 83 50 84
REMARK SMILES IDX 51 85 59 86 52 87 53 88 57 89 60 90 54 91 55 92 58 93 56 94
REMARK H PARENT 80 47 48 58
REMARK Flexibility Score: inf
ROOT
ATOM      1  O   UNL     1      -1.181   8.452   6.099  1.00  0.00    -0.374 OA
ENDROOT
BRANCH   1   2
ATOM      2  C   UNL     1      -2.572   8.483   6.403  1.00  0.00     0.202 C 
BRANCH   2   3
ATOM      3  C   UNL     1      -3.528   7.728   5.474  1.00  0.00     0.261 C 
BRANCH   3   4
ATOM      4  O   UNL     1      -3.166   6.347   5.326  1.00  0.00    -0.460 OA
BRANCH   4   5
ATOM      5  C   UNL     1      -2.720   6.021   4.090  1.00  0.00     0.338 C 
ATOM      6  O   UNL     1      -2.701   6.738   3.103  1.00  0.00    -0.246 OA
BRANCH   5   7
ATOM      7  C   UNL     1      -2.109   4.680   4.118  1.00  0.00     0.087 C 
ATOM      8  C   UNL     1       0.640   0.698   2.806  1.00  0.00    -0.026 A 
ATOM      9  C   UNL     1      -0.548   0.876   3.542  1.00  0.00     0.052 A 
ATOM     10  C   UNL     1       1.387   1.835   2.460  1.00  0.00     0.045 A 
ATOM     11  C   UNL     1      -1.022   2.155   3.843  1.00  0.00     0.128 A 
ATOM     12  C   UNL     1       0.899   3.113   2.738  1.00  0.00     0.032 A 
ATOM     13  Cl  UNL     1       2.912   1.734   1.654  1.00  0.00    -0.084 Cl
ATOM     14  C   UNL     1      -0.324   3.272   3.392  1.00  0.00     0.019 A 
ATOM     15  O   UNL     1      -2.187   2.223   4.551  1.00  0.00    -0.475 OA
ATOM     16  C   UNL     1      -0.917   4.588   3.516  1.00  0.00     0.027 C 
ATOM     17  C   UNL     1      -2.817   3.521   4.761  1.00  0.00     0.316 C 
BRANCH   8  18
ATOM     18  C   UNL     1       1.010  -0.697   2.354  1.00  0.00     0.037 C 
BRANCH  18  19
ATOM     19  C   UNL     1       0.328  -1.110   1.040  1.00  0.00     0.001 C 
ATOM     20  C   UNL     1       0.767  -0.311  -0.181  1.00  0.00     0.004 C 
ENDBRANCH  18  19
ENDBRANCH   8  18
BRANCH  17  21
ATOM     21  C   UNL     1      -4.287   3.397   4.329  1.00  0.00     0.430 C 
ATOM     22  F   UNL     1      -4.878   2.327   4.915  1.00  0.00    -0.167 F 
ATOM     23  F   UNL     1      -5.014   4.480   4.687  1.00  0.00    -0.167 F 
ATOM     24  F   UNL     1      -4.410   3.248   2.991  1.00  0.00    -0.167 F 
ENDBRANCH  17  21
ENDBRANCH   5   7
ENDBRANCH   4   5
ENDBRANCH   3   4
ENDBRANCH   2   3
ENDBRANCH   1   2
BRANCH   1  25
ATOM     25  C   UNL     1      -0.452   7.253   6.351  1.00  0.00     0.202 C 
BRANCH  25  26
ATOM     26  C   UNL     1      -0.197   6.840   7.807  1.00  0.00     0.261 C 
BRANCH  26  27
ATOM     27  O   UNL     1      -1.404   6.545   8.530  1.00  0.00    -0.460 OA
BRANCH  27  28
ATOM     28  C   UNL     1      -1.732   7.448   9.487  1.00  0.00     0.338 C 
ATOM     29  O   UNL     1      -1.111   8.449   9.808  1.00  0.00    -0.246 OA
BRANCH  28  30
ATOM     30  C   UNL     1      -3.090   7.159   9.980  1.00  0.00     0.060 A 
ATOM     31  C   UNL     1      -3.406   5.918  10.531  1.00  0.00     0.016 A 
ATOM     32  C   UNL     1      -4.048   8.180   9.921  1.00  0.00     0.016 A 
ATOM     33  C   UNL     1      -4.688   5.707  11.045  1.00  0.00     0.010 A 
ATOM     34  C   UNL     1      -5.327   7.967  10.435  1.00  0.00     0.010 A 
ATOM     35  C   UNL     1      -5.651   6.734  11.018  1.00  0.00    -0.014 A 
BRANCH  35  36
ATOM     36  C   UNL     1      -6.951   6.550  11.708  1.00  0.00     0.031 A 
ATOM     37  C   UNL     1      -8.223   6.353  10.941  1.00  0.00     0.074 A 
ATOM     38  C   UNL     1      -6.969   6.570  13.054  1.00  0.00     0.049 A 
ATOM     39  N   UNL     1      -9.425   6.098  11.396  1.00  0.00    -0.248 NA
ATOM     40  C   UNL     1      -8.143   6.461   9.478  1.00  0.00     0.031 C 
ATOM     41  C   UNL     1      -5.799   6.797  13.902  1.00  0.00     0.029 A 
ATOM     42  N   UNL     1      -7.997   6.385  13.943  1.00  0.00    -0.354 N 
ATOM     43  C   UNL     1     -10.239   5.990  10.278  1.00  0.00     0.074 A 
ATOM     44  C   UNL     1      -9.407   6.265   9.124  1.00  0.00     0.031 C 
ATOM     45  C   UNL     1      -6.166   6.698  15.189  1.00  0.00     0.029 A 
ATOM     46  C   UNL     1      -7.601   6.433  15.257  1.00  0.00     0.049 A 
ATOM     47  H   UNL     1      -8.930   6.233  13.666  1.00  0.00     0.167 HD
ATOM     48  C   UNL     1     -11.554   5.667  10.223  1.00  0.00     0.037 A 
ATOM     49  C   UNL     1      -8.310   6.276  16.391  1.00  0.00     0.037 A 
ATOM     50  C   UNL     1     -12.378   5.410  11.378  1.00  0.00     0.049 A 
ATOM     51  C   UNL     1      -9.780   5.970  16.301  1.00  0.00     0.074 A 
ATOM     52  C   UNL     1     -13.711   5.041  11.419  1.00  0.00     0.029 A 
ATOM     53  N   UNL     1     -11.953   5.510  12.695  1.00  0.00    -0.354 N 
ATOM     54  N   UNL     1     -10.522   5.786  15.236  1.00  0.00    -0.248 NA
ATOM     55  C   UNL     1     -10.511   5.843  17.570  1.00  0.00     0.031 C 
ATOM     56  C   UNL     1     -14.108   4.976  12.758  1.00  0.00     0.029 A 
ATOM     57  C   UNL     1     -13.008   5.243  13.555  1.00  0.00     0.049 A 
ATOM     58  H   UNL     1     -11.037   5.738  12.978  1.00  0.00     0.167 HD
ATOM     59  C   UNL     1     -11.798   5.504  15.704  1.00  0.00     0.074 A 
ATOM     60  C   UNL     1     -11.726   5.518  17.150  1.00  0.00     0.031 C 
ATOM     61  C   UNL     1     -12.928   5.259  14.995  1.00  0.00     0.037 A 
BRANCH  48  62
ATOM     62  C   UNL     1     -12.194   5.553   8.869  1.00  0.00     0.064 A 
ATOM     63  C   UNL     1     -11.882   4.494   8.003  1.00  0.00     0.173 A 
ATOM     64  C   UNL     1     -13.192   6.455   8.468  1.00  0.00     0.173 A 
ATOM     65  F   UNL     1     -10.933   3.606   8.336  1.00  0.00    -0.203 F 
ATOM     66  C   UNL     1     -12.534   4.351   6.780  1.00  0.00     0.198 A 
ATOM     67  C   UNL     1     -13.862   6.292   7.259  1.00  0.00     0.198 A 
ATOM     68  F   UNL     1     -13.537   7.479   9.263  1.00  0.00    -0.203 F 
ATOM     69  F   UNL     1     -12.197   3.349   5.957  1.00  0.00    -0.200 F 
ATOM     70  C   UNL     1     -13.531   5.243   6.414  1.00  0.00     0.200 A 
ATOM     71  F   UNL     1     -14.838   7.143   6.915  1.00  0.00    -0.200 F 
ATOM     72  F   UNL     1     -14.172   5.091   5.247  1.00  0.00    -0.200 F 
ENDBRANCH  48  62
BRANCH  49  73
ATOM     73  C   UNL     1      -7.623   6.365  17.705  1.00  0.00     0.064 A 
ATOM     74  C   UNL     1      -7.462   5.230  18.511  1.00  0.00     0.173 A 
ATOM     75  C   UNL     1      -7.090   7.577  18.170  1.00  0.00     0.173 A 
ATOM     76  F   UNL     1      -7.971   4.053  18.119  1.00  0.00    -0.203 F 
ATOM     77  C   UNL     1      -6.803   5.305  19.736  1.00  0.00     0.198 A 
ATOM     78  C   UNL     1      -6.404   7.644  19.380  1.00  0.00     0.198 A 
ATOM     79  F   UNL     1      -7.213   8.691  17.434  1.00  0.00    -0.203 F 
ATOM     80  F   UNL     1      -6.694   4.212  20.503  1.00  0.00    -0.200 F 
ATOM     81  C   UNL     1      -6.266   6.510  20.165  1.00  0.00     0.200 A 
ATOM     82  F   UNL     1      -5.871   8.806  19.782  1.00  0.00    -0.200 F 
ATOM     83  F   UNL     1      -5.619   6.577  21.336  1.00  0.00    -0.200 F 
ENDBRANCH  49  73
BRANCH  61  84
ATOM     84  C   UNL     1     -14.187   4.975  15.764  1.00  0.00     0.064 A 
ATOM     85  C   UNL     1     -14.854   5.983  16.477  1.00  0.00     0.173 A 
ATOM     86  C   UNL     1     -14.776   3.701  15.724  1.00  0.00     0.173 A 
ATOM     87  F   UNL     1     -14.327   7.214  16.559  1.00  0.00    -0.203 F 
ATOM     88  C   UNL     1     -16.055   5.722  17.131  1.00  0.00     0.198 A 
ATOM     89  C   UNL     1     -15.994   3.453  16.352  1.00  0.00     0.198 A 
ATOM     90  F   UNL     1     -14.184   2.703  15.051  1.00  0.00    -0.203 F 
ATOM     91  F   UNL     1     -16.655   6.691  17.836  1.00  0.00    -0.200 F 
ATOM     92  C   UNL     1     -16.630   4.462  17.058  1.00  0.00     0.200 A 
ATOM     93  F   UNL     1     -16.556   2.240  16.264  1.00  0.00    -0.200 F 
ATOM     94  F   UNL     1     -17.797   4.220  17.671  1.00  0.00    -0.200 F 
ENDBRANCH  61  84
ENDBRANCH  35  36
ENDBRANCH  28  30
ENDBRANCH  27  28
ENDBRANCH  26  27
ENDBRANCH  25  26
ENDBRANCH   1  25
TORSDOF 17
