REMARK SMILES CC(C)[C@H](NS(=O)(=O)c1cccc(F)c1)C(=O)OCCOCCOC(=O)c1ccc(-c2c3nc(c(-c4c(F)c(F)c(F)c(F)c4F)c4ccc([nH]4)c(-c4c(F)c(F)c(F)c(F)c4F)c4nc(c(-c5c(F)c(F)c(F)c(F)c5F)c5ccc2[nH]5)C=C4)C=C3)cc1
REMARK SMILES IDX 20 1 19 2 18 3 16 4 17 5 4 6 2 7 1 8 3 9 5 10 6 12 7 13 8 14
REMARK SMILES IDX 9 15 10 16 15 17 11 18 13 19 12 20 14 21 21 22 22 23 23 24
REMARK SMILES IDX 24 25 25 26 26 27 27 28 28 29 89 30 29 31 88 32 30 33 31 34
REMARK SMILES IDX 32 35 82 36 33 37 87 38 81 39 83 40 34 41 86 42 80 43 79 44
REMARK SMILES IDX 35 46 67 47 47 48 66 49 48 50 51 51 65 52 84 53 49 54 50 55
REMARK SMILES IDX 64 57 85 58 52 59 36 60 37 61 45 62 38 63 39 64 43 65 46 66
REMARK SMILES IDX 40 67 41 68 44 69 42 70 68 71 69 72 77 73 70 74 71 75 75 76
REMARK SMILES IDX 78 77 72 78 73 79 76 80 74 81 53 82 54 83 62 84 55 85 56 86
REMARK SMILES IDX 60 87 63 88 57 89 58 90 61 91 59 92
REMARK H PARENT 5 11 83 45 51 56
REMARK Flexibility Score: inf
ROOT
ATOM      1  C   UNL     1      -1.728   5.327   2.046  1.00  0.00     0.202 C 
ENDROOT
BRANCH   1   2
ATOM      2  C   UNL     1      -2.265   4.046   2.691  1.00  0.00     0.261 C 
BRANCH   2   3
ATOM      3  O   UNL     1      -1.594   2.854   2.256  1.00  0.00    -0.462 OA
BRANCH   3   4
ATOM      4  C   UNL     1      -2.272   2.153   1.309  1.00  0.00     0.324 C 
ATOM      5  O   UNL     1      -3.340   2.502   0.813  1.00  0.00    -0.250 OA
BRANCH   4   6
ATOM      6  C   UNL     1      -1.583   0.862   0.896  1.00  0.00     0.182 C 
BRANCH   6   7
ATOM      7  C   UNL     1      -2.292  -0.403   1.443  1.00  0.00     0.012 C 
ATOM      8  C   UNL     1      -3.545  -0.150   2.289  1.00  0.00     0.009 C 
ATOM      9  C   UNL     1      -2.648  -1.343   0.285  1.00  0.00     0.009 C 
ENDBRANCH   6   7
BRANCH   6  10
ATOM     10  N   UNL     1      -0.100   0.861   0.976  1.00  0.00    -0.197 NA
ATOM     11  H   UNL     1       0.162   1.846   1.008  1.00  0.00     0.142 HD
BRANCH  10  12
ATOM     12  S   UNL     1       0.839   0.128   2.140  1.00  0.00     0.241 S 
ATOM     13  O   UNL     1       2.191   0.589   1.913  1.00  0.00    -0.207 OA
ATOM     14  O   UNL     1       0.178   0.288   3.415  1.00  0.00    -0.207 OA
BRANCH  12  15
ATOM     15  C   UNL     1       0.795  -1.586   1.665  1.00  0.00     0.085 A 
ATOM     16  C   UNL     1       0.356  -2.548   2.584  1.00  0.00     0.022 A 
ATOM     17  C   UNL     1       1.044  -1.929   0.334  1.00  0.00     0.061 A 
ATOM     18  C   UNL     1       0.094  -3.848   2.149  1.00  0.00     0.004 A 
ATOM     19  C   UNL     1       0.784  -3.230  -0.078  1.00  0.00     0.124 A 
ATOM     20  C   UNL     1       0.295  -4.185   0.809  1.00  0.00     0.039 A 
ATOM     21  F   UNL     1       0.958  -3.558  -1.365  1.00  0.00    -0.207 F 
ENDBRANCH  12  15
ENDBRANCH  10  12
ENDBRANCH   6  10
ENDBRANCH   4   6
ENDBRANCH   3   4
ENDBRANCH   2   3
ENDBRANCH   1   2
BRANCH   1  22
ATOM     22  O   UNL     1      -1.649   5.355   0.625  1.00  0.00    -0.374 OA
BRANCH  22  23
ATOM     23  C   UNL     1      -0.548   4.691   0.003  1.00  0.00     0.202 C 
BRANCH  23  24
ATOM     24  C   UNL     1       0.841   5.297   0.229  1.00  0.00     0.261 C 
BRANCH  24  25
ATOM     25  O   UNL     1       1.304   5.055   1.572  1.00  0.00    -0.460 OA
BRANCH  25  26
ATOM     26  C   UNL     1       1.645   6.170   2.260  1.00  0.00     0.338 C 
ATOM     27  O   UNL     1       1.685   7.315   1.841  1.00  0.00    -0.246 OA
BRANCH  26  28
ATOM     28  C   UNL     1       1.801   5.862   3.693  1.00  0.00     0.060 A 
ATOM     29  C   UNL     1       1.015   6.590   4.597  1.00  0.00     0.016 A 
ATOM     30  C   UNL     1       2.777   4.976   4.152  1.00  0.00     0.016 A 
ATOM     31  C   UNL     1       1.245   6.481   5.966  1.00  0.00     0.010 A 
ATOM     32  C   UNL     1       3.016   4.879   5.528  1.00  0.00     0.010 A 
ATOM     33  C   UNL     1       2.280   5.662   6.436  1.00  0.00    -0.014 A 
BRANCH  33  34
ATOM     34  C   UNL     1       2.685   5.753   7.859  1.00  0.00     0.031 A 
ATOM     35  C   UNL     1       3.822   6.661   8.237  1.00  0.00     0.074 A 
ATOM     36  C   UNL     1       2.017   5.076   8.808  1.00  0.00     0.049 A 
ATOM     37  N   UNL     1       4.345   6.890   9.415  1.00  0.00    -0.248 NA
ATOM     38  C   UNL     1       4.451   7.418   7.142  1.00  0.00     0.031 C 
ATOM     39  C   UNL     1       0.872   4.202   8.571  1.00  0.00     0.029 A 
ATOM     40  N   UNL     1       2.211   5.020  10.166  1.00  0.00    -0.354 N 
ATOM     41  C   UNL     1       5.362   7.811   9.203  1.00  0.00     0.074 A 
ATOM     42  C   UNL     1       5.400   8.086   7.783  1.00  0.00     0.031 C 
ATOM     43  C   UNL     1       0.466   3.689   9.745  1.00  0.00     0.029 A 
ATOM     44  C   UNL     1       1.341   4.178  10.810  1.00  0.00     0.049 A 
ATOM     45  H   UNL     1       2.908   5.536  10.633  1.00  0.00     0.167 HD
ATOM     46  C   UNL     1       6.183   8.383  10.114  1.00  0.00     0.037 A 
ATOM     47  C   UNL     1       1.271   3.828  12.110  1.00  0.00     0.037 A 
ATOM     48  C   UNL     1       6.143   8.115  11.527  1.00  0.00     0.049 A 
ATOM     49  C   UNL     1       2.241   4.426  13.094  1.00  0.00     0.074 A 
ATOM     50  C   UNL     1       6.924   8.662  12.529  1.00  0.00     0.029 A 
ATOM     51  N   UNL     1       5.276   7.221  12.135  1.00  0.00    -0.354 N 
ATOM     52  N   UNL     1       3.190   5.307  12.888  1.00  0.00    -0.248 NA
ATOM     53  C   UNL     1       2.131   3.982  14.492  1.00  0.00     0.031 C 
ATOM     54  C   UNL     1       6.559   8.066  13.740  1.00  0.00     0.029 A 
ATOM     55  C   UNL     1       5.520   7.182  13.498  1.00  0.00     0.049 A 
ATOM     56  H   UNL     1       4.589   6.692  11.668  1.00  0.00     0.167 HD
ATOM     57  C   UNL     1       3.776   5.536  14.125  1.00  0.00     0.074 A 
ATOM     58  C   UNL     1       3.070   4.710  15.082  1.00  0.00     0.031 C 
ATOM     59  C   UNL     1       4.807   6.357  14.439  1.00  0.00     0.037 A 
BRANCH  46  60
ATOM     60  C   UNL     1       7.214   9.350   9.615  1.00  0.00     0.064 A 
ATOM     61  C   UNL     1       8.571   8.994   9.599  1.00  0.00     0.173 A 
ATOM     62  C   UNL     1       6.868  10.651   9.223  1.00  0.00     0.173 A 
ATOM     63  F   UNL     1       8.951   7.762   9.970  1.00  0.00    -0.203 F 
ATOM     64  C   UNL     1       9.546   9.912   9.220  1.00  0.00     0.198 A 
ATOM     65  C   UNL     1       7.845  11.559   8.823  1.00  0.00     0.198 A 
ATOM     66  F   UNL     1       5.582  11.033   9.211  1.00  0.00    -0.203 F 
ATOM     67  F   UNL     1      10.839   9.559   9.239  1.00  0.00    -0.200 F 
ATOM     68  C   UNL     1       9.183  11.192   8.831  1.00  0.00     0.200 A 
ATOM     69  F   UNL     1       7.492  12.791   8.430  1.00  0.00    -0.200 F 
ATOM     70  F   UNL     1      10.123  12.074   8.463  1.00  0.00    -0.200 F 
ENDBRANCH  46  60
BRANCH  47  71
ATOM     71  C   UNL     1       0.244   2.851  12.550  1.00  0.00     0.064 A 
ATOM     72  C   UNL     1       0.331   1.497  12.191  1.00  0.00     0.173 A 
ATOM     73  C   UNL     1      -0.852   3.253  13.325  1.00  0.00     0.173 A 
ATOM     74  F   UNL     1       1.363   1.063  11.455  1.00  0.00    -0.203 F 
ATOM     75  C   UNL     1      -0.651   0.587  12.575  1.00  0.00     0.198 A 
ATOM     76  C   UNL     1      -1.821   2.337  13.728  1.00  0.00     0.198 A 
ATOM     77  F   UNL     1      -0.963   4.532  13.714  1.00  0.00    -0.203 F 
ATOM     78  F   UNL     1      -0.559  -0.695  12.197  1.00  0.00    -0.200 F 
ATOM     79  C   UNL     1      -1.724   1.007  13.346  1.00  0.00     0.200 A 
ATOM     80  F   UNL     1      -2.844   2.741  14.494  1.00  0.00    -0.200 F 
ATOM     81  F   UNL     1      -2.663   0.129  13.726  1.00  0.00    -0.200 F 
ENDBRANCH  47  71
BRANCH  59  82
ATOM     82  C   UNL     1       5.234   6.426  15.875  1.00  0.00     0.064 A 
ATOM     83  C   UNL     1       4.974   7.574  16.639  1.00  0.00     0.173 A 
ATOM     84  C   UNL     1       5.974   5.393  16.466  1.00  0.00     0.173 A 
ATOM     85  F   UNL     1       4.277   8.593  16.114  1.00  0.00    -0.203 F 
ATOM     86  C   UNL     1       5.455   7.690  17.941  1.00  0.00     0.198 A 
ATOM     87  C   UNL     1       6.433   5.503  17.777  1.00  0.00     0.198 A 
ATOM     88  F   UNL     1       6.238   4.272  15.779  1.00  0.00    -0.203 F 
ATOM     89  F   UNL     1       5.223   8.809  18.641  1.00  0.00    -0.200 F 
ATOM     90  C   UNL     1       6.181   6.655  18.509  1.00  0.00     0.200 A 
ATOM     91  F   UNL     1       7.118   4.494  18.332  1.00  0.00    -0.200 F 
ATOM     92  F   UNL     1       6.639   6.766  19.763  1.00  0.00    -0.200 F 
ENDBRANCH  59  82
ENDBRANCH  33  34
ENDBRANCH  26  28
ENDBRANCH  25  26
ENDBRANCH  24  25
ENDBRANCH  23  24
ENDBRANCH  22  23
ENDBRANCH   1  22
TORSDOF 18
