REMARK SMILES O=C(OCCOCCOC(=O)c1[nH]c2ccc(Cl)cc2c1-c1ccccc1)c1ccc(-c2c3nc(c(-c4c(F)c(F)c(F)c(F)c4F)c4ccc([nH]4)c(-c4c(F)c(F)c(F)c(F)c4F)c4nc(c(-c5c(F)c(F)c(F)c(F)c5F)c5ccc2[nH]5)C=C4)C=C3)cc1
REMARK SMILES IDX 5 1 4 2 3 3 2 4 1 5 28 6 29 7 90 8 30 9 89 10 31 11 32 12
REMARK SMILES IDX 33 13 83 14 34 15 88 16 82 17 84 18 35 19 87 20 81 21 80 22
REMARK SMILES IDX 36 24 68 25 48 26 67 27 49 28 52 29 66 30 85 31 50 32 51 33
REMARK SMILES IDX 65 35 86 36 53 37 37 38 38 39 46 40 39 41 40 42 44 43 47 44
REMARK SMILES IDX 41 45 42 46 45 47 43 48 69 49 70 50 78 51 71 52 72 53 76 54
REMARK SMILES IDX 79 55 73 56 74 57 77 58 75 59 54 60 55 61 63 62 56 63 57 64
REMARK SMILES IDX 61 65 64 66 58 67 59 68 62 69 60 70 6 71 7 72 8 73 9 74
REMARK SMILES IDX 10 75 11 76 12 77 13 78 21 79 14 80 20 82 15 83 19 84 16 85
REMARK SMILES IDX 17 86 18 87 22 88 23 89 27 90 24 91 26 92 25 93
REMARK H PARENT 84 23 52 34 13 81
REMARK Flexibility Score: inf
ROOT
ATOM      1  C   UNL     1       3.924   1.438  -1.120  1.00  0.00     0.202 C 
ENDROOT
BRANCH   1   2
ATOM      2  C   UNL     1       3.615   0.061  -1.710  1.00  0.00     0.261 C 
BRANCH   2   3
ATOM      3  O   UNL     1       2.304  -0.371  -1.305  1.00  0.00    -0.460 OA
BRANCH   3   4
ATOM      4  C   UNL     1       1.940  -1.258  -0.351  1.00  0.00     0.338 C 
ATOM      5  O   UNL     1       0.744  -1.532  -0.251  1.00  0.00    -0.246 OA
BRANCH   4   6
ATOM      6  C   UNL     1       2.879  -1.926   0.609  1.00  0.00     0.060 A 
ATOM      7  C   UNL     1       4.171  -1.500   0.923  1.00  0.00     0.016 A 
ATOM      8  C   UNL     1       2.370  -3.030   1.323  1.00  0.00     0.016 A 
ATOM      9  C   UNL     1       4.941  -2.154   1.880  1.00  0.00     0.010 A 
ATOM     10  C   UNL     1       3.127  -3.679   2.307  1.00  0.00     0.010 A 
ATOM     11  C   UNL     1       4.425  -3.244   2.578  1.00  0.00    -0.014 A 
BRANCH  11  12
ATOM     12  C   UNL     1       5.316  -3.932   3.530  1.00  0.00     0.031 A 
ATOM     13  C   UNL     1       6.037  -5.164   3.081  1.00  0.00     0.074 A 
ATOM     14  C   UNL     1       5.593  -3.350   4.710  1.00  0.00     0.049 A 
ATOM     15  N   UNL     1       6.947  -5.864   3.704  1.00  0.00    -0.248 NA
ATOM     16  C   UNL     1       5.707  -5.660   1.734  1.00  0.00     0.031 C 
ATOM     17  C   UNL     1       5.002  -2.099   5.188  1.00  0.00     0.029 A 
ATOM     18  N   UNL     1       6.473  -3.703   5.699  1.00  0.00    -0.354 N 
ATOM     19  C   UNL     1       7.307  -6.874   2.824  1.00  0.00     0.074 A 
ATOM     20  C   UNL     1       6.504  -6.713   1.631  1.00  0.00     0.031 C 
ATOM     21  C   UNL     1       5.561  -1.771   6.364  1.00  0.00     0.029 A 
ATOM     22  C   UNL     1       6.519  -2.807   6.739  1.00  0.00     0.049 A 
ATOM     23  H   UNL     1       7.020  -4.521   5.668  1.00  0.00     0.167 HD
ATOM     24  C   UNL     1       8.232  -7.846   3.000  1.00  0.00     0.037 A 
ATOM     25  C   UNL     1       7.253  -2.831   7.867  1.00  0.00     0.037 A 
ATOM     26  C   UNL     1       8.994  -8.014   4.206  1.00  0.00     0.049 A 
ATOM     27  C   UNL     1       8.213  -3.973   8.070  1.00  0.00     0.074 A 
ATOM     28  C   UNL     1       9.870  -9.027   4.547  1.00  0.00     0.029 A 
ATOM     29  N   UNL     1       8.964  -7.129   5.276  1.00  0.00    -0.354 N 
ATOM     30  N   UNL     1       8.504  -4.962   7.259  1.00  0.00    -0.248 NA
ATOM     31  C   UNL     1       8.942  -4.007   9.345  1.00  0.00     0.031 C 
ATOM     32  C   UNL     1      10.351  -8.769   5.837  1.00  0.00     0.029 A 
ATOM     33  C   UNL     1       9.802  -7.577   6.283  1.00  0.00     0.049 A 
ATOM     34  H   UNL     1       8.427  -6.305   5.313  1.00  0.00     0.167 HD
ATOM     35  C   UNL     1       9.444  -5.737   7.922  1.00  0.00     0.074 A 
ATOM     36  C   UNL     1       9.704  -5.081   9.188  1.00  0.00     0.031 C 
ATOM     37  C   UNL     1      10.029  -6.896   7.532  1.00  0.00     0.037 A 
BRANCH  24  38
ATOM     38  C   UNL     1       8.413  -8.817   1.875  1.00  0.00     0.064 A 
ATOM     39  C   UNL     1       9.099  -8.460   0.704  1.00  0.00     0.173 A 
ATOM     40  C   UNL     1       7.865 -10.105   1.951  1.00  0.00     0.173 A 
ATOM     41  F   UNL     1       9.614  -7.229   0.572  1.00  0.00    -0.203 F 
ATOM     42  C   UNL     1       9.210  -9.353  -0.359  1.00  0.00     0.198 A 
ATOM     43  C   UNL     1       7.995 -11.002   0.894  1.00  0.00     0.198 A 
ATOM     44  F   UNL     1       7.190 -10.489   3.045  1.00  0.00    -0.203 F 
ATOM     45  F   UNL     1       9.826  -8.976  -1.488  1.00  0.00    -0.200 F 
ATOM     46  C   UNL     1       8.660 -10.623  -0.263  1.00  0.00     0.200 A 
ATOM     47  F   UNL     1       7.460 -12.227   0.987  1.00  0.00    -0.200 F 
ATOM     48  F   UNL     1       8.758 -11.477  -1.291  1.00  0.00    -0.200 F 
ENDBRANCH  24  38
BRANCH  25  49
ATOM     49  C   UNL     1       7.088  -1.768   8.893  1.00  0.00     0.064 A 
ATOM     50  C   UNL     1       8.125  -0.877   9.198  1.00  0.00     0.173 A 
ATOM     51  C   UNL     1       5.886  -1.633   9.606  1.00  0.00     0.173 A 
ATOM     52  F   UNL     1       9.303  -0.978   8.565  1.00  0.00    -0.203 F 
ATOM     53  C   UNL     1       7.974   0.095  10.187  1.00  0.00     0.198 A 
ATOM     54  C   UNL     1       5.725  -0.642  10.572  1.00  0.00     0.198 A 
ATOM     55  F   UNL     1       4.861  -2.461   9.357  1.00  0.00    -0.203 F 
ATOM     56  F   UNL     1       8.999   0.903  10.492  1.00  0.00    -0.200 F 
ATOM     57  C   UNL     1       6.772   0.215  10.869  1.00  0.00     0.200 A 
ATOM     58  F   UNL     1       4.557  -0.524  11.219  1.00  0.00    -0.200 F 
ATOM     59  F   UNL     1       6.627   1.150  11.818  1.00  0.00    -0.200 F 
ENDBRANCH  25  49
BRANCH  37  60
ATOM     60  C   UNL     1      10.995  -7.519   8.492  1.00  0.00     0.064 A 
ATOM     61  C   UNL     1      10.547  -8.181   9.645  1.00  0.00     0.173 A 
ATOM     62  C   UNL     1      12.374  -7.481   8.243  1.00  0.00     0.173 A 
ATOM     63  F   UNL     1       9.237  -8.228   9.930  1.00  0.00    -0.203 F 
ATOM     64  C   UNL     1      11.450  -8.764  10.527  1.00  0.00     0.198 A 
ATOM     65  C   UNL     1      13.272  -8.086   9.116  1.00  0.00     0.198 A 
ATOM     66  F   UNL     1      12.847  -6.862   7.151  1.00  0.00    -0.203 F 
ATOM     67  F   UNL     1      11.004  -9.357  11.644  1.00  0.00    -0.200 F 
ATOM     68  C   UNL     1      12.810  -8.721  10.260  1.00  0.00     0.200 A 
ATOM     69  F   UNL     1      14.586  -8.051   8.854  1.00  0.00    -0.200 F 
ATOM     70  F   UNL     1      13.678  -9.286  11.110  1.00  0.00    -0.200 F 
ENDBRANCH  37  60
ENDBRANCH  11  12
ENDBRANCH   4   6
ENDBRANCH   3   4
ENDBRANCH   2   3
ENDBRANCH   1   2
BRANCH   1  71
ATOM     71  O   UNL     1       3.920   1.440   0.307  1.00  0.00    -0.374 OA
BRANCH  71  72
ATOM     72  C   UNL     1       2.684   1.826   0.920  1.00  0.00     0.202 C 
BRANCH  72  73
ATOM     73  C   UNL     1       2.972   2.897   1.973  1.00  0.00     0.261 C 
BRANCH  73  74
ATOM     74  O   UNL     1       3.475   4.058   1.303  1.00  0.00    -0.459 OA
BRANCH  74  75
ATOM     75  C   UNL     1       4.808   4.075   1.036  1.00  0.00     0.355 C 
ATOM     76  O   UNL     1       5.660   3.386   1.581  1.00  0.00    -0.244 OA
BRANCH  75  77
ATOM     77  C   UNL     1       5.044   4.887  -0.133  1.00  0.00     0.134 A 
ATOM     78  N   UNL     1       6.028   4.562  -1.036  1.00  0.00    -0.349 N 
ATOM     79  C   UNL     1       4.389   6.007  -0.634  1.00  0.00     0.022 A 
ATOM     80  C   UNL     1       5.880   5.285  -2.195  1.00  0.00     0.047 A 
ATOM     81  H   UNL     1       6.740   3.902  -0.875  1.00  0.00     0.167 HD
ATOM     82  C   UNL     1       4.885   6.236  -1.958  1.00  0.00     0.010 A 
ATOM     83  C   UNL     1       6.547   5.162  -3.419  1.00  0.00     0.028 A 
ATOM     84  C   UNL     1       4.569   7.144  -2.990  1.00  0.00     0.031 A 
ATOM     85  C   UNL     1       6.195   6.053  -4.436  1.00  0.00     0.022 A 
ATOM     86  C   UNL     1       5.230   7.033  -4.219  1.00  0.00     0.041 A 
ATOM     87  Cl  UNL     1       4.834   8.123  -5.493  1.00  0.00    -0.084 Cl
BRANCH  79  88
ATOM     88  C   UNL     1       3.303   6.649   0.093  1.00  0.00    -0.015 A 
ATOM     89  C   UNL     1       3.523   7.128   1.394  1.00  0.00     0.009 A 
ATOM     90  C   UNL     1       2.005   6.644  -0.427  1.00  0.00     0.009 A 
ATOM     91  C   UNL     1       2.449   7.533   2.188  1.00  0.00     0.001 A 
ATOM     92  C   UNL     1       0.933   7.062   0.367  1.00  0.00     0.001 A 
ATOM     93  C   UNL     1       1.154   7.489   1.677  1.00  0.00     0.000 A 
ENDBRANCH  79  88
ENDBRANCH  75  77
ENDBRANCH  74  75
ENDBRANCH  73  74
ENDBRANCH  72  73
ENDBRANCH  71  72
ENDBRANCH   1  71
TORSDOF 15
