REMARK SMILES CCN(CC)c1ccc([C@@H]2[NH2+][C@@H](C(=O)OCCOCCOC(=O)c3ccc(-c4c5nc(c(-c6c(F)c(F)c(F)c(F)c6F)c6ccc([nH]6)c(-c6c(F)c(F)c(F)c(F)c6F)c6nc(c(-c7c(F)c(F)c(F)c(F)c7F)c7ccc4[nH]7)C=C6)C=C5)cc3)Cc3c2[nH]c2ccccc32)cc1
REMARK SMILES IDX 17 1 16 2 15 3 13 4 14 5 12 6 10 7 11 8 89 9 88 12 90 13
REMARK SMILES IDX 87 14 96 15 91 16 95 18 92 19 94 20 93 21 9 22 6 23 7 24
REMARK SMILES IDX 98 25 8 26 97 27 3 28 2 29 1 30 4 31 5 32 18 33 19 34 20 35
REMARK SMILES IDX 21 36 22 37 23 38 24 39 25 40 86 41 26 42 85 43 27 44 28 45
REMARK SMILES IDX 29 46 79 47 30 48 84 49 78 50 80 51 31 52 83 53 77 54 76 55
REMARK SMILES IDX 32 57 64 58 44 59 63 60 45 61 48 62 62 63 81 64 46 65 47 66
REMARK SMILES IDX 61 68 82 69 49 70 33 71 34 72 42 73 35 74 36 75 40 76 43 77
REMARK SMILES IDX 37 78 38 79 41 80 39 81 65 82 66 83 74 84 67 85 68 86 72 87
REMARK SMILES IDX 75 88 69 89 70 90 73 91 71 92 50 93 51 94 59 95 52 96 53 97
REMARK SMILES IDX 57 98 60 99 54 100 55 101 58 102 56 103
REMARK H PARENT 11 10 11 11 90 17 80 56 48 67
REMARK Flexibility Score: inf
ROOT
ATOM      1  C   UNL     1       9.396   0.698  -2.102  1.00  0.00     0.202 C 
ENDROOT
BRANCH   1   2
ATOM      2  C   UNL     1       8.306   1.006  -1.067  1.00  0.00     0.261 C 
BRANCH   2   3
ATOM      3  O   UNL     1       8.207   0.161   0.086  1.00  0.00    -0.459 OA
BRANCH   3   4
ATOM      4  C   UNL     1       7.248  -0.800  -0.065  1.00  0.00     0.365 C 
ATOM      5  O   UNL     1       6.897  -1.254  -1.152  1.00  0.00    -0.245 OA
BRANCH   4   6
ATOM      6  C   UNL     1       6.484  -1.103   1.218  1.00  0.00     0.298 C 
ATOM      7  C   UNL     1       6.022   1.052   2.539  1.00  0.00     0.262 C 
ATOM      8  N   UNL     1       5.636   0.065   1.490  1.00  0.00    -0.323 N 
ATOM      9  C   UNL     1       6.724   0.329   3.646  1.00  0.00     0.083 A 
ATOM     10  H   UNL     1       5.562   0.583   0.614  1.00  0.00     0.347 HD
ATOM     11  H   UNL     1       4.786  -0.353   1.869  1.00  0.00     0.347 HD
ATOM     12  C   UNL     1       6.986  -1.027   3.664  1.00  0.00    -0.006 A 
ATOM     13  N   UNL     1       7.003   0.767   4.920  1.00  0.00    -0.353 N 
ATOM     14  C   UNL     1       7.221  -1.764   2.391  1.00  0.00     0.115 C 
ATOM     15  C   UNL     1       6.452  -1.389   4.935  1.00  0.00     0.003 A 
ATOM     16  C   UNL     1       6.642  -0.275   5.763  1.00  0.00     0.046 A 
ATOM     17  H   UNL     1       7.381   1.639   5.180  1.00  0.00     0.166 HD
ATOM     18  C   UNL     1       5.716  -2.477   5.445  1.00  0.00     0.010 A 
ATOM     19  C   UNL     1       6.318  -0.265   7.123  1.00  0.00     0.026 A 
ATOM     20  C   UNL     1       5.225  -2.406   6.758  1.00  0.00     0.001 A 
ATOM     21  C   UNL     1       5.569  -1.345   7.596  1.00  0.00     0.002 A 
BRANCH   7  22
ATOM     22  C   UNL     1       4.607   1.610   2.911  1.00  0.00     0.016 A 
ATOM     23  C   UNL     1       1.846   1.012   2.668  1.00  0.00     0.037 A 
ATOM     24  C   UNL     1       2.531   0.772   3.858  1.00  0.00     0.026 A 
ATOM     25  C   UNL     1       2.506   1.787   1.707  1.00  0.00     0.026 A 
ATOM     26  C   UNL     1       3.888   1.079   3.992  1.00  0.00     0.012 A 
ATOM     27  C   UNL     1       3.858   2.132   1.839  1.00  0.00     0.012 A 
BRANCH  23  28
ATOM     28  N   UNL     1       0.611   0.438   2.398  1.00  0.00    -0.372 N 
BRANCH  28  29
ATOM     29  C   UNL     1       0.546  -0.653   1.409  1.00  0.00     0.113 C 
ATOM     30  C   UNL     1       0.535  -0.159  -0.029  1.00  0.00     0.027 C 
ENDBRANCH  28  29
BRANCH  28  31
ATOM     31  C   UNL     1      -0.481   0.548   3.367  1.00  0.00     0.113 C 
ATOM     32  C   UNL     1      -0.537  -0.600   4.369  1.00  0.00     0.027 C 
ENDBRANCH  28  31
ENDBRANCH  23  28
ENDBRANCH   7  22
ENDBRANCH   4   6
ENDBRANCH   3   4
ENDBRANCH   2   3
ENDBRANCH   1   2
BRANCH   1  33
ATOM     33  O   UNL     1       9.657  -0.630  -2.525  1.00  0.00    -0.374 OA
BRANCH  33  34
ATOM     34  C   UNL     1      10.066  -1.600  -1.572  1.00  0.00     0.202 C 
BRANCH  34  35
ATOM     35  C   UNL     1      11.400  -1.430  -0.835  1.00  0.00     0.261 C 
BRANCH  35  36
ATOM     36  O   UNL     1      11.669  -0.104  -0.363  1.00  0.00    -0.460 OA
BRANCH  36  37
ATOM     37  C   UNL     1      12.598   0.556  -1.099  1.00  0.00     0.338 C 
ATOM     38  O   UNL     1      13.205   0.140  -2.071  1.00  0.00    -0.246 OA
BRANCH  37  39
ATOM     39  C   UNL     1      12.729   1.952  -0.643  1.00  0.00     0.060 A 
ATOM     40  C   UNL     1      12.697   2.955  -1.621  1.00  0.00     0.016 A 
ATOM     41  C   UNL     1      13.011   2.264   0.688  1.00  0.00     0.016 A 
ATOM     42  C   UNL     1      13.023   4.266  -1.284  1.00  0.00     0.010 A 
ATOM     43  C   UNL     1      13.344   3.580   1.024  1.00  0.00     0.010 A 
ATOM     44  C   UNL     1      13.399   4.574   0.030  1.00  0.00    -0.014 A 
BRANCH  44  45
ATOM     45  C   UNL     1      14.019   5.890   0.317  1.00  0.00     0.031 A 
ATOM     46  C   UNL     1      15.519   5.988   0.385  1.00  0.00     0.074 A 
ATOM     47  C   UNL     1      13.263   6.990   0.476  1.00  0.00     0.049 A 
ATOM     48  N   UNL     1      16.276   7.025   0.640  1.00  0.00    -0.248 NA
ATOM     49  C   UNL     1      16.268   4.746   0.130  1.00  0.00     0.031 C 
ATOM     50  C   UNL     1      11.806   7.030   0.393  1.00  0.00     0.029 A 
ATOM     51  N   UNL     1      13.625   8.286   0.744  1.00  0.00    -0.354 N 
ATOM     52  C   UNL     1      17.584   6.561   0.583  1.00  0.00     0.074 A 
ATOM     53  C   UNL     1      17.520   5.144   0.298  1.00  0.00     0.031 C 
ATOM     54  C   UNL     1      11.393   8.290   0.616  1.00  0.00     0.029 A 
ATOM     55  C   UNL     1      12.556   9.136   0.883  1.00  0.00     0.049 A 
ATOM     56  H   UNL     1      14.561   8.579   0.830  1.00  0.00     0.167 HD
ATOM     57  C   UNL     1      18.735   7.257   0.743  1.00  0.00     0.037 A 
ATOM     58  C   UNL     1      12.524  10.443   1.205  1.00  0.00     0.037 A 
ATOM     59  C   UNL     1      18.799   8.668   1.018  1.00  0.00     0.049 A 
ATOM     60  C   UNL     1      13.816  11.182   1.435  1.00  0.00     0.074 A 
ATOM     61  C   UNL     1      19.917   9.466   1.181  1.00  0.00     0.029 A 
ATOM     62  N   UNL     1      17.693   9.491   1.175  1.00  0.00    -0.354 N 
ATOM     63  N   UNL     1      15.048  10.742   1.358  1.00  0.00    -0.248 NA
ATOM     64  C   UNL     1      13.711  12.605   1.793  1.00  0.00     0.031 C 
ATOM     65  C   UNL     1      19.488  10.764   1.480  1.00  0.00     0.029 A 
ATOM     66  C   UNL     1      18.103  10.784   1.455  1.00  0.00     0.049 A 
ATOM     67  H   UNL     1      16.756   9.198   1.099  1.00  0.00     0.167 HD
ATOM     68  C   UNL     1      15.863  11.835   1.626  1.00  0.00     0.074 A 
ATOM     69  C   UNL     1      14.986  12.962   1.859  1.00  0.00     0.031 C 
ATOM     70  C   UNL     1      17.217  11.899   1.672  1.00  0.00     0.037 A 
BRANCH  57  71
ATOM     71  C   UNL     1      20.023   6.495   0.646  1.00  0.00     0.064 A 
ATOM     72  C   UNL     1      20.507   6.021  -0.583  1.00  0.00     0.173 A 
ATOM     73  C   UNL     1      20.798   6.263   1.792  1.00  0.00     0.173 A 
ATOM     74  F   UNL     1      19.796   6.204  -1.705  1.00  0.00    -0.203 F 
ATOM     75  C   UNL     1      21.710   5.323  -0.656  1.00  0.00     0.198 A 
ATOM     76  C   UNL     1      22.013   5.589   1.711  1.00  0.00     0.198 A 
ATOM     77  F   UNL     1      20.381   6.699   2.990  1.00  0.00    -0.203 F 
ATOM     78  F   UNL     1      22.134   4.842  -1.833  1.00  0.00    -0.200 F 
ATOM     79  C   UNL     1      22.465   5.113   0.489  1.00  0.00     0.200 A 
ATOM     80  F   UNL     1      22.746   5.396   2.816  1.00  0.00    -0.200 F 
ATOM     81  F   UNL     1      23.625   4.447   0.416  1.00  0.00    -0.200 F 
ENDBRANCH  57  71
BRANCH  58  82
ATOM     82  C   UNL     1      11.219  11.140   1.335  1.00  0.00     0.064 A 
ATOM     83  C   UNL     1      10.824  12.116   0.410  1.00  0.00     0.173 A 
ATOM     84  C   UNL     1      10.348  10.857   2.398  1.00  0.00     0.173 A 
ATOM     85  F   UNL     1      11.635  12.440  -0.608  1.00  0.00    -0.203 F 
ATOM     86  C   UNL     1       9.615  12.795   0.553  1.00  0.00     0.198 A 
ATOM     87  C   UNL     1       9.128  11.517   2.524  1.00  0.00     0.198 A 
ATOM     88  F   UNL     1      10.682   9.932   3.311  1.00  0.00    -0.203 F 
ATOM     89  F   UNL     1       9.282  13.755  -0.320  1.00  0.00    -0.200 F 
ATOM     90  C   UNL     1       8.766  12.490   1.606  1.00  0.00     0.200 A 
ATOM     91  F   UNL     1       8.307  11.212   3.538  1.00  0.00    -0.200 F 
ATOM     92  F   UNL     1       7.603  13.142   1.742  1.00  0.00    -0.200 F 
ENDBRANCH  58  82
BRANCH  70  93
ATOM     93  C   UNL     1      17.836  13.238   1.944  1.00  0.00     0.064 A 
ATOM     94  C   UNL     1      17.799  13.822   3.219  1.00  0.00     0.173 A 
ATOM     95  C   UNL     1      18.515  13.925   0.926  1.00  0.00     0.173 A 
ATOM     96  F   UNL     1      17.151  13.211   4.222  1.00  0.00    -0.203 F 
ATOM     97  C   UNL     1      18.399  15.055   3.458  1.00  0.00     0.198 A 
ATOM     98  C   UNL     1      19.137  15.145   1.175  1.00  0.00     0.198 A 
ATOM     99  F   UNL     1      18.585  13.406  -0.309  1.00  0.00    -0.203 F 
ATOM    100  F   UNL     1      18.315  15.615   4.673  1.00  0.00    -0.200 F 
ATOM    101  C   UNL     1      19.073  15.712   2.439  1.00  0.00     0.200 A 
ATOM    102  F   UNL     1      19.798  15.772   0.192  1.00  0.00    -0.200 F 
ATOM    103  F   UNL     1      19.655  16.896   2.673  1.00  0.00    -0.200 F 
ENDBRANCH  70  93
ENDBRANCH  44  45
ENDBRANCH  37  39
ENDBRANCH  36  37
ENDBRANCH  35  36
ENDBRANCH  34  35
ENDBRANCH  33  34
ENDBRANCH   1  33
TORSDOF 18
