REMARK SMILES Cc1cc(Nc2nc3c(c(OCC(=O)OCCOCCOC(=O)c4ccc(-c5c6nc(c(-c7c(F)c(F)c(F)c(F)c7F)c7ccc([nH]7)c(-c7c(F)c(F)c(F)c(F)c7F)c7nc(c(-c8c(F)c(F)c(F)c(F)c8F)c8ccc5[nH]8)C=C7)C=C6)cc4)n2)CCCC3)ccc1Br
REMARK SMILES IDX 17 1 16 2 15 3 13 4 14 5 12 6 11 7 10 8 6 9 7 10 87 11 8 12
REMARK SMILES IDX 9 13 91 14 88 15 90 16 89 17 5 18 4 20 1 21 2 22 3 23 94 24
REMARK SMILES IDX 93 25 95 26 92 27 18 28 19 29 20 30 21 31 22 32 23 33 24 34
REMARK SMILES IDX 25 35 86 36 26 37 85 38 27 39 28 40 29 41 79 42 30 43 84 44
REMARK SMILES IDX 78 45 80 46 31 47 83 48 77 49 76 50 32 52 64 53 44 54 63 55
REMARK SMILES IDX 45 56 48 57 62 58 81 59 46 60 47 61 61 63 82 64 49 65 33 66
REMARK SMILES IDX 34 67 42 68 35 69 36 70 40 71 43 72 37 73 38 74 41 75 39 76
REMARK SMILES IDX 65 77 66 78 74 79 67 80 68 81 72 82 75 83 69 84 70 85 73 86
REMARK SMILES IDX 71 87 50 88 51 89 59 90 52 91 53 92 57 93 60 94 54 95 55 96
REMARK SMILES IDX 58 97 56 98
REMARK H PARENT 5 19 80 51 48 62
REMARK Flexibility Score: inf
ROOT
ATOM      1  C   UNL     1       9.744  -0.803  -1.188  1.00  0.00     0.202 C 
ENDROOT
BRANCH   1   2
ATOM      2  C   UNL     1      10.071   0.106  -2.379  1.00  0.00     0.261 C 
BRANCH   2   3
ATOM      3  O   UNL     1       9.325   1.339  -2.352  1.00  0.00    -0.461 OA
BRANCH   3   4
ATOM      4  C   UNL     1       8.577   1.603  -3.461  1.00  0.00     0.344 C 
ATOM      5  O   UNL     1       8.588   0.929  -4.486  1.00  0.00    -0.248 OA
BRANCH   4   6
ATOM      6  C   UNL     1       7.717   2.858  -3.326  1.00  0.00     0.353 C 
BRANCH   6   7
ATOM      7  O   UNL     1       7.741   3.551  -2.089  1.00  0.00    -0.465 OA
BRANCH   7   8
ATOM      8  C   UNL     1       6.625   3.400  -1.288  1.00  0.00     0.222 A 
ATOM      9  C   UNL     1       4.781   2.211  -0.632  1.00  0.00     0.230 A 
ATOM     10  N   UNL     1       4.589   3.012   0.426  1.00  0.00    -0.217 NA
ATOM     11  N   UNL     1       5.809   2.350  -1.484  1.00  0.00    -0.177 NA
ATOM     12  C   UNL     1       5.460   4.023   0.629  1.00  0.00     0.053 A 
ATOM     13  C   UNL     1       6.482   4.306  -0.256  1.00  0.00     0.036 A 
ATOM     14  C   UNL     1       5.262   4.828   1.890  1.00  0.00     0.057 C 
ATOM     15  C   UNL     1       7.400   5.479  -0.082  1.00  0.00     0.043 C 
ATOM     16  C   UNL     1       6.425   5.773   2.199  1.00  0.00     0.007 C 
ATOM     17  C   UNL     1       6.870   6.493   0.932  1.00  0.00     0.005 C 
BRANCH   9  18
ATOM     18  N   UNL     1       3.989   1.079  -0.809  1.00  0.00    -0.324 N 
ATOM     19  H   UNL     1       4.441   0.341  -1.278  1.00  0.00     0.170 HD
BRANCH  18  20
ATOM     20  C   UNL     1       2.667   0.800  -0.441  1.00  0.00     0.041 A 
ATOM     21  C   UNL     1       0.514  -2.328  -0.004  1.00  0.00     0.045 C 
ATOM     22  C   UNL     1       0.910  -0.878  -0.052  1.00  0.00    -0.035 A 
ATOM     23  C   UNL     1       2.243  -0.537  -0.357  1.00  0.00     0.030 A 
ATOM     24  C   UNL     1      -0.010   0.158   0.155  1.00  0.00     0.021 A 
ATOM     25  C   UNL     1       0.410   1.488   0.132  1.00  0.00     0.018 A 
ATOM     26  Br  UNL     1      -1.857  -0.174   0.452  1.00  0.00    -0.051 Br
ATOM     27  C   UNL     1       1.744   1.802  -0.139  1.00  0.00     0.027 A 
ENDBRANCH  18  20
ENDBRANCH   9  18
ENDBRANCH   7   8
ENDBRANCH   6   7
ENDBRANCH   4   6
ENDBRANCH   3   4
ENDBRANCH   2   3
ENDBRANCH   1   2
BRANCH   1  28
ATOM     28  O   UNL     1       8.410  -1.306  -1.110  1.00  0.00    -0.374 OA
BRANCH  28  29
ATOM     29  C   UNL     1       7.383  -0.372  -0.777  1.00  0.00     0.202 C 
BRANCH  29  30
ATOM     30  C   UNL     1       7.304   0.056   0.692  1.00  0.00     0.261 C 
BRANCH  30  31
ATOM     31  O   UNL     1       8.500   0.715   1.124  1.00  0.00    -0.460 OA
BRANCH  31  32
ATOM     32  C   UNL     1       9.068   0.158   2.213  1.00  0.00     0.338 C 
ATOM     33  O   UNL     1       8.625  -0.730   2.929  1.00  0.00    -0.246 OA
BRANCH  32  34
ATOM     34  C   UNL     1      10.438   0.655   2.349  1.00  0.00     0.060 A 
ATOM     35  C   UNL     1      11.469  -0.286   2.249  1.00  0.00     0.016 A 
ATOM     36  C   UNL     1      10.699   1.990   2.666  1.00  0.00     0.016 A 
ATOM     37  C   UNL     1      12.772   0.094   2.536  1.00  0.00     0.010 A 
ATOM     38  C   UNL     1      12.009   2.369   2.959  1.00  0.00     0.010 A 
ATOM     39  C   UNL     1      13.037   1.410   2.940  1.00  0.00    -0.014 A 
BRANCH  39  40
ATOM     40  C   UNL     1      14.363   1.710   3.518  1.00  0.00     0.031 A 
ATOM     41  C   UNL     1      14.518   1.669   5.012  1.00  0.00     0.074 A 
ATOM     42  C   UNL     1      15.417   1.918   2.713  1.00  0.00     0.049 A 
ATOM     43  N   UNL     1      15.592   1.831   5.738  1.00  0.00    -0.248 NA
ATOM     44  C   UNL     1      13.298   1.402   5.793  1.00  0.00     0.031 C 
ATOM     45  C   UNL     1      15.369   1.925   1.253  1.00  0.00     0.029 A 
ATOM     46  N   UNL     1      16.735   2.142   3.011  1.00  0.00    -0.354 N 
ATOM     47  C   UNL     1      15.181   1.671   7.055  1.00  0.00     0.074 A 
ATOM     48  C   UNL     1      13.754   1.445   7.036  1.00  0.00     0.031 C 
ATOM     49  C   UNL     1      16.610   2.128   0.778  1.00  0.00     0.029 A 
ATOM     50  C   UNL     1      17.530   2.290   1.902  1.00  0.00     0.049 A 
ATOM     51  H   UNL     1      17.080   2.193   3.932  1.00  0.00     0.167 HD
ATOM     52  C   UNL     1      15.938   1.692   8.177  1.00  0.00     0.037 A 
ATOM     53  C   UNL     1      18.851   2.531   1.813  1.00  0.00     0.037 A 
ATOM     54  C   UNL     1      17.357   1.919   8.178  1.00  0.00     0.049 A 
ATOM     55  C   UNL     1      19.655   2.633   3.082  1.00  0.00     0.074 A 
ATOM     56  C   UNL     1      18.222   1.970   9.255  1.00  0.00     0.029 A 
ATOM     57  N   UNL     1      18.118   2.136   7.038  1.00  0.00    -0.354 N 
ATOM     58  N   UNL     1      19.263   2.474   4.324  1.00  0.00    -0.248 NA
ATOM     59  C   UNL     1      21.083   2.948   2.941  1.00  0.00     0.031 C 
ATOM     60  C   UNL     1      19.500   2.263   8.770  1.00  0.00     0.029 A 
ATOM     61  C   UNL     1      19.441   2.346   7.387  1.00  0.00     0.049 A 
ATOM     62  H   UNL     1      17.769   2.139   6.117  1.00  0.00     0.167 HD
ATOM     63  C   UNL     1      20.393   2.649   5.109  1.00  0.00     0.074 A 
ATOM     64  C   UNL     1      21.493   2.911   4.202  1.00  0.00     0.031 C 
ATOM     65  C   UNL     1      20.513   2.602   6.459  1.00  0.00     0.037 A 
BRANCH  52  66
ATOM     66  C   UNL     1      15.247   1.472   9.490  1.00  0.00     0.064 A 
ATOM     67  C   UNL     1      14.768   0.208   9.864  1.00  0.00     0.173 A 
ATOM     68  C   UNL     1      15.106   2.525  10.406  1.00  0.00     0.173 A 
ATOM     69  F   UNL     1      14.863  -0.828   9.016  1.00  0.00    -0.203 F 
ATOM     70  C   UNL     1      14.161   0.009  11.102  1.00  0.00     0.198 A 
ATOM     71  C   UNL     1      14.522   2.317  11.653  1.00  0.00     0.198 A 
ATOM     72  F   UNL     1      15.546   3.754  10.097  1.00  0.00    -0.203 F 
ATOM     73  F   UNL     1      13.681  -1.200  11.425  1.00  0.00    -0.200 F 
ATOM     74  C   UNL     1      14.048   1.060  11.998  1.00  0.00     0.200 A 
ATOM     75  F   UNL     1      14.422   3.332  12.522  1.00  0.00    -0.200 F 
ATOM     76  F   UNL     1      13.477   0.864  13.195  1.00  0.00    -0.200 F 
ENDBRANCH  52  66
BRANCH  53  77
ATOM     77  C   UNL     1      19.487   2.676   0.478  1.00  0.00     0.064 A 
ATOM     78  C   UNL     1      20.381   1.711  -0.005  1.00  0.00     0.173 A 
ATOM     79  C   UNL     1      19.197   3.770  -0.351  1.00  0.00     0.173 A 
ATOM     80  F   UNL     1      20.706   0.658   0.758  1.00  0.00    -0.203 F 
ATOM     81  C   UNL     1      20.965   1.838  -1.265  1.00  0.00     0.198 A 
ATOM     82  C   UNL     1      19.760   3.882  -1.620  1.00  0.00     0.198 A 
ATOM     83  F   UNL     1      18.348   4.721   0.064  1.00  0.00    -0.203 F 
ATOM     84  F   UNL     1      21.839   0.916  -1.692  1.00  0.00    -0.200 F 
ATOM     85  C   UNL     1      20.647   2.918  -2.075  1.00  0.00     0.200 A 
ATOM     86  F   UNL     1      19.439   4.920  -2.405  1.00  0.00    -0.200 F 
ATOM     87  F   UNL     1      21.198   3.032  -3.291  1.00  0.00    -0.200 F 
ENDBRANCH  53  77
BRANCH  65  88
ATOM     88  C   UNL     1      21.877   2.830   7.040  1.00  0.00     0.064 A 
ATOM     89  C   UNL     1      22.449   4.110   7.075  1.00  0.00     0.173 A 
ATOM     90  C   UNL     1      22.578   1.776   7.644  1.00  0.00     0.173 A 
ATOM     91  F   UNL     1      21.820   5.146   6.501  1.00  0.00    -0.203 F 
ATOM     92  C   UNL     1      23.682   4.323   7.684  1.00  0.00     0.198 A 
ATOM     93  C   UNL     1      23.797   1.999   8.277  1.00  0.00     0.198 A 
ATOM     94  F   UNL     1      22.066   0.536   7.645  1.00  0.00    -0.203 F 
ATOM     95  F   UNL     1      24.226   5.548   7.679  1.00  0.00    -0.200 F 
ATOM     96  C   UNL     1      24.349   3.271   8.294  1.00  0.00     0.200 A 
ATOM     97  F   UNL     1      24.432   0.985   8.881  1.00  0.00    -0.200 F 
ATOM     98  F   UNL     1      25.527   3.482   8.897  1.00  0.00    -0.200 F 
ENDBRANCH  65  88
ENDBRANCH  39  40
ENDBRANCH  32  34
ENDBRANCH  31  32
ENDBRANCH  30  31
ENDBRANCH  29  30
ENDBRANCH  28  29
ENDBRANCH   1  28
TORSDOF 18
