REMARK SMILES CCN1C(=O)/C(=C/c2cc([N+](=O)[O-])ccc2O)S/C1=[NH+]\c1ccc(C(=O)OCCOCCOC(=O)c2ccc(-c3c4nc(c(-c5c(F)c(F)c(F)c(F)c5F)c5ccc([nH]5)c(-c5c(F)c(F)c(F)c(F)c5F)c5nc(c(-c6c(F)c(F)c(F)c(F)c6F)c6ccc3[nH]6)C=C5)C=C4)cc2)cc1
REMARK SMILES IDX 29 1 28 2 27 3 25 4 26 5 24 6 21 7 22 8 100 9 23 10 99 11
REMARK SMILES IDX 20 12 3 13 4 14 19 15 5 16 6 17 18 18 7 19 2 21 1 22 8 23
REMARK SMILES IDX 9 24 16 25 10 26 15 27 14 28 17 29 11 31 12 32 13 33 30 34
REMARK SMILES IDX 31 35 32 36 33 37 34 38 35 39 36 40 37 41 98 42 38 43 97 44
REMARK SMILES IDX 39 45 40 46 41 47 91 48 42 49 96 50 90 51 92 52 43 53 95 54
REMARK SMILES IDX 89 55 88 56 44 58 76 59 56 60 75 61 57 62 60 63 74 64 93 65
REMARK SMILES IDX 58 66 59 67 73 69 94 70 61 71 45 72 46 73 54 74 47 75 48 76
REMARK SMILES IDX 52 77 55 78 49 79 50 80 53 81 51 82 77 83 78 84 86 85 79 86
REMARK SMILES IDX 80 87 84 88 87 89 81 90 82 91 85 92 83 93 62 94 63 95 71 96
REMARK SMILES IDX 64 97 65 98 69 99 72 100 66 101 67 102 70 103 68 104
REMARK H PARENT 20 20 17 30 92 57 60 68
REMARK Flexibility Score: inf
ROOT
ATOM      1  C   UNL     1      -5.503  10.676  -0.288  1.00  0.00     0.202 C 
ENDROOT
BRANCH   1   2
ATOM      2  C   UNL     1      -4.051  10.866  -0.736  1.00  0.00     0.261 C 
BRANCH   2   3
ATOM      3  O   UNL     1      -3.411   9.593  -0.916  1.00  0.00    -0.460 OA
BRANCH   3   4
ATOM      4  C   UNL     1      -2.409   9.321  -0.046  1.00  0.00     0.338 C 
ATOM      5  O   UNL     1      -1.891  10.104   0.737  1.00  0.00    -0.246 OA
BRANCH   4   6
ATOM      6  C   UNL     1      -2.087   7.873  -0.068  1.00  0.00     0.060 A 
ATOM      7  C   UNL     1      -1.325   5.174  -0.019  1.00  0.00     0.125 A 
ATOM      8  C   UNL     1      -1.111   5.985   1.097  1.00  0.00     0.052 A 
ATOM      9  C   UNL     1      -2.017   5.696  -1.120  1.00  0.00     0.052 A 
ATOM     10  C   UNL     1      -1.485   7.328   1.074  1.00  0.00     0.020 A 
ATOM     11  C   UNL     1      -2.379   7.046  -1.159  1.00  0.00     0.020 A 
BRANCH   7  12
ATOM     12  N   UNL     1      -0.807   3.869  -0.010  1.00  0.00    -0.234 N 
ATOM     13  N   UNL     1       0.788   2.329  -0.791  1.00  0.00    -0.186 N 
ATOM     14  C   UNL     1       1.813   2.154  -1.704  1.00  0.00     0.348 C 
ATOM     15  C   UNL     1       0.187   3.570  -0.787  1.00  0.00     0.324 C 
ATOM     16  O   UNL     1       2.497   1.155  -1.874  1.00  0.00    -0.240 OA
ATOM     17  C   UNL     1       1.998   3.390  -2.514  1.00  0.00     0.110 C 
ATOM     18  S   UNL     1       0.960   4.627  -1.945  1.00  0.00     0.007 SA
ATOM     19  C   UNL     1       2.850   3.474  -3.546  1.00  0.00     0.036 C 
ATOM     20  H   UNL     1      -1.197   3.185   0.582  1.00  0.00     0.313 HD
BRANCH  13  21
ATOM     21  C   UNL     1       0.402   1.342   0.216  1.00  0.00     0.244 C 
ATOM     22  C   UNL     1       0.843  -0.097   0.008  1.00  0.00     0.055 C 
ENDBRANCH  13  21
BRANCH  19  23
ATOM     23  C   UNL     1       3.043   4.689  -4.354  1.00  0.00     0.024 A 
ATOM     24  C   UNL     1       2.499   4.740  -5.644  1.00  0.00     0.097 A 
ATOM     25  C   UNL     1       3.712   5.816  -3.848  1.00  0.00     0.123 A 
ATOM     26  C   UNL     1       2.616   5.917  -6.400  1.00  0.00     0.270 A 
ATOM     27  C   UNL     1       3.825   6.987  -4.600  1.00  0.00     0.054 A 
ATOM     28  C   UNL     1       3.273   7.041  -5.881  1.00  0.00     0.089 A 
BRANCH  25  29
ATOM     29  O   UNL     1       4.252   5.761  -2.592  1.00  0.00    -0.507 OA
ATOM     30  H   UNL     1       4.178   4.978  -2.084  1.00  0.00     0.293 HD
ENDBRANCH  25  29
BRANCH  26  31
ATOM     31  N   UNL     1       2.033   5.978  -7.747  1.00  0.00     0.062 N 
ATOM     32  O   UNL     1       1.488   4.955  -8.186  1.00  0.00    -0.258 OA
ATOM     33  O   UNL     1       2.118   7.050  -8.363  1.00  0.00    -0.258 OA
ENDBRANCH  26  31
ENDBRANCH  19  23
ENDBRANCH   7  12
ENDBRANCH   4   6
ENDBRANCH   3   4
ENDBRANCH   2   3
ENDBRANCH   1   2
BRANCH   1  34
ATOM     34  O   UNL     1      -5.679  10.097   1.005  1.00  0.00    -0.374 OA
BRANCH  34  35
ATOM     35  C   UNL     1      -5.591   8.673   1.095  1.00  0.00     0.202 C 
BRANCH  35  36
ATOM     36  C   UNL     1      -6.854   7.899   0.701  1.00  0.00     0.261 C 
BRANCH  36  37
ATOM     37  O   UNL     1      -7.133   8.019  -0.706  1.00  0.00    -0.460 OA
BRANCH  37  38
ATOM     38  C   UNL     1      -8.222   8.762  -1.008  1.00  0.00     0.338 C 
ATOM     39  O   UNL     1      -9.030   9.247  -0.230  1.00  0.00    -0.246 OA
BRANCH  38  40
ATOM     40  C   UNL     1      -8.234   9.075  -2.449  1.00  0.00     0.060 A 
ATOM     41  C   UNL     1      -8.408  10.415  -2.814  1.00  0.00     0.016 A 
ATOM     42  C   UNL     1      -8.147   8.079  -3.425  1.00  0.00     0.016 A 
ATOM     43  C   UNL     1      -8.549  10.761  -4.156  1.00  0.00     0.010 A 
ATOM     44  C   UNL     1      -8.295   8.427  -4.773  1.00  0.00     0.010 A 
ATOM     45  C   UNL     1      -8.533   9.764  -5.140  1.00  0.00    -0.014 A 
BRANCH  45  46
ATOM     46  C   UNL     1      -8.905  10.112  -6.532  1.00  0.00     0.031 A 
ATOM     47  C   UNL     1     -10.306   9.844  -7.005  1.00  0.00     0.074 A 
ATOM     48  C   UNL     1      -8.017  10.698  -7.354  1.00  0.00     0.049 A 
ATOM     49  N   UNL     1     -10.854  10.089  -8.169  1.00  0.00    -0.248 NA
ATOM     50  C   UNL     1     -11.213   9.214  -6.033  1.00  0.00     0.031 C 
ATOM     51  C   UNL     1      -6.642  11.041  -7.001  1.00  0.00     0.029 A 
ATOM     52  N   UNL     1      -8.147  11.112  -8.655  1.00  0.00    -0.354 N 
ATOM     53  C   UNL     1     -12.164   9.639  -8.071  1.00  0.00     0.074 A 
ATOM     54  C   UNL     1     -12.320   9.077  -6.747  1.00  0.00     0.031 C 
ATOM     55  C   UNL     1      -6.054  11.623  -8.060  1.00  0.00     0.029 A 
ATOM     56  C   UNL     1      -7.003  11.666  -9.171  1.00  0.00     0.049 A 
ATOM     57  H   UNL     1      -8.981  11.020  -9.170  1.00  0.00     0.167 HD
ATOM     58  C   UNL     1     -13.150   9.700  -8.998  1.00  0.00     0.037 A 
ATOM     59  C   UNL     1      -6.752  12.148 -10.404  1.00  0.00     0.037 A 
ATOM     60  C   UNL     1     -12.994  10.261 -10.314  1.00  0.00     0.049 A 
ATOM     61  C   UNL     1      -7.843  12.134 -11.441  1.00  0.00     0.074 A 
ATOM     62  C   UNL     1     -13.943  10.406 -11.311  1.00  0.00     0.029 A 
ATOM     63  N   UNL     1     -11.803  10.759 -10.822  1.00  0.00    -0.354 N 
ATOM     64  N   UNL     1      -9.090  11.748 -11.329  1.00  0.00    -0.248 NA
ATOM     65  C   UNL     1      -7.486  12.626 -12.780  1.00  0.00     0.031 C 
ATOM     66  C   UNL     1     -13.313  10.939 -12.441  1.00  0.00     0.029 A 
ATOM     67  C   UNL     1     -11.983  11.178 -12.132  1.00  0.00     0.049 A 
ATOM     68  H   UNL     1     -10.954  10.807 -10.326  1.00  0.00     0.167 HD
ATOM     69  C   UNL     1      -9.675  11.976 -12.568  1.00  0.00     0.074 A 
ATOM     70  C   UNL     1      -8.647  12.544 -13.415  1.00  0.00     0.031 C 
ATOM     71  C   UNL     1     -10.950  11.740 -12.966  1.00  0.00     0.037 A 
BRANCH  58  72
ATOM     72  C   UNL     1     -14.479   9.108  -8.624  1.00  0.00     0.064 A 
ATOM     73  C   UNL     1     -15.316   9.710  -7.672  1.00  0.00     0.173 A 
ATOM     74  C   UNL     1     -14.921   7.923  -9.230  1.00  0.00     0.173 A 
ATOM     75  F   UNL     1     -14.934  10.837  -7.053  1.00  0.00    -0.203 F 
ATOM     76  C   UNL     1     -16.528   9.125  -7.312  1.00  0.00     0.198 A 
ATOM     77  C   UNL     1     -16.147   7.357  -8.890  1.00  0.00     0.198 A 
ATOM     78  F   UNL     1     -14.162   7.309 -10.151  1.00  0.00    -0.203 F 
ATOM     79  F   UNL     1     -17.283   9.685  -6.356  1.00  0.00    -0.200 F 
ATOM     80  C   UNL     1     -16.944   7.952  -7.924  1.00  0.00     0.200 A 
ATOM     81  F   UNL     1     -16.552   6.229  -9.490  1.00  0.00    -0.200 F 
ATOM     82  F   UNL     1     -18.109   7.388  -7.574  1.00  0.00    -0.200 F 
ENDBRANCH  58  72
BRANCH  59  83
ATOM     83  C   UNL     1      -5.411  12.701 -10.719  1.00  0.00     0.064 A 
ATOM     84  C   UNL     1      -5.232  14.077 -10.921  1.00  0.00     0.173 A 
ATOM     85  C   UNL     1      -4.284  11.873 -10.821  1.00  0.00     0.173 A 
ATOM     86  F   UNL     1      -6.285  14.905 -10.859  1.00  0.00    -0.203 F 
ATOM     87  C   UNL     1      -3.976  14.602 -11.220  1.00  0.00     0.198 A 
ATOM     88  C   UNL     1      -3.025  12.402 -11.095  1.00  0.00     0.198 A 
ATOM     89  F   UNL     1      -4.405  10.550 -10.639  1.00  0.00    -0.203 F 
ATOM     90  F   UNL     1      -3.838  15.916 -11.441  1.00  0.00    -0.200 F 
ATOM     91  C   UNL     1      -2.873  13.766 -11.299  1.00  0.00     0.200 A 
ATOM     92  F   UNL     1      -1.959  11.593 -11.161  1.00  0.00    -0.200 F 
ATOM     93  F   UNL     1      -1.664  14.273 -11.577  1.00  0.00    -0.200 F 
ENDBRANCH  59  83
BRANCH  71  94
ATOM     94  C   UNL     1     -11.314  12.123 -14.372  1.00  0.00     0.064 A 
ATOM     95  C   UNL     1     -10.843  11.401 -15.478  1.00  0.00     0.173 A 
ATOM     96  C   UNL     1     -12.167  13.211 -14.614  1.00  0.00     0.173 A 
ATOM     97  F   UNL     1     -10.011  10.363 -15.302  1.00  0.00    -0.203 F 
ATOM     98  C   UNL     1     -11.190  11.771 -16.776  1.00  0.00     0.198 A 
ATOM     99  C   UNL     1     -12.537  13.559 -15.910  1.00  0.00     0.198 A 
ATOM    100  F   UNL     1     -12.651  13.931 -13.591  1.00  0.00    -0.203 F 
ATOM    101  F   UNL     1     -10.687  11.097 -17.819  1.00  0.00    -0.200 F 
ATOM    102  C   UNL     1     -12.041  12.844 -16.990  1.00  0.00     0.200 A 
ATOM    103  F   UNL     1     -13.370  14.589 -16.115  1.00  0.00    -0.200 F 
ATOM    104  F   UNL     1     -12.377  13.196 -18.239  1.00  0.00    -0.200 F 
ENDBRANCH  71  94
ENDBRANCH  45  46
ENDBRANCH  38  40
ENDBRANCH  37  38
ENDBRANCH  36  37
ENDBRANCH  35  36
ENDBRANCH  34  35
ENDBRANCH   1  34
TORSDOF 19
