REMARK SMILES C/C=C(\C)[C@@H]1C(C)=C[C@@H]2[C@H]([C@@H]1/C=C/C=C/C(=O)OCCOCCOC(=O)c1ccc(-c3c4nc(c(-c5c(F)c(F)c(F)c(F)c5F)c5ccc([nH]5)c(-c5c(F)c(F)c(F)c(F)c5F)c5nc(c(-c6c(F)c(F)c(F)c(F)c6F)c6ccc3[nH]6)C=C5)C=C4)cc1)[C@@H](C)CC[C@@H]2O
REMARK SMILES IDX 20 1 19 2 18 3 16 4 17 5 15 6 14 7 13 8 12 9 11 10 5 11 6 12
REMARK SMILES IDX 7 13 8 14 10 15 9 16 90 17 94 18 91 19 92 20 93 21 3 22 1 23
REMARK SMILES IDX 2 24 4 25 95 26 21 28 22 29 23 30 24 31 25 32 26 33 27 34
REMARK SMILES IDX 28 35 89 36 29 37 88 38 30 39 31 40 32 41 82 42 33 43 87 44
REMARK SMILES IDX 81 45 83 46 34 47 86 48 80 49 79 50 35 52 67 53 47 54 66 55
REMARK SMILES IDX 48 56 51 57 65 58 84 59 49 60 50 61 64 63 85 64 52 65 36 66
REMARK SMILES IDX 37 67 45 68 38 69 39 70 43 71 46 72 40 73 41 74 44 75 42 76
REMARK SMILES IDX 68 77 69 78 77 79 70 80 71 81 75 82 78 83 72 84 73 85 76 86
REMARK SMILES IDX 74 87 53 88 54 89 62 90 55 91 56 92 60 93 63 94 57 95 58 96
REMARK SMILES IDX 61 97 59 98
REMARK H PARENT 95 27 83 51 51 62
REMARK Flexibility Score: inf
ROOT
ATOM      1  C   UNL     1      -1.580  10.874  -4.968  1.00  0.00     0.202 C 
ENDROOT
BRANCH   1   2
ATOM      2  C   UNL     1      -2.331   9.548  -5.097  1.00  0.00     0.261 C 
BRANCH   2   3
ATOM      3  O   UNL     1      -1.842   8.601  -4.136  1.00  0.00    -0.460 OA
BRANCH   3   4
ATOM      4  C   UNL     1      -1.244   7.506  -4.659  1.00  0.00     0.330 C 
ATOM      5  O   UNL     1      -1.228   7.172  -5.834  1.00  0.00    -0.247 OA
BRANCH   4   6
ATOM      6  C   UNL     1      -0.502   6.742  -3.639  1.00  0.00     0.093 C 
ATOM      7  C   UNL     1      -0.532   6.947  -2.313  1.00  0.00     0.007 C 
BRANCH   7   8
ATOM      8  C   UNL     1       0.139   6.021  -1.431  1.00  0.00    -0.004 C 
ATOM      9  C   UNL     1      -0.267   5.800  -0.171  1.00  0.00    -0.022 C 
BRANCH   9  10
ATOM     10  C   UNL     1       0.125   4.529   0.578  1.00  0.00     0.027 C 
ATOM     11  C   UNL     1      -1.035   3.439   0.564  1.00  0.00     0.047 C 
ATOM     12  C   UNL     1      -1.368   2.863   1.934  1.00  0.00    -0.069 C 
ATOM     13  C   UNL     1      -2.005   1.502   1.970  1.00  0.00     0.040 C 
ATOM     14  C   UNL     1      -1.132   3.558   3.061  1.00  0.00    -0.021 C 
ATOM     15  C   UNL     1       0.686   4.885   1.988  1.00  0.00     0.009 C 
ATOM     16  C   UNL     1      -0.467   4.919   3.024  1.00  0.00     0.044 C 
ATOM     17  C   UNL     1       1.838   3.944   2.486  1.00  0.00    -0.010 C 
ATOM     18  C   UNL     1       0.080   5.391   4.386  1.00  0.00     0.121 C 
ATOM     19  C   UNL     1       3.056   3.932   1.554  1.00  0.00     0.008 C 
ATOM     20  C   UNL     1       2.315   4.359   3.896  1.00  0.00     0.006 C 
ATOM     21  C   UNL     1       1.183   4.481   4.910  1.00  0.00     0.033 C 
BRANCH  11  22
ATOM     22  C   UNL     1      -2.324   3.866  -0.189  1.00  0.00    -0.070 C 
ATOM     23  C   UNL     1      -4.625   5.001  -0.149  1.00  0.00     0.035 C 
ATOM     24  C   UNL     1      -3.353   4.481   0.436  1.00  0.00    -0.031 C 
ATOM     25  C   UNL     1      -2.325   3.542  -1.663  1.00  0.00     0.040 C 
ENDBRANCH  11  22
BRANCH  18  26
ATOM     26  O   UNL     1      -0.960   5.528   5.351  1.00  0.00    -0.393 OA
ATOM     27  H   UNL     1      -1.364   4.662   5.516  1.00  0.00     0.210 HD
ENDBRANCH  18  26
ENDBRANCH   9  10
ENDBRANCH   7   8
ENDBRANCH   4   6
ENDBRANCH   3   4
ENDBRANCH   2   3
ENDBRANCH   1   2
BRANCH   1  28
ATOM     28  O   UNL     1      -0.195  10.845  -5.312  1.00  0.00    -0.374 OA
BRANCH  28  29
ATOM     29  C   UNL     1       0.712  10.318  -4.343  1.00  0.00     0.202 C 
BRANCH  29  30
ATOM     30  C   UNL     1       1.102  11.254  -3.193  1.00  0.00     0.261 C 
BRANCH  30  31
ATOM     31  O   UNL     1      -0.013  11.561  -2.338  1.00  0.00    -0.460 OA
BRANCH  31  32
ATOM     32  C   UNL     1      -0.468  12.832  -2.432  1.00  0.00     0.338 C 
ATOM     33  O   UNL     1       0.002  13.744  -3.099  1.00  0.00    -0.246 OA
BRANCH  32  34
ATOM     34  C   UNL     1      -1.758  12.958  -1.731  1.00  0.00     0.060 A 
ATOM     35  C   UNL     1      -2.837  13.491  -2.448  1.00  0.00     0.016 A 
ATOM     36  C   UNL     1      -1.894  12.634  -0.380  1.00  0.00     0.016 A 
ATOM     37  C   UNL     1      -4.048  13.742  -1.806  1.00  0.00     0.010 A 
ATOM     38  C   UNL     1      -3.107  12.897   0.266  1.00  0.00     0.010 A 
ATOM     39  C   UNL     1      -4.177  13.481  -0.435  1.00  0.00    -0.014 A 
BRANCH  39  40
ATOM     40  C   UNL     1      -5.385  13.941   0.292  1.00  0.00     0.031 A 
ATOM     41  C   UNL     1      -5.317  15.214   1.087  1.00  0.00     0.074 A 
ATOM     42  C   UNL     1      -6.528  13.236   0.239  1.00  0.00     0.049 A 
ATOM     43  N   UNL     1      -6.225  15.768   1.850  1.00  0.00    -0.248 NA
ATOM     44  C   UNL     1      -4.052  15.963   1.017  1.00  0.00     0.031 C 
ATOM     45  C   UNL     1      -6.726  12.005  -0.523  1.00  0.00     0.029 A 
ATOM     46  N   UNL     1      -7.736  13.450   0.855  1.00  0.00    -0.354 N 
ATOM     47  C   UNL     1      -5.638  16.918   2.361  1.00  0.00     0.074 A 
ATOM     48  C   UNL     1      -4.290  16.975   1.839  1.00  0.00     0.031 C 
ATOM     49  C   UNL     1      -7.976  11.559  -0.311  1.00  0.00     0.029 A 
ATOM     50  C   UNL     1      -8.652  12.454   0.626  1.00  0.00     0.049 A 
ATOM     51  H   UNL     1      -7.927  14.242   1.409  1.00  0.00     0.167 HD
ATOM     52  C   UNL     1      -6.179  17.844   3.188  1.00  0.00     0.037 A 
ATOM     53  C   UNL     1      -9.885  12.273   1.139  1.00  0.00     0.037 A 
ATOM     54  C   UNL     1      -7.525  17.791   3.695  1.00  0.00     0.049 A 
ATOM     55  C   UNL     1     -10.445  13.291   2.098  1.00  0.00     0.074 A 
ATOM     56  C   UNL     1      -8.179  18.705   4.503  1.00  0.00     0.029 A 
ATOM     57  N   UNL     1      -8.421  16.761   3.449  1.00  0.00    -0.354 N 
ATOM     58  N   UNL     1      -9.900  14.397   2.544  1.00  0.00    -0.248 NA
ATOM     59  C   UNL     1     -11.794  13.037   2.624  1.00  0.00     0.031 C 
ATOM     60  C   UNL     1      -9.452  18.202   4.790  1.00  0.00     0.029 A 
ATOM     61  C   UNL     1      -9.611  17.002   4.115  1.00  0.00     0.049 A 
ATOM     62  H   UNL     1      -8.237  15.975   2.885  1.00  0.00     0.167 HD
ATOM     63  C   UNL     1     -10.845  14.982   3.377  1.00  0.00     0.074 A 
ATOM     64  C   UNL     1     -12.005  14.116   3.365  1.00  0.00     0.031 C 
ATOM     65  C   UNL     1     -10.761  16.134   4.086  1.00  0.00     0.037 A 
BRANCH  52  66
ATOM     66  C   UNL     1      -5.308  18.985   3.623  1.00  0.00     0.064 A 
ATOM     67  C   UNL     1      -4.954  20.020   2.745  1.00  0.00     0.173 A 
ATOM     68  C   UNL     1      -4.867  19.070   4.952  1.00  0.00     0.173 A 
ATOM     69  F   UNL     1      -5.340  19.980   1.462  1.00  0.00    -0.203 F 
ATOM     70  C   UNL     1      -4.173  21.089   3.179  1.00  0.00     0.198 A 
ATOM     71  C   UNL     1      -4.109  20.153   5.388  1.00  0.00     0.198 A 
ATOM     72  F   UNL     1      -5.183  18.108   5.832  1.00  0.00    -0.203 F 
ATOM     73  F   UNL     1      -3.814  22.049   2.315  1.00  0.00    -0.200 F 
ATOM     74  C   UNL     1      -3.758  21.159   4.501  1.00  0.00     0.200 A 
ATOM     75  F   UNL     1      -3.721  20.224   6.669  1.00  0.00    -0.200 F 
ATOM     76  F   UNL     1      -3.017  22.194   4.919  1.00  0.00    -0.200 F 
ENDBRANCH  52  66
BRANCH  53  77
ATOM     77  C   UNL     1     -10.668  11.062   0.777  1.00  0.00     0.064 A 
ATOM     78  C   UNL     1     -11.835  11.156   0.006  1.00  0.00     0.173 A 
ATOM     79  C   UNL     1     -10.277   9.789   1.217  1.00  0.00     0.173 A 
ATOM     80  F   UNL     1     -12.264  12.354  -0.416  1.00  0.00    -0.203 F 
ATOM     81  C   UNL     1     -12.592  10.024  -0.293  1.00  0.00     0.198 A 
ATOM     82  C   UNL     1     -11.019   8.655   0.892  1.00  0.00     0.198 A 
ATOM     83  F   UNL     1      -9.170   9.645   1.959  1.00  0.00    -0.203 F 
ATOM     84  F   UNL     1     -13.730  10.148  -0.989  1.00  0.00    -0.200 F 
ATOM     85  C   UNL     1     -12.181   8.775   0.145  1.00  0.00     0.200 A 
ATOM     86  F   UNL     1     -10.611   7.448   1.308  1.00  0.00    -0.200 F 
ATOM     87  F   UNL     1     -12.909   7.688  -0.144  1.00  0.00    -0.200 F 
ENDBRANCH  53  77
BRANCH  65  88
ATOM     88  C   UNL     1     -11.965  16.549   4.880  1.00  0.00     0.064 A 
ATOM     89  C   UNL     1     -12.337  15.883   6.058  1.00  0.00     0.173 A 
ATOM     90  C   UNL     1     -12.727  17.660   4.486  1.00  0.00     0.173 A 
ATOM     91  F   UNL     1     -11.650  14.807   6.469  1.00  0.00    -0.203 F 
ATOM     92  C   UNL     1     -13.438  16.302   6.799  1.00  0.00     0.198 A 
ATOM     93  C   UNL     1     -13.809  18.094   5.245  1.00  0.00     0.198 A 
ATOM     94  F   UNL     1     -12.409  18.337   3.372  1.00  0.00    -0.203 F 
ATOM     95  F   UNL     1     -13.801  15.626   7.898  1.00  0.00    -0.200 F 
ATOM     96  C   UNL     1     -14.168  17.411   6.397  1.00  0.00     0.200 A 
ATOM     97  F   UNL     1     -14.504  19.175   4.863  1.00  0.00    -0.200 F 
ATOM     98  F   UNL     1     -15.222  17.819   7.118  1.00  0.00    -0.200 F 
ENDBRANCH  65  88
ENDBRANCH  39  40
ENDBRANCH  32  34
ENDBRANCH  31  32
ENDBRANCH  30  31
ENDBRANCH  29  30
ENDBRANCH  28  29
ENDBRANCH   1  28
TORSDOF 18
