REMARK SMILES CC(C)[C@H](CO)Nc1ccc(C(=O)OCCOCCOC(=O)c2ccc(-c3c4nc(c(-c5c(F)c(F)c(F)c(F)c5F)c5ccc([nH]5)c(-c5c(F)c(F)c(F)c(F)c5F)c5nc(c(-c6c(F)c(F)c(F)c(F)c6F)c6ccc3[nH]6)C=C5)C=C4)cc2)cc1
REMARK SMILES IDX 16 1 15 2 14 3 12 4 13 5 11 6 8 7 9 8 87 9 10 10 86 11 7 12
REMARK SMILES IDX 4 14 2 15 1 16 3 17 5 18 6 19 17 21 18 22 19 23 20 24 21 25
REMARK SMILES IDX 22 26 23 27 24 28 85 29 25 30 84 31 26 32 27 33 28 34 78 35
REMARK SMILES IDX 29 36 83 37 77 38 79 39 30 40 82 41 76 42 75 43 31 45 63 46
REMARK SMILES IDX 43 47 62 48 44 49 47 50 61 51 80 52 45 53 46 54 60 56 81 57
REMARK SMILES IDX 48 58 32 59 33 60 41 61 34 62 35 63 39 64 42 65 36 66 37 67
REMARK SMILES IDX 40 68 38 69 64 70 65 71 73 72 66 73 67 74 71 75 74 76 68 77
REMARK SMILES IDX 69 78 72 79 70 80 49 81 50 82 58 83 51 84 52 85 56 86 59 87
REMARK SMILES IDX 53 88 54 89 57 90 55 91
REMARK H PARENT 7 13 6 20 79 44 47 55
REMARK Flexibility Score: inf
ROOT
ATOM      1  C   UNL     1      -6.930  -3.861   6.993  1.00  0.00     0.202 C 
ENDROOT
BRANCH   1   2
ATOM      2  C   UNL     1      -5.834  -2.823   7.248  1.00  0.00     0.261 C 
BRANCH   2   3
ATOM      3  O   UNL     1      -5.136  -2.494   6.035  1.00  0.00    -0.460 OA
BRANCH   3   4
ATOM      4  C   UNL     1      -3.867  -2.963   5.963  1.00  0.00     0.338 C 
ATOM      5  O   UNL     1      -3.239  -3.514   6.855  1.00  0.00    -0.246 OA
BRANCH   4   6
ATOM      6  C   UNL     1      -3.358  -2.855   4.579  1.00  0.00     0.060 A 
ATOM      7  C   UNL     1      -2.260  -2.731   1.988  1.00  0.00     0.034 A 
ATOM      8  C   UNL     1      -1.951  -3.791   2.847  1.00  0.00     0.026 A 
ATOM      9  C   UNL     1      -3.147  -1.748   2.441  1.00  0.00     0.026 A 
ATOM     10  C   UNL     1      -2.482  -3.850   4.136  1.00  0.00     0.018 A 
ATOM     11  C   UNL     1      -3.713  -1.813   3.720  1.00  0.00     0.018 A 
BRANCH   7  12
ATOM     12  N   UNL     1      -1.637  -2.667   0.756  1.00  0.00    -0.380 N 
ATOM     13  H   UNL     1      -1.600  -3.481   0.202  1.00  0.00     0.160 HD
BRANCH  12  14
ATOM     14  C   UNL     1      -1.027  -1.436   0.240  1.00  0.00     0.107 C 
BRANCH  14  15
ATOM     15  C   UNL     1      -1.556  -1.131  -1.187  1.00  0.00     0.007 C 
ATOM     16  C   UNL     1      -1.446  -2.318  -2.147  1.00  0.00     0.009 C 
ATOM     17  C   UNL     1      -3.003  -0.628  -1.144  1.00  0.00     0.009 C 
ENDBRANCH  14  15
BRANCH  14  18
ATOM     18  C   UNL     1       0.516  -1.589   0.302  1.00  0.00     0.181 C 
BRANCH  18  19
ATOM     19  O   UNL     1       1.210  -0.559  -0.393  1.00  0.00    -0.394 OA
ATOM     20  H   UNL     1       0.973  -0.588  -1.333  1.00  0.00     0.210 HD
ENDBRANCH  18  19
ENDBRANCH  14  18
ENDBRANCH  12  14
ENDBRANCH   7  12
ENDBRANCH   4   6
ENDBRANCH   3   4
ENDBRANCH   2   3
ENDBRANCH   1   2
BRANCH   1  21
ATOM     21  O   UNL     1      -6.479  -5.144   6.562  1.00  0.00    -0.374 OA
BRANCH  21  22
ATOM     22  C   UNL     1      -6.229  -5.300   5.162  1.00  0.00     0.202 C 
BRANCH  22  23
ATOM     23  C   UNL     1      -7.467  -5.563   4.297  1.00  0.00     0.261 C 
BRANCH  23  24
ATOM     24  O   UNL     1      -8.307  -4.396   4.208  1.00  0.00    -0.460 OA
BRANCH  24  25
ATOM     25  C   UNL     1      -9.490  -4.491   4.855  1.00  0.00     0.338 C 
ATOM     26  O   UNL     1      -9.959  -5.475   5.410  1.00  0.00    -0.246 OA
BRANCH  25  27
ATOM     27  C   UNL     1     -10.109  -3.156   4.965  1.00  0.00     0.060 A 
ATOM     28  C   UNL     1     -10.531  -2.743   6.236  1.00  0.00     0.016 A 
ATOM     29  C   UNL     1     -10.332  -2.350   3.847  1.00  0.00     0.016 A 
ATOM     30  C   UNL     1     -11.226  -1.545   6.386  1.00  0.00     0.010 A 
ATOM     31  C   UNL     1     -11.037  -1.151   3.998  1.00  0.00     0.010 A 
ATOM     32  C   UNL     1     -11.517  -0.761   5.262  1.00  0.00    -0.014 A 
BRANCH  32  33
ATOM     33  C   UNL     1     -12.445   0.388   5.392  1.00  0.00     0.031 A 
ATOM     34  C   UNL     1     -13.885   0.211   4.997  1.00  0.00     0.074 A 
ATOM     35  C   UNL     1     -12.017   1.567   5.876  1.00  0.00     0.049 A 
ATOM     36  N   UNL     1     -14.860   1.085   4.993  1.00  0.00    -0.248 NA
ATOM     37  C   UNL     1     -14.278  -1.132   4.542  1.00  0.00     0.031 C 
ATOM     38  C   UNL     1     -10.655   1.852   6.321  1.00  0.00     0.029 A 
ATOM     39  N   UNL     1     -12.688   2.750   6.064  1.00  0.00    -0.354 N 
ATOM     40  C   UNL     1     -15.976   0.401   4.529  1.00  0.00     0.074 A 
ATOM     41  C   UNL     1     -15.554  -0.952   4.236  1.00  0.00     0.031 C 
ATOM     42  C   UNL     1     -10.585   3.135   6.717  1.00  0.00     0.029 A 
ATOM     43  C   UNL     1     -11.890   3.767   6.525  1.00  0.00     0.049 A 
ATOM     44  H   UNL     1     -13.650   2.858   5.885  1.00  0.00     0.167 HD
ATOM     45  C   UNL     1     -17.240   0.860   4.369  1.00  0.00     0.037 A 
ATOM     46  C   UNL     1     -12.176   5.065   6.745  1.00  0.00     0.037 A 
ATOM     47  C   UNL     1     -17.660   2.204   4.670  1.00  0.00     0.049 A 
ATOM     48  C   UNL     1     -13.579   5.563   6.509  1.00  0.00     0.074 A 
ATOM     49  C   UNL     1     -18.926   2.754   4.573  1.00  0.00     0.029 A 
ATOM     50  N   UNL     1     -16.819   3.210   5.119  1.00  0.00    -0.354 N 
ATOM     51  N   UNL     1     -14.636   4.902   6.104  1.00  0.00    -0.248 NA
ATOM     52  C   UNL     1     -13.828   6.989   6.765  1.00  0.00     0.031 C 
ATOM     53  C   UNL     1     -18.841   4.107   4.917  1.00  0.00     0.029 A 
ATOM     54  C   UNL     1     -17.533   4.387   5.278  1.00  0.00     0.049 A 
ATOM     55  H   UNL     1     -15.856   3.105   5.299  1.00  0.00     0.167 HD
ATOM     56  C   UNL     1     -15.678   5.821   6.085  1.00  0.00     0.074 A 
ATOM     57  C   UNL     1     -15.129   7.084   6.530  1.00  0.00     0.031 C 
ATOM     58  C   UNL     1     -16.974   5.634   5.731  1.00  0.00     0.037 A 
BRANCH  45  59
ATOM     59  C   UNL     1     -18.261  -0.092   3.820  1.00  0.00     0.064 A 
ATOM     60  C   UNL     1     -18.768  -1.152   4.586  1.00  0.00     0.173 A 
ATOM     61  C   UNL     1     -18.771   0.086   2.525  1.00  0.00     0.173 A 
ATOM     62  F   UNL     1     -18.304  -1.373   5.825  1.00  0.00    -0.203 F 
ATOM     63  C   UNL     1     -19.734  -2.012   4.067  1.00  0.00     0.198 A 
ATOM     64  C   UNL     1     -19.755  -0.759   2.020  1.00  0.00     0.198 A 
ATOM     65  F   UNL     1     -18.321   1.087   1.753  1.00  0.00    -0.203 F 
ATOM     66  F   UNL     1     -20.176  -3.042   4.801  1.00  0.00    -0.200 F 
ATOM     67  C   UNL     1     -20.232  -1.810   2.788  1.00  0.00     0.200 A 
ATOM     68  F   UNL     1     -20.243  -0.555   0.788  1.00  0.00    -0.200 F 
ATOM     69  F   UNL     1     -21.168  -2.632   2.294  1.00  0.00    -0.200 F 
ENDBRANCH  45  59
BRANCH  46  70
ATOM     70  C   UNL     1     -11.109   5.993   7.200  1.00  0.00     0.064 A 
ATOM     71  C   UNL     1     -11.131   6.551   8.485  1.00  0.00     0.173 A 
ATOM     72  C   UNL     1     -10.055   6.358   6.348  1.00  0.00     0.173 A 
ATOM     73  F   UNL     1     -12.133   6.253   9.326  1.00  0.00    -0.203 F 
ATOM     74  C   UNL     1     -10.151   7.453   8.895  1.00  0.00     0.198 A 
ATOM     75  C   UNL     1      -9.060   7.237   6.769  1.00  0.00     0.198 A 
ATOM     76  F   UNL     1      -9.989   5.854   5.107  1.00  0.00    -0.203 F 
ATOM     77  F   UNL     1     -10.223   8.009  10.112  1.00  0.00    -0.200 F 
ATOM     78  C   UNL     1      -9.114   7.791   8.039  1.00  0.00     0.200 A 
ATOM     79  F   UNL     1      -8.054   7.552   5.942  1.00  0.00    -0.200 F 
ATOM     80  F   UNL     1      -8.171   8.657   8.435  1.00  0.00    -0.200 F 
ENDBRANCH  46  70
BRANCH  58  81
ATOM     81  C   UNL     1     -17.898   6.812   5.845  1.00  0.00     0.064 A 
ATOM     82  C   UNL     1     -17.834   7.889   4.949  1.00  0.00     0.173 A 
ATOM     83  C   UNL     1     -18.891   6.840   6.837  1.00  0.00     0.173 A 
ATOM     84  F   UNL     1     -16.894   7.916   3.993  1.00  0.00    -0.203 F 
ATOM     85  C   UNL     1     -18.715   8.961   5.056  1.00  0.00     0.198 A 
ATOM     86  C   UNL     1     -19.789   7.900   6.922  1.00  0.00     0.198 A 
ATOM     87  F   UNL     1     -19.000   5.831   7.714  1.00  0.00    -0.203 F 
ATOM     88  F   UNL     1     -18.608  10.001   4.217  1.00  0.00    -0.200 F 
ATOM     89  C   UNL     1     -19.697   8.963   6.037  1.00  0.00     0.200 A 
ATOM     90  F   UNL     1     -20.745   7.893   7.862  1.00  0.00    -0.200 F 
ATOM     91  F   UNL     1     -20.549   9.992   6.132  1.00  0.00    -0.200 F 
ENDBRANCH  58  81
ENDBRANCH  32  33
ENDBRANCH  25  27
ENDBRANCH  24  25
ENDBRANCH  23  24
ENDBRANCH  22  23
ENDBRANCH  21  22
ENDBRANCH   1  21
TORSDOF 19
