REMARK SMILES COc1ccc(-c2ccc3n(c2=O)C[C@H]2C[C@@H]3CN(C(=O)CCCC(=O)OCCOCCOC(=O)c3ccc(-c4c5nc(c(-c6c(F)c(F)c(F)c(F)c6F)c6ccc([nH]6)c(-c6c(F)c(F)c(F)c(F)c6F)c6nc(c(-c7c(F)c(F)c(F)c(F)c7F)c7ccc4[nH]7)C=C6)C=C5)cc3)C2)cc1
REMARK SMILES IDX 28 1 27 2 25 3 26 4 24 5 23 6 22 7 20 8 21 9 19 10 7 11 8 12
REMARK SMILES IDX 12 13 9 14 11 15 13 16 10 17 14 18 17 19 15 20 16 21 18 22
REMARK SMILES IDX 99 23 6 24 3 25 4 26 101 27 5 28 100 29 2 30 1 31 29 32
REMARK SMILES IDX 30 33 31 34 32 35 33 36 34 37 35 38 36 39 37 40 98 41 38 42
REMARK SMILES IDX 97 43 39 44 40 45 41 46 91 47 42 48 96 49 90 50 92 51 43 52
REMARK SMILES IDX 95 53 89 54 88 55 44 57 76 58 56 59 75 60 57 61 60 62 74 63
REMARK SMILES IDX 93 64 58 65 59 66 73 68 94 69 61 70 45 71 46 72 54 73 47 74
REMARK SMILES IDX 48 75 52 76 55 77 49 78 50 79 53 80 51 81 77 82 78 83 86 84
REMARK SMILES IDX 79 85 80 86 84 87 87 88 81 89 82 90 85 91 83 92 62 93 63 94
REMARK SMILES IDX 71 95 64 96 65 97 69 98 72 99 66 100 67 101 70 102 68 103
REMARK H PARENT 92 56 60 67
REMARK Flexibility Score: inf
ROOT
ATOM      1  C   UNL     1      -2.120  12.112   0.428  1.00  0.00     0.261 C 
ENDROOT
BRANCH   1   2
ATOM      2  O   UNL     1      -2.053  11.382  -0.811  1.00  0.00    -0.463 OA
BRANCH   2   3
ATOM      3  C   UNL     1      -1.867  10.039  -0.702  1.00  0.00     0.305 C 
ATOM      4  O   UNL     1      -1.851   9.432   0.361  1.00  0.00    -0.252 OA
BRANCH   3   5
ATOM      5  C   UNL     1      -1.612   9.357  -2.030  1.00  0.00     0.123 C 
BRANCH   5   6
ATOM      6  C   UNL     1      -1.880  10.149  -3.309  1.00  0.00     0.022 C 
BRANCH   6   7
ATOM      7  C   UNL     1      -0.925  11.306  -3.612  1.00  0.00     0.101 C 
BRANCH   7   8
ATOM      8  C   UNL     1       0.500  10.871  -3.920  1.00  0.00     0.222 C 
ATOM      9  O   UNL     1       0.750  10.405  -5.035  1.00  0.00    -0.275 OA
BRANCH   8  10
ATOM     10  N   UNL     1       1.484  11.039  -2.953  1.00  0.00    -0.342 N 
ATOM     11  C   UNL     1       2.267   6.065  -1.861  1.00  0.00     0.047 A 
ATOM     12  C   UNL     1       3.215   6.386  -2.755  1.00  0.00     0.016 A 
ATOM     13  C   UNL     1       1.700   7.152  -0.988  1.00  0.00     0.258 A 
ATOM     14  C   UNL     1       3.699   7.733  -2.882  1.00  0.00     0.023 A 
ATOM     15  N   UNL     1       2.240   8.439  -1.155  1.00  0.00    -0.311 N 
ATOM     16  O   UNL     1       0.824   6.896  -0.163  1.00  0.00    -0.269 OA
ATOM     17  C   UNL     1       3.225   8.717  -2.102  1.00  0.00     0.026 A 
ATOM     18  C   UNL     1       1.786   9.458  -0.208  1.00  0.00     0.131 C 
ATOM     19  C   UNL     1       3.719  10.143  -2.271  1.00  0.00     0.056 C 
ATOM     20  C   UNL     1       2.171  10.909  -0.528  1.00  0.00     0.029 C 
ATOM     21  C   UNL     1       3.627  10.930  -0.964  1.00  0.00     0.019 C 
ATOM     22  C   UNL     1       2.883  10.853  -3.352  1.00  0.00     0.129 C 
ATOM     23  C   UNL     1       1.278  11.556  -1.603  1.00  0.00     0.125 C 
BRANCH  11  24
ATOM     24  C   UNL     1       1.834   4.665  -1.717  1.00  0.00    -0.013 A 
ATOM     25  C   UNL     1       1.020   2.000  -1.353  1.00  0.00     0.118 A 
ATOM     26  C   UNL     1       0.117   2.954  -1.822  1.00  0.00     0.047 A 
ATOM     27  C   UNL     1       2.342   2.365  -1.104  1.00  0.00     0.047 A 
ATOM     28  C   UNL     1       0.516   4.284  -1.992  1.00  0.00     0.013 A 
ATOM     29  C   UNL     1       2.745   3.692  -1.282  1.00  0.00     0.013 A 
BRANCH  25  30
ATOM     30  O   UNL     1       0.528   0.732  -1.206  1.00  0.00    -0.497 OA
ATOM     31  C   UNL     1       1.068   0.016  -0.098  1.00  0.00     0.278 C 
ENDBRANCH  25  30
ENDBRANCH  11  24
ENDBRANCH   8  10
ENDBRANCH   7   8
ENDBRANCH   6   7
ENDBRANCH   5   6
ENDBRANCH   3   5
ENDBRANCH   2   3
ENDBRANCH   1   2
BRANCH   1  32
ATOM     32  C   UNL     1      -3.416  12.909   0.565  1.00  0.00     0.202 C 
BRANCH  32  33
ATOM     33  O   UNL     1      -4.627  12.168   0.663  1.00  0.00    -0.374 OA
BRANCH  33  34
ATOM     34  C   UNL     1      -5.021  11.362  -0.443  1.00  0.00     0.202 C 
BRANCH  34  35
ATOM     35  C   UNL     1      -5.526  12.079  -1.701  1.00  0.00     0.261 C 
BRANCH  35  36
ATOM     36  O   UNL     1      -4.594  13.017  -2.270  1.00  0.00    -0.460 OA
BRANCH  36  37
ATOM     37  C   UNL     1      -4.933  14.316  -2.078  1.00  0.00     0.338 C 
ATOM     38  O   UNL     1      -5.895  14.746  -1.463  1.00  0.00    -0.246 OA
BRANCH  37  39
ATOM     39  C   UNL     1      -3.912  15.223  -2.632  1.00  0.00     0.060 A 
ATOM     40  C   UNL     1      -3.420  16.236  -1.796  1.00  0.00     0.016 A 
ATOM     41  C   UNL     1      -3.591  15.204  -3.990  1.00  0.00     0.016 A 
ATOM     42  C   UNL     1      -2.668  17.281  -2.332  1.00  0.00     0.010 A 
ATOM     43  C   UNL     1      -2.846  16.258  -4.528  1.00  0.00     0.010 A 
ATOM     44  C   UNL     1      -2.429  17.326  -3.711  1.00  0.00    -0.014 A 
BRANCH  44  45
ATOM     45  C   UNL     1      -1.935  18.579  -4.334  1.00  0.00     0.031 A 
ATOM     46  C   UNL     1      -2.936  19.519  -4.949  1.00  0.00     0.074 A 
ATOM     47  C   UNL     1      -0.626  18.884  -4.348  1.00  0.00     0.049 A 
ATOM     48  N   UNL     1      -2.738  20.609  -5.647  1.00  0.00    -0.248 NA
ATOM     49  C   UNL     1      -4.356  19.183  -4.751  1.00  0.00     0.031 C 
ATOM     50  C   UNL     1       0.431  18.089  -3.730  1.00  0.00     0.029 A 
ATOM     51  N   UNL     1       0.034  19.943  -4.920  1.00  0.00    -0.354 N 
ATOM     52  C   UNL     1      -4.002  21.075  -5.985  1.00  0.00     0.074 A 
ATOM     53  C   UNL     1      -4.961  20.146  -5.429  1.00  0.00     0.031 C 
ATOM     54  C   UNL     1       1.615  18.677  -3.976  1.00  0.00     0.029 A 
ATOM     55  C   UNL     1       1.399  19.865  -4.802  1.00  0.00     0.049 A 
ATOM     56  H   UNL     1      -0.427  20.686  -5.372  1.00  0.00     0.167 HD
ATOM     57  C   UNL     1      -4.332  22.180  -6.695  1.00  0.00     0.037 A 
ATOM     58  C   UNL     1       2.362  20.645  -5.331  1.00  0.00     0.037 A 
ATOM     59  C   UNL     1      -3.376  23.106  -7.240  1.00  0.00     0.049 A 
ATOM     60  C   UNL     1       1.974  21.828  -6.181  1.00  0.00     0.074 A 
ATOM     61  C   UNL     1      -3.609  24.257  -7.972  1.00  0.00     0.029 A 
ATOM     62  N   UNL     1      -2.001  22.983  -7.112  1.00  0.00    -0.354 N 
ATOM     63  N   UNL     1       0.778  22.262  -6.499  1.00  0.00    -0.248 NA
ATOM     64  C   UNL     1       3.070  22.628  -6.750  1.00  0.00     0.031 C 
ATOM     65  C   UNL     1      -2.373  24.809  -8.322  1.00  0.00     0.029 A 
ATOM     66  C   UNL     1      -1.372  24.028  -7.767  1.00  0.00     0.049 A 
ATOM     67  H   UNL     1      -1.541  22.260  -6.628  1.00  0.00     0.167 HD
ATOM     68  C   UNL     1       0.976  23.401  -7.270  1.00  0.00     0.074 A 
ATOM     69  C   UNL     1       2.407  23.591  -7.375  1.00  0.00     0.031 C 
ATOM     70  C   UNL     1       0.054  24.218  -7.835  1.00  0.00     0.037 A 
BRANCH  57  71
ATOM     71  C   UNL     1      -5.787  22.432  -6.951  1.00  0.00     0.064 A 
ATOM     72  C   UNL     1      -6.649  22.875  -5.937  1.00  0.00     0.173 A 
ATOM     73  C   UNL     1      -6.319  22.262  -8.238  1.00  0.00     0.173 A 
ATOM     74  F   UNL     1      -6.191  23.039  -4.687  1.00  0.00    -0.203 F 
ATOM     75  C   UNL     1      -7.995  23.119  -6.198  1.00  0.00     0.198 A 
ATOM     76  C   UNL     1      -7.660  22.531  -8.501  1.00  0.00     0.198 A 
ATOM     77  F   UNL     1      -5.536  21.843  -9.244  1.00  0.00    -0.203 F 
ATOM     78  F   UNL     1      -8.809  23.504  -5.205  1.00  0.00    -0.200 F 
ATOM     79  C   UNL     1      -8.497  22.953  -7.480  1.00  0.00     0.200 A 
ATOM     80  F   UNL     1      -8.141  22.381  -9.743  1.00  0.00    -0.200 F 
ATOM     81  F   UNL     1      -9.791  23.196  -7.731  1.00  0.00    -0.200 F 
ENDBRANCH  57  71
BRANCH  58  82
ATOM     82  C   UNL     1       3.792  20.321  -5.091  1.00  0.00     0.064 A 
ATOM     83  C   UNL     1       4.596  21.145  -4.292  1.00  0.00     0.173 A 
ATOM     84  C   UNL     1       4.385  19.186  -5.663  1.00  0.00     0.173 A 
ATOM     85  F   UNL     1       4.079  22.255  -3.744  1.00  0.00    -0.203 F 
ATOM     86  C   UNL     1       5.942  20.854  -4.086  1.00  0.00     0.198 A 
ATOM     87  C   UNL     1       5.725  18.882  -5.435  1.00  0.00     0.198 A 
ATOM     88  F   UNL     1       3.659  18.366  -6.437  1.00  0.00    -0.203 F 
ATOM     89  F   UNL     1       6.699  21.679  -3.350  1.00  0.00    -0.200 F 
ATOM     90  C   UNL     1       6.504  19.719  -4.652  1.00  0.00     0.200 A 
ATOM     91  F   UNL     1       6.260  17.777  -5.973  1.00  0.00    -0.200 F 
ATOM     92  F   UNL     1       7.798  19.436  -4.447  1.00  0.00    -0.200 F 
ENDBRANCH  58  82
BRANCH  70  93
ATOM     93  C   UNL     1       0.550  25.429  -8.566  1.00  0.00     0.064 A 
ATOM     94  C   UNL     1       1.121  25.338  -9.843  1.00  0.00     0.173 A 
ATOM     95  C   UNL     1       0.375  26.707  -8.011  1.00  0.00     0.173 A 
ATOM     96  F   UNL     1       1.320  24.138 -10.409  1.00  0.00    -0.203 F 
ATOM     97  C   UNL     1       1.507  26.483 -10.534  1.00  0.00     0.198 A 
ATOM     98  C   UNL     1       0.740  27.850  -8.715  1.00  0.00     0.198 A 
ATOM     99  F   UNL     1      -0.174  26.845  -6.794  1.00  0.00    -0.203 F 
ATOM    100  F   UNL     1       2.075  26.373 -11.743  1.00  0.00    -0.200 F 
ATOM    101  C   UNL     1       1.308  27.737  -9.975  1.00  0.00     0.200 A 
ATOM    102  F   UNL     1       0.535  29.060  -8.178  1.00  0.00    -0.200 F 
ATOM    103  F   UNL     1       1.666  28.838 -10.650  1.00  0.00    -0.200 F 
ENDBRANCH  70  93
ENDBRANCH  44  45
ENDBRANCH  37  39
ENDBRANCH  36  37
ENDBRANCH  35  36
ENDBRANCH  34  35
ENDBRANCH  33  34
ENDBRANCH  32  33
ENDBRANCH   1  32
TORSDOF 20
