REMARK SMILES Cc1cc(NC(=O)/C=C/c2ccco2)cc(C(=O)OCCOCCOC(=O)c2ccc(-c3c4nc(c(-c5c(F)c(F)c(F)c(F)c5F)c5ccc([nH]5)c(-c5c(F)c(F)c(F)c(F)c5F)c5nc(c(-c6c(F)c(F)c(F)c(F)c6F)c6ccc3[nH]6)C=C5)C=C4)cc2)c1O
REMARK SMILES IDX 21 1 20 2 19 3 17 4 18 5 16 6 1 7 2 8 3 9 91 10 4 11 15 12
REMARK SMILES IDX 92 13 5 15 6 16 7 18 8 19 9 20 10 21 11 22 14 23 12 24 13 25
REMARK SMILES IDX 22 26 23 27 24 28 25 29 26 30 27 31 28 32 29 33 90 34 30 35
REMARK SMILES IDX 89 36 31 37 32 38 33 39 83 40 34 41 88 42 82 43 84 44 35 45
REMARK SMILES IDX 87 46 81 47 80 48 36 50 68 51 48 52 67 53 49 54 52 55 66 56
REMARK SMILES IDX 85 57 50 58 51 59 65 61 86 62 53 63 37 64 38 65 46 66 39 67
REMARK SMILES IDX 40 68 44 69 47 70 41 71 42 72 45 73 43 74 69 75 70 76 78 77
REMARK SMILES IDX 71 78 72 79 76 80 79 81 73 82 74 83 77 84 75 85 54 86 55 87
REMARK SMILES IDX 63 88 56 89 57 90 61 91 64 92 58 93 59 94 62 95 60 96
REMARK H PARENT 92 14 5 17 84 49 52 60
REMARK Flexibility Score: inf
ROOT
ATOM      1  C   UNL     1       0.197   5.493  -0.733  1.00  0.00     0.202 C 
ENDROOT
BRANCH   1   2
ATOM      2  C   UNL     1       0.228   4.824   0.646  1.00  0.00     0.261 C 
BRANCH   2   3
ATOM      3  O   UNL     1       0.629   3.449   0.534  1.00  0.00    -0.460 OA
BRANCH   3   4
ATOM      4  C   UNL     1       0.043   2.607   1.423  1.00  0.00     0.342 C 
ATOM      5  O   UNL     1      -0.586   2.913   2.419  1.00  0.00    -0.246 OA
BRANCH   4   6
ATOM      6  C   UNL     1       0.233   1.224   0.936  1.00  0.00     0.104 A 
ATOM      7  C   UNL     1      -1.811  -1.763  -0.264  1.00  0.00     0.048 C 
ATOM      8  C   UNL     1      -0.667  -0.858   0.096  1.00  0.00    -0.006 A 
ATOM      9  C   UNL     1       0.650  -1.346  -0.010  1.00  0.00     0.033 A 
ATOM     10  C   UNL     1      -0.859   0.464   0.513  1.00  0.00     0.133 A 
ATOM     11  C   UNL     1       1.763  -0.565   0.339  1.00  0.00     0.042 A 
ATOM     12  C   UNL     1       1.528   0.692   0.889  1.00  0.00     0.045 A 
BRANCH  10  13
ATOM     13  O   UNL     1      -2.093   1.051   0.491  1.00  0.00    -0.507 OA
ATOM     14  H   UNL     1      -2.840   0.560   0.210  1.00  0.00     0.293 HD
ENDBRANCH  10  13
BRANCH  11  15
ATOM     15  N   UNL     1       3.030  -1.131   0.075  1.00  0.00    -0.322 N 
ATOM     16  C   UNL     1       4.313  -0.661   0.122  1.00  0.00     0.248 C 
ATOM     17  H   UNL     1       2.977  -2.073  -0.206  1.00  0.00     0.170 HD
ATOM     18  O   UNL     1       5.250  -1.396  -0.182  1.00  0.00    -0.270 OA
BRANCH  16  19
ATOM     19  C   UNL     1       4.586   0.706   0.576  1.00  0.00     0.075 C 
ATOM     20  C   UNL     1       4.311   1.755  -0.210  1.00  0.00     0.053 C 
BRANCH  20  21
ATOM     21  C   UNL     1       4.287   3.049   0.372  1.00  0.00     0.126 A 
ATOM     22  C   UNL     1       4.517   4.280  -0.212  1.00  0.00     0.050 A 
ATOM     23  O   UNL     1       3.914   3.282   1.679  1.00  0.00    -0.465 OA
ATOM     24  C   UNL     1       4.195   5.283   0.730  1.00  0.00     0.042 A 
ATOM     25  C   UNL     1       3.848   4.619   1.875  1.00  0.00     0.195 A 
ENDBRANCH  20  21
ENDBRANCH  16  19
ENDBRANCH  11  15
ENDBRANCH   4   6
ENDBRANCH   3   4
ENDBRANCH   2   3
ENDBRANCH   1   2
BRANCH   1  26
ATOM     26  O   UNL     1      -0.797   5.005  -1.636  1.00  0.00    -0.374 OA
BRANCH  26  27
ATOM     27  C   UNL     1      -0.581   3.711  -2.194  1.00  0.00     0.202 C 
BRANCH  27  28
ATOM     28  C   UNL     1       0.378   3.637  -3.390  1.00  0.00     0.261 C 
BRANCH  28  29
ATOM     29  O   UNL     1       1.694   4.161  -3.137  1.00  0.00    -0.460 OA
BRANCH  29  30
ATOM     30  C   UNL     1       1.937   5.378  -3.688  1.00  0.00     0.338 C 
ATOM     31  O   UNL     1       1.168   6.071  -4.330  1.00  0.00    -0.246 OA
BRANCH  30  32
ATOM     32  C   UNL     1       3.297   5.830  -3.338  1.00  0.00     0.060 A 
ATOM     33  C   UNL     1       3.447   7.044  -2.656  1.00  0.00     0.016 A 
ATOM     34  C   UNL     1       4.421   5.111  -3.753  1.00  0.00     0.016 A 
ATOM     35  C   UNL     1       4.726   7.545  -2.388  1.00  0.00     0.010 A 
ATOM     36  C   UNL     1       5.702   5.614  -3.479  1.00  0.00     0.010 A 
ATOM     37  C   UNL     1       5.865   6.841  -2.808  1.00  0.00    -0.014 A 
BRANCH  37  38
ATOM     38  C   UNL     1       7.221   7.444  -2.674  1.00  0.00     0.031 A 
ATOM     39  C   UNL     1       7.878   8.021  -3.895  1.00  0.00     0.074 A 
ATOM     40  C   UNL     1       7.872   7.478  -1.495  1.00  0.00     0.049 A 
ATOM     41  N   UNL     1       9.072   8.542  -4.027  1.00  0.00    -0.248 NA
ATOM     42  C   UNL     1       7.088   7.999  -5.135  1.00  0.00     0.031 C 
ATOM     43  C   UNL     1       7.351   6.962  -0.237  1.00  0.00     0.029 A 
ATOM     44  N   UNL     1       9.119   7.952  -1.163  1.00  0.00    -0.354 N 
ATOM     45  C   UNL     1       9.176   8.904  -5.362  1.00  0.00     0.074 A 
ATOM     46  C   UNL     1       7.944   8.505  -6.009  1.00  0.00     0.031 C 
ATOM     47  C   UNL     1       8.264   7.136   0.733  1.00  0.00     0.029 A 
ATOM     48  C   UNL     1       9.455   7.750   0.156  1.00  0.00     0.049 A 
ATOM     49  H   UNL     1       9.716   8.395  -1.809  1.00  0.00     0.167 HD
ATOM     50  C   UNL     1      10.199   9.529  -5.990  1.00  0.00     0.037 A 
ATOM     51  C   UNL     1      10.599   8.010   0.820  1.00  0.00     0.037 A 
ATOM     52  C   UNL     1      11.426   9.925  -5.351  1.00  0.00     0.049 A 
ATOM     53  C   UNL     1      11.746   8.650   0.083  1.00  0.00     0.074 A 
ATOM     54  C   UNL     1      12.513  10.579  -5.904  1.00  0.00     0.029 A 
ATOM     55  N   UNL     1      11.732   9.697  -4.017  1.00  0.00    -0.354 N 
ATOM     56  N   UNL     1      11.818   9.026  -1.170  1.00  0.00    -0.248 NA
ATOM     57  C   UNL     1      12.972   8.907   0.855  1.00  0.00     0.031 C 
ATOM     58  C   UNL     1      13.497  10.703  -4.918  1.00  0.00     0.029 A 
ATOM     59  C   UNL     1      13.001  10.178  -3.735  1.00  0.00     0.049 A 
ATOM     60  H   UNL     1      11.137   9.258  -3.368  1.00  0.00     0.167 HD
ATOM     61  C   UNL     1      13.076   9.590  -1.329  1.00  0.00     0.074 A 
ATOM     62  C   UNL     1      13.732   9.521  -0.041  1.00  0.00     0.031 C 
ATOM     63  C   UNL     1      13.638  10.117  -2.445  1.00  0.00     0.037 A 
BRANCH  50  64
ATOM     64  C   UNL     1      10.035   9.812  -7.453  1.00  0.00     0.064 A 
ATOM     65  C   UNL     1       9.139  10.787  -7.916  1.00  0.00     0.173 A 
ATOM     66  C   UNL     1      10.801   9.118  -8.402  1.00  0.00     0.173 A 
ATOM     67  F   UNL     1       8.371  11.464  -7.049  1.00  0.00    -0.203 F 
ATOM     68  C   UNL     1       8.996  11.038  -9.278  1.00  0.00     0.198 A 
ATOM     69  C   UNL     1      10.678   9.394  -9.760  1.00  0.00     0.198 A 
ATOM     70  F   UNL     1      11.673   8.177  -8.010  1.00  0.00    -0.203 F 
ATOM     71  F   UNL     1       8.098  11.939  -9.700  1.00  0.00    -0.200 F 
ATOM     72  C   UNL     1       9.771  10.348 -10.197  1.00  0.00     0.200 A 
ATOM     73  F   UNL     1      11.435   8.734 -10.647  1.00  0.00    -0.200 F 
ATOM     74  F   UNL     1       9.639  10.597 -11.508  1.00  0.00    -0.200 F 
ENDBRANCH  50  64
BRANCH  51  75
ATOM     75  C   UNL     1      10.731   7.659   2.261  1.00  0.00     0.064 A 
ATOM     76  C   UNL     1      10.850   8.655   3.241  1.00  0.00     0.173 A 
ATOM     77  C   UNL     1      10.780   6.322   2.684  1.00  0.00     0.173 A 
ATOM     78  F   UNL     1      10.836   9.948   2.886  1.00  0.00    -0.203 F 
ATOM     79  C   UNL     1      11.041   8.328   4.583  1.00  0.00     0.198 A 
ATOM     80  C   UNL     1      10.940   5.997   4.030  1.00  0.00     0.198 A 
ATOM     81  F   UNL     1      10.674   5.330   1.789  1.00  0.00    -0.203 F 
ATOM     82  F   UNL     1      11.211   9.301   5.489  1.00  0.00    -0.200 F 
ATOM     83  C   UNL     1      11.082   7.000   4.977  1.00  0.00     0.200 A 
ATOM     84  F   UNL     1      10.968   4.712   4.408  1.00  0.00    -0.200 F 
ATOM     85  F   UNL     1      11.269   6.686   6.266  1.00  0.00    -0.200 F 
ENDBRANCH  51  75
BRANCH  63  86
ATOM     86  C   UNL     1      15.014  10.704  -2.315  1.00  0.00     0.064 A 
ATOM     87  C   UNL     1      16.148   9.898  -2.134  1.00  0.00     0.173 A 
ATOM     88  C   UNL     1      15.203  12.091  -2.415  1.00  0.00     0.173 A 
ATOM     89  F   UNL     1      16.019   8.568  -2.016  1.00  0.00    -0.203 F 
ATOM     90  C   UNL     1      17.417  10.462  -2.033  1.00  0.00     0.198 A 
ATOM     91  C   UNL     1      16.477  12.648  -2.346  1.00  0.00     0.198 A 
ATOM     92  F   UNL     1      14.153  12.905  -2.595  1.00  0.00    -0.203 F 
ATOM     93  F   UNL     1      18.481   9.677  -1.812  1.00  0.00    -0.200 F 
ATOM     94  C   UNL     1      17.582  11.834  -2.148  1.00  0.00     0.200 A 
ATOM     95  F   UNL     1      16.635  13.973  -2.472  1.00  0.00    -0.200 F 
ATOM     96  F   UNL     1      18.805  12.373  -2.060  1.00  0.00    -0.200 F 
ENDBRANCH  63  86
ENDBRANCH  37  38
ENDBRANCH  30  32
ENDBRANCH  29  30
ENDBRANCH  28  29
ENDBRANCH  27  28
ENDBRANCH  26  27
ENDBRANCH   1  26
TORSDOF 18
