REMARK SMILES COC(=O)c1ccc([C@H]([NH3+])CC(=O)OCCOCCOC(=O)c2ccc(-c3c4nc(c(-c5c(F)c(F)c(F)c(F)c5F)c5ccc([nH]5)c(-c5c(F)c(F)c(F)c(F)c5F)c5nc(c(-c6c(F)c(F)c(F)c(F)c6F)c6ccc3[nH]6)C=C5)C=C4)cc2)cc1
REMARK SMILES IDX 16 1 15 2 14 3 12 4 13 5 11 6 9 7 8 8 5 9 6 10 87 11 7 12
REMARK SMILES IDX 86 13 3 14 4 15 2 16 1 17 10 18 17 22 18 23 19 24 20 25
REMARK SMILES IDX 21 26 22 27 23 28 24 29 85 30 25 31 84 32 26 33 27 34 28 35
REMARK SMILES IDX 78 36 29 37 83 38 77 39 79 40 30 41 82 42 76 43 75 44 31 46
REMARK SMILES IDX 63 47 43 48 62 49 44 50 47 51 61 52 80 53 45 54 46 55 60 57
REMARK SMILES IDX 81 58 48 59 32 60 33 61 41 62 34 63 35 64 39 65 42 66 36 67
REMARK SMILES IDX 37 68 40 69 38 70 64 71 65 72 73 73 66 74 67 75 71 76 74 77
REMARK SMILES IDX 68 78 69 79 72 80 70 81 49 82 50 83 58 84 51 85 52 86 56 87
REMARK SMILES IDX 59 88 53 89 54 90 57 91 55 92
REMARK H PARENT 10 19 10 20 10 21 79 45 47 56
REMARK Flexibility Score: inf
ROOT
ATOM      1  C   UNL     1      -1.113  -4.592  -5.497  1.00  0.00     0.202 C 
ENDROOT
BRANCH   1   2
ATOM      2  C   UNL     1       0.267  -4.089  -5.929  1.00  0.00     0.261 C 
BRANCH   2   3
ATOM      3  O   UNL     1       0.221  -2.755  -6.471  1.00  0.00    -0.463 OA
BRANCH   3   4
ATOM      4  C   UNL     1       0.588  -2.654  -7.774  1.00  0.00     0.312 C 
ATOM      5  O   UNL     1       1.009  -3.584  -8.454  1.00  0.00    -0.252 OA
BRANCH   4   6
ATOM      6  C   UNL     1       0.504  -1.256  -8.334  1.00  0.00     0.192 C 
BRANCH   6   7
ATOM      7  C   UNL     1      -0.600  -0.302  -7.833  1.00  0.00     0.223 C 
BRANCH   7   8
ATOM      8  C   UNL     1      -0.734   0.968  -8.693  1.00  0.00     0.010 A 
ATOM      9  C   UNL     1      -1.008   3.321 -10.264  1.00  0.00     0.060 A 
ATOM     10  C   UNL     1      -1.417   3.313  -8.928  1.00  0.00     0.016 A 
ATOM     11  C   UNL     1      -0.490   2.152 -10.823  1.00  0.00     0.016 A 
ATOM     12  C   UNL     1      -1.297   2.146  -8.160  1.00  0.00     0.011 A 
ATOM     13  C   UNL     1      -0.366   0.994 -10.050  1.00  0.00     0.011 A 
BRANCH   9  14
ATOM     14  C   UNL     1      -1.113   4.574 -11.053  1.00  0.00     0.337 C 
ATOM     15  O   UNL     1      -1.243   5.683 -10.553  1.00  0.00    -0.246 OA
BRANCH  14  16
ATOM     16  O   UNL     1      -1.051   4.292 -12.377  1.00  0.00    -0.465 OA
ATOM     17  C   UNL     1      -1.119   5.426 -13.242  1.00  0.00     0.282 C 
ENDBRANCH  14  16
ENDBRANCH   9  14
ENDBRANCH   7   8
BRANCH   7  18
ATOM     18  N   UNL     1      -0.379   0.055  -6.423  1.00  0.00    -0.351 N 
ATOM     19  H   UNL     1       0.500   0.564  -6.334  1.00  0.00     0.345 HD
ATOM     20  H   UNL     1      -0.339  -0.794  -5.859  1.00  0.00     0.345 HD
ATOM     21  H   UNL     1      -1.147   0.643  -6.097  1.00  0.00     0.345 HD
ENDBRANCH   7  18
ENDBRANCH   6   7
ENDBRANCH   4   6
ENDBRANCH   3   4
ENDBRANCH   2   3
ENDBRANCH   1   2
BRANCH   1  22
ATOM     22  O   UNL     1      -2.103  -4.716  -6.514  1.00  0.00    -0.374 OA
BRANCH  22  23
ATOM     23  C   UNL     1      -2.697  -3.519  -7.013  1.00  0.00     0.202 C 
BRANCH  23  24
ATOM     24  C   UNL     1      -3.686  -2.794  -6.091  1.00  0.00     0.261 C 
BRANCH  24  25
ATOM     25  O   UNL     1      -3.058  -2.289  -4.898  1.00  0.00    -0.460 OA
BRANCH  25  26
ATOM     26  C   UNL     1      -3.503  -2.848  -3.747  1.00  0.00     0.338 C 
ATOM     27  O   UNL     1      -4.407  -3.660  -3.618  1.00  0.00    -0.246 OA
BRANCH  26  28
ATOM     28  C   UNL     1      -2.618  -2.490  -2.624  1.00  0.00     0.060 A 
ATOM     29  C   UNL     1      -2.071  -3.542  -1.879  1.00  0.00     0.016 A 
ATOM     30  C   UNL     1      -2.415  -1.164  -2.236  1.00  0.00     0.016 A 
ATOM     31  C   UNL     1      -1.370  -3.276  -0.706  1.00  0.00     0.010 A 
ATOM     32  C   UNL     1      -1.717  -0.898  -1.051  1.00  0.00     0.010 A 
ATOM     33  C   UNL     1      -1.230  -1.955  -0.259  1.00  0.00    -0.014 A 
BRANCH  33  34
ATOM     34  C   UNL     1      -0.723  -1.713   1.115  1.00  0.00     0.031 A 
ATOM     35  C   UNL     1      -1.708  -1.463   2.224  1.00  0.00     0.074 A 
ATOM     36  C   UNL     1       0.593  -1.780   1.385  1.00  0.00     0.049 A 
ATOM     37  N   UNL     1      -1.492  -1.258   3.499  1.00  0.00    -0.248 NA
ATOM     38  C   UNL     1      -3.130  -1.445   1.845  1.00  0.00     0.031 C 
ATOM     39  C   UNL     1       1.642  -2.053   0.406  1.00  0.00     0.029 A 
ATOM     40  N   UNL     1       1.268  -1.626   2.571  1.00  0.00    -0.354 N 
ATOM     41  C   UNL     1      -2.746  -1.087   4.072  1.00  0.00     0.074 A 
ATOM     42  C   UNL     1      -3.716  -1.177   3.002  1.00  0.00     0.031 C 
ATOM     43  C   UNL     1       2.832  -2.045   1.030  1.00  0.00     0.029 A 
ATOM     44  C   UNL     1       2.629  -1.743   2.447  1.00  0.00     0.049 A 
ATOM     45  H   UNL     1       0.817  -1.449   3.428  1.00  0.00     0.167 HD
ATOM     46  C   UNL     1      -3.061  -0.885   5.374  1.00  0.00     0.037 A 
ATOM     47  C   UNL     1       3.601  -1.608   3.370  1.00  0.00     0.037 A 
ATOM     48  C   UNL     1      -2.097  -0.799   6.439  1.00  0.00     0.049 A 
ATOM     49  C   UNL     1       3.227  -1.322   4.802  1.00  0.00     0.074 A 
ATOM     50  C   UNL     1      -2.320  -0.615   7.793  1.00  0.00     0.029 A 
ATOM     51  N   UNL     1      -0.724  -0.885   6.268  1.00  0.00    -0.354 N 
ATOM     52  N   UNL     1       2.038  -1.192   5.339  1.00  0.00    -0.248 NA
ATOM     53  C   UNL     1       4.334  -1.171   5.758  1.00  0.00     0.031 C 
ATOM     54  C   UNL     1      -1.079  -0.540   8.434  1.00  0.00     0.029 A 
ATOM     55  C   UNL     1      -0.085  -0.732   7.488  1.00  0.00     0.049 A 
ATOM     56  H   UNL     1      -0.270  -1.033   5.407  1.00  0.00     0.167 HD
ATOM     57  C   UNL     1       2.252  -0.974   6.694  1.00  0.00     0.074 A 
ATOM     58  C   UNL     1       3.684  -1.003   6.901  1.00  0.00     0.031 C 
ATOM     59  C   UNL     1       1.343  -0.770   7.680  1.00  0.00     0.037 A 
BRANCH  46  60
ATOM     60  C   UNL     1      -4.513  -0.722   5.717  1.00  0.00     0.064 A 
ATOM     61  C   UNL     1      -5.406  -1.803   5.680  1.00  0.00     0.173 A 
ATOM     62  C   UNL     1      -5.010   0.527   6.120  1.00  0.00     0.173 A 
ATOM     63  F   UNL     1      -4.983  -3.014   5.288  1.00  0.00    -0.203 F 
ATOM     64  C   UNL     1      -6.748  -1.635   6.010  1.00  0.00     0.198 A 
ATOM     65  C   UNL     1      -6.347   0.685   6.476  1.00  0.00     0.198 A 
ATOM     66  F   UNL     1      -4.197   1.593   6.176  1.00  0.00    -0.203 F 
ATOM     67  F   UNL     1      -7.593  -2.672   5.925  1.00  0.00    -0.200 F 
ATOM     68  C   UNL     1      -7.216  -0.393   6.415  1.00  0.00     0.200 A 
ATOM     69  F   UNL     1      -6.794   1.883   6.878  1.00  0.00    -0.200 F 
ATOM     70  F   UNL     1      -8.507  -0.234   6.739  1.00  0.00    -0.200 F 
ENDBRANCH  46  60
BRANCH  47  71
ATOM     71  C   UNL     1       5.026  -1.740   2.972  1.00  0.00     0.064 A 
ATOM     72  C   UNL     1       5.803  -2.823   3.406  1.00  0.00     0.173 A 
ATOM     73  C   UNL     1       5.645  -0.774   2.165  1.00  0.00     0.173 A 
ATOM     74  F   UNL     1       5.263  -3.759   4.200  1.00  0.00    -0.203 F 
ATOM     75  C   UNL     1       7.150  -2.925   3.062  1.00  0.00     0.198 A 
ATOM     76  C   UNL     1       6.984  -0.892   1.799  1.00  0.00     0.198 A 
ATOM     77  F   UNL     1       4.946   0.282   1.726  1.00  0.00    -0.203 F 
ATOM     78  F   UNL     1       7.882  -3.946   3.528  1.00  0.00    -0.200 F 
ATOM     79  C   UNL     1       7.738  -1.963   2.254  1.00  0.00     0.200 A 
ATOM     80  F   UNL     1       7.544   0.034   1.009  1.00  0.00    -0.200 F 
ATOM     81  F   UNL     1       9.032  -2.064   1.922  1.00  0.00    -0.200 F 
ENDBRANCH  47  71
BRANCH  59  82
ATOM     82  C   UNL     1       1.866  -0.599   9.077  1.00  0.00     0.064 A 
ATOM     83  C   UNL     1       2.541   0.565   9.474  1.00  0.00     0.173 A 
ATOM     84  C   UNL     1       1.657  -1.598  10.040  1.00  0.00     0.173 A 
ATOM     85  F   UNL     1       2.778   1.544   8.588  1.00  0.00    -0.203 F 
ATOM     86  C   UNL     1       3.011   0.710  10.777  1.00  0.00     0.198 A 
ATOM     87  C   UNL     1       2.103  -1.437  11.350  1.00  0.00     0.198 A 
ATOM     88  F   UNL     1       1.011  -2.727   9.715  1.00  0.00    -0.203 F 
ATOM     89  F   UNL     1       3.697   1.809  11.121  1.00  0.00    -0.200 F 
ATOM     90  C   UNL     1       2.786  -0.287  11.715  1.00  0.00     0.200 A 
ATOM     91  F   UNL     1       1.872  -2.395  12.257  1.00  0.00    -0.200 F 
ATOM     92  F   UNL     1       3.236  -0.143  12.969  1.00  0.00    -0.200 F 
ENDBRANCH  59  82
ENDBRANCH  33  34
ENDBRANCH  26  28
ENDBRANCH  25  26
ENDBRANCH  24  25
ENDBRANCH  23  24
ENDBRANCH  22  23
ENDBRANCH   1  22
TORSDOF 19
