REMARK SMILES Nc1oc2ccc(F)cc2c(=O)c1[C@@H]1[NH2+][C@H](C(=O)OCCOCCOC(=O)c2ccc(-c3c4nc(c(-c5c(F)c(F)c(F)c(F)c5F)c5ccc([nH]5)c(-c5c(F)c(F)c(F)c(F)c5F)c5nc(c(-c6c(F)c(F)c(F)c(F)c6F)c6ccc3[nH]6)C=C5)C=C4)cc2)CS1
REMARK SMILES IDX 22 1 21 2 20 3 19 4 17 5 18 6 16 7 14 8 15 9 92 10 91 13
REMARK SMILES IDX 13 14 2 15 3 16 4 17 11 18 5 19 10 20 12 21 6 22 9 23 7 24
REMARK SMILES IDX 8 25 1 26 23 29 24 30 25 31 26 32 27 33 28 34 29 35 90 36
REMARK SMILES IDX 30 37 89 38 31 39 32 40 33 41 83 42 34 43 88 44 82 45 84 46
REMARK SMILES IDX 35 47 87 48 81 49 80 50 36 52 68 53 48 54 67 55 49 56 52 57
REMARK SMILES IDX 66 58 85 59 50 60 51 61 65 63 86 64 53 65 37 66 38 67 46 68
REMARK SMILES IDX 39 69 40 70 44 71 47 72 41 73 42 74 45 75 43 76 69 77 70 78
REMARK SMILES IDX 78 79 71 80 72 81 76 82 79 83 73 84 74 85 77 86 75 87 54 88
REMARK SMILES IDX 55 89 63 90 56 91 57 92 61 93 64 94 58 95 59 96 62 97 60 98
REMARK H PARENT 15 11 15 12 1 27 1 28 84 51 52 62
REMARK Flexibility Score: inf
ROOT
ATOM      1  O   UNL     1      -2.040  -2.745  -2.325  1.00  0.00    -0.374 OA
ENDROOT
BRANCH   1   2
ATOM      2  C   UNL     1      -2.156  -2.200  -1.008  1.00  0.00     0.202 C 
BRANCH   2   3
ATOM      3  C   UNL     1      -0.877  -2.198  -0.172  1.00  0.00     0.261 C 
BRANCH   3   4
ATOM      4  O   UNL     1       0.080  -1.319  -0.774  1.00  0.00    -0.459 OA
BRANCH   4   5
ATOM      5  C   UNL     1       1.376  -1.711  -0.704  1.00  0.00     0.365 C 
ATOM      6  O   UNL     1       1.783  -2.640  -0.011  1.00  0.00    -0.245 OA
BRANCH   5   7
ATOM      7  C   UNL     1       2.284  -0.957  -1.685  1.00  0.00     0.304 C 
ATOM      8  C   UNL     1       1.984   1.444  -1.622  1.00  0.00     0.283 C 
ATOM      9  N   UNL     1       1.661   0.215  -2.356  1.00  0.00    -0.319 N 
ATOM     10  S   UNL     1       3.587   1.210  -0.808  1.00  0.00    -0.087 SA
ATOM     11  H   UNL     1       2.016   0.287  -3.309  1.00  0.00     0.348 HD
ATOM     12  H   UNL     1       0.648   0.092  -2.374  1.00  0.00     0.348 HD
ATOM     13  C   UNL     1       3.606  -0.582  -1.029  1.00  0.00     0.153 C 
BRANCH   8  14
ATOM     14  C   UNL     1       0.896   1.945  -0.705  1.00  0.00     0.128 A 
ATOM     15  C   UNL     1       0.614   1.580   0.567  1.00  0.00     0.205 A 
ATOM     16  O   UNL     1      -0.438   2.108   1.298  1.00  0.00    -0.440 OA
ATOM     17  C   UNL     1      -0.953   3.312   0.916  1.00  0.00     0.140 A 
ATOM     18  C   UNL     1       0.079   3.056  -1.285  1.00  0.00     0.205 A 
ATOM     19  C   UNL     1      -1.713   4.012   1.851  1.00  0.00     0.051 A 
ATOM     20  C   UNL     1      -0.737   3.837  -0.348  1.00  0.00     0.068 A 
ATOM     21  O   UNL     1       0.118   3.371  -2.469  1.00  0.00    -0.288 OA
ATOM     22  C   UNL     1      -2.255   5.251   1.513  1.00  0.00     0.043 A 
ATOM     23  C   UNL     1      -1.272   5.079  -0.698  1.00  0.00     0.055 A 
ATOM     24  C   UNL     1      -2.025   5.775   0.243  1.00  0.00     0.124 A 
ATOM     25  F   UNL     1      -2.564   6.954  -0.087  1.00  0.00    -0.207 F 
BRANCH  15  26
ATOM     26  N   UNL     1       1.315   0.667   1.300  1.00  0.00    -0.369 N 
ATOM     27  H   UNL     1       1.039   0.460   2.222  1.00  0.00     0.159 HD
ATOM     28  H   UNL     1       2.096   0.215   0.906  1.00  0.00     0.159 HD
ENDBRANCH  15  26
ENDBRANCH   8  14
ENDBRANCH   5   7
ENDBRANCH   4   5
ENDBRANCH   3   4
ENDBRANCH   2   3
ENDBRANCH   1   2
BRANCH   1  29
ATOM     29  C   UNL     1      -1.307  -1.991  -3.291  1.00  0.00     0.202 C 
BRANCH  29  30
ATOM     30  C   UNL     1      -2.014  -0.783  -3.922  1.00  0.00     0.261 C 
BRANCH  30  31
ATOM     31  O   UNL     1      -2.509   0.171  -2.971  1.00  0.00    -0.460 OA
BRANCH  31  32
ATOM     32  C   UNL     1      -3.844   0.100  -2.739  1.00  0.00     0.338 C 
ATOM     33  O   UNL     1      -4.647  -0.662  -3.247  1.00  0.00    -0.246 OA
BRANCH  32  34
ATOM     34  C   UNL     1      -4.207   1.021  -1.644  1.00  0.00     0.060 A 
ATOM     35  C   UNL     1      -3.868   2.368  -1.702  1.00  0.00     0.016 A 
ATOM     36  C   UNL     1      -4.981   0.532  -0.583  1.00  0.00     0.016 A 
ATOM     37  C   UNL     1      -4.335   3.226  -0.703  1.00  0.00     0.010 A 
ATOM     38  C   UNL     1      -5.442   1.397   0.417  1.00  0.00     0.010 A 
ATOM     39  C   UNL     1      -5.132   2.760   0.364  1.00  0.00    -0.014 A 
BRANCH  39  40
ATOM     40  C   UNL     1      -5.721   3.748   1.314  1.00  0.00     0.031 A 
ATOM     41  C   UNL     1      -5.325   3.820   2.762  1.00  0.00     0.074 A 
ATOM     42  C   UNL     1      -6.595   4.655   0.830  1.00  0.00     0.049 A 
ATOM     43  N   UNL     1      -5.535   4.792   3.618  1.00  0.00    -0.248 NA
ATOM     44  C   UNL     1      -4.587   2.681   3.328  1.00  0.00     0.031 C 
ATOM     45  C   UNL     1      -7.109   4.668  -0.540  1.00  0.00     0.029 A 
ATOM     46  N   UNL     1      -7.180   5.751   1.416  1.00  0.00    -0.354 N 
ATOM     47  C   UNL     1      -4.907   4.413   4.795  1.00  0.00     0.074 A 
ATOM     48  C   UNL     1      -4.358   3.093   4.571  1.00  0.00     0.031 C 
ATOM     49  C   UNL     1      -7.882   5.750  -0.708  1.00  0.00     0.029 A 
ATOM     50  C   UNL     1      -7.954   6.487   0.550  1.00  0.00     0.049 A 
ATOM     51  H   UNL     1      -7.057   5.987   2.364  1.00  0.00     0.167 HD
ATOM     52  C   UNL     1      -4.777   5.117   5.944  1.00  0.00     0.037 A 
ATOM     53  C   UNL     1      -8.642   7.630   0.737  1.00  0.00     0.037 A 
ATOM     54  C   UNL     1      -5.388   6.397   6.199  1.00  0.00     0.049 A 
ATOM     55  C   UNL     1      -8.587   8.320   2.070  1.00  0.00     0.074 A 
ATOM     56  C   UNL     1      -5.285   7.188   7.332  1.00  0.00     0.029 A 
ATOM     57  N   UNL     1      -6.250   7.052   5.334  1.00  0.00    -0.354 N 
ATOM     58  N   UNL     1      -7.870   8.019   3.125  1.00  0.00    -0.248 NA
ATOM     59  C   UNL     1      -9.438   9.507   2.243  1.00  0.00     0.031 C 
ATOM     60  C   UNL     1      -6.141   8.282   7.183  1.00  0.00     0.029 A 
ATOM     61  C   UNL     1      -6.733   8.205   5.934  1.00  0.00     0.049 A 
ATOM     62  H   UNL     1      -6.484   6.744   4.429  1.00  0.00     0.167 HD
ATOM     63  C   UNL     1      -8.166   8.986   4.075  1.00  0.00     0.074 A 
ATOM     64  C   UNL     1      -9.120   9.892   3.472  1.00  0.00     0.031 C 
ATOM     65  C   UNL     1      -7.685   9.105   5.335  1.00  0.00     0.037 A 
BRANCH  52  66
ATOM     66  C   UNL     1      -3.918   4.547   7.033  1.00  0.00     0.064 A 
ATOM     67  C   UNL     1      -2.519   4.619   6.949  1.00  0.00     0.173 A 
ATOM     68  C   UNL     1      -4.484   4.075   8.226  1.00  0.00     0.173 A 
ATOM     69  F   UNL     1      -1.933   5.062   5.827  1.00  0.00    -0.203 F 
ATOM     70  C   UNL     1      -1.718   4.246   8.025  1.00  0.00     0.198 A 
ATOM     71  C   UNL     1      -3.680   3.716   9.305  1.00  0.00     0.198 A 
ATOM     72  F   UNL     1      -5.817   4.001   8.358  1.00  0.00    -0.203 F 
ATOM     73  F   UNL     1      -0.384   4.325   7.925  1.00  0.00    -0.200 F 
ATOM     74  C   UNL     1      -2.299   3.806   9.206  1.00  0.00     0.200 A 
ATOM     75  F   UNL     1      -4.242   3.306  10.451  1.00  0.00    -0.200 F 
ATOM     76  F   UNL     1      -1.528   3.475  10.251  1.00  0.00    -0.200 F 
ENDBRANCH  52  66
BRANCH  53  77
ATOM     77  C   UNL     1      -9.432   8.196  -0.388  1.00  0.00     0.064 A 
ATOM     78  C   UNL     1      -9.062   9.399  -1.002  1.00  0.00     0.173 A 
ATOM     79  C   UNL     1     -10.558   7.525  -0.888  1.00  0.00     0.173 A 
ATOM     80  F   UNL     1      -8.007  10.089  -0.544  1.00  0.00    -0.203 F 
ATOM     81  C   UNL     1      -9.791   9.912  -2.073  1.00  0.00     0.198 A 
ATOM     82  C   UNL     1     -11.267   8.022  -1.979  1.00  0.00     0.198 A 
ATOM     83  F   UNL     1     -10.953   6.370  -0.334  1.00  0.00    -0.203 F 
ATOM     84  F   UNL     1      -9.437  11.082  -2.623  1.00  0.00    -0.200 F 
ATOM     85  C   UNL     1     -10.886   9.218  -2.567  1.00  0.00     0.200 A 
ATOM     86  F   UNL     1     -12.314   7.340  -2.462  1.00  0.00    -0.200 F 
ATOM     87  F   UNL     1     -11.577   9.704  -3.607  1.00  0.00    -0.200 F 
ENDBRANCH  53  77
BRANCH  65  88
ATOM     88  C   UNL     1      -8.170  10.253   6.171  1.00  0.00     0.064 A 
ATOM     89  C   UNL     1      -9.458  10.256   6.726  1.00  0.00     0.173 A 
ATOM     90  C   UNL     1      -7.306  11.306   6.509  1.00  0.00     0.173 A 
ATOM     91  F   UNL     1     -10.325   9.278   6.423  1.00  0.00    -0.203 F 
ATOM     92  C   UNL     1      -9.862  11.270   7.590  1.00  0.00     0.198 A 
ATOM     93  C   UNL     1      -7.705  12.304   7.394  1.00  0.00     0.198 A 
ATOM     94  F   UNL     1      -6.061  11.345   6.011  1.00  0.00    -0.203 F 
ATOM     95  F   UNL     1     -11.103  11.262   8.096  1.00  0.00    -0.200 F 
ATOM     96  C   UNL     1      -8.982  12.285   7.934  1.00  0.00     0.200 A 
ATOM     97  F   UNL     1      -6.846  13.274   7.738  1.00  0.00    -0.200 F 
ATOM     98  F   UNL     1      -9.363  13.245   8.788  1.00  0.00    -0.200 F 
ENDBRANCH  65  88
ENDBRANCH  39  40
ENDBRANCH  32  34
ENDBRANCH  31  32
ENDBRANCH  30  31
ENDBRANCH  29  30
ENDBRANCH   1  29
TORSDOF 16
