REMARK SMILES Cn1cc([C@@H]2CC(OCCOCCOC(=O)c3ccc(-c4c5nc(c(-c6c(F)c(F)c(F)c(F)c6F)c6ccc([nH]6)c(-c6c(F)c(F)c(F)c(F)c6F)c6nc(c(-c7c(F)c(F)c(F)c(F)c7F)c7ccc4[nH]7)C=C6)C=C5)cc3)=Nc3c2sc(C(=O)[O-])c3-c2ccc(Cl)cc2)cn1
REMARK SMILES IDX 12 1 11 2 10 3 9 4 8 5 7 6 5 7 6 8 82 9 81 10 83 11 80 12
REMARK SMILES IDX 88 13 84 14 4 15 1 16 2 17 3 18 97 19 96 20 89 21 90 22
REMARK SMILES IDX 95 23 91 24 94 25 92 26 93 27 85 28 86 29 87 30 13 31 14 32
REMARK SMILES IDX 15 33 16 34 17 35 18 36 79 37 19 38 78 39 20 40 21 41 22 42
REMARK SMILES IDX 72 43 23 44 77 45 71 46 73 47 24 48 76 49 70 50 69 51 25 53
REMARK SMILES IDX 57 54 37 55 56 56 38 57 41 58 55 59 74 60 39 61 40 62 54 64
REMARK SMILES IDX 75 65 42 66 26 67 27 68 35 69 28 70 29 71 33 72 36 73 30 74
REMARK SMILES IDX 31 75 34 76 32 77 58 78 59 79 67 80 60 81 61 82 65 83 68 84
REMARK SMILES IDX 62 85 63 86 66 87 64 88 43 89 44 90 52 91 45 92 46 93 50 94
REMARK SMILES IDX 53 95 47 96 48 97 51 98 49 99
REMARK H PARENT 73 52 41 63
REMARK Flexibility Score: inf
ROOT
ATOM      1  C   UNL     1       1.140  -3.322  -1.707  1.00  0.00     0.202 C 
ENDROOT
BRANCH   1   2
ATOM      2  O   UNL     1       1.708  -2.658  -2.836  1.00  0.00    -0.374 OA
BRANCH   2   3
ATOM      3  C   UNL     1       2.671  -3.436  -3.552  1.00  0.00     0.202 C 
BRANCH   3   4
ATOM      4  C   UNL     1       4.072  -3.349  -2.945  1.00  0.00     0.259 C 
BRANCH   4   5
ATOM      5  O   UNL     1       4.112  -3.864  -1.595  1.00  0.00    -0.478 OA
BRANCH   5   6
ATOM      6  C   UNL     1       3.784  -3.152  -0.489  1.00  0.00     0.189 C 
ATOM      7  C   UNL     1       3.053  -0.909   0.576  1.00  0.00     0.074 C 
ATOM      8  C   UNL     1       3.744  -1.631  -0.598  1.00  0.00     0.111 C 
ATOM      9  C   UNL     1       2.984  -1.821   1.751  1.00  0.00     0.040 A 
ATOM     10  C   UNL     1       3.197  -3.170   1.730  1.00  0.00     0.090 A 
ATOM     11  S   UNL     1       2.613  -1.264   3.307  1.00  0.00    -0.135 S 
ATOM     12  N   UNL     1       3.557  -3.867   0.571  1.00  0.00    -0.216 NA
ATOM     13  C   UNL     1       2.965  -3.808   2.997  1.00  0.00     0.028 A 
ATOM     14  C   UNL     1       2.663  -2.854   3.974  1.00  0.00     0.060 A 
BRANCH   7  15
ATOM     15  C   UNL     1       1.702  -0.292   0.251  1.00  0.00    -0.001 A 
ATOM     16  C   UNL     1      -1.890   0.087  -0.029  1.00  0.00     0.173 C 
ATOM     17  N   UNL     1      -0.449   0.174   0.013  1.00  0.00    -0.276 N 
ATOM     18  C   UNL     1       0.420  -0.785   0.446  1.00  0.00     0.112 A 
ATOM     19  N   UNL     1       0.167   1.295  -0.391  1.00  0.00    -0.182 NA
ATOM     20  C   UNL     1       1.464   1.015  -0.247  1.00  0.00     0.139 A 
ENDBRANCH   7  15
BRANCH  13  21
ATOM     21  C   UNL     1       3.083  -5.239   3.292  1.00  0.00    -0.015 A 
ATOM     22  C   UNL     1       2.030  -5.950   3.892  1.00  0.00     0.010 A 
ATOM     23  C   UNL     1       4.287  -5.907   3.030  1.00  0.00     0.010 A 
ATOM     24  C   UNL     1       2.215  -7.271   4.313  1.00  0.00     0.021 A 
ATOM     25  C   UNL     1       4.466  -7.234   3.434  1.00  0.00     0.021 A 
ATOM     26  C   UNL     1       3.439  -7.901   4.097  1.00  0.00     0.041 A 
ATOM     27  Cl  UNL     1       3.689  -9.504   4.670  1.00  0.00    -0.084 Cl
ENDBRANCH  13  21
BRANCH  14  28
ATOM     28  C   UNL     1       2.411  -2.927   5.399  1.00  0.00     0.082 C 
ATOM     29  O   UNL     1       1.919  -2.072   6.123  1.00  0.00    -0.544 OA
ATOM     30  O   UNL     1       2.812  -4.087   5.956  1.00  0.00    -0.544 OA
ENDBRANCH  14  28
ENDBRANCH   5   6
ENDBRANCH   4   5
ENDBRANCH   3   4
ENDBRANCH   2   3
ENDBRANCH   1   2
BRANCH   1  31
ATOM     31  C   UNL     1      -0.366  -3.451  -1.797  1.00  0.00     0.261 C 
BRANCH  31  32
ATOM     32  O   UNL     1      -0.642  -4.659  -2.478  1.00  0.00    -0.460 OA
BRANCH  32  33
ATOM     33  C   UNL     1      -0.329  -4.678  -3.788  1.00  0.00     0.338 C 
ATOM     34  O   UNL     1      -0.196  -3.736  -4.556  1.00  0.00    -0.246 OA
BRANCH  33  35
ATOM     35  C   UNL     1      -0.325  -6.087  -4.164  1.00  0.00     0.060 A 
ATOM     36  C   UNL     1      -0.808  -6.353  -5.439  1.00  0.00     0.016 A 
ATOM     37  C   UNL     1      -0.259  -7.057  -3.149  1.00  0.00     0.016 A 
ATOM     38  C   UNL     1      -1.552  -7.492  -5.591  1.00  0.00     0.010 A 
ATOM     39  C   UNL     1      -1.030  -8.175  -3.292  1.00  0.00     0.010 A 
ATOM     40  C   UNL     1      -1.750  -8.315  -4.473  1.00  0.00    -0.014 A 
BRANCH  40  41
ATOM     41  C   UNL     1      -2.603  -9.464  -4.623  1.00  0.00     0.031 A 
ATOM     42  C   UNL     1      -1.877 -10.522  -5.343  1.00  0.00     0.074 A 
ATOM     43  C   UNL     1      -3.837  -9.542  -4.094  1.00  0.00     0.049 A 
ATOM     44  N   UNL     1      -1.958 -10.782  -6.605  1.00  0.00    -0.248 NA
ATOM     45  C   UNL     1      -0.725 -11.147  -4.673  1.00  0.00     0.031 C 
ATOM     46  C   UNL     1      -4.481  -8.620  -3.155  1.00  0.00     0.029 A 
ATOM     47  N   UNL     1      -4.761 -10.533  -4.241  1.00  0.00    -0.354 N 
ATOM     48  C   UNL     1      -1.053 -11.816  -6.805  1.00  0.00     0.074 A 
ATOM     49  C   UNL     1      -0.140 -11.769  -5.699  1.00  0.00     0.031 C 
ATOM     50  C   UNL     1      -5.594  -9.202  -2.647  1.00  0.00     0.029 A 
ATOM     51  C   UNL     1      -5.814 -10.465  -3.330  1.00  0.00     0.049 A 
ATOM     52  H   UNL     1      -4.691 -11.234  -4.928  1.00  0.00     0.167 HD
ATOM     53  C   UNL     1      -1.405 -12.858  -7.605  1.00  0.00     0.037 A 
ATOM     54  C   UNL     1      -6.749 -11.431  -3.147  1.00  0.00     0.037 A 
ATOM     55  C   UNL     1      -2.554 -12.502  -8.405  1.00  0.00     0.049 A 
ATOM     56  C   UNL     1      -6.772 -12.247  -4.387  1.00  0.00     0.074 A 
ATOM     57  C   UNL     1      -2.800 -11.712  -9.507  1.00  0.00     0.029 A 
ATOM     58  N   UNL     1      -3.747 -12.675  -7.753  1.00  0.00    -0.354 N 
ATOM     59  N   UNL     1      -7.185 -11.781  -5.534  1.00  0.00    -0.248 NA
ATOM     60  C   UNL     1      -5.964 -13.460  -4.460  1.00  0.00     0.031 C 
ATOM     61  C   UNL     1      -4.169 -11.317  -9.420  1.00  0.00     0.029 A 
ATOM     62  C   UNL     1      -4.742 -11.913  -8.299  1.00  0.00     0.049 A 
ATOM     63  H   UNL     1      -3.873 -13.277  -6.983  1.00  0.00     0.167 HD
ATOM     64  C   UNL     1      -6.353 -12.374  -6.464  1.00  0.00     0.074 A 
ATOM     65  C   UNL     1      -5.749 -13.509  -5.778  1.00  0.00     0.031 C 
ATOM     66  C   UNL     1      -5.977 -11.692  -7.584  1.00  0.00     0.037 A 
BRANCH  53  67
ATOM     67  C   UNL     1      -1.114 -14.310  -7.278  1.00  0.00     0.064 A 
ATOM     68  C   UNL     1      -1.477 -15.290  -8.224  1.00  0.00     0.173 A 
ATOM     69  C   UNL     1      -0.795 -14.807  -5.993  1.00  0.00     0.173 A 
ATOM     70  F   UNL     1      -1.816 -14.938  -9.473  1.00  0.00    -0.203 F 
ATOM     71  C   UNL     1      -1.584 -16.642  -7.885  1.00  0.00     0.198 A 
ATOM     72  C   UNL     1      -0.856 -16.160  -5.673  1.00  0.00     0.198 A 
ATOM     73  F   UNL     1      -0.520 -14.015  -4.953  1.00  0.00    -0.203 F 
ATOM     74  F   UNL     1      -2.046 -17.519  -8.786  1.00  0.00    -0.200 F 
ATOM     75  C   UNL     1      -1.279 -17.075  -6.608  1.00  0.00     0.200 A 
ATOM     76  F   UNL     1      -0.579 -16.551  -4.420  1.00  0.00    -0.200 F 
ATOM     77  F   UNL     1      -1.437 -18.359  -6.264  1.00  0.00    -0.200 F 
ENDBRANCH  53  67
BRANCH  54  78
ATOM     78  C   UNL     1      -7.413 -11.880  -1.901  1.00  0.00     0.064 A 
ATOM     79  C   UNL     1      -8.568 -12.679  -1.940  1.00  0.00     0.173 A 
ATOM     80  C   UNL     1      -6.751 -11.796  -0.662  1.00  0.00     0.173 A 
ATOM     81  F   UNL     1      -9.236 -12.843  -3.091  1.00  0.00    -0.203 F 
ATOM     82  C   UNL     1      -9.010 -13.388  -0.817  1.00  0.00     0.198 A 
ATOM     83  C   UNL     1      -7.193 -12.503   0.458  1.00  0.00     0.198 A 
ATOM     84  F   UNL     1      -5.606 -11.110  -0.543  1.00  0.00    -0.203 F 
ATOM     85  F   UNL     1     -10.075 -14.197  -0.911  1.00  0.00    -0.200 F 
ATOM     86  C   UNL     1      -8.312 -13.312   0.377  1.00  0.00     0.200 A 
ATOM     87  F   UNL     1      -6.487 -12.452   1.596  1.00  0.00    -0.200 F 
ATOM     88  F   UNL     1      -8.689 -14.048   1.431  1.00  0.00    -0.200 F 
ENDBRANCH  54  78
BRANCH  66  89
ATOM     89  C   UNL     1      -6.841 -10.546  -8.005  1.00  0.00     0.064 A 
ATOM     90  C   UNL     1      -6.951  -9.333  -7.306  1.00  0.00     0.173 A 
ATOM     91  C   UNL     1      -7.531 -10.663  -9.218  1.00  0.00     0.173 A 
ATOM     92  F   UNL     1      -6.262  -9.125  -6.176  1.00  0.00    -0.203 F 
ATOM     93  C   UNL     1      -7.749  -8.296  -7.789  1.00  0.00     0.198 A 
ATOM     94  C   UNL     1      -8.297  -9.616  -9.715  1.00  0.00     0.198 A 
ATOM     95  F   UNL     1      -7.426 -11.788  -9.942  1.00  0.00    -0.203 F 
ATOM     96  F   UNL     1      -7.854  -7.150  -7.100  1.00  0.00    -0.200 F 
ATOM     97  C   UNL     1      -8.415  -8.437  -8.996  1.00  0.00     0.200 A 
ATOM     98  F   UNL     1      -8.905  -9.743 -10.902  1.00  0.00    -0.200 F 
ATOM     99  F   UNL     1      -9.155  -7.429  -9.479  1.00  0.00    -0.200 F 
ENDBRANCH  66  89
ENDBRANCH  40  41
ENDBRANCH  33  35
ENDBRANCH  32  33
ENDBRANCH  31  32
ENDBRANCH   1  31
TORSDOF 16
