REMARK SMILES O=C(C[NH+]1CCN(c2nccc(N3CCCCC3)n2)CC1)OCCOCCOC(=O)c1ccc(-c2c3nc(c(-c4c(F)c(F)c(F)c(F)c4F)c4ccc([nH]4)c(-c4c(F)c(F)c(F)c(F)c4F)c4nc(c(-c5c(F)c(F)c(F)c(F)c5F)c5ccc2[nH]5)C=C4)C=C3)cc1
REMARK SMILES IDX 24 1 23 2 22 3 2 4 1 5 3 6 4 7 5 8 21 9 6 11 20 12 7 13 8 14
REMARK SMILES IDX 9 15 19 16 10 17 12 18 11 19 13 20 14 21 18 22 15 23 17 24
REMARK SMILES IDX 16 25 25 26 26 27 27 28 28 29 29 30 30 31 31 32 32 33 93 34
REMARK SMILES IDX 33 35 92 36 34 37 35 38 36 39 86 40 37 41 91 42 85 43 87 44
REMARK SMILES IDX 38 45 90 46 84 47 83 48 39 50 71 51 51 52 70 53 52 54 55 55
REMARK SMILES IDX 69 56 88 57 53 58 54 59 68 61 89 62 56 63 40 64 41 65 49 66
REMARK SMILES IDX 42 67 43 68 47 69 50 70 44 71 45 72 48 73 46 74 72 75 73 76
REMARK SMILES IDX 81 77 74 78 75 79 79 80 82 81 76 82 77 83 80 84 78 85 57 86
REMARK SMILES IDX 58 87 66 88 59 89 60 90 64 91 67 92 61 93 62 94 65 95 63 96
REMARK H PARENT 4 10 87 49 55 60
REMARK Flexibility Score: inf
ROOT
ATOM      1  C   UNL     1       4.136   1.548  -0.095  1.00  0.00     0.202 C 
ENDROOT
BRANCH   1   2
ATOM      2  C   UNL     1       3.745   0.736  -1.328  1.00  0.00     0.261 C 
BRANCH   2   3
ATOM      3  O   UNL     1       2.441   0.166  -1.213  1.00  0.00    -0.459 OA
BRANCH   3   4
ATOM      4  C   UNL     1       2.211  -1.124  -0.870  1.00  0.00     0.361 C 
ATOM      5  O   UNL     1       1.135  -1.629  -1.200  1.00  0.00    -0.245 OA
BRANCH   4   6
ATOM      6  C   UNL     1       3.152  -1.875   0.077  1.00  0.00     0.386 C 
BRANCH   6   7
ATOM      7  N   UNL     1       4.381  -2.459  -0.523  1.00  0.00    -0.323 N 
ATOM      8  C   UNL     1       5.633  -1.789  -0.056  1.00  0.00     0.284 C 
ATOM      9  C   UNL     1       4.521  -3.884  -0.075  1.00  0.00     0.284 C 
ATOM     10  H   UNL     1       4.277  -2.351  -1.532  1.00  0.00     0.348 HD
ATOM     11  C   UNL     1       5.921  -1.843   1.461  1.00  0.00     0.181 C 
ATOM     12  C   UNL     1       4.804  -4.077   1.439  1.00  0.00     0.181 C 
ATOM     13  N   UNL     1       5.878  -3.221   1.918  1.00  0.00    -0.329 N 
BRANCH  13  14
ATOM     14  C   UNL     1       7.103  -3.741   2.251  1.00  0.00     0.227 A 
ATOM     15  N   UNL     1       7.727  -3.167   3.293  1.00  0.00    -0.221 NA
ATOM     16  N   UNL     1       7.633  -4.729   1.514  1.00  0.00    -0.196 NA
ATOM     17  C   UNL     1       8.920  -3.662   3.641  1.00  0.00     0.119 A 
ATOM     18  C   UNL     1       8.850  -5.181   1.867  1.00  0.00     0.134 A 
ATOM     19  C   UNL     1       9.524  -4.684   2.964  1.00  0.00     0.067 A 
BRANCH  18  20
ATOM     20  N   UNL     1       9.481  -6.138   1.090  1.00  0.00    -0.356 N 
ATOM     21  C   UNL     1       9.572  -5.919  -0.346  1.00  0.00     0.118 C 
ATOM     22  C   UNL     1       9.551  -7.496   1.606  1.00  0.00     0.118 C 
ATOM     23  C   UNL     1       8.637  -6.845  -1.116  1.00  0.00     0.022 C 
ATOM     24  C   UNL     1       8.576  -8.399   0.852  1.00  0.00     0.022 C 
ATOM     25  C   UNL     1       8.789  -8.294  -0.657  1.00  0.00     0.004 C 
ENDBRANCH  18  20
ENDBRANCH  13  14
ENDBRANCH   6   7
ENDBRANCH   4   6
ENDBRANCH   3   4
ENDBRANCH   2   3
ENDBRANCH   1   2
BRANCH   1  26
ATOM     26  O   UNL     1       3.960   0.859   1.142  1.00  0.00    -0.374 OA
BRANCH  26  27
ATOM     27  C   UNL     1       2.734   1.166   1.825  1.00  0.00     0.202 C 
BRANCH  27  28
ATOM     28  C   UNL     1       2.924   2.221   2.917  1.00  0.00     0.261 C 
BRANCH  28  29
ATOM     29  O   UNL     1       3.336   3.458   2.324  1.00  0.00    -0.460 OA
BRANCH  29  30
ATOM     30  C   UNL     1       4.675   3.658   2.278  1.00  0.00     0.338 C 
ATOM     31  O   UNL     1       5.542   3.041   2.873  1.00  0.00    -0.246 OA
BRANCH  30  32
ATOM     32  C   UNL     1       4.952   4.632   1.203  1.00  0.00     0.060 A 
ATOM     33  C   UNL     1       6.122   4.466   0.445  1.00  0.00     0.016 A 
ATOM     34  C   UNL     1       4.050   5.656   0.901  1.00  0.00     0.016 A 
ATOM     35  C   UNL     1       6.409   5.344  -0.597  1.00  0.00     0.010 A 
ATOM     36  C   UNL     1       4.338   6.536  -0.136  1.00  0.00     0.010 A 
ATOM     37  C   UNL     1       5.534   6.403  -0.862  1.00  0.00    -0.014 A 
BRANCH  37  38
ATOM     38  C   UNL     1       5.944   7.528  -1.725  1.00  0.00     0.031 A 
ATOM     39  C   UNL     1       6.468   8.758  -1.047  1.00  0.00     0.074 A 
ATOM     40  C   UNL     1       5.767   7.488  -3.054  1.00  0.00     0.049 A 
ATOM     41  N   UNL     1       6.689   9.950  -1.533  1.00  0.00    -0.248 NA
ATOM     42  C   UNL     1       6.752   8.627   0.393  1.00  0.00     0.031 C 
ATOM     43  C   UNL     1       5.289   6.334  -3.810  1.00  0.00     0.029 A 
ATOM     44  N   UNL     1       5.933   8.470  -3.997  1.00  0.00    -0.354 N 
ATOM     45  C   UNL     1       7.106  10.717  -0.454  1.00  0.00     0.074 A 
ATOM     46  C   UNL     1       7.085   9.866   0.714  1.00  0.00     0.031 C 
ATOM     47  C   UNL     1       5.164   6.685  -5.102  1.00  0.00     0.029 A 
ATOM     48  C   UNL     1       5.512   8.098  -5.248  1.00  0.00     0.049 A 
ATOM     49  H   UNL     1       6.316   9.354  -3.795  1.00  0.00     0.167 HD
ATOM     50  C   UNL     1       7.471  12.020  -0.444  1.00  0.00     0.037 A 
ATOM     51  C   UNL     1       5.385   8.834  -6.369  1.00  0.00     0.037 A 
ATOM     52  C   UNL     1       7.482  12.850  -1.617  1.00  0.00     0.049 A 
ATOM     53  C   UNL     1       5.759  10.294  -6.332  1.00  0.00     0.074 A 
ATOM     54  C   UNL     1       7.863  14.173  -1.737  1.00  0.00     0.029 A 
ATOM     55  N   UNL     1       7.079  12.430  -2.878  1.00  0.00    -0.354 N 
ATOM     56  N   UNL     1       6.180  11.015  -5.321  1.00  0.00    -0.248 NA
ATOM     57  C   UNL     1       5.641  11.041  -7.592  1.00  0.00     0.031 C 
ATOM     58  C   UNL     1       7.641  14.569  -3.060  1.00  0.00     0.029 A 
ATOM     59  C   UNL     1       7.181  13.476  -3.779  1.00  0.00     0.049 A 
ATOM     60  H   UNL     1       6.767  11.523  -3.099  1.00  0.00     0.167 HD
ATOM     61  C   UNL     1       6.408  12.289  -5.825  1.00  0.00     0.074 A 
ATOM     62  C   UNL     1       6.077  12.242  -7.234  1.00  0.00     0.031 C 
ATOM     63  C   UNL     1       6.858  13.396  -5.182  1.00  0.00     0.037 A 
BRANCH  50  64
ATOM     64  C   UNL     1       7.837  12.619   0.882  1.00  0.00     0.064 A 
ATOM     65  C   UNL     1       8.995  12.234   1.576  1.00  0.00     0.173 A 
ATOM     66  C   UNL     1       7.003  13.575   1.480  1.00  0.00     0.173 A 
ATOM     67  F   UNL     1       9.816  11.307   1.059  1.00  0.00    -0.203 F 
ATOM     68  C   UNL     1       9.280  12.752   2.837  1.00  0.00     0.198 A 
ATOM     69  C   UNL     1       7.310  14.117   2.725  1.00  0.00     0.198 A 
ATOM     70  F   UNL     1       5.883  13.978   0.861  1.00  0.00    -0.203 F 
ATOM     71  F   UNL     1      10.353  12.315   3.512  1.00  0.00    -0.200 F 
ATOM     72  C   UNL     1       8.440  13.696   3.408  1.00  0.00     0.200 A 
ATOM     73  F   UNL     1       6.502  15.036   3.271  1.00  0.00    -0.200 F 
ATOM     74  F   UNL     1       8.713  14.189   4.624  1.00  0.00    -0.200 F 
ENDBRANCH  50  64
BRANCH  51  75
ATOM     75  C   UNL     1       4.873   8.197  -7.608  1.00  0.00     0.064 A 
ATOM     76  C   UNL     1       5.722   7.948  -8.694  1.00  0.00     0.173 A 
ATOM     77  C   UNL     1       3.534   7.793  -7.720  1.00  0.00     0.173 A 
ATOM     78  F   UNL     1       7.005   8.335  -8.642  1.00  0.00    -0.203 F 
ATOM     79  C   UNL     1       5.251   7.322  -9.847  1.00  0.00     0.198 A 
ATOM     80  C   UNL     1       3.070   7.146  -8.864  1.00  0.00     0.198 A 
ATOM     81  F   UNL     1       2.681   8.007  -6.708  1.00  0.00    -0.203 F 
ATOM     82  F   UNL     1       6.079   7.120 -10.882  1.00  0.00    -0.200 F 
ATOM     83  C   UNL     1       3.928   6.913  -9.927  1.00  0.00     0.200 A 
ATOM     84  F   UNL     1       1.794   6.740  -8.931  1.00  0.00    -0.200 F 
ATOM     85  F   UNL     1       3.481   6.298 -11.030  1.00  0.00    -0.200 F 
ENDBRANCH  51  75
BRANCH  63  86
ATOM     86  C   UNL     1       7.074  14.635  -6.001  1.00  0.00     0.064 A 
ATOM     87  C   UNL     1       6.003  15.411  -6.466  1.00  0.00     0.173 A 
ATOM     88  C   UNL     1       8.377  15.092  -6.251  1.00  0.00     0.173 A 
ATOM     89  F   UNL     1       4.739  15.010  -6.262  1.00  0.00    -0.203 F 
ATOM     90  C   UNL     1       6.230  16.595  -7.163  1.00  0.00     0.198 A 
ATOM     91  C   UNL     1       8.600  16.290  -6.923  1.00  0.00     0.198 A 
ATOM     92  F   UNL     1       9.435  14.389  -5.819  1.00  0.00    -0.203 F 
ATOM     93  F   UNL     1       5.194  17.306  -7.627  1.00  0.00    -0.200 F 
ATOM     94  C   UNL     1       7.527  17.038  -7.381  1.00  0.00     0.200 A 
ATOM     95  F   UNL     1       9.852  16.725  -7.117  1.00  0.00    -0.200 F 
ATOM     96  F   UNL     1       7.742  18.187  -8.037  1.00  0.00    -0.200 F 
ENDBRANCH  63  86
ENDBRANCH  37  38
ENDBRANCH  30  32
ENDBRANCH  29  30
ENDBRANCH  28  29
ENDBRANCH  27  28
ENDBRANCH  26  27
ENDBRANCH   1  26
TORSDOF 17
