REMARK SMILES CC1=Nc2ncnn2[C@H](c2ccc(F)cc2)[C@@H]1C(=O)OCCOCCOC(=O)c1ccc(-c2c3nc(c(-c4c(F)c(F)c(F)c(F)c4F)c4ccc([nH]4)c(-c4c(F)c(F)c(F)c(F)c4F)c4nc(c(-c5c(F)c(F)c(F)c(F)c5F)c5ccc2[nH]5)C=C4)C=C3)cc1
REMARK SMILES IDX 24 1 23 2 22 3 21 4 20 5 18 6 19 7 17 8 1 9 2 10 3 11 4 12
REMARK SMILES IDX 9 13 5 14 8 15 6 16 7 17 10 18 11 19 16 20 12 21 15 22 13 23
REMARK SMILES IDX 14 24 25 25 26 26 27 27 28 28 29 29 30 30 91 31 31 32 90 33
REMARK SMILES IDX 32 34 33 35 34 36 84 37 35 38 89 39 83 40 85 41 36 42 88 43
REMARK SMILES IDX 82 44 81 45 37 47 69 48 49 49 68 50 50 51 53 52 67 53 86 54
REMARK SMILES IDX 51 55 52 56 66 58 87 59 54 60 38 61 39 62 47 63 40 64 41 65
REMARK SMILES IDX 45 66 48 67 42 68 43 69 46 70 44 71 70 72 71 73 79 74 72 75
REMARK SMILES IDX 73 76 77 77 80 78 74 79 75 80 78 81 76 82 55 83 56 84 64 85
REMARK SMILES IDX 57 86 58 87 62 88 65 89 59 90 60 91 63 92 61 93
REMARK H PARENT 85 46 53 57
REMARK Flexibility Score: inf
ROOT
ATOM      1  C   UNL     1       3.836  -4.704   0.135  1.00  0.00     0.202 C 
ENDROOT
BRANCH   1   2
ATOM      2  O   UNL     1       4.886  -3.589  -0.408  1.00  0.00    -0.374 OA
BRANCH   2   3
ATOM      3  C   UNL     1       5.343  -2.323   0.113  1.00  0.00     0.202 C 
BRANCH   3   4
ATOM      4  C   UNL     1       4.534  -1.015  -0.047  1.00  0.00     0.261 C 
BRANCH   4   5
ATOM      5  O   UNL     1       3.139  -1.094   0.265  1.00  0.00    -0.463 OA
BRANCH   5   6
ATOM      6  C   UNL     1       2.354  -1.629  -0.700  1.00  0.00     0.317 C 
ATOM      7  O   UNL     1       2.721  -1.910  -1.831  1.00  0.00    -0.251 OA
BRANCH   6   8
ATOM      8  C   UNL     1       0.956  -1.868  -0.199  1.00  0.00     0.173 C 
ATOM      9  C   UNL     1       0.561   0.692   0.047  1.00  0.00     0.063 C 
ATOM     10  C   UNL     1       0.362  -0.710   0.590  1.00  0.00     0.036 C 
ATOM     11  N   UNL     1      -0.410  -0.833   1.625  1.00  0.00    -0.220 NA
ATOM     12  C   UNL     1      -0.748  -2.072   2.046  1.00  0.00     0.248 A 
ATOM     13  C   UNL     1       0.781  -3.241   0.470  1.00  0.00     0.161 C 
ATOM     14  N   UNL     1      -1.639  -2.432   2.945  1.00  0.00    -0.198 NA
ATOM     15  N   UNL     1      -0.203  -3.213   1.527  1.00  0.00    -0.221 N 
ATOM     16  C   UNL     1      -1.637  -3.797   2.889  1.00  0.00     0.248 A 
ATOM     17  N   UNL     1      -0.794  -4.327   2.001  1.00  0.00    -0.157 NA
BRANCH  13  18
ATOM     18  C   UNL     1       1.992  -4.056   0.908  1.00  0.00    -0.022 A 
ATOM     19  C   UNL     1       1.986  -5.788   0.385  1.00  0.00     0.009 A 
ATOM     20  C   UNL     1       3.494  -3.381   1.626  1.00  0.00     0.009 A 
ATOM     21  C   UNL     1       3.421  -6.815   0.586  1.00  0.00     0.039 A 
ATOM     22  C   UNL     1       4.997  -4.452   1.783  1.00  0.00     0.039 A 
ATOM     23  C   UNL     1       4.941  -6.149   1.251  1.00  0.00     0.123 A 
ATOM     24  F   UNL     1       5.970  -6.968   1.495  1.00  0.00    -0.207 F 
ENDBRANCH  13  18
ENDBRANCH   6   8
ENDBRANCH   5   6
ENDBRANCH   4   5
ENDBRANCH   3   4
ENDBRANCH   2   3
ENDBRANCH   1   2
BRANCH   1  25
ATOM     25  C   UNL     1       3.179  -5.340   2.122  1.00  0.00     0.261 C 
BRANCH  25  26
ATOM     26  O   UNL     1       3.254  -4.504   3.470  1.00  0.00    -0.460 OA
BRANCH  26  27
ATOM     27  C   UNL     1       4.383  -4.470   4.227  1.00  0.00     0.338 C 
ATOM     28  O   UNL     1       5.201  -5.367   4.350  1.00  0.00    -0.246 OA
BRANCH  27  29
ATOM     29  C   UNL     1       4.535  -3.021   4.749  1.00  0.00     0.060 A 
ATOM     30  C   UNL     1       5.517  -3.017   5.728  1.00  0.00     0.016 A 
ATOM     31  C   UNL     1       3.282  -2.595   5.157  1.00  0.00     0.016 A 
ATOM     32  C   UNL     1       5.152  -3.641   6.898  1.00  0.00     0.010 A 
ATOM     33  C   UNL     1       2.840  -3.238   6.282  1.00  0.00     0.010 A 
ATOM     34  C   UNL     1       3.789  -3.917   7.061  1.00  0.00    -0.014 A 
BRANCH  34  35
ATOM     35  C   UNL     1       3.333  -4.681   8.198  1.00  0.00     0.031 A 
ATOM     36  C   UNL     1       3.222  -3.740   9.334  1.00  0.00     0.074 A 
ATOM     37  C   UNL     1       2.975  -5.982   8.164  1.00  0.00     0.049 A 
ATOM     38  N   UNL     1       4.133  -3.497  10.221  1.00  0.00    -0.248 NA
ATOM     39  C   UNL     1       2.204  -2.675   9.220  1.00  0.00     0.031 C 
ATOM     40  C   UNL     1       2.864  -6.917   7.041  1.00  0.00     0.029 A 
ATOM     41  N   UNL     1       2.559  -6.744   9.220  1.00  0.00    -0.354 N 
ATOM     42  C   UNL     1       3.649  -2.384  10.895  1.00  0.00     0.074 A 
ATOM     43  C   UNL     1       2.751  -1.735   9.991  1.00  0.00     0.031 C 
ATOM     44  C   UNL     1       2.174  -8.021   7.432  1.00  0.00     0.029 A 
ATOM     45  C   UNL     1       1.915  -7.936   8.856  1.00  0.00     0.049 A 
ATOM     46  H   UNL     1       2.699  -6.479  10.158  1.00  0.00     0.167 HD
ATOM     47  C   UNL     1       3.664  -2.325  12.253  1.00  0.00     0.037 A 
ATOM     48  C   UNL     1       1.179  -8.693   9.720  1.00  0.00     0.037 A 
ATOM     49  C   UNL     1       4.570  -3.312  12.782  1.00  0.00     0.049 A 
ATOM     50  C   UNL     1       1.604  -8.278  11.091  1.00  0.00     0.074 A 
ATOM     51  C   UNL     1       5.936  -3.495  12.713  1.00  0.00     0.029 A 
ATOM     52  N   UNL     1       4.029  -4.537  13.091  1.00  0.00    -0.354 N 
ATOM     53  N   UNL     1       2.814  -8.463  11.549  1.00  0.00    -0.248 NA
ATOM     54  C   UNL     1       0.858  -7.179  11.691  1.00  0.00     0.031 C 
ATOM     55  C   UNL     1       6.114  -4.898  12.544  1.00  0.00     0.029 A 
ATOM     56  C   UNL     1       4.868  -5.521  12.634  1.00  0.00     0.049 A 
ATOM     57  H   UNL     1       3.178  -4.685  13.563  1.00  0.00     0.167 HD
ATOM     58  C   UNL     1       3.136  -7.265  12.173  1.00  0.00     0.074 A 
ATOM     59  C   UNL     1       1.882  -6.514  12.235  1.00  0.00     0.031 C 
ATOM     60  C   UNL     1       4.432  -6.860  12.300  1.00  0.00     0.037 A 
BRANCH  47  61
ATOM     61  C   UNL     1       2.576  -1.675  13.078  1.00  0.00     0.064 A 
ATOM     62  C   UNL     1       1.256  -1.405  12.639  1.00  0.00     0.173 A 
ATOM     63  C   UNL     1       2.787  -1.517  14.457  1.00  0.00     0.173 A 
ATOM     64  F   UNL     1       0.838  -1.622  11.389  1.00  0.00    -0.203 F 
ATOM     65  C   UNL     1       0.242  -0.993  13.498  1.00  0.00     0.198 A 
ATOM     66  C   UNL     1       1.751  -1.160  15.327  1.00  0.00     0.198 A 
ATOM     67  F   UNL     1       3.988  -1.770  14.997  1.00  0.00    -0.203 F 
ATOM     68  F   UNL     1      -0.984  -0.766  13.005  1.00  0.00    -0.200 F 
ATOM     69  C   UNL     1       0.482  -0.896  14.847  1.00  0.00     0.200 A 
ATOM     70  F   UNL     1       1.978  -1.122  16.646  1.00  0.00    -0.200 F 
ATOM     71  F   UNL     1      -0.520  -0.594  15.682  1.00  0.00    -0.200 F 
ENDBRANCH  47  61
BRANCH  48  72
ATOM     72  C   UNL     1      -0.135  -9.366   9.499  1.00  0.00     0.064 A 
ATOM     73  C   UNL     1      -1.042  -8.874   8.543  1.00  0.00     0.173 A 
ATOM     74  C   UNL     1      -0.661 -10.281  10.435  1.00  0.00     0.173 A 
ATOM     75  F   UNL     1      -0.662  -7.944   7.657  1.00  0.00    -0.203 F 
ATOM     76  C   UNL     1      -2.392  -9.242   8.540  1.00  0.00     0.198 A 
ATOM     77  C   UNL     1      -2.014 -10.653  10.428  1.00  0.00     0.198 A 
ATOM     78  F   UNL     1       0.116 -10.763  11.416  1.00  0.00    -0.203 F 
ATOM     79  F   UNL     1      -3.229  -8.684   7.655  1.00  0.00    -0.200 F 
ATOM     80  C   UNL     1      -2.881 -10.120   9.490  1.00  0.00     0.200 A 
ATOM     81  F   UNL     1      -2.491 -11.478  11.372  1.00  0.00    -0.200 F 
ATOM     82  F   UNL     1      -4.189 -10.414   9.526  1.00  0.00    -0.200 F 
ENDBRANCH  48  72
BRANCH  60  83
ATOM     83  C   UNL     1       5.523  -7.825  11.912  1.00  0.00     0.064 A 
ATOM     84  C   UNL     1       6.436  -8.196  12.906  1.00  0.00     0.173 A 
ATOM     85  C   UNL     1       5.829  -8.184  10.586  1.00  0.00     0.173 A 
ATOM     86  F   UNL     1       6.214  -7.840  14.180  1.00  0.00    -0.203 F 
ATOM     87  C   UNL     1       7.623  -8.849  12.591  1.00  0.00     0.198 A 
ATOM     88  C   UNL     1       7.005  -8.872  10.276  1.00  0.00     0.198 A 
ATOM     89  F   UNL     1       5.039  -7.809   9.573  1.00  0.00    -0.203 F 
ATOM     90  F   UNL     1       8.516  -9.102  13.557  1.00  0.00    -0.200 F 
ATOM     91  C   UNL     1       7.909  -9.185  11.278  1.00  0.00     0.200 A 
ATOM     92  F   UNL     1       7.292  -9.183   9.003  1.00  0.00    -0.200 F 
ATOM     93  F   UNL     1       9.072  -9.780  10.976  1.00  0.00    -0.200 F 
ENDBRANCH  60  83
ENDBRANCH  34  35
ENDBRANCH  27  29
ENDBRANCH  26  27
ENDBRANCH  25  26
ENDBRANCH   1  25
TORSDOF 15
