REMARK SMILES N#CNC(=O)[C@H]1C[C@@H]1C(=O)OCCOCCOC(=O)c1ccc(-c2c3nc(c(-c4c(F)c(F)c(F)c(F)c4F)c4ccc([nH]4)c(-c4c(F)c(F)c(F)c(F)c4F)c4nc(c(-c5c(F)c(F)c(F)c(F)c5F)c5ccc2[nH]5)C=C4)C=C3)cc1
REMARK SMILES IDX 14 1 13 2 12 3 11 4 9 5 10 6 8 7 6 8 7 9 4 10 3 11 5 13 2 14
REMARK SMILES IDX 1 15 15 16 16 17 17 18 18 19 19 20 20 21 21 22 82 23 22 24
REMARK SMILES IDX 81 25 23 26 24 27 25 28 75 29 26 30 80 31 74 32 76 33 27 34
REMARK SMILES IDX 79 35 73 36 72 37 28 39 60 40 40 41 59 42 41 43 44 44 58 45
REMARK SMILES IDX 77 46 42 47 43 48 57 50 78 51 45 52 29 53 30 54 38 55 31 56
REMARK SMILES IDX 32 57 36 58 39 59 33 60 34 61 37 62 35 63 61 64 62 65 70 66
REMARK SMILES IDX 63 67 64 68 68 69 71 70 65 71 66 72 69 73 67 74 46 75 47 76
REMARK SMILES IDX 55 77 48 78 49 79 53 80 56 81 50 82 51 83 54 84 52 85
REMARK H PARENT 3 12 76 38 44 49
REMARK Flexibility Score: inf
ROOT
ATOM      1  O   UNL     1       8.189  -2.807  -4.086  1.00  0.00    -0.374 OA
ENDROOT
BRANCH   1   2
ATOM      2  C   UNL     1       8.514  -1.615  -3.381  1.00  0.00     0.202 C 
BRANCH   2   3
ATOM      3  C   UNL     1       7.581  -0.406  -3.493  1.00  0.00     0.261 C 
BRANCH   3   4
ATOM      4  O   UNL     1       6.249  -0.681  -3.030  1.00  0.00    -0.463 OA
BRANCH   4   5
ATOM      5  C   UNL     1       5.306  -0.730  -4.013  1.00  0.00     0.309 C 
ATOM      6  O   UNL     1       5.504  -0.546  -5.204  1.00  0.00    -0.252 OA
BRANCH   5   7
ATOM      7  C   UNL     1       3.962  -1.131  -3.537  1.00  0.00     0.112 C 
ATOM      8  C   UNL     1       3.510  -1.010  -2.095  1.00  0.00     0.094 C 
ATOM      9  C   UNL     1       3.741  -2.369  -2.702  1.00  0.00     0.030 C 
BRANCH   8  10
ATOM     10  C   UNL     1       2.149  -0.483  -1.843  1.00  0.00     0.236 C 
ATOM     11  N   UNL     1       1.287  -1.258  -1.124  1.00  0.00    -0.262 N 
ATOM     12  H   UNL     1       0.399  -0.852  -0.996  1.00  0.00     0.182 HD
ATOM     13  O   UNL     1       1.831   0.622  -2.264  1.00  0.00    -0.274 OA
BRANCH  11  14
ATOM     14  C   UNL     1       1.416  -2.463  -0.561  1.00  0.00     0.183 C 
ATOM     15  N   UNL     1       1.525  -3.513  -0.082  1.00  0.00    -0.172 NA
ENDBRANCH  11  14
ENDBRANCH   8  10
ENDBRANCH   5   7
ENDBRANCH   4   5
ENDBRANCH   3   4
ENDBRANCH   2   3
ENDBRANCH   1   2
BRANCH   1  16
ATOM     16  C   UNL     1       7.077  -3.578  -3.645  1.00  0.00     0.202 C 
BRANCH  16  17
ATOM     17  C   UNL     1       7.164  -4.298  -2.288  1.00  0.00     0.261 C 
BRANCH  17  18
ATOM     18  O   UNL     1       7.378  -3.416  -1.171  1.00  0.00    -0.460 OA
BRANCH  18  19
ATOM     19  C   UNL     1       8.614  -3.513  -0.618  1.00  0.00     0.338 C 
ATOM     20  O   UNL     1       9.511  -4.273  -0.941  1.00  0.00    -0.246 OA
BRANCH  19  21
ATOM     21  C   UNL     1       8.843  -2.418   0.342  1.00  0.00     0.060 A 
ATOM     22  C   UNL     1       9.911  -1.547   0.086  1.00  0.00     0.016 A 
ATOM     23  C   UNL     1       8.118  -2.322   1.530  1.00  0.00     0.016 A 
ATOM     24  C   UNL     1      10.293  -0.608   1.039  1.00  0.00     0.010 A 
ATOM     25  C   UNL     1       8.508  -1.380   2.490  1.00  0.00     0.010 A 
ATOM     26  C   UNL     1       9.620  -0.546   2.266  1.00  0.00    -0.014 A 
BRANCH  26  27
ATOM     27  C   UNL     1      10.159   0.307   3.354  1.00  0.00     0.031 A 
ATOM     28  C   UNL     1      10.858  -0.334   4.522  1.00  0.00     0.074 A 
ATOM     29  C   UNL     1      10.053   1.646   3.287  1.00  0.00     0.049 A 
ATOM     30  N   UNL     1      11.353   0.220   5.601  1.00  0.00    -0.248 NA
ATOM     31  C   UNL     1      11.016  -1.796   4.471  1.00  0.00     0.031 C 
ATOM     32  C   UNL     1       9.438   2.387   2.188  1.00  0.00     0.029 A 
ATOM     33  N   UNL     1      10.451   2.620   4.169  1.00  0.00    -0.354 N 
ATOM     34  C   UNL     1      11.861  -0.825   6.363  1.00  0.00     0.074 A 
ATOM     35  C   UNL     1      11.591  -2.047   5.638  1.00  0.00     0.031 C 
ATOM     36  C   UNL     1       9.491   3.700   2.463  1.00  0.00     0.029 A 
ATOM     37  C   UNL     1      10.100   3.889   3.779  1.00  0.00     0.049 A 
ATOM     38  H   UNL     1      10.941   2.427   5.001  1.00  0.00     0.167 HD
ATOM     39  C   UNL     1      12.500  -0.765   7.556  1.00  0.00     0.037 A 
ATOM     40  C   UNL     1      10.226   5.065   4.423  1.00  0.00     0.037 A 
ATOM     41  C   UNL     1      12.770   0.458   8.269  1.00  0.00     0.049 A 
ATOM     42  C   UNL     1      10.876   5.096   5.782  1.00  0.00     0.074 A 
ATOM     43  C   UNL     1      13.442   0.625   9.468  1.00  0.00     0.029 A 
ATOM     44  N   UNL     1      12.370   1.721   7.858  1.00  0.00    -0.354 N 
ATOM     45  N   UNL     1      11.378   4.109   6.484  1.00  0.00    -0.248 NA
ATOM     46  C   UNL     1      10.981   6.408   6.436  1.00  0.00     0.031 C 
ATOM     47  C   UNL     1      13.374   1.975   9.823  1.00  0.00     0.029 A 
ATOM     48  C   UNL     1      12.744   2.666   8.802  1.00  0.00     0.049 A 
ATOM     49  H   UNL     1      11.892   1.918   7.020  1.00  0.00     0.167 HD
ATOM     50  C   UNL     1      11.887   4.683   7.643  1.00  0.00     0.074 A 
ATOM     51  C   UNL     1      11.645   6.107   7.542  1.00  0.00     0.031 C 
ATOM     52  C   UNL     1      12.501   4.084   8.693  1.00  0.00     0.037 A 
BRANCH  39  53
ATOM     53  C   UNL     1      12.917  -2.060   8.196  1.00  0.00     0.064 A 
ATOM     54  C   UNL     1      13.937  -2.862   7.663  1.00  0.00     0.173 A 
ATOM     55  C   UNL     1      12.320  -2.477   9.397  1.00  0.00     0.173 A 
ATOM     56  F   UNL     1      14.537  -2.518   6.513  1.00  0.00    -0.203 F 
ATOM     57  C   UNL     1      14.322  -4.045   8.291  1.00  0.00     0.198 A 
ATOM     58  C   UNL     1      12.734  -3.639  10.042  1.00  0.00     0.198 A 
ATOM     59  F   UNL     1      11.345  -1.745   9.957  1.00  0.00    -0.203 F 
ATOM     60  F   UNL     1      15.264  -4.821   7.736  1.00  0.00    -0.200 F 
ATOM     61  C   UNL     1      13.728  -4.427   9.484  1.00  0.00     0.200 A 
ATOM     62  F   UNL     1      12.171  -3.994  11.206  1.00  0.00    -0.200 F 
ATOM     63  F   UNL     1      14.110  -5.557  10.095  1.00  0.00    -0.200 F 
ENDBRANCH  39  53
BRANCH  40  64
ATOM     64  C   UNL     1       9.705   6.309   3.797  1.00  0.00     0.064 A 
ATOM     65  C   UNL     1      10.569   7.337   3.395  1.00  0.00     0.173 A 
ATOM     66  C   UNL     1       8.329   6.499   3.595  1.00  0.00     0.173 A 
ATOM     67  F   UNL     1      11.891   7.215   3.587  1.00  0.00    -0.203 F 
ATOM     68  C   UNL     1      10.076   8.514   2.836  1.00  0.00     0.198 A 
ATOM     69  C   UNL     1       7.840   7.660   3.002  1.00  0.00     0.198 A 
ATOM     70  F   UNL     1       7.459   5.546   3.961  1.00  0.00    -0.203 F 
ATOM     71  F   UNL     1      10.920   9.503   2.510  1.00  0.00    -0.200 F 
ATOM     72  C   UNL     1       8.713   8.671   2.631  1.00  0.00     0.200 A 
ATOM     73  F   UNL     1       6.525   7.798   2.790  1.00  0.00    -0.200 F 
ATOM     74  F   UNL     1       8.240   9.800   2.085  1.00  0.00    -0.200 F 
ENDBRANCH  40  64
BRANCH  52  75
ATOM     75  C   UNL     1      13.004   4.967   9.803  1.00  0.00     0.064 A 
ATOM     76  C   UNL     1      12.132   5.656  10.660  1.00  0.00     0.173 A 
ATOM     77  C   UNL     1      14.383   5.092  10.038  1.00  0.00     0.173 A 
ATOM     78  F   UNL     1      10.805   5.582  10.477  1.00  0.00    -0.203 F 
ATOM     79  C   UNL     1      12.623   6.463  11.684  1.00  0.00     0.198 A 
ATOM     80  C   UNL     1      14.868   5.866  11.088  1.00  0.00     0.198 A 
ATOM     81  F   UNL     1      15.264   4.447   9.257  1.00  0.00    -0.203 F 
ATOM     82  F   UNL     1      11.772   7.160  12.450  1.00  0.00    -0.200 F 
ATOM     83  C   UNL     1      13.988   6.560  11.903  1.00  0.00     0.200 A 
ATOM     84  F   UNL     1      16.188   5.939  11.311  1.00  0.00    -0.200 F 
ATOM     85  F   UNL     1      14.457   7.329  12.896  1.00  0.00    -0.200 F 
ENDBRANCH  52  75
ENDBRANCH  26  27
ENDBRANCH  19  21
ENDBRANCH  18  19
ENDBRANCH  17  18
ENDBRANCH  16  17
ENDBRANCH   1  16
TORSDOF 16
