REMARK SMILES O=C(CN(CC(=O)OCCOCCOC(=O)c1ccc(-c2c3nc(c(-c4c(F)c(F)c(F)c(F)c4F)c4ccc([nH]4)c(-c4c(F)c(F)c(F)c(F)c4F)c4nc(c(-c5c(F)c(F)c(F)c(F)c5F)c5ccc2[nH]5)C=C4)C=C3)cc1)c1ccccc1)NCc1ccccc1
REMARK SMILES IDX 9 1 8 2 6 3 7 4 5 5 4 6 3 7 2 8 1 9 86 10 87 12 88 13 89 14
REMARK SMILES IDX 93 15 90 16 92 17 91 18 80 19 81 20 85 21 82 22 84 23 83 24
REMARK SMILES IDX 10 25 11 26 12 27 13 28 14 29 15 30 16 31 17 32 18 33 79 34
REMARK SMILES IDX 19 35 78 36 20 37 21 38 22 39 72 40 23 41 77 42 71 43 73 44
REMARK SMILES IDX 24 45 76 46 70 47 69 48 25 50 57 51 37 52 56 53 38 54 41 55
REMARK SMILES IDX 55 56 74 57 39 58 40 59 54 61 75 62 42 63 26 64 27 65 35 66
REMARK SMILES IDX 28 67 29 68 33 69 36 70 30 71 31 72 34 73 32 74 58 75 59 76
REMARK SMILES IDX 67 77 60 78 61 79 65 80 68 81 62 82 63 83 66 84 64 85 43 86
REMARK SMILES IDX 44 87 52 88 45 89 46 90 50 91 53 92 47 93 48 94 51 95 49 96
REMARK H PARENT 86 11 73 49 41 60
REMARK Flexibility Score: inf
ROOT
ATOM      1  C   UNL     1       6.332   4.690   0.623  1.00  0.00     0.261 C 
ENDROOT
BRANCH   1   2
ATOM      2  O   UNL     1       5.483   3.569   0.920  1.00  0.00    -0.462 OA
BRANCH   2   3
ATOM      3  C   UNL     1       5.875   2.381   0.378  1.00  0.00     0.325 C 
ATOM      4  O   UNL     1       6.783   2.252  -0.439  1.00  0.00    -0.250 OA
BRANCH   3   5
ATOM      5  C   UNL     1       5.139   1.182   0.969  1.00  0.00     0.239 C 
BRANCH   5   6
ATOM      6  N   UNL     1       3.679   1.276   0.948  1.00  0.00    -0.351 N 
BRANCH   6   7
ATOM      7  C   UNL     1       2.926   1.268  -0.316  1.00  0.00     0.217 C 
BRANCH   7   8
ATOM      8  C   UNL     1       2.122  -0.027  -0.530  1.00  0.00     0.239 C 
ATOM      9  O   UNL     1       0.958  -0.014  -0.925  1.00  0.00    -0.273 OA
ATOM     10  N   UNL     1       2.824  -1.192  -0.292  1.00  0.00    -0.350 N 
ATOM     11  H   UNL     1       3.800  -1.143  -0.168  1.00  0.00     0.163 HD
BRANCH  10  12
ATOM     12  C   UNL     1       2.175  -2.481  -0.221  1.00  0.00     0.151 C 
BRANCH  12  13
ATOM     13  C   UNL     1       2.648  -3.499  -1.226  1.00  0.00    -0.029 A 
ATOM     14  C   UNL     1       2.225  -4.831  -1.066  1.00  0.00     0.005 A 
ATOM     15  C   UNL     1       3.440  -3.179  -2.337  1.00  0.00     0.005 A 
ATOM     16  C   UNL     1       2.585  -5.815  -1.988  1.00  0.00     0.000 A 
ATOM     17  C   UNL     1       3.804  -4.167  -3.256  1.00  0.00     0.000 A 
ATOM     18  C   UNL     1       3.376  -5.482  -3.083  1.00  0.00     0.000 A 
ENDBRANCH  12  13
ENDBRANCH  10  12
ENDBRANCH   7   8
ENDBRANCH   6   7
BRANCH   6  19
ATOM     19  C   UNL     1       2.993   1.281   2.149  1.00  0.00     0.038 A 
ATOM     20  C   UNL     1       2.668   2.485   2.780  1.00  0.00     0.026 A 
ATOM     21  C   UNL     1       2.619   0.089   2.780  1.00  0.00     0.026 A 
ATOM     22  C   UNL     1       2.000   2.500   4.009  1.00  0.00     0.002 A 
ATOM     23  C   UNL     1       1.927   0.096   3.994  1.00  0.00     0.002 A 
ATOM     24  C   UNL     1       1.625   1.303   4.613  1.00  0.00     0.000 A 
ENDBRANCH   6  19
ENDBRANCH   5   6
ENDBRANCH   3   5
ENDBRANCH   2   3
ENDBRANCH   1   2
BRANCH   1  25
ATOM     25  C   UNL     1       6.658   5.540   1.859  1.00  0.00     0.202 C 
BRANCH  25  26
ATOM     26  O   UNL     1       7.096   4.828   3.016  1.00  0.00    -0.374 OA
BRANCH  26  27
ATOM     27  C   UNL     1       6.103   4.125   3.774  1.00  0.00     0.202 C 
BRANCH  27  28
ATOM     28  C   UNL     1       4.982   4.988   4.362  1.00  0.00     0.261 C 
BRANCH  28  29
ATOM     29  O   UNL     1       4.150   5.494   3.307  1.00  0.00    -0.460 OA
BRANCH  29  30
ATOM     30  C   UNL     1       3.175   6.336   3.697  1.00  0.00     0.338 C 
ATOM     31  O   UNL     1       2.770   6.535   4.834  1.00  0.00    -0.246 OA
BRANCH  30  32
ATOM     32  C   UNL     1       2.749   7.100   2.517  1.00  0.00     0.060 A 
ATOM     33  C   UNL     1       3.494   8.225   2.145  1.00  0.00     0.016 A 
ATOM     34  C   UNL     1       1.599   6.742   1.814  1.00  0.00     0.016 A 
ATOM     35  C   UNL     1       3.065   9.021   1.081  1.00  0.00     0.010 A 
ATOM     36  C   UNL     1       1.178   7.535   0.739  1.00  0.00     0.010 A 
ATOM     37  C   UNL     1       1.891   8.694   0.384  1.00  0.00    -0.014 A 
BRANCH  37  38
ATOM     38  C   UNL     1       1.364   9.617  -0.652  1.00  0.00     0.031 A 
ATOM     39  C   UNL     1       0.244  10.560  -0.309  1.00  0.00     0.074 A 
ATOM     40  C   UNL     1       1.895   9.637  -1.889  1.00  0.00     0.049 A 
ATOM     41  N   UNL     1      -0.353  11.449  -1.063  1.00  0.00    -0.248 NA
ATOM     42  C   UNL     1      -0.269  10.495   1.068  1.00  0.00     0.031 C 
ATOM     43  C   UNL     1       3.000   8.799  -2.345  1.00  0.00     0.029 A 
ATOM     44  N   UNL     1       1.567  10.393  -2.988  1.00  0.00    -0.354 N 
ATOM     45  C   UNL     1      -1.302  12.055  -0.252  1.00  0.00     0.074 A 
ATOM     46  C   UNL     1      -1.229  11.409   1.041  1.00  0.00     0.031 C 
ATOM     47  C   UNL     1       3.260   9.084  -3.633  1.00  0.00     0.029 A 
ATOM     48  C   UNL     1       2.320  10.103  -4.098  1.00  0.00     0.049 A 
ATOM     49  H   UNL     1       0.860  11.077  -2.980  1.00  0.00     0.167 HD
ATOM     50  C   UNL     1      -2.148  13.069  -0.552  1.00  0.00     0.037 A 
ATOM     51  C   UNL     1       2.248  10.591  -5.352  1.00  0.00     0.037 A 
ATOM     52  C   UNL     1      -2.231  13.715  -1.836  1.00  0.00     0.049 A 
ATOM     53  C   UNL     1       1.222  11.639  -5.690  1.00  0.00     0.074 A 
ATOM     54  C   UNL     1      -3.020  14.788  -2.213  1.00  0.00     0.029 A 
ATOM     55  N   UNL     1      -1.511  13.334  -2.957  1.00  0.00    -0.354 N 
ATOM     56  N   UNL     1       0.364  12.242  -4.904  1.00  0.00    -0.248 NA
ATOM     57  C   UNL     1       1.148  12.068  -7.096  1.00  0.00     0.031 C 
ATOM     58  C   UNL     1      -2.816  15.023  -3.578  1.00  0.00     0.029 A 
ATOM     59  C   UNL     1      -1.871  14.122  -4.040  1.00  0.00     0.049 A 
ATOM     60  H   UNL     1      -0.844  12.611  -2.982  1.00  0.00     0.167 HD
ATOM     61  C   UNL     1      -0.339  13.126  -5.711  1.00  0.00     0.074 A 
ATOM     62  C   UNL     1       0.200  12.993  -7.048  1.00  0.00     0.031 C 
ATOM     63  C   UNL     1      -1.342  13.972  -5.371  1.00  0.00     0.037 A 
BRANCH  50  64
ATOM     64  C   UNL     1      -3.070  13.541   0.532  1.00  0.00     0.064 A 
ATOM     65  C   UNL     1      -2.601  14.312   1.606  1.00  0.00     0.173 A 
ATOM     66  C   UNL     1      -4.441  13.254   0.474  1.00  0.00     0.173 A 
ATOM     67  F   UNL     1      -1.295  14.603   1.709  1.00  0.00    -0.203 F 
ATOM     68  C   UNL     1      -3.470  14.760   2.596  1.00  0.00     0.198 A 
ATOM     69  C   UNL     1      -5.311  13.723   1.455  1.00  0.00     0.198 A 
ATOM     70  F   UNL     1      -4.938  12.526  -0.536  1.00  0.00    -0.203 F 
ATOM     71  F   UNL     1      -2.996  15.465   3.633  1.00  0.00    -0.200 F 
ATOM     72  C   UNL     1      -4.825  14.470   2.517  1.00  0.00     0.200 A 
ATOM     73  F   UNL     1      -6.620  13.450   1.373  1.00  0.00    -0.200 F 
ATOM     74  F   UNL     1      -5.661  14.907   3.469  1.00  0.00    -0.200 F 
ENDBRANCH  50  64
BRANCH  51  75
ATOM     75  C   UNL     1       3.171  10.078  -6.396  1.00  0.00     0.064 A 
ATOM     76  C   UNL     1       4.201  10.880  -6.904  1.00  0.00     0.173 A 
ATOM     77  C   UNL     1       3.037   8.780  -6.909  1.00  0.00     0.173 A 
ATOM     78  F   UNL     1       4.349  12.138  -6.463  1.00  0.00    -0.203 F 
ATOM     79  C   UNL     1       5.061  10.404  -7.892  1.00  0.00     0.198 A 
ATOM     80  C   UNL     1       3.910   8.298  -7.881  1.00  0.00     0.198 A 
ATOM     81  F   UNL     1       2.061   7.978  -6.459  1.00  0.00    -0.203 F 
ATOM     82  F   UNL     1       6.018  11.201  -8.385  1.00  0.00    -0.200 F 
ATOM     83  C   UNL     1       4.919   9.111  -8.374  1.00  0.00     0.200 A 
ATOM     84  F   UNL     1       3.774   7.046  -8.339  1.00  0.00    -0.200 F 
ATOM     85  F   UNL     1       5.749   8.652  -9.320  1.00  0.00    -0.200 F 
ENDBRANCH  51  75
BRANCH  63  86
ATOM     86  C   UNL     1      -1.929  14.822  -6.458  1.00  0.00     0.064 A 
ATOM     87  C   UNL     1      -2.794  14.279  -7.419  1.00  0.00     0.173 A 
ATOM     88  C   UNL     1      -1.667  16.199  -6.513  1.00  0.00     0.173 A 
ATOM     89  F   UNL     1      -3.063  12.964  -7.419  1.00  0.00    -0.203 F 
ATOM     90  C   UNL     1      -3.365  15.082  -8.403  1.00  0.00     0.198 A 
ATOM     91  C   UNL     1      -2.257  17.003  -7.484  1.00  0.00     0.198 A 
ATOM     92  F   UNL     1      -0.849  16.767  -5.614  1.00  0.00    -0.203 F 
ATOM     93  F   UNL     1      -4.164  14.536  -9.332  1.00  0.00    -0.200 F 
ATOM     94  C   UNL     1      -3.103  16.444  -8.430  1.00  0.00     0.200 A 
ATOM     95  F   UNL     1      -2.010  18.320  -7.504  1.00  0.00    -0.200 F 
ATOM     96  F   UNL     1      -3.661  17.216  -9.373  1.00  0.00    -0.200 F 
ENDBRANCH  63  86
ENDBRANCH  37  38
ENDBRANCH  30  32
ENDBRANCH  29  30
ENDBRANCH  28  29
ENDBRANCH  27  28
ENDBRANCH  26  27
ENDBRANCH  25  26
ENDBRANCH   1  25
TORSDOF 20
