REMARK SMILES Cc1ccc(NC(=O)C[C@H]2C(=O)NCCN2C(=O)CCC(=O)OCCOCCOC(=O)c2ccc(-c3c4nc(c(-c5c(F)c(F)c(F)c(F)c5F)c5ccc([nH]5)c(-c5c(F)c(F)c(F)c(F)c5F)c5nc(c(-c6c(F)c(F)c(F)c(F)c6F)c6ccc3[nH]6)C=C5)C=C4)cc2)c(C)c1
REMARK SMILES IDX 24 1 23 2 21 3 22 4 20 5 19 6 17 7 18 8 16 9 10 10 11 11
REMARK SMILES IDX 12 12 13 13 15 14 14 15 9 17 7 18 6 19 8 21 5 22 1 23 2 24
REMARK SMILES IDX 3 25 97 26 4 27 95 28 96 29 25 30 26 31 27 32 28 33 29 34
REMARK SMILES IDX 30 35 31 36 32 37 33 38 94 39 34 40 93 41 35 42 36 43 37 44
REMARK SMILES IDX 87 45 38 46 92 47 86 48 88 49 39 50 91 51 85 52 84 53 40 55
REMARK SMILES IDX 72 56 52 57 71 58 53 59 56 60 70 61 89 62 54 63 55 64 69 66
REMARK SMILES IDX 90 67 57 68 41 69 42 70 50 71 43 72 44 73 48 74 51 75 45 76
REMARK SMILES IDX 46 77 49 78 47 79 73 80 74 81 82 82 75 83 76 84 80 85 83 86
REMARK SMILES IDX 77 87 78 88 81 89 79 90 58 91 59 92 67 93 60 94 61 95 65 96
REMARK SMILES IDX 68 97 62 98 63 99 66 100 64 101
REMARK H PARENT 13 16 6 20 88 54 56 65
REMARK Flexibility Score: inf
ROOT
ATOM      1  C   UNL     1      -1.462  -1.771   0.078  1.00  0.00     0.261 C 
ENDROOT
BRANCH   1   2
ATOM      2  O   UNL     1      -1.766  -0.428  -0.360  1.00  0.00    -0.463 OA
BRANCH   2   3
ATOM      3  C   UNL     1      -2.258  -0.216  -1.605  1.00  0.00     0.306 C 
ATOM      4  O   UNL     1      -2.408  -1.078  -2.457  1.00  0.00    -0.252 OA
BRANCH   3   5
ATOM      5  C   UNL     1      -2.597   1.254  -1.815  1.00  0.00     0.132 C 
BRANCH   5   6
ATOM      6  C   UNL     1      -3.859   1.738  -1.118  1.00  0.00     0.112 C 
BRANCH   6   7
ATOM      7  C   UNL     1      -3.869   2.932  -0.152  1.00  0.00     0.223 C 
ATOM      8  O   UNL     1      -4.814   3.725  -0.278  1.00  0.00    -0.275 OA
BRANCH   7   9
ATOM      9  N   UNL     1      -2.992   3.081   0.918  1.00  0.00    -0.328 N 
ATOM     10  C   UNL     1      -2.121   2.034   1.454  1.00  0.00     0.183 C 
ATOM     11  C   UNL     1      -2.673   1.450   2.755  1.00  0.00     0.243 C 
ATOM     12  O   UNL     1      -2.171   0.490   3.332  1.00  0.00    -0.273 OA
ATOM     13  N   UNL     1      -3.848   1.982   3.192  1.00  0.00    -0.353 N 
ATOM     14  C   UNL     1      -3.413   4.045   1.944  1.00  0.00     0.141 C 
ATOM     15  C   UNL     1      -4.328   3.321   2.921  1.00  0.00     0.137 C 
ATOM     16  H   UNL     1      -4.423   1.403   3.742  1.00  0.00     0.163 HD
BRANCH  10  17
ATOM     17  C   UNL     1      -0.605   2.220   1.508  1.00  0.00     0.135 C 
BRANCH  17  18
ATOM     18  C   UNL     1      -0.038   3.478   2.123  1.00  0.00     0.227 C 
ATOM     19  N   UNL     1      -0.009   4.689   1.488  1.00  0.00    -0.326 N 
ATOM     20  H   UNL     1       0.565   5.368   1.910  1.00  0.00     0.169 HD
ATOM     21  O   UNL     1       0.403   3.442   3.278  1.00  0.00    -0.275 OA
BRANCH  19  22
ATOM     22  C   UNL     1      -0.677   5.109   0.326  1.00  0.00     0.044 A 
ATOM     23  C   UNL     1      -3.703   6.039  -2.579  1.00  0.00     0.044 C 
ATOM     24  C   UNL     1      -2.553   5.813  -1.642  1.00  0.00    -0.051 A 
ATOM     25  C   UNL     1      -2.463   6.555  -0.465  1.00  0.00     0.005 A 
ATOM     26  C   UNL     1      -1.604   4.808  -1.881  1.00  0.00     0.009 A 
ATOM     27  C   UNL     1      -1.513   6.223   0.498  1.00  0.00     0.026 A 
ATOM     28  C   UNL     1      -0.625   4.477  -0.922  1.00  0.00    -0.027 A 
ATOM     29  C   UNL     1       0.483   3.546  -1.334  1.00  0.00     0.046 C 
ENDBRANCH  19  22
ENDBRANCH  17  18
ENDBRANCH  10  17
ENDBRANCH   7   9
ENDBRANCH   6   7
ENDBRANCH   5   6
ENDBRANCH   3   5
ENDBRANCH   2   3
ENDBRANCH   1   2
BRANCH   1  30
ATOM     30  C   UNL     1      -2.462  -2.256   1.141  1.00  0.00     0.202 C 
BRANCH  30  31
ATOM     31  O   UNL     1      -3.724  -2.659   0.601  1.00  0.00    -0.374 OA
BRANCH  31  32
ATOM     32  C   UNL     1      -4.592  -1.573   0.293  1.00  0.00     0.202 C 
BRANCH  32  33
ATOM     33  C   UNL     1      -5.886  -1.603   1.102  1.00  0.00     0.261 C 
BRANCH  33  34
ATOM     34  O   UNL     1      -5.685  -0.956   2.375  1.00  0.00    -0.460 OA
BRANCH  34  35
ATOM     35  C   UNL     1      -5.452  -1.764   3.436  1.00  0.00     0.338 C 
ATOM     36  O   UNL     1      -5.423  -2.982   3.452  1.00  0.00    -0.246 OA
BRANCH  35  37
ATOM     37  C   UNL     1      -5.130  -0.913   4.601  1.00  0.00     0.060 A 
ATOM     38  C   UNL     1      -4.028  -1.251   5.393  1.00  0.00     0.016 A 
ATOM     39  C   UNL     1      -5.851   0.258   4.865  1.00  0.00     0.016 A 
ATOM     40  C   UNL     1      -3.633  -0.413   6.443  1.00  0.00     0.010 A 
ATOM     41  C   UNL     1      -5.401   1.134   5.862  1.00  0.00     0.010 A 
ATOM     42  C   UNL     1      -4.316   0.785   6.690  1.00  0.00    -0.014 A 
BRANCH  42  43
ATOM     43  C   UNL     1      -4.066   1.549   7.944  1.00  0.00     0.031 A 
ATOM     44  C   UNL     1      -5.163   1.558   8.980  1.00  0.00     0.074 A 
ATOM     45  C   UNL     1      -2.911   2.200   8.194  1.00  0.00     0.049 A 
ATOM     46  N   UNL     1      -5.198   2.119  10.162  1.00  0.00    -0.248 NA
ATOM     47  C   UNL     1      -6.415   0.875   8.612  1.00  0.00     0.031 C 
ATOM     48  C   UNL     1      -1.777   2.327   7.279  1.00  0.00     0.029 A 
ATOM     49  N   UNL     1      -2.504   2.879   9.321  1.00  0.00    -0.354 N 
ATOM     50  C   UNL     1      -6.471   1.864  10.654  1.00  0.00     0.074 A 
ATOM     51  C   UNL     1      -7.214   1.206   9.608  1.00  0.00     0.031 C 
ATOM     52  C   UNL     1      -0.795   3.018   7.891  1.00  0.00     0.029 A 
ATOM     53  C   UNL     1      -1.226   3.378   9.241  1.00  0.00     0.049 A 
ATOM     54  H   UNL     1      -3.078   2.996  10.113  1.00  0.00     0.167 HD
ATOM     55  C   UNL     1      -6.973   2.086  11.890  1.00  0.00     0.037 A 
ATOM     56  C   UNL     1      -0.487   4.025  10.167  1.00  0.00     0.037 A 
ATOM     57  C   UNL     1      -6.232   2.679  12.962  1.00  0.00     0.049 A 
ATOM     58  C   UNL     1      -1.057   4.254  11.550  1.00  0.00     0.074 A 
ATOM     59  C   UNL     1      -6.628   2.903  14.266  1.00  0.00     0.029 A 
ATOM     60  N   UNL     1      -4.927   3.130  12.849  1.00  0.00    -0.354 N 
ATOM     61  N   UNL     1      -2.228   3.921  12.034  1.00  0.00    -0.248 NA
ATOM     62  C   UNL     1      -0.184   4.932  12.524  1.00  0.00     0.031 C 
ATOM     63  C   UNL     1      -5.567   3.515  14.941  1.00  0.00     0.029 A 
ATOM     64  C   UNL     1      -4.502   3.639  14.062  1.00  0.00     0.049 A 
ATOM     65  H   UNL     1      -4.383   3.093  12.029  1.00  0.00     0.167 HD
ATOM     66  C   UNL     1      -2.216   4.305  13.371  1.00  0.00     0.074 A 
ATOM     67  C   UNL     1      -0.919   4.892  13.626  1.00  0.00     0.031 C 
ATOM     68  C   UNL     1      -3.192   4.184  14.305  1.00  0.00     0.037 A 
BRANCH  55  69
ATOM     69  C   UNL     1      -8.385   1.646  12.128  1.00  0.00     0.064 A 
ATOM     70  C   UNL     1      -8.727   0.283  12.169  1.00  0.00     0.173 A 
ATOM     71  C   UNL     1      -9.414   2.588  12.253  1.00  0.00     0.173 A 
ATOM     72  F   UNL     1      -7.778  -0.655  12.023  1.00  0.00    -0.203 F 
ATOM     73  C   UNL     1     -10.055  -0.118  12.272  1.00  0.00     0.198 A 
ATOM     74  C   UNL     1     -10.739   2.181  12.392  1.00  0.00     0.198 A 
ATOM     75  F   UNL     1      -9.139   3.900  12.216  1.00  0.00    -0.203 F 
ATOM     76  F   UNL     1     -10.364  -1.421  12.221  1.00  0.00    -0.200 F 
ATOM     77  C   UNL     1     -11.059   0.831  12.386  1.00  0.00     0.200 A 
ATOM     78  F   UNL     1     -11.710   3.098  12.505  1.00  0.00    -0.200 F 
ATOM     79  F   UNL     1     -12.339   0.445  12.469  1.00  0.00    -0.200 F 
ENDBRANCH  55  69
BRANCH  56  80
ATOM     80  C   UNL     1       0.903   4.461   9.863  1.00  0.00     0.064 A 
ATOM     81  C   UNL     1       2.002   3.831  10.467  1.00  0.00     0.173 A 
ATOM     82  C   UNL     1       1.160   5.560   9.032  1.00  0.00     0.173 A 
ATOM     83  F   UNL     1       1.806   2.797  11.299  1.00  0.00    -0.203 F 
ATOM     84  C   UNL     1       3.300   4.304  10.279  1.00  0.00     0.198 A 
ATOM     85  C   UNL     1       2.462   6.018   8.825  1.00  0.00     0.198 A 
ATOM     86  F   UNL     1       0.145   6.206   8.440  1.00  0.00    -0.203 F 
ATOM     87  F   UNL     1       4.323   3.725  10.924  1.00  0.00    -0.200 F 
ATOM     88  C   UNL     1       3.529   5.397   9.458  1.00  0.00     0.200 A 
ATOM     89  F   UNL     1       2.680   7.078   8.035  1.00  0.00    -0.200 F 
ATOM     90  F   UNL     1       4.774   5.866   9.295  1.00  0.00    -0.200 F 
ENDBRANCH  56  80
BRANCH  68  91
ATOM     91  C   UNL     1      -2.888   4.641  15.701  1.00  0.00     0.064 A 
ATOM     92  C   UNL     1      -2.811   6.001  16.030  1.00  0.00     0.173 A 
ATOM     93  C   UNL     1      -2.752   3.704  16.737  1.00  0.00     0.173 A 
ATOM     94  F   UNL     1      -2.925   6.934  15.072  1.00  0.00    -0.203 F 
ATOM     95  C   UNL     1      -2.593   6.407  17.343  1.00  0.00     0.198 A 
ATOM     96  C   UNL     1      -2.562   4.114  18.053  1.00  0.00     0.198 A 
ATOM     97  F   UNL     1      -2.830   2.390  16.476  1.00  0.00    -0.203 F 
ATOM     98  F   UNL     1      -2.490   7.712  17.630  1.00  0.00    -0.200 F 
ATOM     99  C   UNL     1      -2.478   5.465  18.355  1.00  0.00     0.200 A 
ATOM    100  F   UNL     1      -2.467   3.202  19.031  1.00  0.00    -0.200 F 
ATOM    101  F   UNL     1      -2.284   5.859  19.621  1.00  0.00    -0.200 F 
ENDBRANCH  68  91
ENDBRANCH  42  43
ENDBRANCH  35  37
ENDBRANCH  34  35
ENDBRANCH  33  34
ENDBRANCH  32  33
ENDBRANCH  31  32
ENDBRANCH  30  31
ENDBRANCH   1  30
TORSDOF 20
