REMARK SMILES C[C@@H](Oc1ccc(/C=C2\C(=O)[NH+]=C(OCCOCCOC(=O)c3ccc(-c4c5nc(c(-c6c(F)c(F)c(F)c(F)c6F)c6ccc([nH]6)c(-c6c(F)c(F)c(F)c(F)c6F)c6nc(c(-c7c(F)c(F)c(F)c(F)c7F)c7ccc4[nH]7)C=C6)C=C5)cc3)N(c3ccc4c(c3)OCO4)C2=O)cc1)C(=O)[O-]
REMARK SMILES IDX 16 1 15 2 14 3 13 4 8 5 9 6 10 7 96 8 11 9 12 10 86 11 97 12
REMARK SMILES IDX 7 14 4 15 5 16 99 17 6 18 98 19 3 20 2 21 1 22 100 23 101 24
REMARK SMILES IDX 102 25 87 26 88 27 92 28 89 29 91 30 90 31 93 32 95 33 94 34
REMARK SMILES IDX 17 35 18 36 19 37 20 38 21 39 22 40 23 41 24 42 85 43 25 44
REMARK SMILES IDX 84 45 26 46 27 47 28 48 78 49 29 50 83 51 77 52 79 53 30 54
REMARK SMILES IDX 82 55 76 56 75 57 31 59 63 60 43 61 62 62 44 63 47 64 61 65
REMARK SMILES IDX 80 66 45 67 46 68 60 70 81 71 48 72 32 73 33 74 41 75 34 76
REMARK SMILES IDX 35 77 39 78 42 79 36 80 37 81 40 82 38 83 64 84 65 85 73 86
REMARK SMILES IDX 66 87 67 88 71 89 74 90 68 91 69 92 72 93 70 94 49 95 50 96
REMARK SMILES IDX 58 97 51 98 52 99 56 100 59 101 53 102 54 103 57 104 55 105
REMARK H PARENT 12 13 79 58 47 69
REMARK Flexibility Score: inf
ROOT
ATOM      1  C   UNL     1       8.961  -7.583   4.353  1.00  0.00     0.202 C 
ENDROOT
BRANCH   1   2
ATOM      2  C   UNL     1       9.363  -6.799   5.611  1.00  0.00     0.266 C 
BRANCH   2   3
ATOM      3  O   UNL     1       8.523  -5.671   5.952  1.00  0.00    -0.428 OA
BRANCH   3   4
ATOM      4  C   UNL     1       7.994  -4.961   4.923  1.00  0.00     0.465 C 
ATOM      5  C   UNL     1       6.159  -2.310   2.572  1.00  0.00     0.032 C 
ATOM      6  C   UNL     1       6.831  -3.349   3.106  1.00  0.00     0.155 C 
ATOM      7  C   UNL     1       6.266  -4.657   3.474  1.00  0.00     0.349 C 
ATOM      8  C   UNL     1       8.293  -3.188   3.331  1.00  0.00     0.357 C 
ATOM      9  O   UNL     1       5.488  -5.256   2.744  1.00  0.00    -0.240 OA
ATOM     10  N   UNL     1       6.766  -5.201   4.619  1.00  0.00    -0.171 N 
ATOM     11  N   UNL     1       8.816  -4.052   4.279  1.00  0.00    -0.123 N 
ATOM     12  O   UNL     1       8.931  -2.314   2.745  1.00  0.00    -0.240 OA
ATOM     13  H   UNL     1       6.203  -5.764   5.198  1.00  0.00     0.319 HD
BRANCH   5  14
ATOM     14  C   UNL     1       4.730  -2.097   2.252  1.00  0.00    -0.024 A 
ATOM     15  C   UNL     1       2.051  -1.442   1.629  1.00  0.00     0.120 A 
ATOM     16  C   UNL     1       2.341  -2.589   2.357  1.00  0.00     0.047 A 
ATOM     17  C   UNL     1       3.083  -0.599   1.239  1.00  0.00     0.047 A 
ATOM     18  C   UNL     1       3.668  -2.903   2.679  1.00  0.00     0.012 A 
ATOM     19  C   UNL     1       4.409  -0.934   1.531  1.00  0.00     0.012 A 
BRANCH  15  20
ATOM     20  O   UNL     1       0.739  -1.110   1.458  1.00  0.00    -0.485 OA
BRANCH  20  21
ATOM     21  C   UNL     1       0.306  -1.101   0.092  1.00  0.00     0.216 C 
ATOM     22  C   UNL     1       0.447   0.285  -0.531  1.00  0.00     0.059 C 
BRANCH  21  23
ATOM     23  C   UNL     1      -1.171  -1.481   0.051  1.00  0.00     0.082 C 
ATOM     24  O   UNL     1      -1.704  -2.179  -0.798  1.00  0.00    -0.546 OA
ATOM     25  O   UNL     1      -1.919  -0.906   1.016  1.00  0.00    -0.546 OA
ENDBRANCH  21  23
ENDBRANCH  20  21
ENDBRANCH  15  20
ENDBRANCH   5  14
BRANCH  11  26
ATOM     26  C   UNL     1      10.190  -3.921   4.611  1.00  0.00     0.144 A 
ATOM     27  C   UNL     1      11.169  -4.324   3.672  1.00  0.00     0.056 A 
ATOM     28  C   UNL     1      10.569  -3.420   5.862  1.00  0.00     0.103 A 
ATOM     29  C   UNL     1      12.529  -4.246   3.983  1.00  0.00     0.055 A 
ATOM     30  C   UNL     1      11.919  -3.305   6.114  1.00  0.00     0.170 A 
ATOM     31  C   UNL     1      12.871  -3.712   5.205  1.00  0.00     0.166 A 
ATOM     32  O   UNL     1      12.474  -2.785   7.242  1.00  0.00    -0.453 OA
ATOM     33  O   UNL     1      14.137  -3.510   5.658  1.00  0.00    -0.454 OA
ATOM     34  C   UNL     1      13.869  -2.777   6.871  1.00  0.00     0.468 C 
ENDBRANCH  11  26
ENDBRANCH   3   4
ENDBRANCH   2   3
ENDBRANCH   1   2
BRANCH   1  35
ATOM     35  O   UNL     1       9.132  -6.798   3.166  1.00  0.00    -0.374 OA
BRANCH  35  36
ATOM     36  C   UNL     1       8.109  -6.982   2.176  1.00  0.00     0.202 C 
BRANCH  36  37
ATOM     37  C   UNL     1       8.501  -7.915   1.037  1.00  0.00     0.261 C 
BRANCH  37  38
ATOM     38  O   UNL     1       8.744  -9.220   1.564  1.00  0.00    -0.460 OA
BRANCH  38  39
ATOM     39  C   UNL     1      10.046  -9.499   1.790  1.00  0.00     0.338 C 
ATOM     40  O   UNL     1      11.018  -8.877   1.394  1.00  0.00    -0.246 OA
BRANCH  39  41
ATOM     41  C   UNL     1      10.128 -10.605   2.768  1.00  0.00     0.060 A 
ATOM     42  C   UNL     1      11.284 -10.683   3.555  1.00  0.00     0.016 A 
ATOM     43  C   UNL     1       9.079 -11.516   2.954  1.00  0.00     0.016 A 
ATOM     44  C   UNL     1      11.420 -11.704   4.487  1.00  0.00     0.010 A 
ATOM     45  C   UNL     1       9.213 -12.537   3.890  1.00  0.00     0.010 A 
ATOM     46  C   UNL     1      10.403 -12.657   4.625  1.00  0.00    -0.014 A 
BRANCH  46  47
ATOM     47  C   UNL     1      10.678 -13.899   5.372  1.00  0.00     0.031 A 
ATOM     48  C   UNL     1      11.133 -15.098   4.590  1.00  0.00     0.074 A 
ATOM     49  C   UNL     1      10.556 -13.940   6.708  1.00  0.00     0.049 A 
ATOM     50  N   UNL     1      11.436 -16.297   5.010  1.00  0.00    -0.248 NA
ATOM     51  C   UNL     1      11.259 -14.919   3.132  1.00  0.00     0.031 C 
ATOM     52  C   UNL     1      10.137 -12.825   7.556  1.00  0.00     0.029 A 
ATOM     53  N   UNL     1      10.771 -14.970   7.585  1.00  0.00    -0.354 N 
ATOM     54  C   UNL     1      11.796 -17.009   3.873  1.00  0.00     0.074 A 
ATOM     55  C   UNL     1      11.634 -16.127   2.741  1.00  0.00     0.031 C 
ATOM     56  C   UNL     1      10.117 -13.236   8.836  1.00  0.00     0.029 A 
ATOM     57  C   UNL     1      10.505 -14.643   8.891  1.00  0.00     0.049 A 
ATOM     58  H   UNL     1      11.087 -15.860   7.305  1.00  0.00     0.167 HD
ATOM     59  C   UNL     1      12.243 -18.283   3.788  1.00  0.00     0.037 A 
ATOM     60  C   UNL     1      10.565 -15.409   9.996  1.00  0.00     0.037 A 
ATOM     61  C   UNL     1      12.390 -19.156   4.919  1.00  0.00     0.049 A 
ATOM     62  C   UNL     1      11.025 -16.839   9.865  1.00  0.00     0.074 A 
ATOM     63  C   UNL     1      12.812 -20.472   4.949  1.00  0.00     0.029 A 
ATOM     64  N   UNL     1      12.115 -18.790   6.229  1.00  0.00    -0.354 N 
ATOM     65  N   UNL     1      11.387 -17.499   8.791  1.00  0.00    -0.248 NA
ATOM     66  C   UNL     1      11.099 -17.625  11.104  1.00  0.00     0.031 C 
ATOM     67  C   UNL     1      12.764 -20.913   6.276  1.00  0.00     0.029 A 
ATOM     68  C   UNL     1      12.354 -19.858   7.076  1.00  0.00     0.049 A 
ATOM     69  H   UNL     1      11.796 -17.903   6.514  1.00  0.00     0.167 HD
ATOM     70  C   UNL     1      11.761 -18.763   9.227  1.00  0.00     0.074 A 
ATOM     71  C   UNL     1      11.597 -18.771  10.666  1.00  0.00     0.031 C 
ATOM     72  C   UNL     1      12.198 -19.826   8.507  1.00  0.00     0.037 A 
BRANCH  59  73
ATOM     73  C   UNL     1      12.594 -18.800   2.426  1.00  0.00     0.064 A 
ATOM     74  C   UNL     1      13.748 -18.366   1.756  1.00  0.00     0.173 A 
ATOM     75  C   UNL     1      11.784 -19.753   1.793  1.00  0.00     0.173 A 
ATOM     76  F   UNL     1      14.541 -17.437   2.311  1.00  0.00    -0.203 F 
ATOM     77  C   UNL     1      14.071 -18.858   0.495  1.00  0.00     0.198 A 
ATOM     78  C   UNL     1      12.124 -20.262   0.542  1.00  0.00     0.198 A 
ATOM     79  F   UNL     1      10.667 -20.194   2.389  1.00  0.00    -0.203 F 
ATOM     80  F   UNL     1      15.157 -18.401  -0.144  1.00  0.00    -0.200 F 
ATOM     81  C   UNL     1      13.264 -19.811  -0.107  1.00  0.00     0.200 A 
ATOM     82  F   UNL     1      11.345 -21.186  -0.037  1.00  0.00    -0.200 F 
ATOM     83  F   UNL     1      13.580 -20.291  -1.318  1.00  0.00    -0.200 F 
ENDBRANCH  59  73
BRANCH  60  84
ATOM     84  C   UNL     1      10.187 -14.849  11.319  1.00  0.00     0.064 A 
ATOM     85  C   UNL     1      11.144 -14.659  12.326  1.00  0.00     0.173 A 
ATOM     86  C   UNL     1       8.855 -14.530  11.618  1.00  0.00     0.173 A 
ATOM     87  F   UNL     1      12.428 -14.970  12.096  1.00  0.00    -0.203 F 
ATOM     88  C   UNL     1      10.778 -14.202  13.591  1.00  0.00     0.198 A 
ATOM     89  C   UNL     1       8.494 -14.046  12.874  1.00  0.00     0.198 A 
ATOM     90  F   UNL     1       7.901 -14.691  10.690  1.00  0.00    -0.203 F 
ATOM     91  F   UNL     1      11.704 -14.085  14.552  1.00  0.00    -0.200 F 
ATOM     92  C   UNL     1       9.454 -13.894  13.863  1.00  0.00     0.200 A 
ATOM     93  F   UNL     1       7.215 -13.739  13.130  1.00  0.00    -0.200 F 
ATOM     94  F   UNL     1       9.102 -13.461  15.081  1.00  0.00    -0.200 F 
ENDBRANCH  60  84
BRANCH  72  95
ATOM     95  C   UNL     1      12.570 -21.061   9.272  1.00  0.00     0.064 A 
ATOM     96  C   UNL     1      11.600 -21.880   9.865  1.00  0.00     0.173 A 
ATOM     97  C   UNL     1      13.916 -21.439   9.391  1.00  0.00     0.173 A 
ATOM     98  F   UNL     1      10.301 -21.552   9.788  1.00  0.00    -0.203 F 
ATOM     99  C   UNL     1      11.966 -23.017  10.579  1.00  0.00     0.198 A 
ATOM    100  C   UNL     1      14.277 -22.592  10.080  1.00  0.00     0.198 A 
ATOM    101  F   UNL     1      14.881 -20.692   8.832  1.00  0.00    -0.203 F 
ATOM    102  F   UNL     1      11.027 -23.756  11.185  1.00  0.00    -0.200 F 
ATOM    103  C   UNL     1      13.303 -23.374  10.682  1.00  0.00     0.200 A 
ATOM    104  F   UNL     1      15.567 -22.943  10.168  1.00  0.00    -0.200 F 
ATOM    105  F   UNL     1      13.653 -24.469  11.371  1.00  0.00    -0.200 F 
ENDBRANCH  72  95
ENDBRANCH  46  47
ENDBRANCH  39  41
ENDBRANCH  38  39
ENDBRANCH  37  38
ENDBRANCH  36  37
ENDBRANCH  35  36
ENDBRANCH   1  35
TORSDOF 18
