REMARK SMILES Cc1nc2n(n1)[C@@H](c1ccc([N+](=O)[O-])o1)CC(C(=O)OCCOCCOC(=O)c1ccc(-c3c4nc(c(-c5c(F)c(F)c(F)c(F)c5F)c5ccc([nH]5)c(-c5c(F)c(F)c(F)c(F)c5F)c5nc(c(-c6c(F)c(F)c(F)c(F)c6F)c6ccc3[nH]6)C=C5)C=C4)cc1)=N2
REMARK SMILES IDX 23 1 22 2 21 3 20 4 18 5 19 6 17 7 1 8 2 9 3 10 6 11 4 12
REMARK SMILES IDX 5 13 92 14 7 15 16 16 8 17 9 18 15 19 10 20 11 21 12 22
REMARK SMILES IDX 13 23 14 24 24 25 25 26 26 27 27 28 28 29 29 30 30 31 91 32
REMARK SMILES IDX 31 33 90 34 32 35 33 36 34 37 84 38 35 39 89 40 83 41 85 42
REMARK SMILES IDX 36 43 88 44 82 45 81 46 37 48 69 49 49 50 68 51 50 52 53 53
REMARK SMILES IDX 67 54 86 55 51 56 52 57 66 59 87 60 54 61 38 62 39 63 47 64
REMARK SMILES IDX 40 65 41 66 45 67 48 68 42 69 43 70 46 71 44 72 70 73 71 74
REMARK SMILES IDX 79 75 72 76 73 77 77 78 80 79 74 80 75 81 78 82 76 83 55 84
REMARK SMILES IDX 56 85 64 86 57 87 58 88 62 89 65 90 59 91 60 92 63 93 61 94
REMARK H PARENT 85 47 53 58
REMARK Flexibility Score: inf
ROOT
ATOM      1  O   UNL     1       2.904  -9.097  -0.578  1.00  0.00    -0.374 OA
ENDROOT
BRANCH   1   2
ATOM      2  C   UNL     1       1.799  -9.992  -0.470  1.00  0.00     0.202 C 
BRANCH   2   3
ATOM      3  C   UNL     1       0.604  -9.500   0.351  1.00  0.00     0.261 C 
BRANCH   3   4
ATOM      4  O   UNL     1       0.090  -8.275  -0.193  1.00  0.00    -0.459 OA
BRANCH   4   5
ATOM      5  C   UNL     1      -0.061  -7.279   0.701  1.00  0.00     0.352 C 
ATOM      6  O   UNL     1      -0.059  -7.358   1.916  1.00  0.00    -0.245 OA
BRANCH   5   7
ATOM      7  C   UNL     1      -0.141  -5.943  -0.030  1.00  0.00     0.132 C 
ATOM      8  C   UNL     1       0.689  -0.241  -0.354  1.00  0.00     0.092 C 
ATOM      9  C   UNL     1       0.411  -1.680  -0.526  1.00  0.00     0.149 A 
ATOM     10  N   UNL     1       1.062  -2.636   0.205  1.00  0.00    -0.195 NA
ATOM     11  N   UNL     1      -0.529  -2.152  -1.354  1.00  0.00    -0.154 NA
ATOM     12  C   UNL     1       0.477  -3.761  -0.140  1.00  0.00     0.249 A 
ATOM     13  N   UNL     1      -0.416  -3.479  -1.138  1.00  0.00    -0.219 N 
ATOM     14  N   UNL     1       0.603  -4.981   0.420  1.00  0.00    -0.209 NA
ATOM     15  C   UNL     1      -1.278  -4.458  -1.771  1.00  0.00     0.184 C 
ATOM     16  C   UNL     1      -1.028  -5.879  -1.248  1.00  0.00     0.100 C 
BRANCH  15  17
ATOM     17  C   UNL     1      -1.157  -4.401  -3.275  1.00  0.00     0.136 A 
ATOM     18  C   UNL     1      -0.507  -3.565  -4.172  1.00  0.00     0.056 A 
ATOM     19  O   UNL     1      -1.849  -5.360  -3.972  1.00  0.00    -0.404 OA
ATOM     20  C   UNL     1      -0.814  -4.026  -5.477  1.00  0.00     0.134 A 
ATOM     21  C   UNL     1      -1.625  -5.118  -5.293  1.00  0.00     0.433 A 
BRANCH  21  22
ATOM     22  N   UNL     1      -2.247  -6.006  -6.224  1.00  0.00     0.102 N 
ATOM     23  O   UNL     1      -2.067  -5.758  -7.423  1.00  0.00    -0.256 OA
ATOM     24  O   UNL     1      -2.901  -6.951  -5.766  1.00  0.00    -0.256 OA
ENDBRANCH  21  22
ENDBRANCH  15  17
ENDBRANCH   5   7
ENDBRANCH   4   5
ENDBRANCH   3   4
ENDBRANCH   2   3
ENDBRANCH   1   2
BRANCH   1  25
ATOM     25  C   UNL     1       2.776  -7.954  -1.416  1.00  0.00     0.202 C 
BRANCH  25  26
ATOM     26  C   UNL     1       2.807  -8.130  -2.942  1.00  0.00     0.261 C 
BRANCH  26  27
ATOM     27  O   UNL     1       2.096  -9.256  -3.463  1.00  0.00    -0.460 OA
BRANCH  27  28
ATOM     28  C   UNL     1       2.877 -10.362  -3.534  1.00  0.00     0.338 C 
ATOM     29  O   UNL     1       4.008 -10.499  -3.101  1.00  0.00    -0.246 OA
BRANCH  28  30
ATOM     30  C   UNL     1       2.179 -11.459  -4.207  1.00  0.00     0.060 A 
ATOM     31  C   UNL     1       2.086 -12.683  -3.539  1.00  0.00     0.016 A 
ATOM     32  C   UNL     1       1.854 -11.345  -5.559  1.00  0.00     0.016 A 
ATOM     33  C   UNL     1       1.722 -13.821  -4.248  1.00  0.00     0.010 A 
ATOM     34  C   UNL     1       1.510 -12.492  -6.269  1.00  0.00     0.010 A 
ATOM     35  C   UNL     1       1.468 -13.740  -5.624  1.00  0.00    -0.014 A 
BRANCH  35  36
ATOM     36  C   UNL     1       1.153 -14.995  -6.338  1.00  0.00     0.031 A 
ATOM     37  C   UNL     1       0.042 -14.883  -7.335  1.00  0.00     0.074 A 
ATOM     38  C   UNL     1       2.128 -15.901  -6.579  1.00  0.00     0.049 A 
ATOM     39  N   UNL     1       0.209 -14.382  -8.525  1.00  0.00    -0.248 NA
ATOM     40  C   UNL     1      -1.362 -15.045  -6.958  1.00  0.00     0.031 C 
ATOM     41  C   UNL     1       3.533 -15.544  -6.820  1.00  0.00     0.029 A 
ATOM     42  N   UNL     1       2.070 -17.250  -6.859  1.00  0.00    -0.354 N 
ATOM     43  C   UNL     1      -1.044 -14.086  -9.028  1.00  0.00     0.074 A 
ATOM     44  C   UNL     1      -1.990 -14.540  -8.033  1.00  0.00     0.031 C 
ATOM     45  C   UNL     1       4.158 -16.600  -7.377  1.00  0.00     0.029 A 
ATOM     46  C   UNL     1       3.247 -17.745  -7.421  1.00  0.00     0.049 A 
ATOM     47  H   UNL     1       1.279 -17.808  -6.681  1.00  0.00     0.167 HD
ATOM     48  C   UNL     1      -1.224 -13.457 -10.219  1.00  0.00     0.037 A 
ATOM     49  C   UNL     1       3.293 -18.696  -8.396  1.00  0.00     0.037 A 
ATOM     50  C   UNL     1      -0.029 -13.119 -10.932  1.00  0.00     0.049 A 
ATOM     51  C   UNL     1       2.777 -17.936  -9.589  1.00  0.00     0.074 A 
ATOM     52  C   UNL     1       0.768 -12.008 -11.105  1.00  0.00     0.029 A 
ATOM     53  N   UNL     1       0.595 -14.113 -11.647  1.00  0.00    -0.354 N 
ATOM     54  N   UNL     1       3.470 -17.112 -10.329  1.00  0.00    -0.248 NA
ATOM     55  C   UNL     1       1.327 -17.834  -9.756  1.00  0.00     0.031 C 
ATOM     56  C   UNL     1       2.042 -12.516 -11.515  1.00  0.00     0.029 A 
ATOM     57  C   UNL     1       1.944 -13.906 -11.517  1.00  0.00     0.049 A 
ATOM     58  H   UNL     1       0.158 -14.834 -12.155  1.00  0.00     0.167 HD
ATOM     59  C   UNL     1       2.539 -16.212 -10.850  1.00  0.00     0.074 A 
ATOM     60  C   UNL     1       1.237 -16.744 -10.505  1.00  0.00     0.031 C 
ATOM     61  C   UNL     1       2.881 -14.990 -11.350  1.00  0.00     0.037 A 
BRANCH  48  62
ATOM     62  C   UNL     1      -2.519 -13.218 -10.881  1.00  0.00     0.064 A 
ATOM     63  C   UNL     1      -2.840 -14.026 -11.983  1.00  0.00     0.173 A 
ATOM     64  C   UNL     1      -3.296 -12.082 -10.643  1.00  0.00     0.173 A 
ATOM     65  F   UNL     1      -2.105 -15.119 -12.246  1.00  0.00    -0.203 F 
ATOM     66  C   UNL     1      -3.865 -13.679 -12.853  1.00  0.00     0.198 A 
ATOM     67  C   UNL     1      -4.334 -11.743 -11.511  1.00  0.00     0.198 A 
ATOM     68  F   UNL     1      -3.014 -11.273  -9.611  1.00  0.00    -0.203 F 
ATOM     69  F   UNL     1      -4.103 -14.435 -13.934  1.00  0.00    -0.200 F 
ATOM     70  C   UNL     1      -4.604 -12.530 -12.625  1.00  0.00     0.200 A 
ATOM     71  F   UNL     1      -5.050 -10.630 -11.298  1.00  0.00    -0.200 F 
ATOM     72  F   UNL     1      -5.563 -12.171 -13.489  1.00  0.00    -0.200 F 
ENDBRANCH  48  62
BRANCH  49  73
ATOM     73  C   UNL     1       2.855 -20.074  -8.021  1.00  0.00     0.064 A 
ATOM     74  C   UNL     1       3.458 -20.677  -6.897  1.00  0.00     0.173 A 
ATOM     75  C   UNL     1       1.905 -20.854  -8.698  1.00  0.00     0.173 A 
ATOM     76  F   UNL     1       4.459 -20.054  -6.255  1.00  0.00    -0.203 F 
ATOM     77  C   UNL     1       3.053 -21.923  -6.415  1.00  0.00     0.198 A 
ATOM     78  C   UNL     1       1.477 -22.087  -8.199  1.00  0.00     0.198 A 
ATOM     79  F   UNL     1       1.364 -20.445  -9.852  1.00  0.00    -0.203 F 
ATOM     80  F   UNL     1       3.637 -22.441  -5.327  1.00  0.00    -0.200 F 
ATOM     81  C   UNL     1       2.038 -22.613  -7.050  1.00  0.00     0.200 A 
ATOM     82  F   UNL     1       0.501 -22.755  -8.831  1.00  0.00    -0.200 F 
ATOM     83  F   UNL     1       1.606 -23.784  -6.562  1.00  0.00    -0.200 F 
ENDBRANCH  49  73
BRANCH  61  84
ATOM     84  C   UNL     1       4.344 -14.731 -11.439  1.00  0.00     0.064 A 
ATOM     85  C   UNL     1       5.125 -15.395 -12.393  1.00  0.00     0.173 A 
ATOM     86  C   UNL     1       4.979 -13.819 -10.582  1.00  0.00     0.173 A 
ATOM     87  F   UNL     1       4.562 -16.272 -13.238  1.00  0.00    -0.203 F 
ATOM     88  C   UNL     1       6.489 -15.143 -12.495  1.00  0.00     0.198 A 
ATOM     89  C   UNL     1       6.337 -13.547 -10.708  1.00  0.00     0.198 A 
ATOM     90  F   UNL     1       4.287 -13.173  -9.630  1.00  0.00    -0.203 F 
ATOM     91  F   UNL     1       7.222 -15.790 -13.413  1.00  0.00    -0.200 F 
ATOM     92  C   UNL     1       7.091 -14.210 -11.663  1.00  0.00     0.200 A 
ATOM     93  F   UNL     1       6.913 -12.632  -9.915  1.00  0.00    -0.200 F 
ATOM     94  F   UNL     1       8.399 -13.943 -11.788  1.00  0.00    -0.200 F 
ENDBRANCH  61  84
ENDBRANCH  35  36
ENDBRANCH  28  30
ENDBRANCH  27  28
ENDBRANCH  26  27
ENDBRANCH  25  26
ENDBRANCH   1  25
TORSDOF 16
