REMARK SMILES C[C@@H](Oc1ccc(N)cc1)C(=O)OCCOCCOC(=O)c1ccc(-c2c3nc(c(-c4c(F)c(F)c(F)c(F)c4F)c4ccc([nH]4)c(-c4c(F)c(F)c(F)c(F)c4F)c4nc(c(-c5c(F)c(F)c(F)c(F)c5F)c5ccc2[nH]5)C=C4)C=C3)cc1
REMARK SMILES IDX 15 1 14 2 13 3 11 4 12 5 2 6 1 7 3 8 4 9 5 10 10 11 6 12
REMARK SMILES IDX 9 13 7 14 8 15 16 18 17 19 18 20 19 21 20 22 21 23 22 24
REMARK SMILES IDX 23 25 84 26 24 27 83 28 25 29 26 30 27 31 77 32 28 33 82 34
REMARK SMILES IDX 76 35 78 36 29 37 81 38 75 39 74 40 30 42 62 43 42 44 61 45
REMARK SMILES IDX 43 46 46 47 60 48 79 49 44 50 45 51 59 53 80 54 47 55 31 56
REMARK SMILES IDX 32 57 40 58 33 59 34 60 38 61 41 62 35 63 36 64 39 65 37 66
REMARK SMILES IDX 63 67 64 68 72 69 65 70 66 71 70 72 73 73 67 74 68 75 71 76
REMARK SMILES IDX 69 77 48 78 49 79 57 80 50 81 51 82 55 83 58 84 52 85 53 86
REMARK SMILES IDX 56 87 54 88
REMARK H PARENT 8 16 8 17 78 41 46 52
REMARK Flexibility Score: inf
ROOT
ATOM      1  C   UNL     1      -3.727   0.127  -0.818  1.00  0.00     0.202 C 
ENDROOT
BRANCH   1   2
ATOM      2  C   UNL     1      -2.856  -0.510  -1.904  1.00  0.00     0.261 C 
BRANCH   2   3
ATOM      3  O   UNL     1      -1.505  -0.691  -1.432  1.00  0.00    -0.461 OA
BRANCH   3   4
ATOM      4  C   UNL     1      -0.513  -0.236  -2.249  1.00  0.00     0.347 C 
ATOM      5  O   UNL     1      -0.694   0.245  -3.362  1.00  0.00    -0.248 OA
BRANCH   4   6
ATOM      6  C   UNL     1       0.875  -0.392  -1.626  1.00  0.00     0.279 C 
ATOM      7  C   UNL     1       0.880  -0.199  -0.110  1.00  0.00     0.066 C 
BRANCH   6   8
ATOM      8  O   UNL     1       1.354  -1.704  -1.954  1.00  0.00    -0.479 OA
BRANCH   8   9
ATOM      9  C   UNL     1       2.692  -1.675  -2.239  1.00  0.00     0.120 A 
ATOM     10  C   UNL     1       3.621  -1.810  -1.212  1.00  0.00     0.048 A 
ATOM     11  C   UNL     1       3.110  -1.550  -3.559  1.00  0.00     0.048 A 
ATOM     12  C   UNL     1       4.984  -1.768  -1.505  1.00  0.00     0.029 A 
ATOM     13  C   UNL     1       4.478  -1.525  -3.845  1.00  0.00     0.029 A 
ATOM     14  C   UNL     1       5.426  -1.654  -2.825  1.00  0.00     0.032 A 
BRANCH  14  15
ATOM     15  N   UNL     1       6.779  -1.550  -3.102  1.00  0.00    -0.399 N 
ATOM     16  H   UNL     1       7.439  -1.641  -2.376  1.00  0.00     0.156 HD
ATOM     17  H   UNL     1       7.082  -1.384  -4.024  1.00  0.00     0.156 HD
ENDBRANCH  14  15
ENDBRANCH   8   9
ENDBRANCH   6   8
ENDBRANCH   4   6
ENDBRANCH   3   4
ENDBRANCH   2   3
ENDBRANCH   1   2
BRANCH   1  18
ATOM     18  O   UNL     1      -3.541   1.529  -0.608  1.00  0.00    -0.374 OA
BRANCH  18  19
ATOM     19  C   UNL     1      -2.314   1.944  -0.014  1.00  0.00     0.202 C 
BRANCH  19  20
ATOM     20  C   UNL     1      -2.224   1.795   1.511  1.00  0.00     0.261 C 
BRANCH  20  21
ATOM     21  O   UNL     1      -2.394   0.433   1.945  1.00  0.00    -0.460 OA
BRANCH  21  22
ATOM     22  C   UNL     1      -3.531   0.211   2.643  1.00  0.00     0.338 C 
ATOM     23  O   UNL     1      -4.346   1.047   3.019  1.00  0.00    -0.246 OA
BRANCH  22  24
ATOM     24  C   UNL     1      -3.788  -1.231   2.801  1.00  0.00     0.060 A 
ATOM     25  C   UNL     1      -5.052  -1.696   2.418  1.00  0.00     0.016 A 
ATOM     26  C   UNL     1      -2.879  -2.085   3.431  1.00  0.00     0.016 A 
ATOM     27  C   UNL     1      -5.446  -2.991   2.739  1.00  0.00     0.010 A 
ATOM     28  C   UNL     1      -3.278  -3.388   3.757  1.00  0.00     0.010 A 
ATOM     29  C   UNL     1      -4.583  -3.826   3.462  1.00  0.00    -0.014 A 
BRANCH  29  30
ATOM     30  C   UNL     1      -5.141  -5.057   4.077  1.00  0.00     0.031 A 
ATOM     31  C   UNL     1      -5.586  -5.009   5.515  1.00  0.00     0.074 A 
ATOM     32  C   UNL     1      -5.335  -6.172   3.352  1.00  0.00     0.049 A 
ATOM     33  N   UNL     1      -6.174  -5.929   6.238  1.00  0.00    -0.248 NA
ATOM     34  C   UNL     1      -5.338  -3.749   6.234  1.00  0.00     0.031 C 
ATOM     35  C   UNL     1      -4.986  -6.334   1.944  1.00  0.00     0.029 A 
ATOM     36  N   UNL     1      -5.891  -7.377   3.705  1.00  0.00    -0.354 N 
ATOM     37  C   UNL     1      -6.361  -5.362   7.492  1.00  0.00     0.074 A 
ATOM     38  C   UNL     1      -5.796  -4.031   7.445  1.00  0.00     0.031 C 
ATOM     39  C   UNL     1      -5.345  -7.567   1.546  1.00  0.00     0.029 A 
ATOM     40  C   UNL     1      -5.934  -8.284   2.677  1.00  0.00     0.049 A 
ATOM     41  H   UNL     1      -6.227  -7.571   4.610  1.00  0.00     0.167 HD
ATOM     42  C   UNL     1      -6.961  -5.895   8.583  1.00  0.00     0.037 A 
ATOM     43  C   UNL     1      -6.399  -9.549   2.653  1.00  0.00     0.037 A 
ATOM     44  C   UNL     1      -7.536  -7.213   8.632  1.00  0.00     0.049 A 
ATOM     45  C   UNL     1      -7.021 -10.136   3.894  1.00  0.00     0.074 A 
ATOM     46  C   UNL     1      -8.186  -7.834   9.685  1.00  0.00     0.029 A 
ATOM     47  N   UNL     1      -7.525  -8.116   7.580  1.00  0.00    -0.354 N 
ATOM     48  N   UNL     1      -7.226  -9.580   5.063  1.00  0.00    -0.248 NA
ATOM     49  C   UNL     1      -7.487 -11.528   3.804  1.00  0.00     0.031 C 
ATOM     50  C   UNL     1      -8.530  -9.130   9.283  1.00  0.00     0.029 A 
ATOM     51  C   UNL     1      -8.138  -9.297   7.965  1.00  0.00     0.049 A 
ATOM     52  H   UNL     1      -7.140  -7.943   6.691  1.00  0.00     0.167 HD
ATOM     53  C   UNL     1      -7.876 -10.536   5.833  1.00  0.00     0.074 A 
ATOM     54  C   UNL     1      -8.035 -11.708   4.998  1.00  0.00     0.031 C 
ATOM     55  C   UNL     1      -8.307 -10.449   7.116  1.00  0.00     0.037 A 
BRANCH  42  56
ATOM     56  C   UNL     1      -7.001  -5.054   9.825  1.00  0.00     0.064 A 
ATOM     57  C   UNL     1      -7.839  -3.935   9.932  1.00  0.00     0.173 A 
ATOM     58  C   UNL     1      -6.197  -5.382  10.927  1.00  0.00     0.173 A 
ATOM     59  F   UNL     1      -8.615  -3.571   8.900  1.00  0.00    -0.203 F 
ATOM     60  C   UNL     1      -7.848  -3.156  11.087  1.00  0.00     0.198 A 
ATOM     61  C   UNL     1      -6.229  -4.617  12.090  1.00  0.00     0.198 A 
ATOM     62  F   UNL     1      -5.380  -6.445  10.876  1.00  0.00    -0.203 F 
ATOM     63  F   UNL     1      -8.620  -2.062  11.149  1.00  0.00    -0.200 F 
ATOM     64  C   UNL     1      -7.048  -3.501  12.166  1.00  0.00     0.200 A 
ATOM     65  F   UNL     1      -5.461  -4.957  13.135  1.00  0.00    -0.200 F 
ATOM     66  F   UNL     1      -7.058  -2.751  13.277  1.00  0.00    -0.200 F 
ENDBRANCH  42  56
BRANCH  43  67
ATOM     67  C   UNL     1      -6.319 -10.344   1.401  1.00  0.00     0.064 A 
ATOM     68  C   UNL     1      -7.474 -10.669   0.678  1.00  0.00     0.173 A 
ATOM     69  C   UNL     1      -5.089 -10.808   0.914  1.00  0.00     0.173 A 
ATOM     70  F   UNL     1      -8.676 -10.270   1.120  1.00  0.00    -0.203 F 
ATOM     71  C   UNL     1      -7.404 -11.442  -0.480  1.00  0.00     0.198 A 
ATOM     72  C   UNL     1      -5.018 -11.560  -0.257  1.00  0.00     0.198 A 
ATOM     73  F   UNL     1      -3.956 -10.527   1.573  1.00  0.00    -0.203 F 
ATOM     74  F   UNL     1      -8.528 -11.774  -1.130  1.00  0.00    -0.200 F 
ATOM     75  C   UNL     1      -6.176 -11.882  -0.949  1.00  0.00     0.200 A 
ATOM     76  F   UNL     1      -3.828 -11.978  -0.711  1.00  0.00    -0.200 F 
ATOM     77  F   UNL     1      -6.109 -12.624  -2.062  1.00  0.00    -0.200 F 
ENDBRANCH  43  67
BRANCH  55  78
ATOM     78  C   UNL     1      -9.040 -11.631   7.680  1.00  0.00     0.064 A 
ATOM     79  C   UNL     1      -8.379 -12.821   8.016  1.00  0.00     0.173 A 
ATOM     80  C   UNL     1     -10.421 -11.556   7.922  1.00  0.00     0.173 A 
ATOM     81  F   UNL     1      -7.062 -12.947   7.792  1.00  0.00    -0.203 F 
ATOM     82  C   UNL     1      -9.077 -13.902   8.546  1.00  0.00     0.198 A 
ATOM     83  C   UNL     1     -11.111 -12.629   8.478  1.00  0.00     0.198 A 
ATOM     84  F   UNL     1     -11.100 -10.437   7.626  1.00  0.00    -0.203 F 
ATOM     85  F   UNL     1      -8.433 -15.046   8.816  1.00  0.00    -0.200 F 
ATOM     86  C   UNL     1     -10.441 -13.804   8.783  1.00  0.00     0.200 A 
ATOM     87  F   UNL     1     -12.426 -12.528   8.717  1.00  0.00    -0.200 F 
ATOM     88  F   UNL     1     -11.110 -14.845   9.297  1.00  0.00    -0.200 F 
ENDBRANCH  55  78
ENDBRANCH  29  30
ENDBRANCH  22  24
ENDBRANCH  21  22
ENDBRANCH  20  21
ENDBRANCH  19  20
ENDBRANCH  18  19
ENDBRANCH   1  18
TORSDOF 17
