REMARK SMILES O=C(C[C@@H](NC(=O)C1CCC1)c1ccc(Cl)cc1)OCCOCCOC(=O)c1ccc(-c2c3nc(c(-c4c(F)c(F)c(F)c(F)c4F)c4ccc([nH]4)c(-c4c(F)c(F)c(F)c(F)c4F)c4nc(c(-c5c(F)c(F)c(F)c(F)c5F)c5ccc2[nH]5)C=C4)C=C3)cc1
REMARK SMILES IDX 21 1 20 2 19 3 2 4 1 5 3 6 4 7 5 8 6 9 7 11 8 12 9 13 11 14
REMARK SMILES IDX 10 15 12 16 13 17 18 18 14 19 17 20 15 21 16 22 22 23 23 24
REMARK SMILES IDX 24 25 25 26 26 27 27 28 28 29 29 30 90 31 30 32 89 33 31 34
REMARK SMILES IDX 32 35 33 36 83 37 34 38 88 39 82 40 84 41 35 42 87 43 81 44
REMARK SMILES IDX 80 45 36 47 68 48 48 49 67 50 49 51 52 52 66 53 85 54 50 55
REMARK SMILES IDX 51 56 65 58 86 59 53 60 37 61 38 62 46 63 39 64 40 65 44 66
REMARK SMILES IDX 47 67 41 68 42 69 45 70 43 71 69 72 70 73 78 74 71 75 72 76
REMARK SMILES IDX 76 77 79 78 73 79 74 80 77 81 75 82 54 83 55 84 63 85 56 86
REMARK SMILES IDX 57 87 61 88 64 89 58 90 59 91 62 92 60 93
REMARK H PARENT 5 10 84 46 52 57
REMARK Flexibility Score: inf
ROOT
ATOM      1  C   UNL     1       4.667   0.093   1.140  1.00  0.00     0.202 C 
ENDROOT
BRANCH   1   2
ATOM      2  C   UNL     1       3.908   1.109   0.287  1.00  0.00     0.261 C 
BRANCH   2   3
ATOM      3  O   UNL     1       2.658   0.758  -0.351  1.00  0.00    -0.463 OA
BRANCH   3   4
ATOM      4  C   UNL     1       2.318  -0.298  -1.106  1.00  0.00     0.308 C 
ATOM      5  O   UNL     1       1.412  -0.190  -1.932  1.00  0.00    -0.252 OA
BRANCH   4   6
ATOM      6  C   UNL     1       2.965  -1.624  -0.883  1.00  0.00     0.152 C 
BRANCH   6   7
ATOM      7  C   UNL     1       3.959  -2.023  -1.973  1.00  0.00     0.123 C 
BRANCH   7   8
ATOM      8  N   UNL     1       4.997  -0.993  -2.220  1.00  0.00    -0.348 N 
ATOM      9  C   UNL     1       6.281  -0.570  -2.037  1.00  0.00     0.223 C 
ATOM     10  H   UNL     1       4.561  -0.297  -2.762  1.00  0.00     0.164 HD
ATOM     11  O   UNL     1       6.374   0.662  -2.239  1.00  0.00    -0.275 OA
BRANCH   9  12
ATOM     12  C   UNL     1       7.557  -1.317  -1.700  1.00  0.00     0.078 C 
ATOM     13  C   UNL     1       7.947  -1.692  -0.261  1.00  0.00     0.013 C 
ATOM     14  C   UNL     1       7.944  -2.716  -2.176  1.00  0.00     0.013 C 
ATOM     15  C   UNL     1       8.597  -2.978  -0.802  1.00  0.00     0.002 C 
ENDBRANCH   9  12
ENDBRANCH   7   8
BRANCH   7  16
ATOM     16  C   UNL     1       4.293  -3.483  -1.761  1.00  0.00    -0.025 A 
ATOM     17  C   UNL     1       3.447  -4.458  -2.330  1.00  0.00     0.007 A 
ATOM     18  C   UNL     1       5.253  -3.927  -0.856  1.00  0.00     0.007 A 
ATOM     19  C   UNL     1       3.646  -5.821  -2.095  1.00  0.00     0.021 A 
ATOM     20  C   UNL     1       5.511  -5.290  -0.674  1.00  0.00     0.021 A 
ATOM     21  C   UNL     1       4.711  -6.234  -1.305  1.00  0.00     0.041 A 
ATOM     22  Cl  UNL     1       5.021  -7.909  -1.082  1.00  0.00    -0.084 Cl
ENDBRANCH   7  16
ENDBRANCH   6   7
ENDBRANCH   4   6
ENDBRANCH   3   4
ENDBRANCH   2   3
ENDBRANCH   1   2
BRANCH   1  23
ATOM     23  O   UNL     1       3.974  -0.838   1.961  1.00  0.00    -0.374 OA
BRANCH  23  24
ATOM     24  C   UNL     1       2.708  -0.507   2.514  1.00  0.00     0.202 C 
BRANCH  24  25
ATOM     25  C   UNL     1       2.805   0.097   3.906  1.00  0.00     0.261 C 
BRANCH  25  26
ATOM     26  O   UNL     1       3.286   1.443   3.812  1.00  0.00    -0.460 OA
BRANCH  26  27
ATOM     27  C   UNL     1       4.598   1.608   4.076  1.00  0.00     0.338 C 
ATOM     28  O   UNL     1       5.400   0.765   4.453  1.00  0.00    -0.246 OA
BRANCH  27  29
ATOM     29  C   UNL     1       4.983   2.972   3.682  1.00  0.00     0.060 A 
ATOM     30  C   UNL     1       6.210   3.151   3.030  1.00  0.00     0.016 A 
ATOM     31  C   UNL     1       4.160   4.063   3.974  1.00  0.00     0.016 A 
ATOM     32  C   UNL     1       6.642   4.433   2.713  1.00  0.00     0.010 A 
ATOM     33  C   UNL     1       4.596   5.347   3.662  1.00  0.00     0.010 A 
ATOM     34  C   UNL     1       5.855   5.535   3.068  1.00  0.00    -0.014 A 
BRANCH  34  35
ATOM     35  C   UNL     1       6.423   6.895   2.993  1.00  0.00     0.031 A 
ATOM     36  C   UNL     1       6.977   7.503   4.248  1.00  0.00     0.074 A 
ATOM     37  C   UNL     1       6.439   7.565   1.830  1.00  0.00     0.049 A 
ATOM     38  N   UNL     1       7.459   8.701   4.450  1.00  0.00    -0.248 NA
ATOM     39  C   UNL     1       6.979   6.642   5.443  1.00  0.00     0.031 C 
ATOM     40  C   UNL     1       5.957   7.048   0.551  1.00  0.00     0.029 A 
ATOM     41  N   UNL     1       6.869   8.835   1.544  1.00  0.00    -0.354 N 
ATOM     42  C   UNL     1       7.813   8.740   5.792  1.00  0.00     0.074 A 
ATOM     43  C   UNL     1       7.461   7.460   6.366  1.00  0.00     0.031 C 
ATOM     44  C   UNL     1       6.104   8.001  -0.385  1.00  0.00     0.029 A 
ATOM     45  C   UNL     1       6.658   9.201   0.239  1.00  0.00     0.049 A 
ATOM     46  H   UNL     1       7.287   9.426   2.211  1.00  0.00     0.167 HD
ATOM     47  C   UNL     1       8.390   9.754   6.478  1.00  0.00     0.037 A 
ATOM     48  C   UNL     1       6.869  10.384  -0.367  1.00  0.00     0.037 A 
ATOM     49  C   UNL     1       8.732  11.022   5.892  1.00  0.00     0.049 A 
ATOM     50  C   UNL     1       7.449  11.520   0.435  1.00  0.00     0.074 A 
ATOM     51  C   UNL     1       9.337  12.114   6.486  1.00  0.00     0.029 A 
ATOM     52  N   UNL     1       8.485  11.369   4.570  1.00  0.00    -0.354 N 
ATOM     53  N   UNL     1       7.810  11.546   1.696  1.00  0.00    -0.248 NA
ATOM     54  C   UNL     1       7.653  12.791  -0.271  1.00  0.00     0.031 C 
ATOM     55  C   UNL     1       9.408  13.140   5.538  1.00  0.00     0.029 A 
ATOM     56  C   UNL     1       8.900  12.669   4.337  1.00  0.00     0.049 A 
ATOM     57  H   UNL     1       8.075  10.777   3.898  1.00  0.00     0.167 HD
ATOM     58  C   UNL     1       8.309  12.821   1.927  1.00  0.00     0.074 A 
ATOM     59  C   UNL     1       8.216  13.535   0.670  1.00  0.00     0.031 C 
ATOM     60  C   UNL     1       8.800  13.355   3.073  1.00  0.00     0.037 A 
BRANCH  47  61
ATOM     61  C   UNL     1       8.656   9.538   7.939  1.00  0.00     0.064 A 
ATOM     62  C   UNL     1       9.641   8.646   8.388  1.00  0.00     0.173 A 
ATOM     63  C   UNL     1       7.923  10.245   8.904  1.00  0.00     0.173 A 
ATOM     64  F   UNL     1      10.357   7.930   7.508  1.00  0.00    -0.203 F 
ATOM     65  C   UNL     1       9.863   8.448   9.749  1.00  0.00     0.198 A 
ATOM     66  C   UNL     1       8.169  10.069  10.263  1.00  0.00     0.198 A 
ATOM     67  F   UNL     1       6.968  11.110   8.530  1.00  0.00    -0.203 F 
ATOM     68  F   UNL     1      10.772   7.551  10.155  1.00  0.00    -0.200 F 
ATOM     69  C   UNL     1       9.132   9.165  10.685  1.00  0.00     0.200 A 
ATOM     70  F   UNL     1       7.468  10.769  11.166  1.00  0.00    -0.200 F 
ATOM     71  F   UNL     1       9.350   8.977  11.994  1.00  0.00    -0.200 F 
ENDBRANCH  47  61
BRANCH  48  72
ATOM     72  C   UNL     1       6.523  10.554  -1.802  1.00  0.00     0.064 A 
ATOM     73  C   UNL     1       7.521  10.736  -2.768  1.00  0.00     0.173 A 
ATOM     74  C   UNL     1       5.189  10.544  -2.235  1.00  0.00     0.173 A 
ATOM     75  F   UNL     1       8.810  10.777  -2.400  1.00  0.00    -0.203 F 
ATOM     76  C   UNL     1       7.198  10.920  -4.111  1.00  0.00     0.198 A 
ATOM     77  C   UNL     1       4.868  10.699  -3.582  1.00  0.00     0.198 A 
ATOM     78  F   UNL     1       4.196  10.374  -1.350  1.00  0.00    -0.203 F 
ATOM     79  F   UNL     1       8.169  11.139  -5.008  1.00  0.00    -0.200 F 
ATOM     80  C   UNL     1       5.872  10.895  -4.518  1.00  0.00     0.200 A 
ATOM     81  F   UNL     1       3.587  10.663  -3.972  1.00  0.00    -0.200 F 
ATOM     82  F   UNL     1       5.562  11.069  -5.810  1.00  0.00    -0.200 F 
ENDBRANCH  48  72
BRANCH  60  83
ATOM     83  C   UNL     1       9.307  14.767   3.010  1.00  0.00     0.064 A 
ATOM     84  C   UNL     1       8.435  15.858   2.883  1.00  0.00     0.173 A 
ATOM     85  C   UNL     1      10.680  15.033   3.125  1.00  0.00     0.173 A 
ATOM     86  F   UNL     1       7.114  15.656   2.757  1.00  0.00    -0.203 F 
ATOM     87  C   UNL     1       8.922  17.162   2.845  1.00  0.00     0.198 A 
ATOM     88  C   UNL     1      11.160  16.338   3.120  1.00  0.00     0.198 A 
ATOM     89  F   UNL     1      11.555  14.024   3.258  1.00  0.00    -0.203 F 
ATOM     90  F   UNL     1       8.075  18.186   2.673  1.00  0.00    -0.200 F 
ATOM     91  C   UNL     1      10.282  17.401   2.972  1.00  0.00     0.200 A 
ATOM     92  F   UNL     1      12.473  16.568   3.259  1.00  0.00    -0.200 F 
ATOM     93  F   UNL     1      10.748  18.657   2.945  1.00  0.00    -0.200 F 
ENDBRANCH  60  83
ENDBRANCH  34  35
ENDBRANCH  27  29
ENDBRANCH  26  27
ENDBRANCH  25  26
ENDBRANCH  24  25
ENDBRANCH  23  24
ENDBRANCH   1  23
TORSDOF 18
