REMARK SMILES CC1(C)C[C@@H](Nc2ccc(Cl)c(C(=O)OCCOCCOC(=O)c3ccc(-c4c5nc(c(-c6c(F)c(F)c(F)c(F)c6F)c6ccc([nH]6)c(-c6c(F)c(F)c(F)c(F)c6F)c6nc(c(-c7c(F)c(F)c(F)c(F)c7F)c7ccc4[nH]7)C=C6)C=C5)cc3)c2)C(C)(C)O1
REMARK SMILES IDX 18 1 17 2 16 3 15 4 13 5 14 6 12 7 7 8 8 9 87 10 9 11 10 12
REMARK SMILES IDX 11 13 6 14 5 16 1 17 2 18 3 19 4 20 91 21 88 22 89 23 90 24
REMARK SMILES IDX 19 25 20 26 21 27 22 28 23 29 24 30 25 31 86 32 26 33 85 34
REMARK SMILES IDX 27 35 28 36 29 37 79 38 30 39 84 40 78 41 80 42 31 43 83 44
REMARK SMILES IDX 77 45 76 46 32 48 64 49 44 50 63 51 45 52 48 53 62 54 81 55
REMARK SMILES IDX 46 56 47 57 61 59 82 60 49 61 33 62 34 63 42 64 35 65 36 66
REMARK SMILES IDX 40 67 43 68 37 69 38 70 41 71 39 72 65 73 66 74 74 75 67 76
REMARK SMILES IDX 68 77 72 78 75 79 69 80 70 81 73 82 71 83 50 84 51 85 59 86
REMARK SMILES IDX 52 87 53 88 57 89 60 90 54 91 55 92 58 93 56 94
REMARK H PARENT 6 15 80 47 48 58
REMARK Flexibility Score: inf
ROOT
ATOM      1  O   UNL     1       3.265  10.121   5.232  1.00  0.00    -0.374 OA
ENDROOT
BRANCH   1   2
ATOM      2  C   UNL     1       2.247  10.499   6.163  1.00  0.00     0.202 C 
BRANCH   2   3
ATOM      3  C   UNL     1       0.862   9.912   5.885  1.00  0.00     0.261 C 
BRANCH   3   4
ATOM      4  O   UNL     1       0.877   8.499   6.142  1.00  0.00    -0.460 OA
BRANCH   4   5
ATOM      5  C   UNL     1       0.350   7.721   5.173  1.00  0.00     0.339 C 
ATOM      6  O   UNL     1      -0.256   8.096   4.178  1.00  0.00    -0.246 OA
BRANCH   5   7
ATOM      7  C   UNL     1       0.795   6.326   5.346  1.00  0.00     0.080 A 
ATOM      8  C   UNL     1       1.715   4.374   4.217  1.00  0.00     0.035 A 
ATOM      9  C   UNL     1       1.573   3.650   5.402  1.00  0.00     0.027 A 
ATOM     10  C   UNL     1       1.327   5.712   4.198  1.00  0.00     0.043 A 
ATOM     11  C   UNL     1       1.082   4.262   6.559  1.00  0.00     0.023 A 
ATOM     12  C   UNL     1       0.684   5.603   6.535  1.00  0.00     0.055 A 
ATOM     13  Cl  UNL     1       0.018   6.261   7.985  1.00  0.00    -0.083 Cl
BRANCH   8  14
ATOM     14  N   UNL     1       2.110   3.740   3.043  1.00  0.00    -0.379 N 
ATOM     15  H   UNL     1       3.039   3.767   2.719  1.00  0.00     0.160 HD
BRANCH  14  16
ATOM     16  C   UNL     1       1.051   3.028   2.322  1.00  0.00     0.113 C 
ATOM     17  C   UNL     1       1.069   0.131   0.003  1.00  0.00     0.042 C 
ATOM     18  C   UNL     1       0.493   1.217   0.906  1.00  0.00     0.065 C 
ATOM     19  C   UNL     1      -0.879   0.779   1.433  1.00  0.00     0.042 C 
ATOM     20  C   UNL     1       1.456   1.598   2.027  1.00  0.00     0.062 C 
ATOM     21  O   UNL     1       0.301   2.414   0.128  1.00  0.00    -0.367 OA
ATOM     22  C   UNL     1       0.716   3.566   0.908  1.00  0.00     0.083 C 
ATOM     23  C   UNL     1       1.894   4.188   0.149  1.00  0.00     0.044 C 
ATOM     24  C   UNL     1      -0.451   4.553   0.939  1.00  0.00     0.044 C 
ENDBRANCH  14  16
ENDBRANCH   8  14
ENDBRANCH   5   7
ENDBRANCH   4   5
ENDBRANCH   3   4
ENDBRANCH   2   3
ENDBRANCH   1   2
BRANCH   1  25
ATOM     25  C   UNL     1       3.811   8.808   5.362  1.00  0.00     0.202 C 
BRANCH  25  26
ATOM     26  C   UNL     1       4.901   8.640   6.427  1.00  0.00     0.261 C 
BRANCH  26  27
ATOM     27  O   UNL     1       4.406   8.881   7.756  1.00  0.00    -0.460 OA
BRANCH  27  28
ATOM     28  C   UNL     1       4.844  10.031   8.319  1.00  0.00     0.338 C 
ATOM     29  O   UNL     1       5.659  10.819   7.859  1.00  0.00    -0.246 OA
BRANCH  28  30
ATOM     30  C   UNL     1       4.082  10.328   9.546  1.00  0.00     0.060 A 
ATOM     31  C   UNL     1       3.552  11.618   9.674  1.00  0.00     0.016 A 
ATOM     32  C   UNL     1       3.959   9.405  10.588  1.00  0.00     0.016 A 
ATOM     33  C   UNL     1       2.950  12.010  10.866  1.00  0.00     0.010 A 
ATOM     34  C   UNL     1       3.357   9.803  11.789  1.00  0.00     0.010 A 
ATOM     35  C   UNL     1       2.886  11.119  11.946  1.00  0.00    -0.014 A 
BRANCH  35  36
ATOM     36  C   UNL     1       2.449  11.627  13.270  1.00  0.00     0.031 A 
ATOM     37  C   UNL     1       3.486  12.006  14.291  1.00  0.00     0.074 A 
ATOM     38  C   UNL     1       1.144  11.812  13.535  1.00  0.00     0.049 A 
ATOM     39  N   UNL     1       3.329  12.524  15.484  1.00  0.00    -0.248 NA
ATOM     40  C   UNL     1       4.889  11.770  13.919  1.00  0.00     0.031 C 
ATOM     41  C   UNL     1       0.046  11.505  12.621  1.00  0.00     0.029 A 
ATOM     42  N   UNL     1       0.524  12.311  14.653  1.00  0.00    -0.354 N 
ATOM     43  C   UNL     1       4.609  12.679  16.000  1.00  0.00     0.074 A 
ATOM     44  C   UNL     1       5.530  12.166  15.009  1.00  0.00     0.031 C 
ATOM     45  C   UNL     1      -1.116  11.825  13.215  1.00  0.00     0.029 A 
ATOM     46  C   UNL     1      -0.844  12.342  14.555  1.00  0.00     0.049 A 
ATOM     47  H   UNL     1       1.014  12.618  15.450  1.00  0.00     0.167 HD
ATOM     48  C   UNL     1       4.984  13.215  17.187  1.00  0.00     0.037 A 
ATOM     49  C   UNL     1      -1.771  12.739  15.448  1.00  0.00     0.037 A 
ATOM     50  C   UNL     1       4.069  13.725  18.175  1.00  0.00     0.049 A 
ATOM     51  C   UNL     1      -1.329  13.291  16.779  1.00  0.00     0.074 A 
ATOM     52  C   UNL     1       4.354  14.300  19.401  1.00  0.00     0.029 A 
ATOM     53  N   UNL     1       2.688  13.715  18.050  1.00  0.00    -0.354 N 
ATOM     54  N   UNL     1      -0.116  13.468  17.242  1.00  0.00    -0.248 NA
ATOM     55  C   UNL     1      -2.391  13.710  17.706  1.00  0.00     0.031 C 
ATOM     56  C   UNL     1       3.144  14.599  20.038  1.00  0.00     0.029 A 
ATOM     57  C   UNL     1       2.106  14.256  19.186  1.00  0.00     0.049 A 
ATOM     58  H   UNL     1       2.194  13.375  17.270  1.00  0.00     0.167 HD
ATOM     59  C   UNL     1      -0.266  14.044  18.498  1.00  0.00     0.074 A 
ATOM     60  C   UNL     1      -1.689  14.201  18.717  1.00  0.00     0.031 C 
ATOM     61  C   UNL     1       0.688  14.410  19.389  1.00  0.00     0.037 A 
BRANCH  48  62
ATOM     62  C   UNL     1       6.453  13.259  17.491  1.00  0.00     0.064 A 
ATOM     63  C   UNL     1       7.314  14.150  16.831  1.00  0.00     0.173 A 
ATOM     64  C   UNL     1       7.001  12.424  18.475  1.00  0.00     0.173 A 
ATOM     65  F   UNL     1       6.841  14.960  15.872  1.00  0.00    -0.203 F 
ATOM     66  C   UNL     1       8.673  14.185  17.130  1.00  0.00     0.198 A 
ATOM     67  C   UNL     1       8.356  12.482  18.791  1.00  0.00     0.198 A 
ATOM     68  F   UNL     1       6.221  11.557  19.138  1.00  0.00    -0.203 F 
ATOM     69  F   UNL     1       9.485  15.013  16.457  1.00  0.00    -0.200 F 
ATOM     70  C   UNL     1       9.192  13.356  18.113  1.00  0.00     0.200 A 
ATOM     71  F   UNL     1       8.854  11.687  19.749  1.00  0.00    -0.200 F 
ATOM     72  F   UNL     1      10.500  13.396  18.404  1.00  0.00    -0.200 F 
ENDBRANCH  48  62
BRANCH  49  73
ATOM     73  C   UNL     1      -3.214  12.641  15.112  1.00  0.00     0.064 A 
ATOM     74  C   UNL     1      -3.990  13.790  14.904  1.00  0.00     0.173 A 
ATOM     75  C   UNL     1      -3.851  11.396  15.012  1.00  0.00     0.173 A 
ATOM     76  F   UNL     1      -3.431  15.004  15.016  1.00  0.00    -0.203 F 
ATOM     77  C   UNL     1      -5.352  13.697  14.628  1.00  0.00     0.198 A 
ATOM     78  C   UNL     1      -5.208  11.303  14.708  1.00  0.00     0.198 A 
ATOM     79  F   UNL     1      -3.153  10.267  15.204  1.00  0.00    -0.203 F 
ATOM     80  F   UNL     1      -6.081  14.812  14.482  1.00  0.00    -0.200 F 
ATOM     81  C   UNL     1      -5.959  12.454  14.525  1.00  0.00     0.200 A 
ATOM     82  F   UNL     1      -5.788  10.101  14.601  1.00  0.00    -0.200 F 
ATOM     83  F   UNL     1      -7.269  12.366  14.259  1.00  0.00    -0.200 F 
ENDBRANCH  49  73
BRANCH  61  84
ATOM     84  C   UNL     1       0.224  15.049  20.667  1.00  0.00     0.064 A 
ATOM     85  C   UNL     1      -0.429  14.312  21.666  1.00  0.00     0.173 A 
ATOM     86  C   UNL     1       0.451  16.414  20.901  1.00  0.00     0.173 A 
ATOM     87  F   UNL     1      -0.682  13.007  21.485  1.00  0.00    -0.203 F 
ATOM     88  C   UNL     1      -0.868  14.925  22.836  1.00  0.00     0.198 A 
ATOM     89  C   UNL     1       0.037  17.017  22.086  1.00  0.00     0.198 A 
ATOM     90  F   UNL     1       1.079  17.163  19.982  1.00  0.00    -0.203 F 
ATOM     91  F   UNL     1      -1.540  14.213  23.752  1.00  0.00    -0.200 F 
ATOM     92  C   UNL     1      -0.631  16.275  23.047  1.00  0.00     0.200 A 
ATOM     93  F   UNL     1       0.279  18.319  22.293  1.00  0.00    -0.200 F 
ATOM     94  F   UNL     1      -1.056  16.864  24.174  1.00  0.00    -0.200 F 
ENDBRANCH  61  84
ENDBRANCH  35  36
ENDBRANCH  28  30
ENDBRANCH  27  28
ENDBRANCH  26  27
ENDBRANCH  25  26
ENDBRANCH   1  25
TORSDOF 16
