REMARK SMILES CC(=O)O[C@@H]1[C@H](O)C(C)=C(CC[C@@H](C)CC(=O)OCCOCCOC(=O)c2ccc(-c3c4nc(c(-c5c(F)c(F)c(F)c(F)c5F)c5ccc([nH]5)c(-c5c(F)c(F)c(F)c(F)c5F)c5nc(c(-c6c(F)c(F)c(F)c(F)c6F)c6ccc3[nH]6)C=C5)C=C4)cc2)[C@@]2(C)CCCC(C)(C)[C@H]12
REMARK SMILES IDX 19 1 18 2 16 3 17 4 15 5 13 6 14 7 12 8 11 9 10 10 5 11 6 12
REMARK SMILES IDX 98 13 8 14 90 15 95 16 9 17 92 18 91 19 94 20 96 21 97 22
REMARK SMILES IDX 93 23 4 24 2 25 1 26 3 27 7 28 20 30 21 31 22 32 23 33 24 34
REMARK SMILES IDX 25 35 26 36 27 37 28 38 89 39 29 40 88 41 30 42 31 43 32 44
REMARK SMILES IDX 82 45 33 46 87 47 81 48 83 49 34 50 86 51 80 52 79 53 35 55
REMARK SMILES IDX 67 56 47 57 66 58 48 59 51 60 65 61 84 62 49 63 50 64 64 66
REMARK SMILES IDX 85 67 52 68 36 69 37 70 45 71 38 72 39 73 43 74 46 75 40 76
REMARK SMILES IDX 41 77 44 78 42 79 68 80 69 81 77 82 70 83 71 84 75 85 78 86
REMARK SMILES IDX 72 87 73 88 76 89 74 90 53 91 54 92 62 93 55 94 56 95 60 96
REMARK SMILES IDX 63 97 57 98 58 99 61 100 59 101
REMARK H PARENT 7 29 83 54 51 65
REMARK Flexibility Score: inf
ROOT
ATOM      1  C   UNL     1       5.030   7.191   2.548  1.00  0.00     0.261 C 
ENDROOT
BRANCH   1   2
ATOM      2  O   UNL     1       3.661   6.760   2.325  1.00  0.00    -0.463 OA
BRANCH   2   3
ATOM      3  C   UNL     1       2.696   7.721   2.426  1.00  0.00     0.306 C 
ATOM      4  O   UNL     1       2.897   8.914   2.239  1.00  0.00    -0.252 OA
BRANCH   3   5
ATOM      5  C   UNL     1       1.366   7.173   2.957  1.00  0.00     0.126 C 
BRANCH   5   6
ATOM      6  C   UNL     1       0.313   6.615   1.954  1.00  0.00    -0.003 C 
ATOM      7  C   UNL     1      -1.099   7.003   2.408  1.00  0.00     0.008 C 
BRANCH   6   8
ATOM      8  C   UNL     1       0.422   5.069   1.855  1.00  0.00     0.008 C 
BRANCH   8   9
ATOM      9  C   UNL     1      -0.364   4.314   0.750  1.00  0.00     0.032 C 
BRANCH   9  10
ATOM     10  C   UNL     1      -0.212   4.561  -0.759  1.00  0.00    -0.062 C 
ATOM     11  C   UNL     1       0.961   2.196  -1.753  1.00  0.00     0.213 C 
ATOM     12  C   UNL     1      -0.576   2.309  -1.539  1.00  0.00     0.181 C 
ATOM     13  C   UNL     1       1.745   3.622  -1.859  1.00  0.00     0.049 C 
ATOM     14  C   UNL     1      -0.912   3.783  -1.674  1.00  0.00    -0.042 C 
ATOM     15  C   UNL     1       1.136   5.030  -1.323  1.00  0.00    -0.004 C 
ATOM     16  C   UNL     1       3.141   3.805  -2.544  1.00  0.00    -0.028 C 
ATOM     17  C   UNL     1      -1.069   4.105  -3.176  1.00  0.00     0.042 C 
ATOM     18  C   UNL     1       2.343   5.646  -0.500  1.00  0.00     0.011 C 
ATOM     19  C   UNL     1       0.718   6.286  -2.173  1.00  0.00     0.016 C 
ATOM     20  C   UNL     1       4.090   3.933  -1.320  1.00  0.00     0.007 C 
ATOM     21  C   UNL     1       3.292   5.063  -3.435  1.00  0.00     0.011 C 
ATOM     22  C   UNL     1       3.565   2.683  -3.495  1.00  0.00     0.011 C 
ATOM     23  C   UNL     1       3.533   4.752  -0.143  1.00  0.00     0.001 C 
BRANCH  11  24
ATOM     24  O   UNL     1       1.272   1.240  -2.791  1.00  0.00    -0.459 OA
BRANCH  24  25
ATOM     25  C   UNL     1       2.087   0.161  -2.612  1.00  0.00     0.303 C 
ATOM     26  C   UNL     1       2.817   0.000  -1.302  1.00  0.00     0.139 C 
ATOM     27  O   UNL     1       2.253  -0.639  -3.529  1.00  0.00    -0.253 OA
ENDBRANCH  24  25
ENDBRANCH  11  24
BRANCH  12  28
ATOM     28  O   UNL     1      -1.308   1.473  -2.429  1.00  0.00    -0.385 OA
ATOM     29  H   UNL     1      -1.108   1.724  -3.345  1.00  0.00     0.211 HD
ENDBRANCH  12  28
ENDBRANCH   9  10
ENDBRANCH   8   9
ENDBRANCH   6   8
ENDBRANCH   5   6
ENDBRANCH   3   5
ENDBRANCH   2   3
ENDBRANCH   1   2
BRANCH   1  30
ATOM     30  C   UNL     1       5.947   7.353   1.321  1.00  0.00     0.202 C 
BRANCH  30  31
ATOM     31  O   UNL     1       5.764   8.561   0.590  1.00  0.00    -0.374 OA
BRANCH  31  32
ATOM     32  C   UNL     1       4.850   8.466  -0.501  1.00  0.00     0.202 C 
BRANCH  32  33
ATOM     33  C   UNL     1       5.500   7.962  -1.804  1.00  0.00     0.261 C 
BRANCH  33  34
ATOM     34  O   UNL     1       5.954   6.592  -1.692  1.00  0.00    -0.460 OA
BRANCH  34  35
ATOM     35  C   UNL     1       7.207   6.295  -2.152  1.00  0.00     0.338 C 
ATOM     36  O   UNL     1       8.000   7.039  -2.657  1.00  0.00    -0.246 OA
BRANCH  35  37
ATOM     37  C   UNL     1       7.442   4.834  -1.952  1.00  0.00     0.060 A 
ATOM     38  C   UNL     1       8.095   4.341  -0.826  1.00  0.00     0.016 A 
ATOM     39  C   UNL     1       6.895   3.928  -2.851  1.00  0.00     0.016 A 
ATOM     40  C   UNL     1       8.191   2.942  -0.610  1.00  0.00     0.010 A 
ATOM     41  C   UNL     1       6.849   2.559  -2.520  1.00  0.00     0.010 A 
ATOM     42  C   UNL     1       7.537   1.999  -1.433  1.00  0.00    -0.014 A 
BRANCH  42  43
ATOM     43  C   UNL     1       7.606   0.487  -1.202  1.00  0.00     0.031 A 
ATOM     44  C   UNL     1       7.679  -0.524  -2.361  1.00  0.00     0.074 A 
ATOM     45  C   UNL     1       7.560  -0.069   0.037  1.00  0.00     0.049 A 
ATOM     46  N   UNL     1       7.766  -1.841  -2.318  1.00  0.00    -0.248 NA
ATOM     47  C   UNL     1       7.545  -0.019  -3.733  1.00  0.00     0.031 C 
ATOM     48  C   UNL     1       7.289   0.629   1.294  1.00  0.00     0.029 A 
ATOM     49  N   UNL     1       7.759  -1.379   0.445  1.00  0.00    -0.354 N 
ATOM     50  C   UNL     1       7.624  -2.282  -3.632  1.00  0.00     0.074 A 
ATOM     51  C   UNL     1       7.286  -1.121  -4.417  1.00  0.00     0.031 C 
ATOM     52  C   UNL     1       7.439  -0.223   2.323  1.00  0.00     0.029 A 
ATOM     53  C   UNL     1       7.787  -1.547   1.812  1.00  0.00     0.049 A 
ATOM     54  H   UNL     1       7.870  -2.125  -0.188  1.00  0.00     0.167 HD
ATOM     55  C   UNL     1       7.858  -3.497  -4.193  1.00  0.00     0.037 A 
ATOM     56  C   UNL     1       8.087  -2.619   2.581  1.00  0.00     0.037 A 
ATOM     57  C   UNL     1       8.331  -4.653  -3.484  1.00  0.00     0.049 A 
ATOM     58  C   UNL     1       8.476  -3.941   1.960  1.00  0.00     0.074 A 
ATOM     59  C   UNL     1       8.751  -5.869  -3.998  1.00  0.00     0.029 A 
ATOM     60  N   UNL     1       8.456  -4.736  -2.111  1.00  0.00    -0.354 N 
ATOM     61  N   UNL     1       8.531  -4.280   0.697  1.00  0.00    -0.248 NA
ATOM     62  C   UNL     1       8.864  -5.026   2.880  1.00  0.00     0.031 C 
ATOM     63  C   UNL     1       9.098  -6.702  -2.930  1.00  0.00     0.029 A 
ATOM     64  C   UNL     1       8.938  -5.986  -1.757  1.00  0.00     0.049 A 
ATOM     65  H   UNL     1       8.237  -4.014  -1.478  1.00  0.00     0.167 HD
ATOM     66  C   UNL     1       8.988  -5.595   0.671  1.00  0.00     0.074 A 
ATOM     67  C   UNL     1       9.213  -5.992   2.041  1.00  0.00     0.031 C 
ATOM     68  C   UNL     1       9.196  -6.395  -0.402  1.00  0.00     0.037 A 
BRANCH  55  69
ATOM     69  C   UNL     1       7.697  -3.617  -5.689  1.00  0.00     0.064 A 
ATOM     70  C   UNL     1       8.532  -2.913  -6.574  1.00  0.00     0.173 A 
ATOM     71  C   UNL     1       6.725  -4.461  -6.246  1.00  0.00     0.173 A 
ATOM     72  F   UNL     1       9.488  -2.099  -6.098  1.00  0.00    -0.203 F 
ATOM     73  C   UNL     1       8.351  -2.989  -7.951  1.00  0.00     0.198 A 
ATOM     74  C   UNL     1       6.580  -4.574  -7.628  1.00  0.00     0.198 A 
ATOM     75  F   UNL     1       5.923  -5.188  -5.454  1.00  0.00    -0.203 F 
ATOM     76  F   UNL     1       9.105  -2.237  -8.765  1.00  0.00    -0.200 F 
ATOM     77  C   UNL     1       7.379  -3.824  -8.477  1.00  0.00     0.200 A 
ATOM     78  F   UNL     1       5.663  -5.407  -8.139  1.00  0.00    -0.200 F 
ATOM     79  F   UNL     1       7.211  -3.902  -9.804  1.00  0.00    -0.200 F 
ENDBRANCH  55  69
BRANCH  56  80
ATOM     80  C   UNL     1       8.120  -2.484   4.066  1.00  0.00     0.064 A 
ATOM     81  C   UNL     1       9.341  -2.508   4.760  1.00  0.00     0.173 A 
ATOM     82  C   UNL     1       6.946  -2.375   4.822  1.00  0.00     0.173 A 
ATOM     83  F   UNL     1      10.491  -2.643   4.083  1.00  0.00    -0.203 F 
ATOM     84  C   UNL     1       9.383  -2.456   6.152  1.00  0.00     0.198 A 
ATOM     85  C   UNL     1       6.991  -2.292   6.214  1.00  0.00     0.198 A 
ATOM     86  F   UNL     1       5.753  -2.346   4.210  1.00  0.00    -0.203 F 
ATOM     87  F   UNL     1      10.559  -2.540   6.788  1.00  0.00    -0.200 F 
ATOM     88  C   UNL     1       8.208  -2.343   6.878  1.00  0.00     0.200 A 
ATOM     89  F   UNL     1       5.854  -2.171   6.913  1.00  0.00    -0.200 F 
ATOM     90  F   UNL     1       8.248  -2.292   8.216  1.00  0.00    -0.200 F 
ENDBRANCH  56  80
BRANCH  68  91
ATOM     91  C   UNL     1       9.742  -7.777  -0.175  1.00  0.00     0.064 A 
ATOM     92  C   UNL     1       8.971  -8.791   0.412  1.00  0.00     0.173 A 
ATOM     93  C   UNL     1      11.034  -8.110  -0.614  1.00  0.00     0.173 A 
ATOM     94  F   UNL     1       7.734  -8.526   0.858  1.00  0.00    -0.203 F 
ATOM     95  C   UNL     1       9.479 -10.080   0.568  1.00  0.00     0.198 A 
ATOM     96  C   UNL     1      11.527  -9.406  -0.484  1.00  0.00     0.198 A 
ATOM     97  F   UNL     1      11.812  -7.182  -1.191  1.00  0.00    -0.203 F 
ATOM     98  F   UNL     1       8.737 -11.022   1.167  1.00  0.00    -0.200 F 
ATOM     99  C   UNL     1      10.752 -10.388   0.112  1.00  0.00     0.200 A 
ATOM    100  F   UNL     1      12.752  -9.705  -0.940  1.00  0.00    -0.200 F 
ATOM    101  F   UNL     1      11.233 -11.632   0.252  1.00  0.00    -0.200 F 
ENDBRANCH  68  91
ENDBRANCH  42  43
ENDBRANCH  35  37
ENDBRANCH  34  35
ENDBRANCH  33  34
ENDBRANCH  32  33
ENDBRANCH  31  32
ENDBRANCH  30  31
ENDBRANCH   1  30
TORSDOF 21
