REMARK SMILES CS(=O)(=O)NCCC(=O)N1CCC(Cc2cccc(C(=O)OCCOCCOC(=O)c3ccc(-c4c5nc(c(-c6c(F)c(F)c(F)c(F)c6F)c6ccc([nH]6)c(-c6c(F)c(F)c(F)c(F)c6F)c6nc(c(-c7c(F)c(F)c(F)c(F)c7F)c7ccc4[nH]7)C=C6)C=C5)cc3)c2)CC1
REMARK SMILES IDX 23 1 22 2 20 3 21 4 19 5 15 6 16 7 94 8 17 9 18 10 14 11
REMARK SMILES IDX 13 12 8 13 9 14 10 15 11 16 96 17 12 18 95 19 7 20 6 21 5 22
REMARK SMILES IDX 2 24 1 25 3 26 4 27 24 28 25 29 26 30 27 31 28 32 29 33
REMARK SMILES IDX 30 34 31 35 32 36 93 37 33 38 92 39 34 40 35 41 36 42 86 43
REMARK SMILES IDX 37 44 91 45 85 46 87 47 38 48 90 49 84 50 83 51 39 53 71 54
REMARK SMILES IDX 51 55 70 56 52 57 55 58 69 59 88 60 53 61 54 62 68 64 89 65
REMARK SMILES IDX 56 66 40 67 41 68 49 69 42 70 43 71 47 72 50 73 44 74 45 75
REMARK SMILES IDX 48 76 46 77 72 78 73 79 81 80 74 81 75 82 79 83 82 84 76 85
REMARK SMILES IDX 77 86 80 87 78 88 57 89 58 90 66 91 59 92 60 93 64 94 67 95
REMARK SMILES IDX 61 96 62 97 65 98 63 99
REMARK H PARENT 5 23 87 52 55 63
REMARK Flexibility Score: inf
ROOT
ATOM      1  C   UNL     1      -6.758  -0.034  -8.160  1.00  0.00     0.261 C 
ENDROOT
BRANCH   1   2
ATOM      2  O   UNL     1      -5.599   0.809  -8.105  1.00  0.00    -0.460 OA
BRANCH   2   3
ATOM      3  C   UNL     1      -4.813   0.776  -9.211  1.00  0.00     0.338 C 
ATOM      4  O   UNL     1      -4.889  -0.013 -10.137  1.00  0.00    -0.246 OA
BRANCH   3   5
ATOM      5  C   UNL     1      -3.936   1.972  -9.234  1.00  0.00     0.060 A 
ATOM      6  C   UNL     1      -2.627   3.700  -8.137  1.00  0.00    -0.047 A 
ATOM      7  C   UNL     1      -2.297   4.226  -9.393  1.00  0.00     0.004 A 
ATOM      8  C   UNL     1      -3.494   2.597  -8.063  1.00  0.00     0.019 A 
ATOM      9  C   UNL     1      -2.778   3.633 -10.559  1.00  0.00     0.001 A 
ATOM     10  C   UNL     1      -3.579   2.496 -10.481  1.00  0.00     0.016 A 
BRANCH   6  11
ATOM     11  C   UNL     1      -1.989   4.270  -6.892  1.00  0.00     0.039 C 
BRANCH  11  12
ATOM     12  C   UNL     1      -1.296   3.197  -6.031  1.00  0.00    -0.003 C 
ATOM     13  C   UNL     1       2.290   1.823  -4.531  1.00  0.00     0.223 C 
ATOM     14  O   UNL     1       3.065   2.031  -5.468  1.00  0.00    -0.275 OA
ATOM     15  N   UNL     1       0.925   1.890  -4.712  1.00  0.00    -0.343 N 
ATOM     16  C   UNL     1       0.356   1.307  -5.918  1.00  0.00     0.119 C 
ATOM     17  C   UNL     1       0.061   2.776  -3.950  1.00  0.00     0.119 C 
ATOM     18  C   UNL     1      -0.264   2.366  -6.819  1.00  0.00     0.025 C 
ATOM     19  C   UNL     1      -0.595   3.841  -4.829  1.00  0.00     0.025 C 
BRANCH  13  20
ATOM     20  C   UNL     1       2.813   1.181  -3.252  1.00  0.00     0.116 C 
BRANCH  20  21
ATOM     21  C   UNL     1       2.384   1.687  -1.888  1.00  0.00     0.108 C 
BRANCH  21  22
ATOM     22  N   UNL     1       1.026   1.321  -1.488  1.00  0.00    -0.215 NA
ATOM     23  H   UNL     1       0.816   1.907  -0.679  1.00  0.00     0.140 HD
BRANCH  22  24
ATOM     24  S   UNL     1       0.530  -0.206  -1.067  1.00  0.00     0.208 S 
ATOM     25  C   UNL     1       1.148  -0.371   0.593  1.00  0.00     0.176 C 
ATOM     26  O   UNL     1       1.194  -1.171  -1.912  1.00  0.00    -0.213 OA
ATOM     27  O   UNL     1      -0.911  -0.120  -0.999  1.00  0.00    -0.213 OA
ENDBRANCH  22  24
ENDBRANCH  21  22
ENDBRANCH  20  21
ENDBRANCH  13  20
ENDBRANCH  11  12
ENDBRANCH   6  11
ENDBRANCH   3   5
ENDBRANCH   2   3
ENDBRANCH   1   2
BRANCH   1  28
ATOM     28  C   UNL     1      -8.040   0.797  -8.295  1.00  0.00     0.202 C 
BRANCH  28  29
ATOM     29  O   UNL     1      -8.180   1.599  -9.467  1.00  0.00    -0.374 OA
BRANCH  29  30
ATOM     30  C   UNL     1      -7.467   2.835  -9.514  1.00  0.00     0.202 C 
BRANCH  30  31
ATOM     31  C   UNL     1      -8.046   4.021  -8.734  1.00  0.00     0.261 C 
BRANCH  31  32
ATOM     32  O   UNL     1      -8.115   3.773  -7.319  1.00  0.00    -0.460 OA
BRANCH  32  33
ATOM     33  C   UNL     1      -9.364   3.521  -6.862  1.00  0.00     0.338 C 
ATOM     34  O   UNL     1     -10.407   3.553  -7.492  1.00  0.00    -0.246 OA
BRANCH  33  35
ATOM     35  C   UNL     1      -9.302   3.019  -5.478  1.00  0.00     0.060 A 
ATOM     36  C   UNL     1      -9.950   1.808  -5.205  1.00  0.00     0.016 A 
ATOM     37  C   UNL     1      -8.707   3.756  -4.452  1.00  0.00     0.016 A 
ATOM     38  C   UNL     1     -10.065   1.361  -3.892  1.00  0.00     0.010 A 
ATOM     39  C   UNL     1      -8.826   3.306  -3.133  1.00  0.00     0.010 A 
ATOM     40  C   UNL     1      -9.543   2.130  -2.844  1.00  0.00    -0.014 A 
BRANCH  40  41
ATOM     41  C   UNL     1      -9.885   1.775  -1.445  1.00  0.00     0.031 A 
ATOM     42  C   UNL     1     -10.941   2.568  -0.725  1.00  0.00     0.074 A 
ATOM     43  C   UNL     1      -9.294   0.730  -0.840  1.00  0.00     0.049 A 
ATOM     44  N   UNL     1     -11.388   2.441   0.499  1.00  0.00    -0.248 NA
ATOM     45  C   UNL     1     -11.578   3.653  -1.487  1.00  0.00     0.031 C 
ATOM     46  C   UNL     1      -8.283  -0.134  -1.446  1.00  0.00     0.029 A 
ATOM     47  N   UNL     1      -9.460   0.222   0.424  1.00  0.00    -0.354 N 
ATOM     48  C   UNL     1     -12.349   3.433   0.655  1.00  0.00     0.074 A 
ATOM     49  C   UNL     1     -12.395   4.177  -0.584  1.00  0.00     0.031 C 
ATOM     50  C   UNL     1      -7.914  -1.065  -0.551  1.00  0.00     0.029 A 
ATOM     51  C   UNL     1      -8.638  -0.842   0.699  1.00  0.00     0.049 A 
ATOM     52  H   UNL     1     -10.107   0.585   1.071  1.00  0.00     0.167 HD
ATOM     53  C   UNL     1     -13.130   3.690   1.732  1.00  0.00     0.037 A 
ATOM     54  C   UNL     1      -8.475  -1.542   1.838  1.00  0.00     0.037 A 
ATOM     55  C   UNL     1     -13.083   2.943   2.963  1.00  0.00     0.049 A 
ATOM     56  C   UNL     1      -9.312  -1.195   3.043  1.00  0.00     0.074 A 
ATOM     57  C   UNL     1     -13.848   3.111   4.104  1.00  0.00     0.029 A 
ATOM     58  N   UNL     1     -12.216   1.889   3.215  1.00  0.00    -0.354 N 
ATOM     59  N   UNL     1     -10.237  -0.275   3.175  1.00  0.00    -0.248 NA
ATOM     60  C   UNL     1      -9.086  -1.992   4.256  1.00  0.00     0.031 C 
ATOM     61  C   UNL     1     -13.402   2.201   5.068  1.00  0.00     0.029 A 
ATOM     62  C   UNL     1     -12.407   1.418   4.505  1.00  0.00     0.049 A 
ATOM     63  H   UNL     1     -11.562   1.530   2.573  1.00  0.00     0.167 HD
ATOM     64  C   UNL     1     -10.726  -0.405   4.469  1.00  0.00     0.074 A 
ATOM     65  C   UNL     1     -10.004  -1.503   5.076  1.00  0.00     0.031 C 
ATOM     66  C   UNL     1     -11.686   0.319   5.097  1.00  0.00     0.037 A 
BRANCH  53  67
ATOM     67  C   UNL     1     -14.083   4.848   1.640  1.00  0.00     0.064 A 
ATOM     68  C   UNL     1     -15.209   4.819   0.803  1.00  0.00     0.173 A 
ATOM     69  C   UNL     1     -13.885   5.992   2.429  1.00  0.00     0.173 A 
ATOM     70  F   UNL     1     -15.439   3.756   0.018  1.00  0.00    -0.203 F 
ATOM     71  C   UNL     1     -16.084   5.901   0.739  1.00  0.00     0.198 A 
ATOM     72  C   UNL     1     -14.780   7.058   2.387  1.00  0.00     0.198 A 
ATOM     73  F   UNL     1     -12.827   6.073   3.250  1.00  0.00    -0.203 F 
ATOM     74  F   UNL     1     -17.124   5.871  -0.106  1.00  0.00    -0.200 F 
ATOM     75  C   UNL     1     -15.873   7.016   1.536  1.00  0.00     0.200 A 
ATOM     76  F   UNL     1     -14.582   8.128   3.170  1.00  0.00    -0.200 F 
ATOM     77  F   UNL     1     -16.721   8.052   1.480  1.00  0.00    -0.200 F 
ENDBRANCH  53  67
BRANCH  54  78
ATOM     78  C   UNL     1      -7.472  -2.638   1.899  1.00  0.00     0.064 A 
ATOM     79  C   UNL     1      -7.866  -3.975   2.050  1.00  0.00     0.173 A 
ATOM     80  C   UNL     1      -6.097  -2.368   1.832  1.00  0.00     0.173 A 
ATOM     81  F   UNL     1      -9.168  -4.282   2.147  1.00  0.00    -0.203 F 
ATOM     82  C   UNL     1      -6.923  -4.996   2.154  1.00  0.00     0.198 A 
ATOM     83  C   UNL     1      -5.156  -3.393   1.903  1.00  0.00     0.198 A 
ATOM     84  F   UNL     1      -5.667  -1.105   1.694  1.00  0.00    -0.203 F 
ATOM     85  F   UNL     1      -7.326  -6.258   2.355  1.00  0.00    -0.200 F 
ATOM     86  C   UNL     1      -5.570  -4.705   2.074  1.00  0.00     0.200 A 
ATOM     87  F   UNL     1      -3.850  -3.108   1.819  1.00  0.00    -0.200 F 
ATOM     88  F   UNL     1      -4.664  -5.687   2.175  1.00  0.00    -0.200 F 
ENDBRANCH  54  78
BRANCH  66  89
ATOM     89  C   UNL     1     -12.048  -0.084   6.500  1.00  0.00     0.064 A 
ATOM     90  C   UNL     1     -11.166   0.098   7.576  1.00  0.00     0.173 A 
ATOM     91  C   UNL     1     -13.308  -0.639   6.774  1.00  0.00     0.173 A 
ATOM     92  F   UNL     1      -9.945   0.613   7.368  1.00  0.00    -0.203 F 
ATOM     93  C   UNL     1     -11.518  -0.294   8.865  1.00  0.00     0.198 A 
ATOM     94  C   UNL     1     -13.670  -0.995   8.070  1.00  0.00     0.198 A 
ATOM     95  F   UNL     1     -14.195  -0.826   5.785  1.00  0.00    -0.203 F 
ATOM     96  F   UNL     1     -10.635  -0.167   9.866  1.00  0.00    -0.200 F 
ATOM     97  C   UNL     1     -12.771  -0.834   9.113  1.00  0.00     0.200 A 
ATOM     98  F   UNL     1     -14.889  -1.499   8.310  1.00  0.00    -0.200 F 
ATOM     99  F   UNL     1     -13.108  -1.207  10.355  1.00  0.00    -0.200 F 
ENDBRANCH  66  89
ENDBRANCH  40  41
ENDBRANCH  33  35
ENDBRANCH  32  33
ENDBRANCH  31  32
ENDBRANCH  30  31
ENDBRANCH  29  30
ENDBRANCH  28  29
ENDBRANCH   1  28
TORSDOF 20
