REMARK SMILES O=C(OCCOCCOC(=O)[C@@H]1CC=CC[C@H]1C(=O)N1CC[NH+](Cc2ccc3c(c2)OCO3)CC1)c1ccc(-c2c3nc(c(-c4c(F)c(F)c(F)c(F)c4F)c4ccc([nH]4)c(-c4c(F)c(F)c(F)c(F)c4F)c4nc(c(-c5c(F)c(F)c(F)c(F)c5F)c5ccc2[nH]5)C=C4)C=C3)cc1
REMARK SMILES IDX 7 1 6 2 5 3 4 4 3 5 2 6 1 7 36 8 37 9 98 10 38 11 97 12
REMARK SMILES IDX 39 13 40 14 41 15 91 16 42 17 96 18 90 19 92 20 43 21 95 22
REMARK SMILES IDX 89 23 88 24 44 26 76 27 56 28 75 29 57 30 60 31 74 32 93 33
REMARK SMILES IDX 58 34 59 35 73 37 94 38 61 39 45 40 46 41 54 42 47 43 48 44
REMARK SMILES IDX 52 45 55 46 49 47 50 48 53 49 51 50 77 51 78 52 86 53 79 54
REMARK SMILES IDX 80 55 84 56 87 57 81 58 82 59 85 60 83 61 62 62 63 63 71 64
REMARK SMILES IDX 64 65 65 66 69 67 72 68 66 69 67 70 70 71 68 72 8 73 9 74
REMARK SMILES IDX 10 75 11 76 12 77 13 78 17 79 14 80 16 81 15 82 18 83 19 84
REMARK SMILES IDX 20 85 21 86 35 87 22 88 34 89 23 90 24 92 25 93 26 94 30 95
REMARK SMILES IDX 27 96 29 97 28 98 31 99 33 100 32 101
REMARK H PARENT 92 25 60 36 23 91
REMARK Flexibility Score: inf
ROOT
ATOM      1  C   UNL     1       4.945  -6.994  -1.897  1.00  0.00     0.202 C 
ENDROOT
BRANCH   1   2
ATOM      2  O   UNL     1       4.220  -6.398  -0.820  1.00  0.00    -0.374 OA
BRANCH   2   3
ATOM      3  C   UNL     1       5.035  -5.830   0.203  1.00  0.00     0.202 C 
BRANCH   3   4
ATOM      4  C   UNL     1       5.445  -6.807   1.308  1.00  0.00     0.261 C 
BRANCH   4   5
ATOM      5  O   UNL     1       6.042  -8.007   0.762  1.00  0.00    -0.460 OA
BRANCH   5   6
ATOM      6  C   UNL     1       5.582  -9.271   0.964  1.00  0.00     0.338 C 
ATOM      7  O   UNL     1       6.297 -10.247   0.777  1.00  0.00    -0.246 OA
BRANCH   6   8
ATOM      8  C   UNL     1       4.186  -9.472   1.423  1.00  0.00     0.060 A 
ATOM      9  C   UNL     1       3.148  -8.731   0.874  1.00  0.00     0.016 A 
ATOM     10  C   UNL     1       3.890 -10.433   2.392  1.00  0.00     0.016 A 
ATOM     11  C   UNL     1       1.879  -8.774   1.415  1.00  0.00     0.010 A 
ATOM     12  C   UNL     1       2.572 -10.581   2.847  1.00  0.00     0.010 A 
ATOM     13  C   UNL     1       1.560  -9.721   2.386  1.00  0.00    -0.014 A 
BRANCH  13  14
ATOM     14  C   UNL     1       0.178  -9.747   2.924  1.00  0.00     0.031 A 
ATOM     15  C   UNL     1      -0.053  -9.489   4.383  1.00  0.00     0.074 A 
ATOM     16  C   UNL     1      -0.874  -9.870   2.090  1.00  0.00     0.049 A 
ATOM     17  N   UNL     1      -1.148  -9.636   5.082  1.00  0.00    -0.248 NA
ATOM     18  C   UNL     1       1.099  -9.008   5.160  1.00  0.00     0.031 C 
ATOM     19  C   UNL     1      -0.790  -9.991   0.632  1.00  0.00     0.029 A 
ATOM     20  N   UNL     1      -2.223  -9.843   2.337  1.00  0.00    -0.354 N 
ATOM     21  C   UNL     1      -0.792  -9.359   6.394  1.00  0.00     0.074 A 
ATOM     22  C   UNL     1       0.606  -8.986   6.389  1.00  0.00     0.031 C 
ATOM     23  C   UNL     1      -2.024  -9.921   0.111  1.00  0.00     0.029 A 
ATOM     24  C   UNL     1      -2.992  -9.895   1.199  1.00  0.00     0.049 A 
ATOM     25  H   UNL     1      -2.604  -9.791   3.243  1.00  0.00     0.167 HD
ATOM     26  C   UNL     1      -1.566  -9.448   7.501  1.00  0.00     0.037 A 
ATOM     27  C   UNL     1      -4.328  -9.965   1.054  1.00  0.00     0.037 A 
ATOM     28  C   UNL     1      -2.968  -9.763   7.470  1.00  0.00     0.049 A 
ATOM     29  C   UNL     1      -5.169 -10.077   2.295  1.00  0.00     0.074 A 
ATOM     30  C   UNL     1      -3.838  -9.976   8.523  1.00  0.00     0.029 A 
ATOM     31  N   UNL     1      -3.713  -9.878   6.304  1.00  0.00    -0.354 N 
ATOM     32  N   UNL     1      -4.802  -9.998   3.551  1.00  0.00    -0.248 NA
ATOM     33  C   UNL     1      -6.599 -10.346   2.100  1.00  0.00     0.031 C 
ATOM     34  C   UNL     1      -5.108 -10.239   7.992  1.00  0.00     0.029 A 
ATOM     35  C   UNL     1      -5.033 -10.156   6.610  1.00  0.00     0.049 A 
ATOM     36  H   UNL     1      -3.354  -9.776   5.393  1.00  0.00     0.167 HD
ATOM     37  C   UNL     1      -5.948 -10.227   4.297  1.00  0.00     0.074 A 
ATOM     38  C   UNL     1      -7.033 -10.402   3.352  1.00  0.00     0.031 C 
ATOM     39  C   UNL     1      -6.088 -10.315   5.642  1.00  0.00     0.037 A 
BRANCH  26  40
ATOM     40  C   UNL     1      -0.881  -9.301   8.825  1.00  0.00     0.064 A 
ATOM     41  C   UNL     1      -0.463  -8.060   9.323  1.00  0.00     0.173 A 
ATOM     42  C   UNL     1      -0.614 -10.444   9.597  1.00  0.00     0.173 A 
ATOM     43  F   UNL     1      -0.669  -6.943   8.610  1.00  0.00    -0.203 F 
ATOM     44  C   UNL     1       0.221  -7.971  10.534  1.00  0.00     0.198 A 
ATOM     45  C   UNL     1       0.048 -10.348  10.817  1.00  0.00     0.198 A 
ATOM     46  F   UNL     1      -0.989 -11.656   9.162  1.00  0.00    -0.203 F 
ATOM     47  F   UNL     1       0.659  -6.780  10.968  1.00  0.00    -0.200 F 
ATOM     48  C   UNL     1       0.473  -9.113  11.281  1.00  0.00     0.200 A 
ATOM     49  F   UNL     1       0.288 -11.453  11.537  1.00  0.00    -0.200 F 
ATOM     50  F   UNL     1       1.139  -9.025  12.441  1.00  0.00    -0.200 F 
ENDBRANCH  26  40
BRANCH  27  51
ATOM     51  C   UNL     1      -4.941 -10.002  -0.301  1.00  0.00     0.064 A 
ATOM     52  C   UNL     1      -5.771  -8.962  -0.742  1.00  0.00     0.173 A 
ATOM     53  C   UNL     1      -4.714 -11.070  -1.184  1.00  0.00     0.173 A 
ATOM     54  F   UNL     1      -6.043  -7.933   0.074  1.00  0.00    -0.203 F 
ATOM     55  C   UNL     1      -6.351  -8.990  -2.009  1.00  0.00     0.198 A 
ATOM     56  C   UNL     1      -5.265 -11.080  -2.463  1.00  0.00     0.198 A 
ATOM     57  F   UNL     1      -3.935 -12.096  -0.811  1.00  0.00    -0.203 F 
ATOM     58  F   UNL     1      -7.172  -8.003  -2.390  1.00  0.00    -0.200 F 
ATOM     59  C   UNL     1      -6.089 -10.044  -2.873  1.00  0.00     0.200 A 
ATOM     60  F   UNL     1      -4.996 -12.093  -3.297  1.00  0.00    -0.200 F 
ATOM     61  F   UNL     1      -6.637 -10.065  -4.095  1.00  0.00    -0.200 F 
ENDBRANCH  27  51
BRANCH  39  62
ATOM     62  C   UNL     1      -7.462 -10.606   6.160  1.00  0.00     0.064 A 
ATOM     63  C   UNL     1      -8.005 -11.896   6.091  1.00  0.00     0.173 A 
ATOM     64  C   UNL     1      -8.219  -9.597   6.771  1.00  0.00     0.173 A 
ATOM     65  F   UNL     1      -7.321 -12.886   5.500  1.00  0.00    -0.203 F 
ATOM     66  C   UNL     1      -9.271 -12.163   6.603  1.00  0.00     0.198 A 
ATOM     67  C   UNL     1      -9.476  -9.873   7.300  1.00  0.00     0.198 A 
ATOM     68  F   UNL     1      -7.737  -8.349   6.860  1.00  0.00    -0.203 F 
ATOM     69  F   UNL     1      -9.788 -13.395   6.497  1.00  0.00    -0.200 F 
ATOM     70  C   UNL     1     -10.002 -11.154   7.213  1.00  0.00     0.200 A 
ATOM     71  F   UNL     1     -10.179  -8.899   7.895  1.00  0.00    -0.200 F 
ATOM     72  F   UNL     1     -11.218 -11.415   7.711  1.00  0.00    -0.200 F 
ENDBRANCH  39  62
ENDBRANCH  13  14
ENDBRANCH   6   8
ENDBRANCH   5   6
ENDBRANCH   4   5
ENDBRANCH   3   4
ENDBRANCH   2   3
ENDBRANCH   1   2
BRANCH   1  73
ATOM     73  C   UNL     1       4.713  -6.180  -3.161  1.00  0.00     0.261 C 
BRANCH  73  74
ATOM     74  O   UNL     1       5.296  -4.876  -2.988  1.00  0.00    -0.463 OA
BRANCH  74  75
ATOM     75  C   UNL     1       4.447  -3.870  -2.647  1.00  0.00     0.310 C 
ATOM     76  O   UNL     1       3.239  -3.998  -2.501  1.00  0.00    -0.252 OA
BRANCH  75  77
ATOM     77  C   UNL     1       5.174  -2.543  -2.478  1.00  0.00     0.115 C 
ATOM     78  C   UNL     1       6.302  -2.438  -3.535  1.00  0.00     0.043 C 
ATOM     79  C   UNL     1       5.738  -2.333  -1.069  1.00  0.00     0.097 C 
ATOM     80  C   UNL     1       7.226  -1.281  -3.319  1.00  0.00    -0.030 C 
ATOM     81  C   UNL     1       6.476  -0.979  -0.962  1.00  0.00     0.041 C 
ATOM     82  C   UNL     1       7.300  -0.620  -2.159  1.00  0.00    -0.030 C 
BRANCH  79  83
ATOM     83  C   UNL     1       4.870  -2.402   0.196  1.00  0.00     0.227 C 
ATOM     84  O   UNL     1       5.357  -2.957   1.192  1.00  0.00    -0.275 OA
ATOM     85  N   UNL     1       3.745  -1.605   0.325  1.00  0.00    -0.331 N 
ATOM     86  C   UNL     1       3.455  -1.111   1.670  1.00  0.00     0.181 C 
ATOM     87  C   UNL     1       2.543  -1.793  -0.487  1.00  0.00     0.181 C 
ATOM     88  C   UNL     1       2.541   0.127   1.661  1.00  0.00     0.284 C 
ATOM     89  C   UNL     1       1.593  -0.581  -0.469  1.00  0.00     0.284 C 
ATOM     90  N   UNL     1       1.334   0.024   0.839  1.00  0.00    -0.328 N 
ATOM     91  H   UNL     1       1.083   0.991   0.632  1.00  0.00     0.348 HD
BRANCH  90  92
ATOM     92  C   UNL     1       0.110  -0.392   1.518  1.00  0.00     0.299 C 
BRANCH  92  93
ATOM     93  C   UNL     1       0.002  -1.831   1.965  1.00  0.00     0.010 A 
ATOM     94  C   UNL     1       0.557  -2.247   3.199  1.00  0.00     0.013 A 
ATOM     95  C   UNL     1      -0.701  -2.764   1.183  1.00  0.00     0.060 A 
ATOM     96  C   UNL     1       0.456  -3.573   3.632  1.00  0.00     0.051 A 
ATOM     97  C   UNL     1      -0.812  -4.058   1.651  1.00  0.00     0.166 A 
ATOM     98  C   UNL     1      -0.238  -4.454   2.835  1.00  0.00     0.165 A 
ATOM     99  O   UNL     1      -1.488  -5.066   1.038  1.00  0.00    -0.454 OA
ATOM    100  O   UNL     1      -0.457  -5.769   3.104  1.00  0.00    -0.454 OA
ATOM    101  C   UNL     1      -1.307  -6.131   1.996  1.00  0.00     0.468 C 
ENDBRANCH  92  93
ENDBRANCH  90  92
ENDBRANCH  79  83
ENDBRANCH  75  77
ENDBRANCH  74  75
ENDBRANCH  73  74
ENDBRANCH   1  73
TORSDOF 17
