REMARK SMILES CC1(C)S[C@H](c2ccc(Cl)cc2Cl)[NH2+][C@H]1C(=O)OCCOCCOC(=O)c1ccc(-c2c3nc(c(-c4c(F)c(F)c(F)c(F)c4F)c4ccc([nH]4)c(-c4c(F)c(F)c(F)c(F)c4F)c4nc(c(-c5c(F)c(F)c(F)c(F)c5F)c5ccc2[nH]5)C=C4)C=C3)cc1
REMARK SMILES IDX 22 1 21 2 20 3 19 4 18 5 16 6 17 7 15 8 1 9 2 10 3 11 4 12
REMARK SMILES IDX 5 13 14 14 6 17 7 18 12 19 8 20 11 21 13 22 9 23 10 24 23 25
REMARK SMILES IDX 24 26 25 27 26 28 27 29 28 30 89 31 29 32 88 33 30 34 31 35
REMARK SMILES IDX 32 36 82 37 33 38 87 39 81 40 83 41 34 42 86 43 80 44 79 45
REMARK SMILES IDX 35 47 67 48 47 49 66 50 48 51 51 52 65 53 84 54 49 55 50 56
REMARK SMILES IDX 64 58 85 59 52 60 36 61 37 62 45 63 38 64 39 65 43 66 46 67
REMARK SMILES IDX 40 68 41 69 44 70 42 71 68 72 69 73 77 74 70 75 71 76 75 77
REMARK SMILES IDX 78 78 72 79 73 80 76 81 74 82 53 83 54 84 62 85 55 86 56 87
REMARK SMILES IDX 60 88 63 89 57 90 58 91 61 92 59 93
REMARK H PARENT 14 15 14 16 83 46 51 57
REMARK Flexibility Score: inf
ROOT
ATOM      1  C   UNL     1       2.939   3.291  -0.839  1.00  0.00     0.202 C 
ENDROOT
BRANCH   1   2
ATOM      2  O   UNL     1       2.645   4.628  -0.444  1.00  0.00    -0.374 OA
BRANCH   2   3
ATOM      3  C   UNL     1       2.008   4.802   0.821  1.00  0.00     0.202 C 
BRANCH   3   4
ATOM      4  C   UNL     1       0.491   4.585   0.873  1.00  0.00     0.261 C 
BRANCH   4   5
ATOM      5  O   UNL     1       0.131   3.189   0.813  1.00  0.00    -0.459 OA
BRANCH   5   6
ATOM      6  C   UNL     1      -0.216   2.740  -0.423  1.00  0.00     0.366 C 
ATOM      7  O   UNL     1      -0.212   3.432  -1.436  1.00  0.00    -0.245 OA
BRANCH   6   8
ATOM      8  C   UNL     1      -0.614   1.264  -0.440  1.00  0.00     0.310 C 
ATOM      9  C   UNL     1       1.075   0.453   1.388  1.00  0.00     0.030 C 
ATOM     10  C   UNL     1       0.385   0.195   0.044  1.00  0.00     0.079 C 
ATOM     11  C   UNL     1       1.409  -0.182  -1.032  1.00  0.00     0.030 C 
ATOM     12  S   UNL     1      -0.737  -1.254   0.291  1.00  0.00    -0.081 SA
ATOM     13  C   UNL     1      -2.300  -0.296   0.041  1.00  0.00     0.276 C 
ATOM     14  N   UNL     1      -1.890   1.079   0.301  1.00  0.00    -0.319 N 
ATOM     15  H   UNL     1      -1.746   1.225   1.300  1.00  0.00     0.348 HD
ATOM     16  H   UNL     1      -2.600   1.747   0.001  1.00  0.00     0.348 HD
BRANCH  13  17
ATOM     17  C   UNL     1      -2.955  -0.579  -1.319  1.00  0.00     0.039 A 
ATOM     18  C   UNL     1      -3.156  -1.939  -1.664  1.00  0.00     0.014 A 
ATOM     19  C   UNL     1      -3.436   0.379  -2.242  1.00  0.00     0.052 A 
ATOM     20  C   UNL     1      -3.716  -2.323  -2.886  1.00  0.00     0.021 A 
ATOM     21  C   UNL     1      -3.959  -0.010  -3.485  1.00  0.00     0.041 A 
ATOM     22  Cl  UNL     1      -3.503   2.087  -1.957  1.00  0.00    -0.084 Cl
ATOM     23  C   UNL     1      -4.093  -1.353  -3.803  1.00  0.00     0.042 A 
ATOM     24  Cl  UNL     1      -4.762  -1.814  -5.318  1.00  0.00    -0.084 Cl
ENDBRANCH  13  17
ENDBRANCH   6   8
ENDBRANCH   5   6
ENDBRANCH   4   5
ENDBRANCH   3   4
ENDBRANCH   2   3
ENDBRANCH   1   2
BRANCH   1  25
ATOM     25  C   UNL     1       4.252   2.700  -0.318  1.00  0.00     0.261 C 
BRANCH  25  26
ATOM     26  O   UNL     1       4.219   2.552   1.113  1.00  0.00    -0.460 OA
BRANCH  26  27
ATOM     27  C   UNL     1       4.912   3.499   1.784  1.00  0.00     0.338 C 
ATOM     28  O   UNL     1       5.649   4.351   1.309  1.00  0.00    -0.246 OA
BRANCH  27  29
ATOM     29  C   UNL     1       4.516   3.506   3.205  1.00  0.00     0.060 A 
ATOM     30  C   UNL     1       4.270   4.757   3.786  1.00  0.00     0.016 A 
ATOM     31  C   UNL     1       4.434   2.340   3.970  1.00  0.00     0.016 A 
ATOM     32  C   UNL     1       4.028   4.856   5.151  1.00  0.00     0.010 A 
ATOM     33  C   UNL     1       4.190   2.441   5.345  1.00  0.00     0.010 A 
ATOM     34  C   UNL     1       4.039   3.704   5.947  1.00  0.00    -0.014 A 
BRANCH  34  35
ATOM     35  C   UNL     1       4.080   3.857   7.421  1.00  0.00     0.031 A 
ATOM     36  C   UNL     1       5.402   3.719   8.126  1.00  0.00     0.074 A 
ATOM     37  C   UNL     1       2.975   4.189   8.110  1.00  0.00     0.049 A 
ATOM     38  N   UNL     1       5.685   3.841   9.399  1.00  0.00    -0.248 NA
ATOM     39  C   UNL     1       6.565   3.402   7.282  1.00  0.00     0.031 C 
ATOM     40  C   UNL     1       1.649   4.391   7.531  1.00  0.00     0.029 A 
ATOM     41  N   UNL     1       2.797   4.420   9.451  1.00  0.00    -0.354 N 
ATOM     42  C   UNL     1       7.051   3.611   9.505  1.00  0.00     0.074 A 
ATOM     43  C   UNL     1       7.535   3.304   8.178  1.00  0.00     0.031 C 
ATOM     44  C   UNL     1       0.790   4.716   8.512  1.00  0.00     0.029 A 
ATOM     45  C   UNL     1       1.501   4.717   9.790  1.00  0.00     0.049 A 
ATOM     46  H   UNL     1       3.530   4.377  10.107  1.00  0.00     0.167 HD
ATOM     47  C   UNL     1       7.833   3.667  10.609  1.00  0.00     0.037 A 
ATOM     48  C   UNL     1       0.951   4.949  10.998  1.00  0.00     0.037 A 
ATOM     49  C   UNL     1       7.347   3.979  11.928  1.00  0.00     0.049 A 
ATOM     50  C   UNL     1       1.833   4.940  12.221  1.00  0.00     0.074 A 
ATOM     51  C   UNL     1       8.060   4.078  13.110  1.00  0.00     0.029 A 
ATOM     52  N   UNL     1       6.019   4.234  12.239  1.00  0.00    -0.354 N 
ATOM     53  N   UNL     1       3.127   4.750  12.310  1.00  0.00    -0.248 NA
ATOM     54  C   UNL     1       1.175   5.186  13.511  1.00  0.00     0.031 C 
ATOM     55  C   UNL     1       7.155   4.335  14.145  1.00  0.00     0.029 A 
ATOM     56  C   UNL     1       5.888   4.462  13.599  1.00  0.00     0.049 A 
ATOM     57  H   UNL     1       5.280   4.251  11.589  1.00  0.00     0.167 HD
ATOM     58  C   UNL     1       3.443   4.885  13.656  1.00  0.00     0.074 A 
ATOM     59  C   UNL     1       2.206   5.189  14.344  1.00  0.00     0.031 C 
ATOM     60  C   UNL     1       4.648   4.769  14.268  1.00  0.00     0.037 A 
BRANCH  47  61
ATOM     61  C   UNL     1       9.293   3.357  10.443  1.00  0.00     0.064 A 
ATOM     62  C   UNL     1      10.163   4.224   9.763  1.00  0.00     0.173 A 
ATOM     63  C   UNL     1       9.837   2.188  10.997  1.00  0.00     0.173 A 
ATOM     64  F   UNL     1       9.692   5.348   9.200  1.00  0.00    -0.203 F 
ATOM     65  C   UNL     1      11.515   3.919   9.622  1.00  0.00     0.198 A 
ATOM     66  C   UNL     1      11.195   1.903  10.882  1.00  0.00     0.198 A 
ATOM     67  F   UNL     1       9.052   1.325  11.659  1.00  0.00    -0.203 F 
ATOM     68  F   UNL     1      12.315   4.737   8.925  1.00  0.00    -0.200 F 
ATOM     69  C   UNL     1      12.031   2.764  10.188  1.00  0.00     0.200 A 
ATOM     70  F   UNL     1      11.694   0.791  11.442  1.00  0.00    -0.200 F 
ATOM     71  F   UNL     1      13.333   2.475  10.058  1.00  0.00    -0.200 F 
ENDBRANCH  47  61
BRANCH  48  72
ATOM     72  C   UNL     1      -0.509   5.204  11.114  1.00  0.00     0.064 A 
ATOM     73  C   UNL     1      -0.999   6.453  11.517  1.00  0.00     0.173 A 
ATOM     74  C   UNL     1      -1.444   4.194  10.842  1.00  0.00     0.173 A 
ATOM     75  F   UNL     1      -0.145   7.444  11.811  1.00  0.00    -0.203 F 
ATOM     76  C   UNL     1      -2.367   6.677  11.665  1.00  0.00     0.198 A 
ATOM     77  C   UNL     1      -2.813   4.428  10.960  1.00  0.00     0.198 A 
ATOM     78  F   UNL     1      -1.029   2.979  10.454  1.00  0.00    -0.203 F 
ATOM     79  F   UNL     1      -2.806   7.865  12.102  1.00  0.00    -0.200 F 
ATOM     80  C   UNL     1      -3.273   5.666  11.380  1.00  0.00     0.200 A 
ATOM     81  F   UNL     1      -3.684   3.452  10.670  1.00  0.00    -0.200 F 
ATOM     82  F   UNL     1      -4.588   5.882  11.520  1.00  0.00    -0.200 F 
ENDBRANCH  48  72
BRANCH  60  83
ATOM     83  C   UNL     1       4.695   5.011  15.751  1.00  0.00     0.064 A 
ATOM     84  C   UNL     1       4.123   4.114  16.666  1.00  0.00     0.173 A 
ATOM     85  C   UNL     1       5.349   6.142  16.264  1.00  0.00     0.173 A 
ATOM     86  F   UNL     1       3.475   3.024  16.228  1.00  0.00    -0.203 F 
ATOM     87  C   UNL     1       4.174   4.359  18.036  1.00  0.00     0.198 A 
ATOM     88  C   UNL     1       5.429   6.365  17.636  1.00  0.00     0.198 A 
ATOM     89  F   UNL     1       5.922   7.027  15.434  1.00  0.00    -0.203 F 
ATOM     90  F   UNL     1       3.570   3.519  18.887  1.00  0.00    -0.200 F 
ATOM     91  C   UNL     1       4.832   5.480  18.520  1.00  0.00     0.200 A 
ATOM     92  F   UNL     1       6.080   7.440  18.102  1.00  0.00    -0.200 F 
ATOM     93  F   UNL     1       4.884   5.711  19.839  1.00  0.00    -0.200 F 
ENDBRANCH  60  83
ENDBRANCH  34  35
ENDBRANCH  27  29
ENDBRANCH  26  27
ENDBRANCH  25  26
ENDBRANCH   1  25
TORSDOF 15
