REMARK SMILES CN(CC(=O)OCCOCCOC(=O)c1ccc(-c2c3nc(c(-c4c(F)c(F)c(F)c(F)c4F)c4ccc([nH]4)c(-c4c(F)c(F)c(F)c(F)c4F)c4nc(c(-c5c(F)c(F)c(F)c(F)c5F)c5ccc2[nH]5)C=C4)C=C3)cc1)C(=O)N[C@@H]1C[C@H]1c1ccccc1
REMARK SMILES IDX 8 1 7 2 6 3 4 4 5 5 3 6 2 7 1 8 78 9 79 10 80 11 81 13 82 14
REMARK SMILES IDX 83 15 84 16 85 17 89 18 86 19 88 20 87 21 9 22 10 23 11 24
REMARK SMILES IDX 12 25 13 26 14 27 15 28 16 29 77 30 17 31 76 32 18 33 19 34
REMARK SMILES IDX 20 35 70 36 21 37 75 38 69 39 71 40 22 41 74 42 68 43 67 44
REMARK SMILES IDX 23 46 55 47 35 48 54 49 36 50 39 51 53 52 72 53 37 54 38 55
REMARK SMILES IDX 52 57 73 58 40 59 24 60 25 61 33 62 26 63 27 64 31 65 34 66
REMARK SMILES IDX 28 67 29 68 32 69 30 70 56 71 57 72 65 73 58 74 59 75 63 76
REMARK SMILES IDX 66 77 60 78 61 79 64 80 62 81 41 82 42 83 50 84 43 85 44 86
REMARK SMILES IDX 48 87 51 88 45 89 46 90 49 91 47 92
REMARK H PARENT 80 12 71 45 39 56
REMARK Flexibility Score: inf
ROOT
ATOM      1  C   UNL     1      -4.092  -3.072   0.612  1.00  0.00     0.202 C 
ENDROOT
BRANCH   1   2
ATOM      2  C   UNL     1      -3.782  -1.601   0.910  1.00  0.00     0.261 C 
BRANCH   2   3
ATOM      3  O   UNL     1      -2.398  -1.281   0.679  1.00  0.00    -0.462 OA
BRANCH   3   4
ATOM      4  C   UNL     1      -2.007  -0.123   1.270  1.00  0.00     0.325 C 
ATOM      5  O   UNL     1      -2.799   0.732   1.659  1.00  0.00    -0.250 OA
BRANCH   4   6
ATOM      6  C   UNL     1      -0.502  -0.040   1.554  1.00  0.00     0.243 C 
BRANCH   6   7
ATOM      7  N   UNL     1       0.481  -0.909   0.905  1.00  0.00    -0.317 N 
ATOM      8  C   UNL     1       1.013  -0.373  -0.342  1.00  0.00     0.149 C 
BRANCH   7   9
ATOM      9  C   UNL     1       0.908  -2.161   1.257  1.00  0.00     0.317 C 
ATOM     10  O   UNL     1       1.620  -2.826   0.492  1.00  0.00    -0.249 OA
ATOM     11  N   UNL     1       0.590  -2.797   2.413  1.00  0.00    -0.335 N 
ATOM     12  H   UNL     1       0.690  -3.774   2.346  1.00  0.00     0.165 HD
BRANCH  11  13
ATOM     13  C   UNL     1       0.144  -2.383   3.701  1.00  0.00     0.092 C 
ATOM     14  C   UNL     1      -0.709  -3.272   4.582  1.00  0.00     0.036 C 
ATOM     15  C   UNL     1      -1.290  -2.017   4.031  1.00  0.00     0.044 C 
BRANCH  15  16
ATOM     16  C   UNL     1      -1.544  -0.724   4.784  1.00  0.00    -0.043 A 
ATOM     17  C   UNL     1      -2.867  -0.314   5.010  1.00  0.00     0.004 A 
ATOM     18  C   UNL     1      -0.532   0.232   5.014  1.00  0.00     0.004 A 
ATOM     19  C   UNL     1      -3.171   1.020   5.293  1.00  0.00     0.000 A 
ATOM     20  C   UNL     1      -0.831   1.570   5.266  1.00  0.00     0.000 A 
ATOM     21  C   UNL     1      -2.155   1.968   5.377  1.00  0.00     0.000 A 
ENDBRANCH  15  16
ENDBRANCH  11  13
ENDBRANCH   7   9
ENDBRANCH   6   7
ENDBRANCH   4   6
ENDBRANCH   3   4
ENDBRANCH   2   3
ENDBRANCH   1   2
BRANCH   1  22
ATOM     22  O   UNL     1      -3.391  -4.084   1.333  1.00  0.00    -0.374 OA
BRANCH  22  23
ATOM     23  C   UNL     1      -1.976  -4.142   1.183  1.00  0.00     0.202 C 
BRANCH  23  24
ATOM     24  C   UNL     1      -1.365  -4.748  -0.082  1.00  0.00     0.261 C 
BRANCH  24  25
ATOM     25  O   UNL     1      -1.867  -4.157  -1.276  1.00  0.00    -0.460 OA
BRANCH  25  26
ATOM     26  C   UNL     1      -2.837  -4.882  -1.883  1.00  0.00     0.338 C 
ATOM     27  O   UNL     1      -3.262  -5.976  -1.583  1.00  0.00    -0.246 OA
BRANCH  26  28
ATOM     28  C   UNL     1      -3.474  -3.992  -2.864  1.00  0.00     0.060 A 
ATOM     29  C   UNL     1      -4.867  -3.854  -2.800  1.00  0.00     0.016 A 
ATOM     30  C   UNL     1      -2.707  -3.264  -3.775  1.00  0.00     0.016 A 
ATOM     31  C   UNL     1      -5.509  -2.993  -3.675  1.00  0.00     0.010 A 
ATOM     32  C   UNL     1      -3.352  -2.419  -4.668  1.00  0.00     0.010 A 
ATOM     33  C   UNL     1      -4.753  -2.314  -4.636  1.00  0.00    -0.014 A 
BRANCH  33  34
ATOM     34  C   UNL     1      -5.445  -1.679  -5.766  1.00  0.00     0.031 A 
ATOM     35  C   UNL     1      -5.565  -2.479  -7.027  1.00  0.00     0.074 A 
ATOM     36  C   UNL     1      -5.944  -0.440  -5.647  1.00  0.00     0.049 A 
ATOM     37  N   UNL     1      -6.034  -2.126  -8.193  1.00  0.00    -0.248 NA
ATOM     38  C   UNL     1      -5.077  -3.870  -6.969  1.00  0.00     0.031 C 
ATOM     39  C   UNL     1      -5.894   0.377  -4.435  1.00  0.00     0.029 A 
ATOM     40  N   UNL     1      -6.574   0.352  -6.567  1.00  0.00    -0.354 N 
ATOM     41  C   UNL     1      -5.900  -3.248  -8.999  1.00  0.00     0.074 A 
ATOM     42  C   UNL     1      -5.263  -4.278  -8.213  1.00  0.00     0.031 C 
ATOM     43  C   UNL     1      -6.447   1.574  -4.697  1.00  0.00     0.029 A 
ATOM     44  C   UNL     1      -6.851   1.613  -6.099  1.00  0.00     0.049 A 
ATOM     45  H   UNL     1      -6.806   0.049  -7.474  1.00  0.00     0.167 HD
ATOM     46  C   UNL     1      -6.295  -3.399 -10.283  1.00  0.00     0.037 A 
ATOM     47  C   UNL     1      -7.340   2.678  -6.760  1.00  0.00     0.037 A 
ATOM     48  C   UNL     1      -6.912  -2.347 -11.040  1.00  0.00     0.049 A 
ATOM     49  C   UNL     1      -7.687   2.510  -8.219  1.00  0.00     0.074 A 
ATOM     50  C   UNL     1      -7.349  -2.365 -12.350  1.00  0.00     0.029 A 
ATOM     51  N   UNL     1      -7.170  -1.075 -10.543  1.00  0.00    -0.354 N 
ATOM     52  N   UNL     1      -7.584   1.443  -8.977  1.00  0.00    -0.248 NA
ATOM     53  C   UNL     1      -8.219   3.688  -8.914  1.00  0.00     0.031 C 
ATOM     54  C   UNL     1      -7.826  -1.088 -12.661  1.00  0.00     0.029 A 
ATOM     55  C   UNL     1      -7.740  -0.291 -11.528  1.00  0.00     0.049 A 
ATOM     56  H   UNL     1      -6.976  -0.777  -9.625  1.00  0.00     0.167 HD
ATOM     57  C   UNL     1      -8.059   1.812 -10.228  1.00  0.00     0.074 A 
ATOM     58  C   UNL     1      -8.470   3.198 -10.119  1.00  0.00     0.031 C 
ATOM     59  C   UNL     1      -8.145   1.083 -11.368  1.00  0.00     0.037 A 
BRANCH  46  60
ATOM     60  C   UNL     1      -6.057  -4.729 -10.932  1.00  0.00     0.064 A 
ATOM     61  C   UNL     1      -6.768  -5.876 -10.542  1.00  0.00     0.173 A 
ATOM     62  C   UNL     1      -5.125  -4.860 -11.972  1.00  0.00     0.173 A 
ATOM     63  F   UNL     1      -7.654  -5.811  -9.537  1.00  0.00    -0.203 F 
ATOM     64  C   UNL     1      -6.540  -7.105 -11.154  1.00  0.00     0.198 A 
ATOM     65  C   UNL     1      -4.922  -6.085 -12.603  1.00  0.00     0.198 A 
ATOM     66  F   UNL     1      -4.413  -3.799 -12.380  1.00  0.00    -0.203 F 
ATOM     67  F   UNL     1      -7.196  -8.195 -10.732  1.00  0.00    -0.200 F 
ATOM     68  C   UNL     1      -5.624  -7.207 -12.191  1.00  0.00     0.200 A 
ATOM     69  F   UNL     1      -4.043  -6.179 -13.611  1.00  0.00    -0.200 F 
ATOM     70  F   UNL     1      -5.414  -8.388 -12.788  1.00  0.00    -0.200 F 
ENDBRANCH  46  60
BRANCH  47  71
ATOM     71  C   UNL     1      -7.491   3.987  -6.071  1.00  0.00     0.064 A 
ATOM     72  C   UNL     1      -8.752   4.565  -5.874  1.00  0.00     0.173 A 
ATOM     73  C   UNL     1      -6.372   4.702  -5.615  1.00  0.00     0.173 A 
ATOM     74  F   UNL     1      -9.853   3.932  -6.304  1.00  0.00    -0.203 F 
ATOM     75  C   UNL     1      -8.887   5.819  -5.280  1.00  0.00     0.198 A 
ATOM     76  C   UNL     1      -6.510   5.940  -4.990  1.00  0.00     0.198 A 
ATOM     77  F   UNL     1      -5.140   4.196  -5.773  1.00  0.00    -0.203 F 
ATOM     78  F   UNL     1     -10.101   6.374  -5.160  1.00  0.00    -0.200 F 
ATOM     79  C   UNL     1      -7.766   6.503  -4.834  1.00  0.00     0.200 A 
ATOM     80  F   UNL     1      -5.424   6.588  -4.546  1.00  0.00    -0.200 F 
ATOM     81  F   UNL     1      -7.896   7.710  -4.266  1.00  0.00    -0.200 F 
ENDBRANCH  47  71
BRANCH  59  82
ATOM     82  C   UNL     1      -8.729   1.761 -12.571  1.00  0.00     0.064 A 
ATOM     83  C   UNL     1      -8.021   2.748 -13.271  1.00  0.00     0.173 A 
ATOM     84  C   UNL     1      -9.980   1.367 -13.068  1.00  0.00     0.173 A 
ATOM     85  F   UNL     1      -6.827   3.167 -12.826  1.00  0.00    -0.203 F 
ATOM     86  C   UNL     1      -8.556   3.331 -14.415  1.00  0.00     0.198 A 
ATOM     87  C   UNL     1     -10.495   1.926 -14.232  1.00  0.00     0.198 A 
ATOM     88  F   UNL     1     -10.690   0.418 -12.438  1.00  0.00    -0.203 F 
ATOM     89  F   UNL     1      -7.883   4.304 -15.045  1.00  0.00    -0.200 F 
ATOM     90  C   UNL     1      -9.786   2.912 -14.901  1.00  0.00     0.200 A 
ATOM     91  F   UNL     1     -11.674   1.506 -14.711  1.00  0.00    -0.200 F 
ATOM     92  F   UNL     1     -10.290   3.462 -16.014  1.00  0.00    -0.200 F 
ENDBRANCH  59  82
ENDBRANCH  33  34
ENDBRANCH  26  28
ENDBRANCH  25  26
ENDBRANCH  24  25
ENDBRANCH  23  24
ENDBRANCH  22  23
ENDBRANCH   1  22
TORSDOF 18
