REMARK SMILES NC(=O)c1ccccc1NC(=O)[C@@H]1CC=CC[C@@H]1C(=O)OCCOCCOC(=O)c1ccc(-c2c3nc(c(-c4c(F)c(F)c(F)c(F)c4F)c4ccc([nH]4)c(-c4c(F)c(F)c(F)c(F)c4F)c4nc(c(-c5c(F)c(F)c(F)c(F)c5F)c5ccc2[nH]5)C=C4)C=C3)cc1
REMARK SMILES IDX 23 1 22 2 21 3 19 4 20 5 18 6 13 7 14 8 15 9 17 10 16 11
REMARK SMILES IDX 11 12 10 13 12 15 9 16 4 17 5 18 6 19 8 20 7 21 2 22 1 23
REMARK SMILES IDX 3 26 24 27 25 28 26 29 27 30 28 31 29 32 30 33 31 34 92 35
REMARK SMILES IDX 32 36 91 37 33 38 34 39 35 40 85 41 36 42 90 43 84 44 86 45
REMARK SMILES IDX 37 46 89 47 83 48 82 49 38 51 70 52 50 53 69 54 51 55 54 56
REMARK SMILES IDX 68 57 87 58 52 59 53 60 67 62 88 63 55 64 39 65 40 66 48 67
REMARK SMILES IDX 41 68 42 69 46 70 49 71 43 72 44 73 47 74 45 75 71 76 72 77
REMARK SMILES IDX 80 78 73 79 74 80 78 81 81 82 75 83 76 84 79 85 77 86 56 87
REMARK SMILES IDX 57 88 65 89 58 90 59 91 63 92 66 93 60 94 61 95 64 96 62 97
REMARK H PARENT 10 14 1 24 1 25 86 50 54 61
REMARK Flexibility Score: inf
ROOT
ATOM      1  C   UNL     1       5.876   1.143  -7.973  1.00  0.00     0.202 C 
ENDROOT
BRANCH   1   2
ATOM      2  C   UNL     1       4.552   1.452  -7.273  1.00  0.00     0.261 C 
BRANCH   2   3
ATOM      3  O   UNL     1       4.253   0.441  -6.286  1.00  0.00    -0.463 OA
BRANCH   3   4
ATOM      4  C   UNL     1       2.971   0.019  -6.203  1.00  0.00     0.310 C 
ATOM      5  O   UNL     1       2.110   0.265  -7.040  1.00  0.00    -0.252 OA
BRANCH   4   6
ATOM      6  C   UNL     1       2.691  -0.895  -5.006  1.00  0.00     0.116 C 
ATOM      7  C   UNL     1       3.404  -0.634  -3.654  1.00  0.00     0.097 C 
ATOM      8  C   UNL     1       3.876  -1.831  -2.806  1.00  0.00     0.041 C 
ATOM      9  C   UNL     1       3.773  -3.178  -3.443  1.00  0.00    -0.030 C 
ATOM     10  C   UNL     1       2.621  -2.347  -5.507  1.00  0.00     0.043 C 
ATOM     11  C   UNL     1       3.219  -3.403  -4.637  1.00  0.00    -0.030 C 
BRANCH   7  12
ATOM     12  C   UNL     1       4.323   0.581  -3.636  1.00  0.00     0.228 C 
ATOM     13  N   UNL     1       5.663   0.567  -3.832  1.00  0.00    -0.325 N 
ATOM     14  H   UNL     1       6.058   1.466  -3.763  1.00  0.00     0.169 HD
ATOM     15  O   UNL     1       3.813   1.691  -3.422  1.00  0.00    -0.274 OA
BRANCH  13  16
ATOM     16  C   UNL     1       6.631  -0.418  -4.109  1.00  0.00     0.053 A 
ATOM     17  C   UNL     1       7.963  -0.157  -3.747  1.00  0.00     0.063 A 
ATOM     18  C   UNL     1       8.937  -1.166  -3.810  1.00  0.00     0.016 A 
ATOM     19  C   UNL     1       8.612  -2.415  -4.336  1.00  0.00     0.001 A 
ATOM     20  C   UNL     1       6.349  -1.648  -4.692  1.00  0.00     0.027 A 
ATOM     21  C   UNL     1       7.323  -2.645  -4.802  1.00  0.00     0.002 A 
BRANCH  17  22
ATOM     22  C   UNL     1       8.340   1.219  -3.352  1.00  0.00     0.250 C 
ATOM     23  N   UNL     1       9.092   1.367  -2.228  1.00  0.00    -0.366 N 
ATOM     24  H   UNL     1       9.363   2.266  -1.932  1.00  0.00     0.159 HD
ATOM     25  H   UNL     1       9.365   0.575  -1.711  1.00  0.00     0.159 HD
ATOM     26  O   UNL     1       7.934   2.186  -3.985  1.00  0.00    -0.269 OA
ENDBRANCH  17  22
ENDBRANCH  13  16
ENDBRANCH   7  12
ENDBRANCH   4   6
ENDBRANCH   3   4
ENDBRANCH   2   3
ENDBRANCH   1   2
BRANCH   1  27
ATOM     27  O   UNL     1       5.760   0.068  -8.912  1.00  0.00    -0.374 OA
BRANCH  27  28
ATOM     28  C   UNL     1       5.962  -1.231  -8.353  1.00  0.00     0.202 C 
BRANCH  28  29
ATOM     29  C   UNL     1       7.429  -1.668  -8.397  1.00  0.00     0.261 C 
BRANCH  29  30
ATOM     30  O   UNL     1       8.246  -0.791  -7.599  1.00  0.00    -0.460 OA
BRANCH  30  31
ATOM     31  C   UNL     1       9.261  -0.178  -8.255  1.00  0.00     0.338 C 
ATOM     32  O   UNL     1       9.666  -0.404  -9.380  1.00  0.00    -0.246 OA
BRANCH  31  33
ATOM     33  C   UNL     1       9.780   0.921  -7.420  1.00  0.00     0.060 A 
ATOM     34  C   UNL     1       9.726   2.226  -7.907  1.00  0.00     0.016 A 
ATOM     35  C   UNL     1      10.376   0.663  -6.191  1.00  0.00     0.016 A 
ATOM     36  C   UNL     1      10.315   3.268  -7.178  1.00  0.00     0.010 A 
ATOM     37  C   UNL     1      10.883   1.720  -5.425  1.00  0.00     0.010 A 
ATOM     38  C   UNL     1      10.924   3.030  -5.933  1.00  0.00    -0.014 A 
BRANCH  38  39
ATOM     39  C   UNL     1      11.719   4.107  -5.254  1.00  0.00     0.031 A 
ATOM     40  C   UNL     1      13.187   3.893  -4.944  1.00  0.00     0.074 A 
ATOM     41  C   UNL     1      11.169   5.293  -4.919  1.00  0.00     0.049 A 
ATOM     42  N   UNL     1      14.061   4.720  -4.418  1.00  0.00    -0.248 NA
ATOM     43  C   UNL     1      13.736   2.555  -5.209  1.00  0.00     0.031 C 
ATOM     44  C   UNL     1       9.755   5.642  -5.046  1.00  0.00     0.029 A 
ATOM     45  N   UNL     1      11.747   6.436  -4.409  1.00  0.00    -0.354 N 
ATOM     46  C   UNL     1      15.233   3.988  -4.262  1.00  0.00     0.074 A 
ATOM     47  C   UNL     1      14.930   2.629  -4.647  1.00  0.00     0.031 C 
ATOM     48  C   UNL     1       9.584   6.923  -4.674  1.00  0.00     0.029 A 
ATOM     49  C   UNL     1      10.871   7.485  -4.264  1.00  0.00     0.049 A 
ATOM     50  H   UNL     1      12.700   6.495  -4.169  1.00  0.00     0.167 HD
ATOM     51  C   UNL     1      16.470   4.402  -3.895  1.00  0.00     0.037 A 
ATOM     52  C   UNL     1      11.079   8.758  -3.867  1.00  0.00     0.037 A 
ATOM     53  C   UNL     1      16.814   5.762  -3.585  1.00  0.00     0.049 A 
ATOM     54  C   UNL     1      12.473   9.229  -3.531  1.00  0.00     0.074 A 
ATOM     55  C   UNL     1      18.062   6.296  -3.313  1.00  0.00     0.029 A 
ATOM     56  N   UNL     1      15.907   6.806  -3.510  1.00  0.00    -0.354 N 
ATOM     57  N   UNL     1      13.596   8.554  -3.513  1.00  0.00    -0.248 NA
ATOM     58  C   UNL     1      12.628  10.649  -3.178  1.00  0.00     0.031 C 
ATOM     59  C   UNL     1      17.902   7.656  -3.026  1.00  0.00     0.029 A 
ATOM     60  C   UNL     1      16.563   7.979  -3.174  1.00  0.00     0.049 A 
ATOM     61  H   UNL     1      14.939   6.726  -3.673  1.00  0.00     0.167 HD
ATOM     62  C   UNL     1      14.589   9.469  -3.179  1.00  0.00     0.074 A 
ATOM     63  C   UNL     1      13.940  10.751  -3.015  1.00  0.00     0.031 C 
ATOM     64  C   UNL     1      15.920   9.259  -3.024  1.00  0.00     0.037 A 
BRANCH  51  65
ATOM     65  C   UNL     1      17.550   3.357  -3.831  1.00  0.00     0.064 A 
ATOM     66  C   UNL     1      18.009   2.697  -4.983  1.00  0.00     0.173 A 
ATOM     67  C   UNL     1      18.114   2.991  -2.600  1.00  0.00     0.173 A 
ATOM     68  F   UNL     1      17.498   3.002  -6.186  1.00  0.00    -0.203 F 
ATOM     69  C   UNL     1      18.936   1.662  -4.897  1.00  0.00     0.198 A 
ATOM     70  C   UNL     1      19.075   1.985  -2.523  1.00  0.00     0.198 A 
ATOM     71  F   UNL     1      17.726   3.598  -1.469  1.00  0.00    -0.203 F 
ATOM     72  F   UNL     1      19.283   0.983  -5.999  1.00  0.00    -0.200 F 
ATOM     73  C   UNL     1      19.469   1.308  -3.667  1.00  0.00     0.200 A 
ATOM     74  F   UNL     1      19.602   1.654  -1.336  1.00  0.00    -0.200 F 
ATOM     75  F   UNL     1      20.351   0.303  -3.583  1.00  0.00    -0.200 F 
ENDBRANCH  51  65
BRANCH  52  76
ATOM     76  C   UNL     1       9.936   9.709  -3.812  1.00  0.00     0.064 A 
ATOM     77  C   UNL     1       9.816  10.751  -4.744  1.00  0.00     0.173 A 
ATOM     78  C   UNL     1       8.953   9.608  -2.818  1.00  0.00     0.173 A 
ATOM     79  F   UNL     1      10.748  10.908  -5.696  1.00  0.00    -0.203 F 
ATOM     80  C   UNL     1       8.767  11.665  -4.672  1.00  0.00     0.198 A 
ATOM     81  C   UNL     1       7.889  10.507  -2.763  1.00  0.00     0.198 A 
ATOM     82  F   UNL     1       9.026   8.633  -1.900  1.00  0.00    -0.203 F 
ATOM     83  F   UNL     1       8.704  12.681  -5.544  1.00  0.00    -0.200 F 
ATOM     84  C   UNL     1       7.801  11.539  -3.685  1.00  0.00     0.200 A 
ATOM     85  F   UNL     1       6.955  10.379  -1.811  1.00  0.00    -0.200 F 
ATOM     86  F   UNL     1       6.793  12.419  -3.615  1.00  0.00    -0.200 F 
ENDBRANCH  52  76
BRANCH  64  87
ATOM     87  C   UNL     1      16.788  10.442  -2.694  1.00  0.00     0.064 A 
ATOM     88  C   UNL     1      16.749  11.062  -1.437  1.00  0.00     0.173 A 
ATOM     89  C   UNL     1      17.719  10.920  -3.631  1.00  0.00     0.173 A 
ATOM     90  F   UNL     1      15.873  10.650  -0.508  1.00  0.00    -0.203 F 
ATOM     91  C   UNL     1      17.594  12.128  -1.136  1.00  0.00     0.198 A 
ATOM     92  C   UNL     1      18.583  11.966  -3.316  1.00  0.00     0.198 A 
ATOM     93  F   UNL     1      17.806  10.358  -4.846  1.00  0.00    -0.203 F 
ATOM     94  F   UNL     1      17.511  12.730   0.059  1.00  0.00    -0.200 F 
ATOM     95  C   UNL     1      18.516  12.573  -2.072  1.00  0.00     0.200 A 
ATOM     96  F   UNL     1      19.485  12.382  -4.216  1.00  0.00    -0.200 F 
ATOM     97  F   UNL     1      19.337  13.590  -1.775  1.00  0.00    -0.200 F 
ENDBRANCH  64  87
ENDBRANCH  38  39
ENDBRANCH  31  33
ENDBRANCH  30  31
ENDBRANCH  29  30
ENDBRANCH  28  29
ENDBRANCH  27  28
ENDBRANCH   1  27
TORSDOF 17
