REMARK SMILES O=C(OCCOCCOC(=O)c1cc(-c2ccccc2)nc(Nc2nc3ccccc3s2)n1)c1ccc(-c2c3nc(c(-c4c(F)c(F)c(F)c(F)c4F)c4ccc([nH]4)c(-c4c(F)c(F)c(F)c(F)c4F)c4nc(c(-c5c(F)c(F)c(F)c(F)c5F)c5ccc2[nH]5)C=C4)C=C3)cc1
REMARK SMILES IDX 6 1 5 2 4 3 3 4 2 5 1 6 34 7 35 8 96 9 36 10 95 11 37 12
REMARK SMILES IDX 38 13 39 14 89 15 40 16 94 17 88 18 90 19 41 20 93 21 87 22
REMARK SMILES IDX 86 23 42 25 74 26 54 27 73 28 55 29 58 30 72 31 91 32 56 33
REMARK SMILES IDX 57 34 71 36 92 37 59 38 43 39 44 40 52 41 45 42 46 43 50 44
REMARK SMILES IDX 53 45 47 46 48 47 51 48 49 49 75 50 76 51 84 52 77 53 78 54
REMARK SMILES IDX 82 55 85 56 79 57 80 58 83 59 81 60 60 61 61 62 69 63 62 64
REMARK SMILES IDX 63 65 67 66 70 67 64 68 65 69 68 70 66 71 7 72 8 73 9 74
REMARK SMILES IDX 10 75 11 76 12 77 13 78 33 79 14 80 22 81 21 82 15 83 16 84
REMARK SMILES IDX 20 85 17 86 19 87 18 88 23 89 24 91 25 92 32 93 26 94 31 95
REMARK SMILES IDX 27 96 30 97 28 98 29 99
REMARK H PARENT 90 24 58 35 23 90
REMARK Flexibility Score: inf
ROOT
ATOM      1  O   UNL     1       3.863  -1.646  -0.253  1.00  0.00    -0.374 OA
ENDROOT
BRANCH   1   2
ATOM      2  C   UNL     1       4.206  -1.254   1.077  1.00  0.00     0.202 C 
BRANCH   2   3
ATOM      3  C   UNL     1       3.945   0.224   1.348  1.00  0.00     0.261 C 
BRANCH   3   4
ATOM      4  O   UNL     1       2.579   0.550   1.062  1.00  0.00    -0.460 OA
BRANCH   4   5
ATOM      5  C   UNL     1       2.079   1.050  -0.090  1.00  0.00     0.338 C 
ATOM      6  O   UNL     1       0.863   1.226  -0.164  1.00  0.00    -0.246 OA
BRANCH   5   7
ATOM      7  C   UNL     1       2.901   1.428  -1.288  1.00  0.00     0.060 A 
ATOM      8  C   UNL     1       4.131   0.874  -1.659  1.00  0.00     0.016 A 
ATOM      9  C   UNL     1       2.316   2.357  -2.167  1.00  0.00     0.016 A 
ATOM     10  C   UNL     1       4.758   1.210  -2.852  1.00  0.00     0.010 A 
ATOM     11  C   UNL     1       2.932   2.698  -3.372  1.00  0.00     0.010 A 
ATOM     12  C   UNL     1       4.156   2.117  -3.714  1.00  0.00    -0.014 A 
BRANCH  12  13
ATOM     13  C   UNL     1       4.883   2.516  -4.926  1.00  0.00     0.031 A 
ATOM     14  C   UNL     1       5.629   3.807  -4.906  1.00  0.00     0.074 A 
ATOM     15  C   UNL     1       4.921   1.685  -5.980  1.00  0.00     0.049 A 
ATOM     16  N   UNL     1       6.254   4.418  -5.874  1.00  0.00    -0.248 NA
ATOM     17  C   UNL     1       5.682   4.504  -3.610  1.00  0.00     0.031 C 
ATOM     18  C   UNL     1       4.313   0.355  -6.023  1.00  0.00     0.029 A 
ATOM     19  N   UNL     1       5.496   1.835  -7.212  1.00  0.00    -0.354 N 
ATOM     20  C   UNL     1       6.747   5.587  -5.314  1.00  0.00     0.074 A 
ATOM     21  C   UNL     1       6.353   5.600  -3.923  1.00  0.00     0.031 C 
ATOM     22  C   UNL     1       4.535  -0.187  -7.231  1.00  0.00     0.029 A 
ATOM     23  C   UNL     1       5.244   0.784  -8.059  1.00  0.00     0.049 A 
ATOM     24  H   UNL     1       6.036   2.618  -7.466  1.00  0.00     0.167 HD
ATOM     25  C   UNL     1       7.451   6.565  -5.928  1.00  0.00     0.037 A 
ATOM     26  C   UNL     1       5.517   0.657  -9.370  1.00  0.00     0.037 A 
ATOM     27  C   UNL     1       7.809   6.517  -7.319  1.00  0.00     0.049 A 
ATOM     28  C   UNL     1       6.231   1.792 -10.054  1.00  0.00     0.074 A 
ATOM     29  C   UNL     1       8.479   7.457  -8.076  1.00  0.00     0.029 A 
ATOM     30  N   UNL     1       7.510   5.454  -8.165  1.00  0.00    -0.354 N 
ATOM     31  N   UNL     1       6.658   2.924  -9.544  1.00  0.00    -0.248 NA
ATOM     32  C   UNL     1       6.492   1.645 -11.491  1.00  0.00     0.031 C 
ATOM     33  C   UNL     1       8.541   6.985  -9.392  1.00  0.00     0.029 A 
ATOM     34  C   UNL     1       7.959   5.726  -9.444  1.00  0.00     0.049 A 
ATOM     35  H   UNL     1       7.046   4.630  -7.893  1.00  0.00     0.167 HD
ATOM     36  C   UNL     1       7.248   3.620 -10.587  1.00  0.00     0.074 A 
ATOM     37  C   UNL     1       7.135   2.774 -11.761  1.00  0.00     0.031 C 
ATOM     38  C   UNL     1       7.828   4.846 -10.582  1.00  0.00     0.037 A 
BRANCH  25  39
ATOM     39  C   UNL     1       7.774   7.779  -5.110  1.00  0.00     0.064 A 
ATOM     40  C   UNL     1       8.700   7.745  -4.055  1.00  0.00     0.173 A 
ATOM     41  C   UNL     1       7.089   8.982  -5.341  1.00  0.00     0.173 A 
ATOM     42  F   UNL     1       9.359   6.611  -3.772  1.00  0.00    -0.203 F 
ATOM     43  C   UNL     1       8.892   8.855  -3.235  1.00  0.00     0.198 A 
ATOM     44  C   UNL     1       7.305  10.098  -4.537  1.00  0.00     0.198 A 
ATOM     45  F   UNL     1       6.188   9.067  -6.330  1.00  0.00    -0.203 F 
ATOM     46  F   UNL     1       9.722   8.774  -2.185  1.00  0.00    -0.200 F 
ATOM     47  C   UNL     1       8.195  10.029  -3.477  1.00  0.00     0.200 A 
ATOM     48  F   UNL     1       6.632  11.232  -4.774  1.00  0.00    -0.200 F 
ATOM     49  F   UNL     1       8.367  11.089  -2.674  1.00  0.00    -0.200 F 
ENDBRANCH  25  39
BRANCH  26  50
ATOM     50  C   UNL     1       5.062  -0.552 -10.103  1.00  0.00     0.064 A 
ATOM     51  C   UNL     1       5.973  -1.492 -10.603  1.00  0.00     0.173 A 
ATOM     52  C   UNL     1       3.694  -0.814 -10.285  1.00  0.00     0.173 A 
ATOM     53  F   UNL     1       7.291  -1.280 -10.476  1.00  0.00    -0.203 F 
ATOM     54  C   UNL     1       5.534  -2.644 -11.255  1.00  0.00     0.198 A 
ATOM     55  C   UNL     1       3.256  -1.979 -10.911  1.00  0.00     0.198 A 
ATOM     56  F   UNL     1       2.778   0.052  -9.827  1.00  0.00    -0.203 F 
ATOM     57  F   UNL     1       6.426  -3.513 -11.749  1.00  0.00    -0.200 F 
ATOM     58  C   UNL     1       4.176  -2.892 -11.400  1.00  0.00     0.200 A 
ATOM     59  F   UNL     1       1.943  -2.219 -11.034  1.00  0.00    -0.200 F 
ATOM     60  F   UNL     1       3.756  -4.007 -12.013  1.00  0.00    -0.200 F 
ENDBRANCH  26  50
BRANCH  38  61
ATOM     61  C   UNL     1       8.405   5.332 -11.876  1.00  0.00     0.064 A 
ATOM     62  C   UNL     1       7.587   5.804 -12.911  1.00  0.00     0.173 A 
ATOM     63  C   UNL     1       9.796   5.407 -12.042  1.00  0.00     0.173 A 
ATOM     64  F   UNL     1       6.251   5.738 -12.800  1.00  0.00    -0.203 F 
ATOM     65  C   UNL     1       8.142   6.330 -14.072  1.00  0.00     0.198 A 
ATOM     66  C   UNL     1      10.347   5.957 -13.193  1.00  0.00     0.198 A 
ATOM     67  F   UNL     1      10.617   4.972 -11.074  1.00  0.00    -0.203 F 
ATOM     68  F   UNL     1       7.345   6.753 -15.062  1.00  0.00    -0.200 F 
ATOM     69  C   UNL     1       9.521   6.417 -14.208  1.00  0.00     0.200 A 
ATOM     70  F   UNL     1      11.678   6.054 -13.316  1.00  0.00    -0.200 F 
ATOM     71  F   UNL     1      10.053   6.944 -15.319  1.00  0.00    -0.200 F 
ENDBRANCH  38  61
ENDBRANCH  12  13
ENDBRANCH   5   7
ENDBRANCH   4   5
ENDBRANCH   3   4
ENDBRANCH   2   3
ENDBRANCH   1   2
BRANCH   1  72
ATOM     72  C   UNL     1       2.571  -2.222  -0.436  1.00  0.00     0.202 C 
BRANCH  72  73
ATOM     73  C   UNL     1       2.744  -3.615  -1.043  1.00  0.00     0.261 C 
BRANCH  73  74
ATOM     74  O   UNL     1       3.431  -4.433  -0.085  1.00  0.00    -0.459 OA
BRANCH  74  75
ATOM     75  C   UNL     1       4.789  -4.309  -0.102  1.00  0.00     0.357 C 
ATOM     76  O   UNL     1       5.484  -3.998  -1.053  1.00  0.00    -0.244 OA
BRANCH  75  77
ATOM     77  C   UNL     1       5.261  -4.497   1.294  1.00  0.00     0.154 A 
ATOM     78  C   UNL     1       4.664  -5.445   2.073  1.00  0.00     0.065 A 
ATOM     79  N   UNL     1       6.254  -3.697   1.724  1.00  0.00    -0.206 NA
ATOM     80  C   UNL     1       5.215  -5.625   3.317  1.00  0.00     0.077 A 
ATOM     81  C   UNL     1       6.666  -3.852   2.986  1.00  0.00     0.230 A 
ATOM     82  N   UNL     1       6.205  -4.831   3.792  1.00  0.00    -0.213 NA
BRANCH  80  83
ATOM     83  C   UNL     1       4.769  -6.775   4.118  1.00  0.00     0.000 A 
ATOM     84  C   UNL     1       4.397  -6.670   5.463  1.00  0.00     0.010 A 
ATOM     85  C   UNL     1       4.624  -8.032   3.488  1.00  0.00     0.010 A 
ATOM     86  C   UNL     1       3.859  -7.775   6.136  1.00  0.00     0.001 A 
ATOM     87  C   UNL     1       4.084  -9.128   4.154  1.00  0.00     0.001 A 
ATOM     88  C   UNL     1       3.694  -8.996   5.480  1.00  0.00     0.000 A 
ENDBRANCH  80  83
BRANCH  81  89
ATOM     89  N   UNL     1       7.688  -3.047   3.483  1.00  0.00    -0.300 N 
ATOM     90  H   UNL     1       8.123  -3.337   4.316  1.00  0.00     0.172 HD
BRANCH  89  91
ATOM     91  C   UNL     1       8.132  -1.903   2.921  1.00  0.00     0.190 A 
ATOM     92  N   UNL     1       7.382  -0.919   2.467  1.00  0.00    -0.220 NA
ATOM     93  S   UNL     1       9.830  -1.594   2.831  1.00  0.00    -0.097 S 
ATOM     94  C   UNL     1       8.164   0.099   1.938  1.00  0.00     0.084 A 
ATOM     95  C   UNL     1       9.539  -0.118   1.994  1.00  0.00     0.056 A 
ATOM     96  C   UNL     1       7.696   1.299   1.361  1.00  0.00     0.030 A 
ATOM     97  C   UNL     1      10.456   0.795   1.441  1.00  0.00     0.021 A 
ATOM     98  C   UNL     1       8.595   2.215   0.806  1.00  0.00     0.002 A 
ATOM     99  C   UNL     1       9.960   1.957   0.836  1.00  0.00     0.002 A 
ENDBRANCH  89  91
ENDBRANCH  81  89
ENDBRANCH  75  77
ENDBRANCH  74  75
ENDBRANCH  73  74
ENDBRANCH  72  73
ENDBRANCH   1  72
TORSDOF 17
