REMARK SMILES Cc1ccccc1/C=C1\SC(=S)N(CCC(=O)N[C@@H](C)C(=O)OCCOCCOC(=O)c2ccc(-c3c4nc(c(-c5c(F)c(F)c(F)c(F)c5F)c5ccc([nH]5)c(-c5c(F)c(F)c(F)c(F)c5F)c5nc(c(-c6c(F)c(F)c(F)c(F)c6F)c6ccc3[nH]6)C=C5)C=C4)cc2)C1=O
REMARK SMILES IDX 24 1 23 2 21 3 22 4 19 5 20 6 18 7 16 8 17 9 15 11 14 12
REMARK SMILES IDX 13 13 8 14 9 15 10 16 95 17 11 18 96 19 12 20 7 21 1 22 2 23
REMARK SMILES IDX 3 24 4 25 6 26 5 27 25 28 26 29 27 30 28 31 29 32 30 33
REMARK SMILES IDX 31 34 32 35 33 36 94 37 34 38 93 39 35 40 36 41 37 42 87 43
REMARK SMILES IDX 38 44 92 45 86 46 88 47 39 48 91 49 85 50 84 51 40 53 72 54
REMARK SMILES IDX 52 55 71 56 53 57 56 58 70 59 89 60 54 61 55 62 69 64 90 65
REMARK SMILES IDX 57 66 41 67 42 68 50 69 43 70 44 71 48 72 51 73 45 74 46 75
REMARK SMILES IDX 49 76 47 77 73 78 74 79 82 80 75 81 76 82 80 83 83 84 77 85
REMARK SMILES IDX 78 86 81 87 79 88 58 89 59 90 67 91 60 92 61 93 65 94 68 95
REMARK SMILES IDX 62 96 63 97 66 98 64 99
REMARK H PARENT 18 10 88 52 56 63
REMARK Flexibility Score: inf
ROOT
ATOM      1  C   UNL     1      -1.282   5.441  -0.516  1.00  0.00     0.261 C 
ENDROOT
BRANCH   1   2
ATOM      2  O   UNL     1       0.023   4.967  -0.412  1.00  0.00    -0.462 OA
BRANCH   2   3
ATOM      3  C   UNL     1       0.747   4.724  -1.531  1.00  0.00     0.328 C 
ATOM      4  O   UNL     1       0.443   4.281  -2.630  1.00  0.00    -0.250 OA
BRANCH   3   5
ATOM      5  C   UNL     1       2.117   5.089  -1.148  1.00  0.00     0.189 C 
ATOM      6  C   UNL     1       2.558   4.474   0.155  1.00  0.00     0.043 C 
BRANCH   5   7
ATOM      7  N   UNL     1       2.274   6.502  -1.079  1.00  0.00    -0.343 N 
ATOM      8  C   UNL     1       3.375   7.080  -1.619  1.00  0.00     0.222 C 
ATOM      9  O   UNL     1       3.749   8.159  -1.170  1.00  0.00    -0.275 OA
ATOM     10  H   UNL     1       1.587   7.056  -0.642  1.00  0.00     0.164 HD
BRANCH   8  11
ATOM     11  C   UNL     1       3.994   6.385  -2.855  1.00  0.00     0.122 C 
BRANCH  11  12
ATOM     12  C   UNL     1       4.799   5.010  -2.693  1.00  0.00     0.137 C 
BRANCH  12  13
ATOM     13  N   UNL     1       4.122   3.626  -3.111  1.00  0.00    -0.292 N 
ATOM     14  C   UNL     1       2.248   0.588  -1.884  1.00  0.00     0.029 C 
ATOM     15  C   UNL     1       2.914   1.429  -2.766  1.00  0.00     0.081 C 
ATOM     16  S   UNL     1       2.810   1.766  -4.450  1.00  0.00    -0.054 SA
ATOM     17  C   UNL     1       3.874   2.571  -2.210  1.00  0.00     0.266 C 
ATOM     18  C   UNL     1       3.854   3.245  -4.403  1.00  0.00     0.148 C 
ATOM     19  O   UNL     1       4.329   2.545  -1.071  1.00  0.00    -0.268 OA
ATOM     20  S   UNL     1       4.426   4.006  -5.779  1.00  0.00    -0.052 S 
BRANCH  14  21
ATOM     21  C   UNL     1       1.069  -0.512  -1.304  1.00  0.00    -0.021 A 
ATOM     22  C   UNL     1       3.019  -1.226   0.401  1.00  0.00     0.045 C 
ATOM     23  C   UNL     1       1.553  -1.225   0.141  1.00  0.00    -0.044 A 
ATOM     24  C   UNL     1       0.364  -1.659   1.389  1.00  0.00     0.004 A 
ATOM     25  C   UNL     1      -1.667  -1.432   0.964  1.00  0.00     0.000 A 
ATOM     26  C   UNL     1      -0.652  -0.365  -1.586  1.00  0.00     0.008 A 
ATOM     27  C   UNL     1      -2.057  -0.782  -0.604  1.00  0.00     0.001 A 
ENDBRANCH  14  21
ENDBRANCH  12  13
ENDBRANCH  11  12
ENDBRANCH   8  11
ENDBRANCH   5   7
ENDBRANCH   3   5
ENDBRANCH   2   3
ENDBRANCH   1   2
BRANCH   1  28
ATOM     28  C   UNL     1      -1.379   6.614  -1.362  1.00  0.00     0.202 C 
BRANCH  28  29
ATOM     29  O   UNL     1      -0.900   6.334  -2.650  1.00  0.00    -0.374 OA
BRANCH  29  30
ATOM     30  C   UNL     1      -0.432   7.453  -3.355  1.00  0.00     0.202 C 
BRANCH  30  31
ATOM     31  C   UNL     1      -1.395   8.621  -3.118  1.00  0.00     0.261 C 
BRANCH  31  32
ATOM     32  O   UNL     1      -2.756   8.232  -3.586  1.00  0.00    -0.460 OA
BRANCH  32  33
ATOM     33  C   UNL     1      -3.763   7.720  -2.776  1.00  0.00     0.338 C 
ATOM     34  O   UNL     1      -4.176   8.268  -1.764  1.00  0.00    -0.246 OA
BRANCH  33  35
ATOM     35  C   UNL     1      -4.055   6.230  -3.087  1.00  0.00     0.060 A 
ATOM     36  C   UNL     1      -4.639   5.341  -2.137  1.00  0.00     0.016 A 
ATOM     37  C   UNL     1      -3.214   5.669  -4.016  1.00  0.00     0.016 A 
ATOM     38  C   UNL     1      -4.134   4.014  -1.934  1.00  0.00     0.010 A 
ATOM     39  C   UNL     1      -2.553   4.509  -3.624  1.00  0.00     0.010 A 
ATOM     40  C   UNL     1      -2.947   3.662  -2.560  1.00  0.00    -0.014 A 
BRANCH  40  41
ATOM     41  C   UNL     1      -1.974   2.517  -2.306  1.00  0.00     0.031 A 
ATOM     42  C   UNL     1      -1.941   1.675  -3.750  1.00  0.00     0.074 A 
ATOM     43  C   UNL     1      -1.205   2.446  -1.102  1.00  0.00     0.049 A 
ATOM     44  N   UNL     1      -1.595   0.439  -3.953  1.00  0.00    -0.248 NA
ATOM     45  C   UNL     1      -2.587   2.128  -5.014  1.00  0.00     0.031 C 
ATOM     46  C   UNL     1       0.238   2.133  -0.813  1.00  0.00     0.029 A 
ATOM     47  N   UNL     1      -1.484   2.775   0.263  1.00  0.00    -0.354 N 
ATOM     48  C   UNL     1      -1.780   0.023  -5.252  1.00  0.00     0.074 A 
ATOM     49  C   UNL     1      -2.461   1.108  -5.869  1.00  0.00     0.031 C 
ATOM     50  C   UNL     1       0.536   1.868   0.480  1.00  0.00     0.029 A 
ATOM     51  C   UNL     1      -0.710   1.961   1.130  1.00  0.00     0.049 A 
ATOM     52  H   UNL     1      -2.122   3.466   0.557  1.00  0.00     0.167 HD
ATOM     53  C   UNL     1      -1.279  -1.176  -5.664  1.00  0.00     0.037 A 
ATOM     54  C   UNL     1      -1.010   1.396   2.312  1.00  0.00     0.037 A 
ATOM     55  C   UNL     1      -0.615  -1.865  -4.571  1.00  0.00     0.049 A 
ATOM     56  C   UNL     1      -0.729  -0.126   1.999  1.00  0.00     0.074 A 
ATOM     57  C   UNL     1       0.720  -1.933  -4.230  1.00  0.00     0.029 A 
ATOM     58  N   UNL     1      -1.325  -2.399  -3.510  1.00  0.00    -0.354 N 
ATOM     59  N   UNL     1      -0.352  -0.485   0.390  1.00  0.00    -0.248 NA
ATOM     60  C   UNL     1      -1.060  -1.869   2.886  1.00  0.00     0.031 C 
ATOM     61  C   UNL     1       0.828  -2.684  -3.038  1.00  0.00     0.029 A 
ATOM     62  C   UNL     1      -0.446  -2.814  -2.506  1.00  0.00     0.049 A 
ATOM     63  H   UNL     1      -2.306  -2.476  -3.469  1.00  0.00     0.167 HD
ATOM     64  C   UNL     1      -0.518  -2.434  -0.021  1.00  0.00     0.074 A 
ATOM     65  C   UNL     1      -0.931  -3.111   1.784  1.00  0.00     0.031 C 
ATOM     66  C   UNL     1      -0.942  -3.185  -1.179  1.00  0.00     0.037 A 
BRANCH  53  67
ATOM     67  C   UNL     1      -1.099  -1.696  -7.087  1.00  0.00     0.064 A 
ATOM     68  C   UNL     1      -0.122  -2.701  -7.332  1.00  0.00     0.173 A 
ATOM     69  C   UNL     1      -1.773  -1.262  -8.242  1.00  0.00     0.173 A 
ATOM     70  F   UNL     1       0.548  -3.305  -6.344  1.00  0.00    -0.203 F 
ATOM     71  C   UNL     1       0.222  -3.152  -8.603  1.00  0.00     0.198 A 
ATOM     72  C   UNL     1      -1.432  -1.728  -9.527  1.00  0.00     0.198 A 
ATOM     73  F   UNL     1      -2.801  -0.409  -8.180  1.00  0.00    -0.203 F 
ATOM     74  F   UNL     1       1.193  -4.067  -8.737  1.00  0.00    -0.200 F 
ATOM     75  C   UNL     1      -0.425  -2.658  -9.706  1.00  0.00     0.200 A 
ATOM     76  F   UNL     1      -2.090  -1.265 -10.599  1.00  0.00    -0.200 F 
ATOM     77  F   UNL     1      -0.095  -3.092 -10.930  1.00  0.00    -0.200 F 
ENDBRANCH  53  67
BRANCH  54  78
ATOM     78  C   UNL     1      -1.927   2.467   2.930  1.00  0.00     0.064 A 
ATOM     79  C   UNL     1      -1.149   3.610   3.359  1.00  0.00     0.173 A 
ATOM     80  C   UNL     1      -3.173   2.821   2.331  1.00  0.00     0.173 A 
ATOM     81  F   UNL     1       0.109   3.417   3.793  1.00  0.00    -0.203 F 
ATOM     82  C   UNL     1      -1.488   4.943   3.039  1.00  0.00     0.198 A 
ATOM     83  C   UNL     1      -3.517   4.177   2.050  1.00  0.00     0.198 A 
ATOM     84  F   UNL     1      -3.879   1.881   1.683  1.00  0.00    -0.203 F 
ATOM     85  F   UNL     1      -0.539   5.898   3.082  1.00  0.00    -0.200 F 
ATOM     86  C   UNL     1      -2.686   5.229   2.413  1.00  0.00     0.200 A 
ATOM     87  F   UNL     1      -4.519   4.448   1.194  1.00  0.00    -0.200 F 
ATOM     88  F   UNL     1      -2.914   6.471   1.940  1.00  0.00    -0.200 F 
ENDBRANCH  54  78
BRANCH  66  89
ATOM     89  C   UNL     1      -1.923  -4.395  -1.139  1.00  0.00     0.064 A 
ATOM     90  C   UNL     1      -2.746  -4.744  -0.055  1.00  0.00     0.173 A 
ATOM     91  C   UNL     1      -2.159  -5.211  -2.281  1.00  0.00     0.173 A 
ATOM     92  F   UNL     1      -3.040  -3.881   0.921  1.00  0.00    -0.203 F 
ATOM     93  C   UNL     1      -3.430  -5.962   0.024  1.00  0.00     0.198 A 
ATOM     94  C   UNL     1      -2.953  -6.364  -2.251  1.00  0.00     0.198 A 
ATOM     95  F   UNL     1      -1.683  -4.900  -3.495  1.00  0.00    -0.203 F 
ATOM     96  F   UNL     1      -4.037  -6.303   1.170  1.00  0.00    -0.200 F 
ATOM     97  C   UNL     1      -3.513  -6.788  -1.070  1.00  0.00     0.200 A 
ATOM     98  F   UNL     1      -3.175  -7.052  -3.380  1.00  0.00    -0.200 F 
ATOM     99  F   UNL     1      -4.178  -7.948  -1.003  1.00  0.00    -0.200 F 
ENDBRANCH  66  89
ENDBRANCH  40  41
ENDBRANCH  33  35
ENDBRANCH  32  33
ENDBRANCH  31  32
ENDBRANCH  30  31
ENDBRANCH  29  30
ENDBRANCH  28  29
ENDBRANCH   1  28
TORSDOF 19
