REMARK SMILES COc1cc(OC)c(-c2cc(C(=O)OCCOCCOC(=O)c3ccc(-c4c5nc(c(-c6c(F)c(F)c(F)c(F)c6F)c6ccc([nH]6)c(-c6c(F)c(F)c(F)c(F)c6F)c6nc(c(-c7c(F)c(F)c(F)c(F)c7F)c7ccc4[nH]7)C=C6)C=C5)cc3)c3c(-c4ccc(Cl)cc4)[nH]nc3n2)cc1OC
REMARK SMILES IDX 17 1 16 2 15 3 14 4 12 5 13 6 11 7 9 8 10 9 98 10 97 11
REMARK SMILES IDX 86 12 96 13 87 14 95 15 8 17 3 18 4 19 100 20 5 21 99 22
REMARK SMILES IDX 2 23 1 24 101 25 102 26 6 27 7 28 88 29 89 30 94 31 90 32
REMARK SMILES IDX 93 33 91 34 92 35 18 36 19 37 20 38 21 39 22 40 23 41 24 42
REMARK SMILES IDX 85 43 25 44 84 45 26 46 27 47 28 48 78 49 29 50 83 51 77 52
REMARK SMILES IDX 79 53 30 54 82 55 76 56 75 57 31 59 63 60 43 61 62 62 44 63
REMARK SMILES IDX 47 64 61 65 80 66 45 67 46 68 60 70 81 71 48 72 32 73 33 74
REMARK SMILES IDX 41 75 34 76 35 77 39 78 42 79 36 80 37 81 40 82 38 83 64 84
REMARK SMILES IDX 65 85 73 86 66 87 67 88 71 89 74 90 68 91 69 92 72 93 70 94
REMARK SMILES IDX 49 95 50 96 58 97 51 98 52 99 56 100 59 101 53 102 54 103
REMARK SMILES IDX 57 104 55 105
REMARK H PARENT 95 16 79 58 47 69
REMARK Flexibility Score: inf
ROOT
ATOM      1  O   UNL     1       5.376  -4.169  10.025  1.00  0.00    -0.374 OA
ENDROOT
BRANCH   1   2
ATOM      2  C   UNL     1       6.394  -3.385   9.398  1.00  0.00     0.202 C 
BRANCH   2   3
ATOM      3  C   UNL     1       6.834  -3.938   8.040  1.00  0.00     0.261 C 
BRANCH   3   4
ATOM      4  O   UNL     1       5.700  -4.090   7.160  1.00  0.00    -0.460 OA
BRANCH   4   5
ATOM      5  C   UNL     1       5.247  -5.364   7.011  1.00  0.00     0.339 C 
ATOM      6  O   UNL     1       5.830  -6.378   7.341  1.00  0.00    -0.246 OA
BRANCH   5   7
ATOM      7  C   UNL     1       3.897  -5.346   6.417  1.00  0.00     0.075 A 
ATOM      8  C   UNL     1       2.217  -4.385   4.850  1.00  0.00     0.078 A 
ATOM      9  C   UNL     1       3.475  -4.341   5.519  1.00  0.00     0.045 A 
ATOM     10  N   UNL     1       1.324  -5.402   4.963  1.00  0.00    -0.226 NA
ATOM     11  C   UNL     1       1.659  -6.341   5.880  1.00  0.00     0.182 A 
ATOM     12  C   UNL     1       2.893  -6.308   6.614  1.00  0.00     0.061 A 
ATOM     13  N   UNL     1       0.882  -7.351   6.265  1.00  0.00    -0.154 NA
ATOM     14  C   UNL     1       2.752  -7.294   7.584  1.00  0.00     0.075 A 
ATOM     15  N   UNL     1       1.569  -7.920   7.263  1.00  0.00    -0.275 N 
ATOM     16  H   UNL     1       1.252  -8.726   7.732  1.00  0.00     0.190 HD
BRANCH   8  17
ATOM     17  C   UNL     1       1.793  -3.268   3.961  1.00  0.00     0.046 A 
ATOM     18  C   UNL     1       1.184  -1.138   2.147  1.00  0.00     0.164 A 
ATOM     19  C   UNL     1       0.233  -1.607   3.061  1.00  0.00     0.097 A 
ATOM     20  C   UNL     1       2.447  -1.724   2.121  1.00  0.00     0.161 A 
ATOM     21  C   UNL     1       0.528  -2.642   3.977  1.00  0.00     0.132 A 
ATOM     22  C   UNL     1       2.720  -2.782   3.008  1.00  0.00     0.064 A 
BRANCH  18  23
ATOM     23  O   UNL     1       0.889  -0.001   1.445  1.00  0.00    -0.493 OA
ATOM     24  C   UNL     1       0.132  -0.254   0.261  1.00  0.00     0.278 C 
ENDBRANCH  18  23
BRANCH  20  25
ATOM     25  O   UNL     1       3.535  -1.385   1.365  1.00  0.00    -0.493 OA
ATOM     26  C   UNL     1       3.343  -0.577   0.215  1.00  0.00     0.278 C 
ENDBRANCH  20  25
BRANCH  21  27
ATOM     27  O   UNL     1      -0.541  -2.930   4.788  1.00  0.00    -0.496 OA
ATOM     28  C   UNL     1      -0.286  -3.167   6.167  1.00  0.00     0.278 C 
ENDBRANCH  21  27
ENDBRANCH   8  17
BRANCH  14  29
ATOM     29  C   UNL     1       3.448  -7.660   8.818  1.00  0.00     0.000 A 
ATOM     30  C   UNL     1       4.494  -8.584   8.816  1.00  0.00     0.012 A 
ATOM     31  C   UNL     1       3.053  -7.090  10.040  1.00  0.00     0.012 A 
ATOM     32  C   UNL     1       5.200  -8.854   9.995  1.00  0.00     0.021 A 
ATOM     33  C   UNL     1       3.781  -7.326  11.210  1.00  0.00     0.021 A 
ATOM     34  C   UNL     1       4.863  -8.200  11.178  1.00  0.00     0.041 A 
ATOM     35  Cl  UNL     1       5.787  -8.469  12.604  1.00  0.00    -0.084 Cl
ENDBRANCH  14  29
ENDBRANCH   5   7
ENDBRANCH   4   5
ENDBRANCH   3   4
ENDBRANCH   2   3
ENDBRANCH   1   2
BRANCH   1  36
ATOM     36  C   UNL     1       4.067  -3.953   9.508  1.00  0.00     0.202 C 
BRANCH  36  37
ATOM     37  C   UNL     1       3.092  -3.509  10.585  1.00  0.00     0.261 C 
BRANCH  37  38
ATOM     38  O   UNL     1       3.073  -2.091  10.575  1.00  0.00    -0.460 OA
BRANCH  38  39
ATOM     39  C   UNL     1       4.226  -1.495  10.978  1.00  0.00     0.338 C 
ATOM     40  O   UNL     1       5.070  -1.907  11.724  1.00  0.00    -0.246 OA
BRANCH  39  41
ATOM     41  C   UNL     1       4.167  -0.152  10.387  1.00  0.00     0.060 A 
ATOM     42  C   UNL     1       4.551   0.869  11.245  1.00  0.00     0.016 A 
ATOM     43  C   UNL     1       3.370   0.057   9.248  1.00  0.00     0.016 A 
ATOM     44  C   UNL     1       3.842   2.040  11.162  1.00  0.00     0.010 A 
ATOM     45  C   UNL     1       2.643   1.215   9.187  1.00  0.00     0.010 A 
ATOM     46  C   UNL     1       2.814   2.136  10.214  1.00  0.00    -0.014 A 
BRANCH  46  47
ATOM     47  C   UNL     1       1.983   3.311  10.252  1.00  0.00     0.031 A 
ATOM     48  C   UNL     1       2.663   4.458   9.630  1.00  0.00     0.074 A 
ATOM     49  C   UNL     1       0.736   3.323  10.752  1.00  0.00     0.049 A 
ATOM     50  N   UNL     1       3.256   5.425  10.243  1.00  0.00    -0.248 NA
ATOM     51  C   UNL     1       2.937   4.389   8.187  1.00  0.00     0.031 C 
ATOM     52  C   UNL     1      -0.115   2.200  11.144  1.00  0.00     0.029 A 
ATOM     53  N   UNL     1      -0.069   4.400  10.945  1.00  0.00    -0.354 N 
ATOM     54  C   UNL     1       3.799   6.207   9.235  1.00  0.00     0.074 A 
ATOM     55  C   UNL     1       3.790   5.402   8.043  1.00  0.00     0.031 C 
ATOM     56  C   UNL     1      -1.385   2.643  11.310  1.00  0.00     0.029 A 
ATOM     57  C   UNL     1      -1.404   4.089  11.167  1.00  0.00     0.049 A 
ATOM     58  H   UNL     1       0.266   5.325  10.928  1.00  0.00     0.167 HD
ATOM     59  C   UNL     1       3.916   7.550   9.397  1.00  0.00     0.037 A 
ATOM     60  C   UNL     1      -2.425   4.984  11.132  1.00  0.00     0.037 A 
ATOM     61  C   UNL     1       3.798   7.919  10.786  1.00  0.00     0.049 A 
ATOM     62  C   UNL     1      -1.829   6.338  11.310  1.00  0.00     0.074 A 
ATOM     63  C   UNL     1       4.513   7.627  11.931  1.00  0.00     0.029 A 
ATOM     64  N   UNL     1       2.579   8.389  11.211  1.00  0.00    -0.354 N 
ATOM     65  N   UNL     1      -1.288   6.746  12.426  1.00  0.00    -0.248 NA
ATOM     66  C   UNL     1      -1.398   7.050  10.114  1.00  0.00     0.031 C 
ATOM     67  C   UNL     1       3.534   7.504  12.962  1.00  0.00     0.029 A 
ATOM     68  C   UNL     1       2.286   7.790  12.408  1.00  0.00     0.049 A 
ATOM     69  H   UNL     1       2.015   9.043  10.739  1.00  0.00     0.167 HD
ATOM     70  C   UNL     1      -0.153   7.443  12.035  1.00  0.00     0.074 A 
ATOM     71  C   UNL     1      -0.312   7.660  10.600  1.00  0.00     0.031 C 
ATOM     72  C   UNL     1       0.940   7.511  12.851  1.00  0.00     0.037 A 
BRANCH  59  73
ATOM     73  C   UNL     1       3.710   8.539   8.280  1.00  0.00     0.064 A 
ATOM     74  C   UNL     1       4.011   9.892   8.514  1.00  0.00     0.173 A 
ATOM     75  C   UNL     1       2.964   8.272   7.109  1.00  0.00     0.173 A 
ATOM     76  F   UNL     1       4.693  10.259   9.610  1.00  0.00    -0.203 F 
ATOM     77  C   UNL     1       3.533  10.905   7.681  1.00  0.00     0.198 A 
ATOM     78  C   UNL     1       2.543   9.280   6.248  1.00  0.00     0.198 A 
ATOM     79  F   UNL     1       2.505   7.053   6.807  1.00  0.00    -0.203 F 
ATOM     80  F   UNL     1       3.730  12.187   8.015  1.00  0.00    -0.200 F 
ATOM     81  C   UNL     1       2.797  10.598   6.551  1.00  0.00     0.200 A 
ATOM     82  F   UNL     1       1.812   8.959   5.170  1.00  0.00    -0.200 F 
ATOM     83  F   UNL     1       2.287  11.570   5.784  1.00  0.00    -0.200 F 
ENDBRANCH  59  73
BRANCH  60  84
ATOM     84  C   UNL     1      -3.796   4.794  10.599  1.00  0.00     0.064 A 
ATOM     85  C   UNL     1      -4.810   5.733  10.860  1.00  0.00     0.173 A 
ATOM     86  C   UNL     1      -4.066   3.850   9.589  1.00  0.00     0.173 A 
ATOM     87  F   UNL     1      -4.617   6.697  11.772  1.00  0.00    -0.203 F 
ATOM     88  C   UNL     1      -6.007   5.743  10.134  1.00  0.00     0.198 A 
ATOM     89  C   UNL     1      -5.263   3.859   8.870  1.00  0.00     0.198 A 
ATOM     90  F   UNL     1      -3.136   2.963   9.209  1.00  0.00    -0.203 F 
ATOM     91  F   UNL     1      -6.922   6.695  10.367  1.00  0.00    -0.200 F 
ATOM     92  C   UNL     1      -6.227   4.813   9.132  1.00  0.00     0.200 A 
ATOM     93  F   UNL     1      -5.446   2.977   7.876  1.00  0.00    -0.200 F 
ATOM     94  F   UNL     1      -7.344   4.862   8.393  1.00  0.00    -0.200 F 
ENDBRANCH  60  84
BRANCH  72  95
ATOM     95  C   UNL     1       0.776   7.054  14.274  1.00  0.00     0.064 A 
ATOM     96  C   UNL     1       0.464   5.736  14.650  1.00  0.00     0.173 A 
ATOM     97  C   UNL     1       1.087   7.960  15.296  1.00  0.00     0.173 A 
ATOM     98  F   UNL     1       0.254   4.787  13.728  1.00  0.00    -0.203 F 
ATOM     99  C   UNL     1       0.421   5.359  15.992  1.00  0.00     0.198 A 
ATOM    100  C   UNL     1       1.082   7.572  16.632  1.00  0.00     0.198 A 
ATOM    101  F   UNL     1       1.446   9.217  14.992  1.00  0.00    -0.203 F 
ATOM    102  F   UNL     1       0.107   4.099  16.329  1.00  0.00    -0.200 F 
ATOM    103  C   UNL     1       0.738   6.276  16.981  1.00  0.00     0.200 A 
ATOM    104  F   UNL     1       1.439   8.450  17.580  1.00  0.00    -0.200 F 
ATOM    105  F   UNL     1       0.739   5.905  18.269  1.00  0.00    -0.200 F 
ENDBRANCH  72  95
ENDBRANCH  46  47
ENDBRANCH  39  41
ENDBRANCH  38  39
ENDBRANCH  37  38
ENDBRANCH  36  37
ENDBRANCH   1  36
TORSDOF 19
