REMARK SMILES CN(C)C(=O)c1cccc(N2CCC3(CC2)[C@H](C(=O)OCCOCCOC(=O)c2ccc(-c4c5nc(c(-c6c(F)c(F)c(F)c(F)c6F)c6ccc([nH]6)c(-c6c(F)c(F)c(F)c(F)c6F)c6nc(c(-c7c(F)c(F)c(F)c(F)c7F)c7ccc4[nH]7)C=C6)C=C5)cc2)CC(=O)N3C)n1
REMARK SMILES IDX 23 1 22 2 21 3 20 4 18 5 19 6 17 7 11 8 12 9 16 10 13 11
REMARK SMILES IDX 15 12 14 13 95 14 92 15 93 16 96 17 94 18 10 19 6 20 7 21
REMARK SMILES IDX 97 22 8 23 9 24 4 25 1 26 2 27 3 28 5 29 24 30 25 31 26 32
REMARK SMILES IDX 27 33 28 34 29 35 30 36 91 37 31 38 90 39 32 40 33 41 34 42
REMARK SMILES IDX 84 43 35 44 89 45 83 46 85 47 36 48 88 49 82 50 81 51 37 53
REMARK SMILES IDX 69 54 49 55 68 56 50 57 53 58 67 59 86 60 51 61 52 62 66 64
REMARK SMILES IDX 87 65 54 66 38 67 39 68 47 69 40 70 41 71 45 72 48 73 42 74
REMARK SMILES IDX 43 75 46 76 44 77 70 78 71 79 79 80 72 81 73 82 77 83 80 84
REMARK SMILES IDX 74 85 75 86 78 87 76 88 55 89 56 90 64 91 57 92 58 93 62 94
REMARK SMILES IDX 65 95 59 96 60 97 63 98 61 99
REMARK H PARENT 85 52 53 63
REMARK Flexibility Score: inf
ROOT
ATOM      1  O   UNL     1       1.714   5.462   9.691  1.00  0.00    -0.374 OA
ENDROOT
BRANCH   1   2
ATOM      2  C   UNL     1       3.138   5.490   9.651  1.00  0.00     0.202 C 
BRANCH   2   3
ATOM      3  C   UNL     1       3.881   4.813  10.804  1.00  0.00     0.261 C 
BRANCH   3   4
ATOM      4  O   UNL     1       3.824   3.374  10.718  1.00  0.00    -0.463 OA
BRANCH   4   5
ATOM      5  C   UNL     1       2.888   2.791  11.500  1.00  0.00     0.311 C 
ATOM      6  O   UNL     1       2.144   3.401  12.262  1.00  0.00    -0.252 OA
BRANCH   5   7
ATOM      7  C   UNL     1       2.878   1.282  11.441  1.00  0.00     0.134 C 
ATOM      8  N   UNL     1       1.471   0.307   7.571  1.00  0.00    -0.356 N 
ATOM      9  C   UNL     1       2.890   0.620   7.478  1.00  0.00     0.120 C 
ATOM     10  C   UNL     1       1.151  -0.707   8.568  1.00  0.00     0.120 C 
ATOM     11  C   UNL     1       3.337   1.245   8.818  1.00  0.00     0.051 C 
ATOM     12  C   UNL     1       1.507  -0.157   9.941  1.00  0.00     0.051 C 
ATOM     13  C   UNL     1       2.929   0.462  10.096  1.00  0.00     0.060 C 
ATOM     14  N   UNL     1       3.955  -0.555  10.417  1.00  0.00    -0.339 N 
ATOM     15  C   UNL     1       3.960   0.751  12.370  1.00  0.00     0.118 C 
ATOM     16  C   UNL     1       4.656  -0.307  11.588  1.00  0.00     0.223 C 
ATOM     17  C   UNL     1       4.471  -1.544   9.493  1.00  0.00     0.147 C 
ATOM     18  O   UNL     1       5.671  -0.874  11.960  1.00  0.00    -0.275 OA
BRANCH   8  19
ATOM     19  C   UNL     1       0.679   0.318   6.423  1.00  0.00     0.129 A 
ATOM     20  C   UNL     1       0.370   0.114   4.124  1.00  0.00     0.130 A 
ATOM     21  C   UNL     1      -1.011   0.247   4.227  1.00  0.00     0.034 A 
ATOM     22  N   UNL     1       1.220   0.157   5.197  1.00  0.00    -0.226 NA
ATOM     23  C   UNL     1      -1.551   0.490   5.476  1.00  0.00     0.006 A 
ATOM     24  C   UNL     1      -0.700   0.520   6.574  1.00  0.00     0.047 A 
BRANCH  20  25
ATOM     25  C   UNL     1       0.966  -0.235   2.789  1.00  0.00     0.272 C 
ATOM     26  C   UNL     1       0.947  -0.103   0.350  1.00  0.00     0.146 C 
ATOM     27  N   UNL     1       0.553   0.454   1.634  1.00  0.00    -0.343 N 
ATOM     28  C   UNL     1      -0.177   1.713   1.617  1.00  0.00     0.146 C 
ATOM     29  O   UNL     1       1.764  -1.172   2.728  1.00  0.00    -0.267 OA
ENDBRANCH  20  25
ENDBRANCH   8  19
ENDBRANCH   5   7
ENDBRANCH   4   5
ENDBRANCH   3   4
ENDBRANCH   2   3
ENDBRANCH   1   2
BRANCH   1  30
ATOM     30  C   UNL     1       1.052   4.310   9.172  1.00  0.00     0.202 C 
BRANCH  30  31
ATOM     31  C   UNL     1       1.030   4.158   7.642  1.00  0.00     0.261 C 
BRANCH  31  32
ATOM     32  O   UNL     1       2.346   3.973   7.085  1.00  0.00    -0.460 OA
BRANCH  32  33
ATOM     33  C   UNL     1       2.807   5.002   6.337  1.00  0.00     0.338 C 
ATOM     34  O   UNL     1       2.188   6.003   6.001  1.00  0.00    -0.246 OA
BRANCH  33  35
ATOM     35  C   UNL     1       4.266   4.880   6.136  1.00  0.00     0.060 A 
ATOM     36  C   UNL     1       5.048   5.997   6.459  1.00  0.00     0.016 A 
ATOM     37  C   UNL     1       4.862   3.743   5.585  1.00  0.00     0.016 A 
ATOM     38  C   UNL     1       6.410   6.012   6.163  1.00  0.00     0.010 A 
ATOM     39  C   UNL     1       6.235   3.758   5.293  1.00  0.00     0.010 A 
ATOM     40  C   UNL     1       7.006   4.912   5.533  1.00  0.00    -0.014 A 
BRANCH  40  41
ATOM     41  C   UNL     1       8.377   5.058   4.972  1.00  0.00     0.031 A 
ATOM     42  C   UNL     1       8.542   5.256   3.486  1.00  0.00     0.074 A 
ATOM     43  C   UNL     1       9.460   5.094   5.769  1.00  0.00     0.049 A 
ATOM     44  N   UNL     1       9.635   5.425   2.784  1.00  0.00    -0.248 NA
ATOM     45  C   UNL     1       7.308   5.268   2.685  1.00  0.00     0.031 C 
ATOM     46  C   UNL     1       9.443   4.965   7.224  1.00  0.00     0.029 A 
ATOM     47  N   UNL     1      10.790   5.258   5.462  1.00  0.00    -0.354 N 
ATOM     48  C   UNL     1       9.221   5.556   1.464  1.00  0.00     0.074 A 
ATOM     49  C   UNL     1       7.782   5.410   1.457  1.00  0.00     0.031 C 
ATOM     50  C   UNL     1      10.702   5.053   7.685  1.00  0.00     0.029 A 
ATOM     51  C   UNL     1      11.619   5.210   6.556  1.00  0.00     0.049 A 
ATOM     52  H   UNL     1      11.118   5.395   4.544  1.00  0.00     0.167 HD
ATOM     53  C   UNL     1       9.967   5.792   0.358  1.00  0.00     0.037 A 
ATOM     54  C   UNL     1      12.964   5.268   6.637  1.00  0.00     0.037 A 
ATOM     55  C   UNL     1      11.399   5.946   0.359  1.00  0.00     0.049 A 
ATOM     56  C   UNL     1      13.779   5.448   5.380  1.00  0.00     0.074 A 
ATOM     57  C   UNL     1      12.238   6.209  -0.711  1.00  0.00     0.029 A 
ATOM     58  N   UNL     1      12.206   5.840   1.482  1.00  0.00    -0.354 N 
ATOM     59  N   UNL     1      13.376   5.602   4.143  1.00  0.00    -0.248 NA
ATOM     60  C   UNL     1      15.242   5.467   5.536  1.00  0.00     0.031 C 
ATOM     61  C   UNL     1      13.557   6.199  -0.246  1.00  0.00     0.029 A 
ATOM     62  C   UNL     1      13.536   6.000   1.124  1.00  0.00     0.049 A 
ATOM     63  H   UNL     1      11.882   5.676   2.397  1.00  0.00     0.167 HD
ATOM     64  C   UNL     1      14.527   5.769   3.381  1.00  0.00     0.074 A 
ATOM     65  C   UNL     1      15.646   5.713   4.298  1.00  0.00     0.031 C 
ATOM     66  C   UNL     1      14.645   5.953   2.043  1.00  0.00     0.037 A 
BRANCH  53  67
ATOM     67  C   UNL     1       9.252   5.873  -0.961  1.00  0.00     0.064 A 
ATOM     68  C   UNL     1       8.414   6.950  -1.284  1.00  0.00     0.173 A 
ATOM     69  C   UNL     1       9.443   4.877  -1.931  1.00  0.00     0.173 A 
ATOM     70  F   UNL     1       8.188   7.923  -0.389  1.00  0.00    -0.203 F 
ATOM     71  C   UNL     1       7.774   7.014  -2.520  1.00  0.00     0.198 A 
ATOM     72  C   UNL     1       8.828   4.961  -3.177  1.00  0.00     0.198 A 
ATOM     73  F   UNL     1      10.240   3.828  -1.677  1.00  0.00    -0.203 F 
ATOM     74  F   UNL     1       6.939   8.028  -2.789  1.00  0.00    -0.200 F 
ATOM     75  C   UNL     1       7.988   6.025  -3.468  1.00  0.00     0.200 A 
ATOM     76  F   UNL     1       9.050   4.013  -4.098  1.00  0.00    -0.200 F 
ATOM     77  F   UNL     1       7.379   6.094  -4.660  1.00  0.00    -0.200 F 
ENDBRANCH  53  67
BRANCH  54  78
ATOM     78  C   UNL     1      13.637   5.136   7.957  1.00  0.00     0.064 A 
ATOM     79  C   UNL     1      14.352   6.204   8.519  1.00  0.00     0.173 A 
ATOM     80  C   UNL     1      13.609   3.927   8.668  1.00  0.00     0.173 A 
ATOM     81  F   UNL     1      14.434   7.372   7.866  1.00  0.00    -0.203 F 
ATOM     82  C   UNL     1      15.030   6.059   9.728  1.00  0.00     0.198 A 
ATOM     83  C   UNL     1      14.259   3.793   9.892  1.00  0.00     0.198 A 
ATOM     84  F   UNL     1      12.944   2.872   8.172  1.00  0.00    -0.203 F 
ATOM     85  F   UNL     1      15.753   7.078  10.214  1.00  0.00    -0.200 F 
ATOM     86  C   UNL     1      14.978   4.856  10.417  1.00  0.00     0.200 A 
ATOM     87  F   UNL     1      14.197   2.633  10.559  1.00  0.00    -0.200 F 
ATOM     88  F   UNL     1      15.630   4.718  11.579  1.00  0.00    -0.200 F 
ENDBRANCH  54  78
BRANCH  66  89
ATOM     89  C   UNL     1      16.027   6.155   1.485  1.00  0.00     0.064 A 
ATOM     90  C   UNL     1      16.967   5.115   1.435  1.00  0.00     0.173 A 
ATOM     91  C   UNL     1      16.401   7.399   0.952  1.00  0.00     0.173 A 
ATOM     92  F   UNL     1      16.667   3.909   1.941  1.00  0.00    -0.203 F 
ATOM     93  C   UNL     1      18.237   5.320   0.899  1.00  0.00     0.198 A 
ATOM     94  C   UNL     1      17.659   7.591   0.385  1.00  0.00     0.198 A 
ATOM     95  F   UNL     1      15.540   8.428   0.964  1.00  0.00    -0.203 F 
ATOM     96  F   UNL     1      19.135   4.325   0.910  1.00  0.00    -0.200 F 
ATOM     97  C   UNL     1      18.578   6.554   0.368  1.00  0.00     0.200 A 
ATOM     98  F   UNL     1      17.980   8.780  -0.144  1.00  0.00    -0.200 F 
ATOM     99  F   UNL     1      19.797   6.747  -0.155  1.00  0.00    -0.200 F 
ENDBRANCH  66  89
ENDBRANCH  40  41
ENDBRANCH  33  35
ENDBRANCH  32  33
ENDBRANCH  31  32
ENDBRANCH  30  31
ENDBRANCH   1  30
TORSDOF 16
