REMARK SMILES O=C(OCCOCCOC(=O)c1cccc(N2CCCCC2)n1)c1ccc(-c2c3nc(c(-c4c(F)c(F)c(F)c(F)c4F)c4ccc([nH]4)c(-c4c(F)c(F)c(F)c(F)c4F)c4nc(c(-c5c(F)c(F)c(F)c(F)c5F)c5ccc2[nH]5)C=C4)C=C3)cc1
REMARK SMILES IDX 5 1 4 2 3 3 2 4 1 5 24 6 25 7 86 8 26 9 85 10 27 11 28 12
REMARK SMILES IDX 29 13 79 14 30 15 84 16 78 17 80 18 31 19 83 20 77 21 76 22
REMARK SMILES IDX 32 24 64 25 44 26 63 27 45 28 48 29 62 30 81 31 46 32 47 33
REMARK SMILES IDX 61 35 82 36 49 37 33 38 34 39 42 40 35 41 36 42 40 43 43 44
REMARK SMILES IDX 37 45 38 46 41 47 39 48 65 49 66 50 74 51 67 52 68 53 72 54
REMARK SMILES IDX 75 55 69 56 70 57 73 58 71 59 50 60 51 61 59 62 52 63 53 64
REMARK SMILES IDX 57 65 60 66 54 67 55 68 58 69 56 70 6 71 7 72 8 73 9 74
REMARK SMILES IDX 10 75 11 76 12 77 13 78 23 79 14 80 16 81 15 82 17 83 18 84
REMARK SMILES IDX 22 85 19 86 21 87 20 88
REMARK H PARENT 80 23 48 34
REMARK Flexibility Score: inf
ROOT
ATOM      1  C   UNL     1       4.347  -0.392   1.677  1.00  0.00     0.202 C 
ENDROOT
BRANCH   1   2
ATOM      2  C   UNL     1       4.083   0.989   1.070  1.00  0.00     0.261 C 
BRANCH   2   3
ATOM      3  O   UNL     1       2.709   1.106   0.661  1.00  0.00    -0.460 OA
BRANCH   3   4
ATOM      4  C   UNL     1       2.179   0.973  -0.577  1.00  0.00     0.338 C 
ATOM      5  O   UNL     1       0.965   1.121  -0.710  1.00  0.00    -0.246 OA
BRANCH   4   6
ATOM      6  C   UNL     1       2.975   0.680  -1.811  1.00  0.00     0.060 A 
ATOM      7  C   UNL     1       4.192  -0.002  -1.847  1.00  0.00     0.016 A 
ATOM      8  C   UNL     1       2.396   1.046  -3.040  1.00  0.00     0.016 A 
ATOM      9  C   UNL     1       4.841  -0.273  -3.045  1.00  0.00     0.010 A 
ATOM     10  C   UNL     1       3.022   0.747  -4.255  1.00  0.00     0.010 A 
ATOM     11  C   UNL     1       4.257   0.094  -4.255  1.00  0.00    -0.014 A 
BRANCH  11  12
ATOM     12  C   UNL     1       5.011  -0.163  -5.494  1.00  0.00     0.031 A 
ATOM     13  C   UNL     1       5.755   0.968  -6.129  1.00  0.00     0.074 A 
ATOM     14  C   UNL     1       5.124  -1.423  -5.948  1.00  0.00     0.049 A 
ATOM     15  N   UNL     1       6.491   0.974  -7.208  1.00  0.00    -0.248 NA
ATOM     16  C   UNL     1       5.676   2.269  -5.444  1.00  0.00     0.031 C 
ATOM     17  C   UNL     1       4.521  -2.599  -5.318  1.00  0.00     0.029 A 
ATOM     18  N   UNL     1       5.811  -1.931  -7.018  1.00  0.00    -0.354 N 
ATOM     19  C   UNL     1       6.952   2.276  -7.338  1.00  0.00     0.074 A 
ATOM     20  C   UNL     1       6.408   3.037  -6.236  1.00  0.00     0.031 C 
ATOM     21  C   UNL     1       4.889  -3.697  -5.998  1.00  0.00     0.029 A 
ATOM     22  C   UNL     1       5.703  -3.295  -7.140  1.00  0.00     0.049 A 
ATOM     23  H   UNL     1       6.333  -1.373  -7.639  1.00  0.00     0.167 HD
ATOM     24  C   UNL     1       7.758   2.782  -8.300  1.00  0.00     0.037 A 
ATOM     25  C   UNL     1       6.195  -4.115  -8.088  1.00  0.00     0.037 A 
ATOM     26  C   UNL     1       8.274   2.005  -9.393  1.00  0.00     0.049 A 
ATOM     27  C   UNL     1       7.006  -3.506  -9.200  1.00  0.00     0.074 A 
ATOM     28  C   UNL     1       9.029   2.419 -10.473  1.00  0.00     0.029 A 
ATOM     29  N   UNL     1       8.079   0.636  -9.537  1.00  0.00    -0.354 N 
ATOM     30  N   UNL     1       7.384  -2.260  -9.361  1.00  0.00    -0.248 NA
ATOM     31  C   UNL     1       7.444  -4.410 -10.271  1.00  0.00     0.031 C 
ATOM     32  C   UNL     1       9.261   1.307 -11.291  1.00  0.00     0.029 A 
ATOM     33  C   UNL     1       8.687   0.192 -10.698  1.00  0.00     0.049 A 
ATOM     34  H   UNL     1       7.581   0.067  -8.907  1.00  0.00     0.167 HD
ATOM     35  C   UNL     1       8.112  -2.229 -10.540  1.00  0.00     0.074 A 
ATOM     36  C   UNL     1       8.141  -3.588 -11.044  1.00  0.00     0.031 C 
ATOM     37  C   UNL     1       8.697  -1.174 -11.160  1.00  0.00     0.037 A 
BRANCH  24  38
ATOM     38  C   UNL     1       8.058   4.249  -8.230  1.00  0.00     0.064 A 
ATOM     39  C   UNL     1       8.926   4.781  -7.264  1.00  0.00     0.173 A 
ATOM     40  C   UNL     1       7.439   5.139  -9.120  1.00  0.00     0.173 A 
ATOM     41  F   UNL     1       9.520   3.974  -6.372  1.00  0.00    -0.203 F 
ATOM     42  C   UNL     1       9.138   6.155  -7.173  1.00  0.00     0.198 A 
ATOM     43  C   UNL     1       7.672   6.510  -9.041  1.00  0.00     0.198 A 
ATOM     44  F   UNL     1       6.595   4.682 -10.056  1.00  0.00    -0.203 F 
ATOM     45  F   UNL     1       9.925   6.648  -6.206  1.00  0.00    -0.200 F 
ATOM     46  C   UNL     1       8.514   7.017  -8.063  1.00  0.00     0.200 A 
ATOM     47  F   UNL     1       7.069   7.341  -9.901  1.00  0.00    -0.200 F 
ATOM     48  F   UNL     1       8.710   8.339  -7.966  1.00  0.00    -0.200 F 
ENDBRANCH  24  38
BRANCH  25  49
ATOM     49  C   UNL     1       5.905  -5.573  -8.042  1.00  0.00     0.064 A 
ATOM     50  C   UNL     1       6.926  -6.512  -7.841  1.00  0.00     0.173 A 
ATOM     51  C   UNL     1       4.598  -6.059  -8.205  1.00  0.00     0.173 A 
ATOM     52  F   UNL     1       8.196  -6.103  -7.707  1.00  0.00    -0.203 F 
ATOM     53  C   UNL     1       6.652  -7.880  -7.816  1.00  0.00     0.198 A 
ATOM     54  C   UNL     1       4.322  -7.424  -8.150  1.00  0.00     0.198 A 
ATOM     55  F   UNL     1       3.584  -5.206  -8.407  1.00  0.00    -0.203 F 
ATOM     56  F   UNL     1       7.653  -8.758  -7.666  1.00  0.00    -0.200 F 
ATOM     57  C   UNL     1       5.350  -8.334  -7.963  1.00  0.00     0.200 A 
ATOM     58  F   UNL     1       3.060  -7.856  -8.282  1.00  0.00    -0.200 F 
ATOM     59  F   UNL     1       5.088  -9.648  -7.935  1.00  0.00    -0.200 F 
ENDBRANCH  25  49
BRANCH  37  60
ATOM     60  C   UNL     1       9.428  -1.459 -12.435  1.00  0.00     0.064 A 
ATOM     61  C   UNL     1       8.741  -1.714 -13.630  1.00  0.00     0.173 A 
ATOM     62  C   UNL     1      10.830  -1.425 -12.470  1.00  0.00     0.173 A 
ATOM     63  F   UNL     1       7.400  -1.772 -13.639  1.00  0.00    -0.203 F 
ATOM     64  C   UNL     1       9.433  -1.943 -14.815  1.00  0.00     0.198 A 
ATOM     65  C   UNL     1      11.518  -1.629 -13.662  1.00  0.00     0.198 A 
ATOM     66  F   UNL     1      11.529  -1.179 -11.352  1.00  0.00    -0.203 F 
ATOM     67  F   UNL     1       8.759  -2.222 -15.939  1.00  0.00    -0.200 F 
ATOM     68  C   UNL     1      10.819  -1.893 -14.831  1.00  0.00     0.200 A 
ATOM     69  F   UNL     1      12.856  -1.569 -13.680  1.00  0.00    -0.200 F 
ATOM     70  F   UNL     1      11.484  -2.104 -15.976  1.00  0.00    -0.200 F 
ENDBRANCH  37  60
ENDBRANCH  11  12
ENDBRANCH   4   6
ENDBRANCH   3   4
ENDBRANCH   2   3
ENDBRANCH   1   2
BRANCH   1  71
ATOM     71  O   UNL     1       4.029  -1.465   0.788  1.00  0.00    -0.374 OA
BRANCH  71  72
ATOM     72  C   UNL     1       2.706  -1.997   0.910  1.00  0.00     0.202 C 
BRANCH  72  73
ATOM     73  C   UNL     1       2.782  -3.475   1.298  1.00  0.00     0.261 C 
BRANCH  73  74
ATOM     74  O   UNL     1       3.331  -3.570   2.623  1.00  0.00    -0.459 OA
BRANCH  74  75
ATOM     75  C   UNL     1       4.688  -3.687   2.670  1.00  0.00     0.357 C 
ATOM     76  O   UNL     1       5.415  -4.097   1.781  1.00  0.00    -0.244 OA
BRANCH  75  77
ATOM     77  C   UNL     1       5.138  -3.047   3.937  1.00  0.00     0.150 A 
ATOM     78  C   UNL     1       4.468  -3.280   5.129  1.00  0.00     0.036 A 
ATOM     79  N   UNL     1       6.148  -2.151   3.804  1.00  0.00    -0.224 NA
ATOM     80  C   UNL     1       4.862  -2.548   6.241  1.00  0.00     0.006 A 
ATOM     81  C   UNL     1       6.512  -1.436   4.880  1.00  0.00     0.129 A 
ATOM     82  C   UNL     1       5.889  -1.613   6.113  1.00  0.00     0.047 A 
BRANCH  81  83
ATOM     83  N   UNL     1       7.507  -0.502   4.689  1.00  0.00    -0.357 N 
ATOM     84  C   UNL     1       7.104   0.889   4.555  1.00  0.00     0.118 C 
ATOM     85  C   UNL     1       8.796  -0.776   5.304  1.00  0.00     0.118 C 
ATOM     86  C   UNL     1       8.175   1.650   3.773  1.00  0.00     0.022 C 
ATOM     87  C   UNL     1       9.886  -0.043   4.523  1.00  0.00     0.022 C 
ATOM     88  C   UNL     1       9.566   1.444   4.374  1.00  0.00     0.004 C 
ENDBRANCH  81  83
ENDBRANCH  75  77
ENDBRANCH  74  75
ENDBRANCH  73  74
ENDBRANCH  72  73
ENDBRANCH  71  72
ENDBRANCH   1  71
TORSDOF 15
