REMARK SMILES Cc1c(CC(=O)OCCOCCOC(=O)c2ccc(-c3c4nc(c(-c5c(F)c(F)c(F)c(F)c5F)c5ccc([nH]5)c(-c5c(F)c(F)c(F)c(F)c5F)c5nc(c(-c6c(F)c(F)c(F)c(F)c6F)c6ccc3[nH]6)C=C5)C=C4)cc2)cc(-c2ccc(S(C)(=O)=O)cc2)n1-c1cccc(F)c1
REMARK SMILES IDX 9 1 8 2 7 3 5 4 6 5 4 6 3 7 1 8 2 9 91 10 79 11 80 12 92 13
REMARK SMILES IDX 93 14 98 15 94 16 96 17 95 18 97 19 81 20 82 21 90 22 83 23
REMARK SMILES IDX 89 24 84 25 85 26 86 27 87 28 88 29 10 30 11 31 12 32 13 33
REMARK SMILES IDX 14 34 15 35 16 36 17 37 78 38 18 39 77 40 19 41 20 42 21 43
REMARK SMILES IDX 71 44 22 45 76 46 70 47 72 48 23 49 75 50 69 51 68 52 24 54
REMARK SMILES IDX 56 55 36 56 55 57 37 58 40 59 54 60 73 61 38 62 39 63 53 65
REMARK SMILES IDX 74 66 41 67 25 68 26 69 34 70 27 71 28 72 32 73 35 74 29 75
REMARK SMILES IDX 30 76 33 77 31 78 57 79 58 80 66 81 59 82 60 83 64 84 67 85
REMARK SMILES IDX 61 86 62 87 65 88 63 89 42 90 43 91 51 92 44 93 45 94 49 95
REMARK SMILES IDX 52 96 46 97 47 98 50 99 48 100
REMARK H PARENT 72 53 40 64
REMARK Flexibility Score: inf
ROOT
ATOM      1  C   UNL     1      -4.178  -0.479  -0.303  1.00  0.00     0.202 C 
ENDROOT
BRANCH   1   2
ATOM      2  C   UNL     1      -3.882  -0.916   1.145  1.00  0.00     0.261 C 
BRANCH   2   3
ATOM      3  O   UNL     1      -2.732  -0.268   1.727  1.00  0.00    -0.463 OA
BRANCH   3   4
ATOM      4  C   UNL     1      -1.780  -1.093   2.245  1.00  0.00     0.310 C 
ATOM      5  O   UNL     1      -1.903  -2.311   2.346  1.00  0.00    -0.252 OA
BRANCH   4   6
ATOM      6  C   UNL     1      -0.581  -0.375   2.828  1.00  0.00     0.160 C 
BRANCH   6   7
ATOM      7  C   UNL     1      -0.070   0.855   2.126  1.00  0.00    -0.015 A 
ATOM      8  C   UNL     1       1.463  -0.148   0.266  1.00  0.00     0.065 C 
ATOM      9  C   UNL     1       0.788   0.945   1.031  1.00  0.00     0.024 A 
ATOM     10  N   UNL     1       1.068   2.290   0.796  1.00  0.00    -0.313 N 
ATOM     11  C   UNL     1      -0.250   2.183   2.596  1.00  0.00     0.033 A 
ATOM     12  C   UNL     1       0.510   3.043   1.824  1.00  0.00     0.053 A 
BRANCH  10  13
ATOM     13  C   UNL     1       1.813   2.809  -0.298  1.00  0.00     0.049 A 
ATOM     14  C   UNL     1       2.969   3.567  -0.074  1.00  0.00     0.027 A 
ATOM     15  C   UNL     1       1.329   2.632  -1.596  1.00  0.00     0.065 A 
ATOM     16  C   UNL     1       3.633   4.152  -1.157  1.00  0.00     0.005 A 
ATOM     17  C   UNL     1       1.969   3.267  -2.653  1.00  0.00     0.125 A 
ATOM     18  C   UNL     1       3.119   4.021  -2.447  1.00  0.00     0.039 A 
ATOM     19  F   UNL     1       1.456   3.168  -3.886  1.00  0.00    -0.207 F 
ENDBRANCH  10  13
BRANCH  12  20
ATOM     20  C   UNL     1       0.680   4.485   2.009  1.00  0.00    -0.001 A 
ATOM     21  C   UNL     1       0.138   5.403   1.101  1.00  0.00     0.011 A 
ATOM     22  C   UNL     1       1.387   4.955   3.126  1.00  0.00     0.011 A 
ATOM     23  C   UNL     1       0.320   6.775   1.291  1.00  0.00     0.021 A 
ATOM     24  C   UNL     1       1.580   6.324   3.319  1.00  0.00     0.021 A 
ATOM     25  C   UNL     1       1.055   7.226   2.392  1.00  0.00     0.067 A 
BRANCH  25  26
ATOM     26  S   UNL     1       1.287   8.973   2.621  1.00  0.00     0.175 S 
ATOM     27  C   UNL     1       2.319   9.447   1.259  1.00  0.00     0.163 C 
ATOM     28  O   UNL     1      -0.007   9.600   2.456  1.00  0.00    -0.224 OA
ATOM     29  O   UNL     1       2.060   9.161   3.838  1.00  0.00    -0.224 OA
ENDBRANCH  25  26
ENDBRANCH  12  20
ENDBRANCH   6   7
ENDBRANCH   4   6
ENDBRANCH   3   4
ENDBRANCH   2   3
ENDBRANCH   1   2
BRANCH   1  30
ATOM     30  O   UNL     1      -3.073  -0.482  -1.195  1.00  0.00    -0.374 OA
BRANCH  30  31
ATOM     31  C   UNL     1      -2.174   0.618  -1.056  1.00  0.00     0.202 C 
BRANCH  31  32
ATOM     32  C   UNL     1      -2.591   1.989  -1.659  1.00  0.00     0.261 C 
BRANCH  32  33
ATOM     33  O   UNL     1      -3.546   2.873  -0.965  1.00  0.00    -0.460 OA
BRANCH  33  34
ATOM     34  C   UNL     1      -4.111   3.831  -1.795  1.00  0.00     0.338 C 
ATOM     35  O   UNL     1      -4.065   3.755  -3.020  1.00  0.00    -0.246 OA
BRANCH  34  36
ATOM     36  C   UNL     1      -4.687   5.114  -1.176  1.00  0.00     0.060 A 
ATOM     37  C   UNL     1      -6.059   5.357  -1.025  1.00  0.00     0.016 A 
ATOM     38  C   UNL     1      -3.905   6.272  -1.118  1.00  0.00     0.016 A 
ATOM     39  C   UNL     1      -6.621   6.708  -0.864  1.00  0.00     0.010 A 
ATOM     40  C   UNL     1      -4.466   7.612  -0.899  1.00  0.00     0.010 A 
ATOM     41  C   UNL     1      -5.865   7.927  -0.840  1.00  0.00    -0.014 A 
BRANCH  41  42
ATOM     42  C   UNL     1      -6.606   9.309  -1.525  1.00  0.00     0.031 A 
ATOM     43  C   UNL     1      -6.959   8.798  -2.912  1.00  0.00     0.074 A 
ATOM     44  C   UNL     1      -6.733  10.740  -1.491  1.00  0.00     0.049 A 
ATOM     45  N   UNL     1      -5.991   8.207  -3.551  1.00  0.00    -0.248 NA
ATOM     46  C   UNL     1      -8.085   9.158  -3.768  1.00  0.00     0.031 C 
ATOM     47  C   UNL     1      -7.378  11.569  -2.584  1.00  0.00     0.029 A 
ATOM     48  N   UNL     1      -6.330  11.851  -0.691  1.00  0.00    -0.354 N 
ATOM     49  C   UNL     1      -6.048   8.746  -4.800  1.00  0.00     0.074 A 
ATOM     50  C   UNL     1      -7.423   9.230  -4.934  1.00  0.00     0.031 C 
ATOM     51  C   UNL     1      -7.529  12.878  -2.316  1.00  0.00     0.029 A 
ATOM     52  C   UNL     1      -6.821  13.168  -1.098  1.00  0.00     0.049 A 
ATOM     53  H   UNL     1      -5.750  11.736   0.096  1.00  0.00     0.167 HD
ATOM     54  C   UNL     1      -4.941   9.428  -5.223  1.00  0.00     0.037 A 
ATOM     55  C   UNL     1      -6.390  14.457  -0.861  1.00  0.00     0.037 A 
ATOM     56  C   UNL     1      -4.194  10.249  -4.266  1.00  0.00     0.049 A 
ATOM     57  C   UNL     1      -4.979  14.480  -1.337  1.00  0.00     0.074 A 
ATOM     58  C   UNL     1      -3.890  10.182  -2.927  1.00  0.00     0.029 A 
ATOM     59  N   UNL     1      -3.462  11.335  -4.676  1.00  0.00    -0.354 N 
ATOM     60  N   UNL     1      -4.579  14.797  -2.538  1.00  0.00    -0.248 NA
ATOM     61  C   UNL     1      -3.951  14.107  -0.387  1.00  0.00     0.031 C 
ATOM     62  C   UNL     1      -3.074  11.241  -2.511  1.00  0.00     0.029 A 
ATOM     63  C   UNL     1      -3.082  12.107  -3.577  1.00  0.00     0.049 A 
ATOM     64  H   UNL     1      -3.238  11.541  -5.613  1.00  0.00     0.167 HD
ATOM     65  C   UNL     1      -3.290  14.287  -2.604  1.00  0.00     0.074 A 
ATOM     66  C   UNL     1      -2.925  13.982  -1.224  1.00  0.00     0.031 C 
ATOM     67  C   UNL     1      -2.973  13.541  -3.699  1.00  0.00     0.037 A 
BRANCH  54  68
ATOM     68  C   UNL     1      -4.175   8.495  -6.115  1.00  0.00     0.064 A 
ATOM     69  C   UNL     1      -4.832   7.773  -7.129  1.00  0.00     0.173 A 
ATOM     70  C   UNL     1      -2.799   8.258  -5.943  1.00  0.00     0.173 A 
ATOM     71  F   UNL     1      -6.147   7.938  -7.350  1.00  0.00    -0.203 F 
ATOM     72  C   UNL     1      -4.147   6.869  -7.927  1.00  0.00     0.198 A 
ATOM     73  C   UNL     1      -2.112   7.383  -6.771  1.00  0.00     0.198 A 
ATOM     74  F   UNL     1      -2.088   8.862  -4.979  1.00  0.00    -0.203 F 
ATOM     75  F   UNL     1      -4.808   6.185  -8.870  1.00  0.00    -0.200 F 
ATOM     76  C   UNL     1      -2.784   6.691  -7.762  1.00  0.00     0.200 A 
ATOM     77  F   UNL     1      -0.790   7.232  -6.616  1.00  0.00    -0.200 F 
ATOM     78  F   UNL     1      -2.111   5.867  -8.574  1.00  0.00    -0.200 F 
ENDBRANCH  54  68
BRANCH  55  79
ATOM     79  C   UNL     1      -6.905  15.895  -0.870  1.00  0.00     0.064 A 
ATOM     80  C   UNL     1      -7.451  16.704  -1.887  1.00  0.00     0.173 A 
ATOM     81  C   UNL     1      -6.510  16.598   0.296  1.00  0.00     0.173 A 
ATOM     82  F   UNL     1      -7.819  16.180  -3.065  1.00  0.00    -0.203 F 
ATOM     83  C   UNL     1      -7.583  18.112  -1.727  1.00  0.00     0.198 A 
ATOM     84  C   UNL     1      -6.619  17.985   0.445  1.00  0.00     0.198 A 
ATOM     85  F   UNL     1      -5.935  15.917   1.300  1.00  0.00    -0.203 F 
ATOM     86  F   UNL     1      -8.092  18.866  -2.716  1.00  0.00    -0.200 F 
ATOM     87  C   UNL     1      -7.156  18.748  -0.569  1.00  0.00     0.200 A 
ATOM     88  F   UNL     1      -6.160  18.573   1.559  1.00  0.00    -0.200 F 
ATOM     89  F   UNL     1      -7.239  20.082  -0.436  1.00  0.00    -0.200 F 
ENDBRANCH  55  79
BRANCH  67  90
ATOM     90  C   UNL     1      -3.077  14.200  -5.026  1.00  0.00     0.064 A 
ATOM     91  C   UNL     1      -1.972  14.932  -5.469  1.00  0.00     0.173 A 
ATOM     92  C   UNL     1      -4.086  13.889  -5.950  1.00  0.00     0.173 A 
ATOM     93  F   UNL     1      -0.990  15.255  -4.613  1.00  0.00    -0.203 F 
ATOM     94  C   UNL     1      -1.824  15.238  -6.816  1.00  0.00     0.198 A 
ATOM     95  C   UNL     1      -3.905  14.142  -7.303  1.00  0.00     0.198 A 
ATOM     96  F   UNL     1      -5.162  13.176  -5.580  1.00  0.00    -0.203 F 
ATOM     97  F   UNL     1      -0.725  15.879  -7.236  1.00  0.00    -0.200 F 
ATOM     98  C   UNL     1      -2.768  14.804  -7.737  1.00  0.00     0.200 A 
ATOM     99  F   UNL     1      -4.777  13.646  -8.192  1.00  0.00    -0.200 F 
ATOM    100  F   UNL     1      -2.559  14.981  -9.048  1.00  0.00    -0.200 F 
ENDBRANCH  67  90
ENDBRANCH  41  42
ENDBRANCH  34  36
ENDBRANCH  33  34
ENDBRANCH  32  33
ENDBRANCH  31  32
ENDBRANCH  30  31
ENDBRANCH   1  30
TORSDOF 18
