REMARK SMILES Cc1ccc(Oc2cc(C(=O)OCCOCCOC(=O)c3ccc(-c4c5nc(c(-c6c(F)c(F)c(F)c(F)c6F)c6ccc([nH]6)c(-c6c(F)c(F)c(F)c(F)c6F)c6nc(c(-c7c(F)c(F)c(F)c(F)c7F)c7ccc4[nH]7)C=C6)C=C5)cc3)nc3ccccc23)cc1
REMARK SMILES IDX 15 1 14 2 13 3 12 4 10 5 11 6 9 7 7 8 8 9 90 10 85 11 89 12
REMARK SMILES IDX 84 13 86 14 88 15 87 16 6 17 5 18 1 19 2 20 3 21 92 22 4 23
REMARK SMILES IDX 91 24 16 25 17 26 18 27 19 28 20 29 21 30 22 31 83 32 23 33
REMARK SMILES IDX 82 34 24 35 25 36 26 37 76 38 27 39 81 40 75 41 77 42 28 43
REMARK SMILES IDX 80 44 74 45 73 46 29 48 61 49 41 50 60 51 42 52 45 53 59 54
REMARK SMILES IDX 78 55 43 56 44 57 58 59 79 60 46 61 30 62 31 63 39 64 32 65
REMARK SMILES IDX 33 66 37 67 40 68 34 69 35 70 38 71 36 72 62 73 63 74 71 75
REMARK SMILES IDX 64 76 65 77 69 78 72 79 66 80 67 81 70 82 68 83 47 84 48 85
REMARK SMILES IDX 56 86 49 87 50 88 54 89 57 90 51 91 52 92 55 93 53 94
REMARK H PARENT 77 47 45 58
REMARK Flexibility Score: inf
ROOT
ATOM      1  O   UNL     1      -8.330   2.446   1.416  1.00  0.00    -0.374 OA
ENDROOT
BRANCH   1   2
ATOM      2  C   UNL     1      -8.603   3.545   0.570  1.00  0.00     0.202 C 
BRANCH   2   3
ATOM      3  C   UNL     1      -7.781   4.694   1.082  1.00  0.00     0.261 C 
BRANCH   3   4
ATOM      4  O   UNL     1      -6.367   4.458   0.971  1.00  0.00    -0.459 OA
BRANCH   4   5
ATOM      5  C   UNL     1      -5.777   3.331   1.475  1.00  0.00     0.357 C 
ATOM      6  O   UNL     1      -5.946   2.777   2.534  1.00  0.00    -0.244 OA
BRANCH   5   7
ATOM      7  C   UNL     1      -4.879   2.836   0.419  1.00  0.00     0.152 A 
ATOM      8  C   UNL     1      -3.550   1.178  -0.560  1.00  0.00     0.139 A 
ATOM      9  C   UNL     1      -4.319   1.584   0.518  1.00  0.00     0.084 A 
ATOM     10  C   UNL     1      -3.398   1.995  -1.712  1.00  0.00     0.043 A 
ATOM     11  C   UNL     1      -4.015   3.255  -1.668  1.00  0.00     0.075 A 
ATOM     12  C   UNL     1      -2.648   1.672  -2.863  1.00  0.00     0.014 A 
ATOM     13  N   UNL     1      -4.733   3.663  -0.641  1.00  0.00    -0.240 NA
ATOM     14  C   UNL     1      -3.879   4.155  -2.703  1.00  0.00     0.029 A 
ATOM     15  C   UNL     1      -2.503   2.598  -3.900  1.00  0.00     0.001 A 
ATOM     16  C   UNL     1      -3.117   3.843  -3.819  1.00  0.00     0.002 A 
BRANCH   8  17
ATOM     17  O   UNL     1      -2.915  -0.035  -0.426  1.00  0.00    -0.457 OA
BRANCH  17  18
ATOM     18  C   UNL     1      -1.562   0.004  -0.150  1.00  0.00     0.127 A 
ATOM     19  C   UNL     1       2.723  -0.142   0.089  1.00  0.00     0.044 C 
ATOM     20  C   UNL     1       1.225  -0.097   0.084  1.00  0.00    -0.051 A 
ATOM     21  C   UNL     1       0.482  -1.277  -0.051  1.00  0.00     0.007 A 
ATOM     22  C   UNL     1       0.556   1.124   0.191  1.00  0.00     0.007 A 
ATOM     23  C   UNL     1      -0.907  -1.226  -0.171  1.00  0.00     0.047 A 
ATOM     24  C   UNL     1      -0.831   1.173   0.091  1.00  0.00     0.047 A 
ENDBRANCH  17  18
ENDBRANCH   8  17
ENDBRANCH   5   7
ENDBRANCH   4   5
ENDBRANCH   3   4
ENDBRANCH   2   3
ENDBRANCH   1   2
BRANCH   1  25
ATOM     25  C   UNL     1      -8.841   1.196   1.005  1.00  0.00     0.202 C 
BRANCH  25  26
ATOM     26  C   UNL     1     -10.373   1.190   0.981  1.00  0.00     0.261 C 
BRANCH  26  27
ATOM     27  O   UNL     1     -10.895   1.400   2.314  1.00  0.00    -0.460 OA
BRANCH  27  28
ATOM     28  C   UNL     1     -11.220   2.686   2.639  1.00  0.00     0.338 C 
ATOM     29  O   UNL     1     -11.990   3.394   2.011  1.00  0.00    -0.246 OA
BRANCH  28  30
ATOM     30  C   UNL     1     -10.302   3.194   3.703  1.00  0.00     0.060 A 
ATOM     31  C   UNL     1     -10.212   4.575   3.978  1.00  0.00     0.016 A 
ATOM     32  C   UNL     1      -9.298   2.342   4.139  1.00  0.00     0.016 A 
ATOM     33  C   UNL     1      -9.033   5.119   4.524  1.00  0.00     0.010 A 
ATOM     34  C   UNL     1      -8.099   2.900   4.517  1.00  0.00     0.010 A 
ATOM     35  C   UNL     1      -7.935   4.285   4.704  1.00  0.00    -0.014 A 
BRANCH  35  36
ATOM     36  C   UNL     1      -6.560   4.674   5.048  1.00  0.00     0.031 A 
ATOM     37  C   UNL     1      -5.972   4.066   6.273  1.00  0.00     0.074 A 
ATOM     38  C   UNL     1      -5.727   5.288   4.166  1.00  0.00     0.049 A 
ATOM     39  N   UNL     1      -4.865   4.449   6.807  1.00  0.00    -0.248 NA
ATOM     40  C   UNL     1      -6.609   3.002   7.050  1.00  0.00     0.031 C 
ATOM     41  C   UNL     1      -4.273   5.099   4.075  1.00  0.00     0.029 A 
ATOM     42  N   UNL     1      -5.991   6.139   3.082  1.00  0.00    -0.354 N 
ATOM     43  C   UNL     1      -4.477   3.484   7.710  1.00  0.00     0.074 A 
ATOM     44  C   UNL     1      -5.660   2.702   7.937  1.00  0.00     0.031 C 
ATOM     45  C   UNL     1      -3.749   5.964   3.191  1.00  0.00     0.029 A 
ATOM     46  C   UNL     1      -4.815   6.847   2.766  1.00  0.00     0.049 A 
ATOM     47  H   UNL     1      -6.856   6.226   2.619  1.00  0.00     0.167 HD
ATOM     48  C   UNL     1      -3.153   3.388   8.021  1.00  0.00     0.037 A 
ATOM     49  C   UNL     1      -4.781   8.207   2.707  1.00  0.00     0.037 A 
ATOM     50  C   UNL     1      -2.393   4.417   7.300  1.00  0.00     0.049 A 
ATOM     51  C   UNL     1      -3.868   8.716   3.778  1.00  0.00     0.074 A 
ATOM     52  C   UNL     1      -1.555   4.365   6.199  1.00  0.00     0.029 A 
ATOM     53  N   UNL     1      -2.691   5.761   7.503  1.00  0.00    -0.354 N 
ATOM     54  N   UNL     1      -3.573   7.989   4.818  1.00  0.00    -0.248 NA
ATOM     55  C   UNL     1      -3.172   9.996   3.774  1.00  0.00     0.031 C 
ATOM     56  C   UNL     1      -1.342   5.695   5.750  1.00  0.00     0.029 A 
ATOM     57  C   UNL     1      -2.038   6.556   6.585  1.00  0.00     0.049 A 
ATOM     58  H   UNL     1      -3.289   6.100   8.209  1.00  0.00     0.167 HD
ATOM     59  C   UNL     1      -2.635   8.620   5.566  1.00  0.00     0.074 A 
ATOM     60  C   UNL     1      -2.444   9.896   4.903  1.00  0.00     0.031 C 
ATOM     61  C   UNL     1      -2.104   8.011   6.662  1.00  0.00     0.037 A 
BRANCH  48  62
ATOM     62  C   UNL     1      -2.461   2.255   8.765  1.00  0.00     0.064 A 
ATOM     63  C   UNL     1      -1.046   2.208   8.812  1.00  0.00     0.173 A 
ATOM     64  C   UNL     1      -3.086   1.175   9.421  1.00  0.00     0.173 A 
ATOM     65  F   UNL     1      -0.294   3.195   8.307  1.00  0.00    -0.203 F 
ATOM     66  C   UNL     1      -0.336   1.151   9.390  1.00  0.00     0.198 A 
ATOM     67  C   UNL     1      -2.377   0.115   9.997  1.00  0.00     0.198 A 
ATOM     68  F   UNL     1      -4.406   1.095   9.578  1.00  0.00    -0.203 F 
ATOM     69  F   UNL     1       1.004   1.165   9.374  1.00  0.00    -0.200 F 
ATOM     70  C   UNL     1      -1.002   0.097   9.974  1.00  0.00     0.200 A 
ATOM     71  F   UNL     1      -3.049  -0.888  10.582  1.00  0.00    -0.200 F 
ATOM     72  F   UNL     1      -0.326  -0.918  10.528  1.00  0.00    -0.200 F 
ENDBRANCH  48  62
BRANCH  49  73
ATOM     73  C   UNL     1      -6.071   8.775   2.231  1.00  0.00     0.064 A 
ATOM     74  C   UNL     1      -6.331   8.658   0.850  1.00  0.00     0.173 A 
ATOM     75  C   UNL     1      -7.176   8.833   3.096  1.00  0.00     0.173 A 
ATOM     76  F   UNL     1      -5.311   8.607  -0.023  1.00  0.00    -0.203 F 
ATOM     77  C   UNL     1      -7.622   8.426   0.376  1.00  0.00     0.198 A 
ATOM     78  C   UNL     1      -8.463   8.573   2.618  1.00  0.00     0.198 A 
ATOM     79  F   UNL     1      -6.991   8.947   4.418  1.00  0.00    -0.203 F 
ATOM     80  F   UNL     1      -7.822   8.163  -0.924  1.00  0.00    -0.200 F 
ATOM     81  C   UNL     1      -8.677   8.331   1.268  1.00  0.00     0.200 A 
ATOM     82  F   UNL     1      -9.481   8.438   3.479  1.00  0.00    -0.200 F 
ATOM     83  F   UNL     1      -9.882   7.929   0.837  1.00  0.00    -0.200 F 
ENDBRANCH  49  73
BRANCH  61  84
ATOM     84  C   UNL     1      -1.504   8.724   7.839  1.00  0.00     0.064 A 
ATOM     85  C   UNL     1      -1.727  10.083   8.113  1.00  0.00     0.173 A 
ATOM     86  C   UNL     1      -0.814   8.005   8.846  1.00  0.00     0.173 A 
ATOM     87  F   UNL     1      -2.492  10.845   7.322  1.00  0.00    -0.203 F 
ATOM     88  C   UNL     1      -1.218  10.697   9.256  1.00  0.00     0.198 A 
ATOM     89  C   UNL     1      -0.375   8.605  10.021  1.00  0.00     0.198 A 
ATOM     90  F   UNL     1      -0.574   6.690   8.746  1.00  0.00    -0.203 F 
ATOM     91  F   UNL     1      -1.406  12.011   9.437  1.00  0.00    -0.200 F 
ATOM     92  C   UNL     1      -0.551   9.957  10.213  1.00  0.00     0.200 A 
ATOM     93  F   UNL     1       0.199   7.856  10.973  1.00  0.00    -0.200 F 
ATOM     94  F   UNL     1      -0.100  10.544  11.329  1.00  0.00    -0.200 F 
ENDBRANCH  61  84
ENDBRANCH  35  36
ENDBRANCH  28  30
ENDBRANCH  27  28
ENDBRANCH  26  27
ENDBRANCH  25  26
ENDBRANCH   1  25
TORSDOF 16
