REMARK SMILES O=C(OCCOCCOC(=O)c1c(C(=O)N2CCc3ccccc32)cccc1[N+](=O)[O-])c1ccc(-c2c3nc(c(-c4c(F)c(F)c(F)c(F)c4F)c4ccc([nH]4)c(-c4c(F)c(F)c(F)c(F)c4F)c4nc(c(-c5c(F)c(F)c(F)c(F)c5F)c5ccc2[nH]5)C=C4)C=C3)cc1
REMARK SMILES IDX 6 1 5 2 4 3 3 4 2 5 1 6 32 7 33 8 94 9 34 10 93 11 35 12
REMARK SMILES IDX 36 13 37 14 87 15 38 16 92 17 86 18 88 19 39 20 91 21 85 22
REMARK SMILES IDX 84 23 40 25 72 26 52 27 71 28 53 29 56 30 70 31 89 32 54 33
REMARK SMILES IDX 55 34 69 36 90 37 57 38 41 39 42 40 50 41 43 42 44 43 48 44
REMARK SMILES IDX 51 45 45 46 46 47 49 48 47 49 73 50 74 51 82 52 75 53 76 54
REMARK SMILES IDX 80 55 83 56 77 57 78 58 81 59 79 60 58 61 59 62 67 63 60 64
REMARK SMILES IDX 61 65 65 66 68 67 62 68 63 69 66 70 64 71 7 72 8 73 9 74
REMARK SMILES IDX 10 75 11 76 12 77 13 78 28 79 25 80 27 81 26 82 14 83 15 84
REMARK SMILES IDX 16 85 17 86 24 87 18 88 19 89 23 90 20 91 22 92 21 93 29 94
REMARK SMILES IDX 30 95 31 96
REMARK H PARENT 88 24 56 35
REMARK Flexibility Score: inf
ROOT
ATOM      1  O   UNL     1       3.645  -1.706  -0.315  1.00  0.00    -0.374 OA
ENDROOT
BRANCH   1   2
ATOM      2  C   UNL     1       3.646  -1.299   1.044  1.00  0.00     0.202 C 
BRANCH   2   3
ATOM      3  C   UNL     1       3.238   0.161   1.157  1.00  0.00     0.261 C 
BRANCH   3   4
ATOM      4  O   UNL     1       1.913   0.333   0.656  1.00  0.00    -0.460 OA
BRANCH   4   5
ATOM      5  C   UNL     1       1.578   0.959  -0.494  1.00  0.00     0.338 C 
ATOM      6  O   UNL     1       0.387   1.161  -0.727  1.00  0.00    -0.246 OA
BRANCH   5   7
ATOM      7  C   UNL     1       2.568   1.440  -1.507  1.00  0.00     0.060 A 
ATOM      8  C   UNL     1       3.756   0.790  -1.852  1.00  0.00     0.016 A 
ATOM      9  C   UNL     1       2.186   2.551  -2.271  1.00  0.00     0.016 A 
ATOM     10  C   UNL     1       4.522   1.178  -2.937  1.00  0.00     0.010 A 
ATOM     11  C   UNL     1       2.928   2.931  -3.389  1.00  0.00     0.010 A 
ATOM     12  C   UNL     1       4.080   2.217  -3.739  1.00  0.00    -0.014 A 
BRANCH  12  13
ATOM     13  C   UNL     1       4.880   2.575  -4.916  1.00  0.00     0.031 A 
ATOM     14  C   UNL     1       5.660   3.838  -4.866  1.00  0.00     0.074 A 
ATOM     15  C   UNL     1       4.926   1.738  -5.966  1.00  0.00     0.049 A 
ATOM     16  N   UNL     1       6.266   4.477  -5.825  1.00  0.00    -0.248 NA
ATOM     17  C   UNL     1       5.763   4.476  -3.543  1.00  0.00     0.031 C 
ATOM     18  C   UNL     1       4.297   0.415  -6.020  1.00  0.00     0.029 A 
ATOM     19  N   UNL     1       5.526   1.871  -7.188  1.00  0.00    -0.354 N 
ATOM     20  C   UNL     1       6.774   5.624  -5.236  1.00  0.00     0.074 A 
ATOM     21  C   UNL     1       6.410   5.592  -3.837  1.00  0.00     0.031 C 
ATOM     22  C   UNL     1       4.536  -0.137  -7.219  1.00  0.00     0.029 A 
ATOM     23  C   UNL     1       5.249   0.831  -8.042  1.00  0.00     0.049 A 
ATOM     24  H   UNL     1       6.097   2.635  -7.431  1.00  0.00     0.167 HD
ATOM     25  C   UNL     1       7.462   6.618  -5.839  1.00  0.00     0.037 A 
ATOM     26  C   UNL     1       5.488   0.722  -9.361  1.00  0.00     0.037 A 
ATOM     27  C   UNL     1       7.789   6.589  -7.239  1.00  0.00     0.049 A 
ATOM     28  C   UNL     1       6.176   1.877 -10.036  1.00  0.00     0.074 A 
ATOM     29  C   UNL     1       8.443   7.538  -7.999  1.00  0.00     0.029 A 
ATOM     30  N   UNL     1       7.468   5.536  -8.092  1.00  0.00    -0.354 N 
ATOM     31  N   UNL     1       6.598   3.005  -9.510  1.00  0.00    -0.248 NA
ATOM     32  C   UNL     1       6.407   1.764 -11.479  1.00  0.00     0.031 C 
ATOM     33  C   UNL     1       8.459   7.087  -9.323  1.00  0.00     0.029 A 
ATOM     34  C   UNL     1       7.885   5.823  -9.378  1.00  0.00     0.049 A 
ATOM     35  H   UNL     1       7.012   4.707  -7.819  1.00  0.00     0.167 HD
ATOM     36  C   UNL     1       7.164   3.727 -10.547  1.00  0.00     0.074 A 
ATOM     37  C   UNL     1       7.035   2.904 -11.736  1.00  0.00     0.031 C 
ATOM     38  C   UNL     1       7.740   4.956 -10.525  1.00  0.00     0.037 A 
BRANCH  25  39
ATOM     39  C   UNL     1       7.777   7.825  -5.005  1.00  0.00     0.064 A 
ATOM     40  C   UNL     1       8.658   7.777  -3.913  1.00  0.00     0.173 A 
ATOM     41  C   UNL     1       7.103   9.032  -5.247  1.00  0.00     0.173 A 
ATOM     42  F   UNL     1       9.304   6.640  -3.616  1.00  0.00    -0.203 F 
ATOM     43  C   UNL     1       8.804   8.870  -3.061  1.00  0.00     0.198 A 
ATOM     44  C   UNL     1       7.281  10.135  -4.416  1.00  0.00     0.198 A 
ATOM     45  F   UNL     1       6.242   9.134  -6.270  1.00  0.00    -0.203 F 
ATOM     46  F   UNL     1       9.572   8.767  -1.967  1.00  0.00    -0.200 F 
ATOM     47  C   UNL     1       8.116  10.047  -3.313  1.00  0.00     0.200 A 
ATOM     48  F   UNL     1       6.617  11.272  -4.664  1.00  0.00    -0.200 F 
ATOM     49  F   UNL     1       8.238  11.089  -2.479  1.00  0.00    -0.200 F 
ENDBRANCH  25  39
BRANCH  26  50
ATOM     50  C   UNL     1       5.007  -0.472 -10.107  1.00  0.00     0.064 A 
ATOM     51  C   UNL     1       5.901  -1.389 -10.675  1.00  0.00     0.173 A 
ATOM     52  C   UNL     1       3.634  -0.743 -10.238  1.00  0.00     0.173 A 
ATOM     53  F   UNL     1       7.222  -1.171 -10.598  1.00  0.00    -0.203 F 
ATOM     54  C   UNL     1       5.443  -2.523 -11.347  1.00  0.00     0.198 A 
ATOM     55  C   UNL     1       3.178  -1.891 -10.882  1.00  0.00     0.198 A 
ATOM     56  F   UNL     1       2.731   0.099  -9.714  1.00  0.00    -0.203 F 
ATOM     57  F   UNL     1       6.320  -3.365 -11.910  1.00  0.00    -0.200 F 
ATOM     58  C   UNL     1       4.083  -2.778 -11.441  1.00  0.00     0.200 A 
ATOM     59  F   UNL     1       1.863  -2.140 -10.954  1.00  0.00    -0.200 F 
ATOM     60  F   UNL     1       3.645  -3.874 -12.075  1.00  0.00    -0.200 F 
ENDBRANCH  26  50
BRANCH  38  61
ATOM     61  C   UNL     1       8.317   5.458 -11.814  1.00  0.00     0.064 A 
ATOM     62  C   UNL     1       7.503   5.916 -12.857  1.00  0.00     0.173 A 
ATOM     63  C   UNL     1       9.708   5.577 -11.954  1.00  0.00     0.173 A 
ATOM     64  F   UNL     1       6.168   5.808 -12.772  1.00  0.00    -0.203 F 
ATOM     65  C   UNL     1       8.063   6.473 -14.002  1.00  0.00     0.198 A 
ATOM     66  C   UNL     1      10.263   6.165 -13.085  1.00  0.00     0.198 A 
ATOM     67  F   UNL     1      10.525   5.158 -10.976  1.00  0.00    -0.203 F 
ATOM     68  F   UNL     1       7.271   6.880 -15.003  1.00  0.00    -0.200 F 
ATOM     69  C   UNL     1       9.440   6.610 -14.108  1.00  0.00     0.200 A 
ATOM     70  F   UNL     1      11.591   6.316 -13.175  1.00  0.00    -0.200 F 
ATOM     71  F   UNL     1       9.976   7.175 -15.199  1.00  0.00    -0.200 F 
ENDBRANCH  38  61
ENDBRANCH  12  13
ENDBRANCH   5   7
ENDBRANCH   4   5
ENDBRANCH   3   4
ENDBRANCH   2   3
ENDBRANCH   1   2
BRANCH   1  72
ATOM     72  C   UNL     1       2.538  -2.491  -0.749  1.00  0.00     0.202 C 
BRANCH  72  73
ATOM     73  C   UNL     1       3.088  -3.844  -1.192  1.00  0.00     0.261 C 
BRANCH  73  74
ATOM     74  O   UNL     1       3.909  -4.357  -0.127  1.00  0.00    -0.459 OA
BRANCH  74  75
ATOM     75  C   UNL     1       5.198  -3.929  -0.060  1.00  0.00     0.346 C 
ATOM     76  O   UNL     1       5.800  -3.445  -0.987  1.00  0.00    -0.246 OA
BRANCH  75  77
ATOM     77  C   UNL     1       5.697  -4.069   1.353  1.00  0.00     0.150 A 
ATOM     78  C   UNL     1       6.845  -3.363   1.824  1.00  0.00     0.061 A 
ATOM     79  C   UNL     1       5.037  -4.931   2.276  1.00  0.00     0.284 A 
ATOM     80  C   UNL     1       7.337  -3.715   3.096  1.00  0.00     0.015 A 
ATOM     81  C   UNL     1       5.501  -5.171   3.575  1.00  0.00     0.086 A 
ATOM     82  C   UNL     1       6.673  -4.572   3.976  1.00  0.00     0.008 A 
BRANCH  78  83
ATOM     83  C   UNL     1       7.601  -2.268   1.057  1.00  0.00     0.259 C 
ATOM     84  O   UNL     1       8.047  -2.521  -0.057  1.00  0.00    -0.269 OA
BRANCH  83  85
ATOM     85  N   UNL     1       7.702  -0.963   1.595  1.00  0.00    -0.308 N 
ATOM     86  C   UNL     1       7.067   0.191   0.921  1.00  0.00     0.131 C 
ATOM     87  C   UNL     1       7.819  -0.620   2.944  1.00  0.00     0.047 A 
ATOM     88  C   UNL     1       6.460   1.066   2.052  1.00  0.00     0.059 C 
ATOM     89  C   UNL     1       6.853   0.309   3.274  1.00  0.00    -0.022 A 
ATOM     90  C   UNL     1       8.687  -1.112   3.891  1.00  0.00     0.026 A 
ATOM     91  C   UNL     1       6.413   0.389   4.580  1.00  0.00     0.006 A 
ATOM     92  C   UNL     1       8.320  -0.975   5.224  1.00  0.00     0.002 A 
ATOM     93  C   UNL     1       7.124  -0.322   5.554  1.00  0.00     0.000 A 
ENDBRANCH  83  85
ENDBRANCH  78  83
BRANCH  79  94
ATOM     94  N   UNL     1       3.788  -5.612   1.986  1.00  0.00     0.063 N 
ATOM     95  O   UNL     1       3.867  -6.786   1.604  1.00  0.00    -0.258 OA
ATOM     96  O   UNL     1       2.746  -4.994   2.250  1.00  0.00    -0.258 OA
ENDBRANCH  79  94
ENDBRANCH  75  77
ENDBRANCH  74  75
ENDBRANCH  73  74
ENDBRANCH  72  73
ENDBRANCH   1  72
TORSDOF 17
