REMARK SMILES CC[C@@](C)([NH2+]CC(=O)N[C@]1(C)CCS(=O)(=O)C1)C(=O)OCCOCCOC(=O)c1ccc(-c2c3nc(c(-c4c(F)c(F)c(F)c(F)c4F)c4ccc([nH]4)c(-c4c(F)c(F)c(F)c(F)c4F)c4nc(c(-c5c(F)c(F)c(F)c(F)c5F)c5ccc2[nH]5)C=C4)C=C3)cc1
REMARK SMILES IDX 22 1 21 2 20 3 18 4 19 5 3 6 4 7 2 8 1 9 5 10 6 13 7 14 8 15
REMARK SMILES IDX 9 16 10 18 12 19 17 20 11 21 13 22 14 23 15 24 16 25 23 26
REMARK SMILES IDX 24 27 25 28 26 29 27 30 28 31 29 32 30 33 91 34 31 35 90 36
REMARK SMILES IDX 32 37 33 38 34 39 84 40 35 41 89 42 83 43 85 44 36 45 88 46
REMARK SMILES IDX 82 47 81 48 37 50 69 51 49 52 68 53 50 54 53 55 67 56 86 57
REMARK SMILES IDX 51 58 52 59 66 61 87 62 54 63 38 64 39 65 47 66 40 67 41 68
REMARK SMILES IDX 45 69 48 70 42 71 43 72 46 73 44 74 70 75 71 76 79 77 72 78
REMARK SMILES IDX 73 79 77 80 80 81 74 82 75 83 78 84 76 85 55 86 56 87 64 88
REMARK SMILES IDX 57 89 58 90 62 91 65 92 59 93 60 94 63 95 61 96
REMARK H PARENT 5 11 5 12 9 17 85 49 53 60
REMARK Flexibility Score: inf
ROOT
ATOM      1  C   UNL     1      -2.595  -2.587  -5.026  1.00  0.00     0.202 C 
ENDROOT
BRANCH   1   2
ATOM      2  C   UNL     1      -1.455  -2.187  -4.078  1.00  0.00     0.261 C 
BRANCH   2   3
ATOM      3  O   UNL     1      -0.395  -3.158  -3.889  1.00  0.00    -0.459 OA
BRANCH   3   4
ATOM      4  C   UNL     1      -0.109  -3.542  -2.600  1.00  0.00     0.367 C 
ATOM      5  O   UNL     1      -0.754  -3.112  -1.648  1.00  0.00    -0.245 OA
BRANCH   4   6
ATOM      6  C   UNL     1       1.060  -4.630  -2.462  1.00  0.00     0.191 C 
ATOM      7  C   UNL     1       2.252  -4.535  -1.456  1.00  0.00     0.092 C 
BRANCH   6   8
ATOM      8  C   UNL     1       0.269  -5.889  -1.962  1.00  0.00     0.077 C 
ATOM      9  C   UNL     1      -0.367  -5.687  -0.560  1.00  0.00     0.011 C 
ENDBRANCH   6   8
BRANCH   6  10
ATOM     10  N   UNL     1       1.724  -4.813  -3.785  1.00  0.00    -0.325 N 
ATOM     11  H   UNL     1       1.001  -5.067  -4.458  1.00  0.00     0.347 HD
ATOM     12  H   UNL     1       2.436  -5.526  -3.625  1.00  0.00     0.347 HD
BRANCH  10  13
ATOM     13  C   UNL     1       2.474  -3.639  -4.348  1.00  0.00     0.362 C 
BRANCH  13  14
ATOM     14  C   UNL     1       3.489  -2.868  -3.454  1.00  0.00     0.275 C 
ATOM     15  O   UNL     1       4.630  -3.338  -3.328  1.00  0.00    -0.268 OA
ATOM     16  N   UNL     1       3.285  -1.678  -2.789  1.00  0.00    -0.345 N 
ATOM     17  H   UNL     1       4.119  -1.351  -2.380  1.00  0.00     0.164 HD
BRANCH  16  18
ATOM     18  C   UNL     1       2.148  -0.748  -2.517  1.00  0.00     0.052 C 
ATOM     19  C   UNL     1       2.599   0.666  -2.040  1.00  0.00     0.045 C 
ATOM     20  C   UNL     1       1.250  -1.193  -1.356  1.00  0.00     0.165 C 
ATOM     21  C   UNL     1       1.405  -0.473  -3.824  1.00  0.00     0.036 C 
ATOM     22  C   UNL     1       2.865   0.704  -0.541  1.00  0.00     0.139 C 
ATOM     23  S   UNL     1       1.956  -0.631   0.165  1.00  0.00     0.152 S 
ATOM     24  O   UNL     1       0.894  -0.105   1.003  1.00  0.00    -0.229 OA
ATOM     25  O   UNL     1       2.901  -1.614   0.641  1.00  0.00    -0.229 OA
ENDBRANCH  16  18
ENDBRANCH  13  14
ENDBRANCH  10  13
ENDBRANCH   6  10
ENDBRANCH   4   6
ENDBRANCH   3   4
ENDBRANCH   2   3
ENDBRANCH   1   2
BRANCH   1  26
ATOM     26  O   UNL     1      -3.175  -3.871  -4.905  1.00  0.00    -0.374 OA
BRANCH  26  27
ATOM     27  C   UNL     1      -2.299  -4.988  -4.948  1.00  0.00     0.202 C 
BRANCH  27  28
ATOM     28  C   UNL     1      -1.429  -5.221  -6.197  1.00  0.00     0.261 C 
BRANCH  28  29
ATOM     29  O   UNL     1      -0.695  -4.084  -6.697  1.00  0.00    -0.460 OA
BRANCH  29  30
ATOM     30  C   UNL     1      -1.135  -3.600  -7.885  1.00  0.00     0.338 C 
ATOM     31  O   UNL     1      -2.120  -3.953  -8.513  1.00  0.00    -0.246 OA
BRANCH  30  32
ATOM     32  C   UNL     1      -0.280  -2.494  -8.353  1.00  0.00     0.060 A 
ATOM     33  C   UNL     1      -0.764  -1.181  -8.303  1.00  0.00     0.016 A 
ATOM     34  C   UNL     1       0.912  -2.781  -9.020  1.00  0.00     0.016 A 
ATOM     35  C   UNL     1      -0.063  -0.152  -8.942  1.00  0.00     0.010 A 
ATOM     36  C   UNL     1       1.611  -1.749  -9.658  1.00  0.00     0.010 A 
ATOM     37  C   UNL     1       1.118  -0.432  -9.645  1.00  0.00    -0.014 A 
BRANCH  37  38
ATOM     38  C   UNL     1       1.824   0.627 -10.416  1.00  0.00     0.031 A 
ATOM     39  C   UNL     1       1.756   0.636 -11.920  1.00  0.00     0.074 A 
ATOM     40  C   UNL     1       2.568   1.547  -9.774  1.00  0.00     0.049 A 
ATOM     41  N   UNL     1       2.421   1.371 -12.777  1.00  0.00    -0.248 NA
ATOM     42  C   UNL     1       0.817  -0.309 -12.544  1.00  0.00     0.031 C 
ATOM     43  C   UNL     1       2.690   1.664  -8.322  1.00  0.00     0.029 A 
ATOM     44  N   UNL     1       3.389   2.535 -10.261  1.00  0.00    -0.354 N 
ATOM     45  C   UNL     1       2.003   0.961 -14.037  1.00  0.00     0.074 A 
ATOM     46  C   UNL     1       1.029  -0.091 -13.836  1.00  0.00     0.031 C 
ATOM     47  C   UNL     1       3.563   2.644  -8.035  1.00  0.00     0.029 A 
ATOM     48  C   UNL     1       4.100   3.187  -9.281  1.00  0.00     0.049 A 
ATOM     49  H   UNL     1       3.461   2.755 -11.218  1.00  0.00     0.167 HD
ATOM     50  C   UNL     1       2.403   1.419 -15.248  1.00  0.00     0.037 A 
ATOM     51  C   UNL     1       5.106   4.080  -9.378  1.00  0.00     0.037 A 
ATOM     52  C   UNL     1       3.359   2.480 -15.442  1.00  0.00     0.049 A 
ATOM     53  C   UNL     1       5.579   4.518 -10.742  1.00  0.00     0.074 A 
ATOM     54  C   UNL     1       3.772   3.060 -16.630  1.00  0.00     0.029 A 
ATOM     55  N   UNL     1       4.062   3.108 -14.426  1.00  0.00    -0.354 N 
ATOM     56  N   UNL     1       5.136   4.168 -11.925  1.00  0.00    -0.248 NA
ATOM     57  C   UNL     1       6.697   5.473 -10.783  1.00  0.00     0.031 C 
ATOM     58  C   UNL     1       4.780   3.983 -16.339  1.00  0.00     0.029 A 
ATOM     59  C   UNL     1       4.946   4.030 -14.965  1.00  0.00     0.049 A 
ATOM     60  H   UNL     1       3.952   2.926 -13.465  1.00  0.00     0.167 HD
ATOM     61  C   UNL     1       5.902   4.875 -12.844  1.00  0.00     0.074 A 
ATOM     62  C   UNL     1       6.821   5.692 -12.084  1.00  0.00     0.031 C 
ATOM     63  C   UNL     1       5.852   4.844 -14.198  1.00  0.00     0.037 A 
BRANCH  50  64
ATOM     64  C   UNL     1       1.844   0.767 -16.480  1.00  0.00     0.064 A 
ATOM     65  C   UNL     1       0.524   0.982 -16.901  1.00  0.00     0.173 A 
ATOM     66  C   UNL     1       2.682   0.005 -17.311  1.00  0.00     0.173 A 
ATOM     67  F   UNL     1      -0.318   1.700 -16.143  1.00  0.00    -0.203 F 
ATOM     68  C   UNL     1       0.062   0.451 -18.104  1.00  0.00     0.198 A 
ATOM     69  C   UNL     1       2.225  -0.500 -18.524  1.00  0.00     0.198 A 
ATOM     70  F   UNL     1       3.957  -0.221 -16.959  1.00  0.00    -0.203 F 
ATOM     71  F   UNL     1      -1.209   0.652 -18.478  1.00  0.00    -0.200 F 
ATOM     72  C   UNL     1       0.915  -0.278 -18.920  1.00  0.00     0.200 A 
ATOM     73  F   UNL     1       3.057  -1.188 -19.319  1.00  0.00    -0.200 F 
ATOM     74  F   UNL     1       0.475  -0.765 -20.088  1.00  0.00    -0.200 F 
ENDBRANCH  50  64
BRANCH  51  75
ATOM     75  C   UNL     1       5.786   4.579  -8.151  1.00  0.00     0.064 A 
ATOM     76  C   UNL     1       5.737   5.933  -7.793  1.00  0.00     0.173 A 
ATOM     77  C   UNL     1       6.546   3.720  -7.342  1.00  0.00     0.173 A 
ATOM     78  F   UNL     1       5.044   6.800  -8.545  1.00  0.00    -0.203 F 
ATOM     79  C   UNL     1       6.450   6.415  -6.695  1.00  0.00     0.198 A 
ATOM     80  C   UNL     1       7.226   4.195  -6.223  1.00  0.00     0.198 A 
ATOM     81  F   UNL     1       6.626   2.414  -7.636  1.00  0.00    -0.203 F 
ATOM     82  F   UNL     1       6.440   7.725  -6.416  1.00  0.00    -0.200 F 
ATOM     83  C   UNL     1       7.190   5.545  -5.909  1.00  0.00     0.200 A 
ATOM     84  F   UNL     1       7.921   3.346  -5.454  1.00  0.00    -0.200 F 
ATOM     85  F   UNL     1       7.875   6.008  -4.855  1.00  0.00    -0.200 F 
ENDBRANCH  51  75
BRANCH  63  86
ATOM     86  C   UNL     1       6.798   5.737 -14.951  1.00  0.00     0.064 A 
ATOM     87  C   UNL     1       8.176   5.477 -14.996  1.00  0.00     0.173 A 
ATOM     88  C   UNL     1       6.314   6.834 -15.680  1.00  0.00     0.173 A 
ATOM     89  F   UNL     1       8.693   4.451 -14.302  1.00  0.00    -0.203 F 
ATOM     90  C   UNL     1       9.036   6.294 -15.726  1.00  0.00     0.198 A 
ATOM     91  C   UNL     1       7.172   7.628 -16.437  1.00  0.00     0.198 A 
ATOM     92  F   UNL     1       5.005   7.124 -15.677  1.00  0.00    -0.203 F 
ATOM     93  F   UNL     1      10.354   6.053 -15.717  1.00  0.00    -0.200 F 
ATOM     94  C   UNL     1       8.532   7.362 -16.454  1.00  0.00     0.200 A 
ATOM     95  F   UNL     1       6.681   8.649 -17.153  1.00  0.00    -0.200 F 
ATOM     96  F   UNL     1       9.360   8.138 -17.168  1.00  0.00    -0.200 F 
ENDBRANCH  63  86
ENDBRANCH  37  38
ENDBRANCH  30  32
ENDBRANCH  29  30
ENDBRANCH  28  29
ENDBRANCH  27  28
ENDBRANCH  26  27
ENDBRANCH   1  26
TORSDOF 19
