REMARK SMILES O=C(OCCOCCOC(=O)c1ccc(-c2c3nc(c(-c4c(F)c(F)c(F)c(F)c4F)c4ccc([nH]4)c(-c4c(F)c(F)c(F)c(F)c4F)c4nc(c(-c5c(F)c(F)c(F)c(F)c5F)c5ccc2[nH]5)C=C4)C=C3)cc1)C1=Cc2cc(Cl)cc(-c3ccccc3)c2O[C@@H]1C(F)(F)F
REMARK SMILES IDX 7 1 6 2 5 3 4 4 3 5 2 6 1 7 75 8 76 9 91 10 77 11 90 12
REMARK SMILES IDX 78 13 89 14 79 15 82 16 80 17 81 18 92 19 93 20 94 21 95 22
REMARK SMILES IDX 83 23 84 24 88 25 85 26 87 27 86 28 8 29 9 30 10 31 11 32
REMARK SMILES IDX 12 33 13 34 74 35 14 36 73 37 15 38 16 39 17 40 67 41 18 42
REMARK SMILES IDX 72 43 66 44 68 45 19 46 71 47 65 48 64 49 20 51 52 52 32 53
REMARK SMILES IDX 51 54 33 55 36 56 50 57 69 58 34 59 35 60 49 62 70 63 37 64
REMARK SMILES IDX 21 65 22 66 30 67 23 68 24 69 28 70 31 71 25 72 26 73 29 74
REMARK SMILES IDX 27 75 53 76 54 77 62 78 55 79 56 80 60 81 63 82 57 83 58 84
REMARK SMILES IDX 61 85 59 86 38 87 39 88 47 89 40 90 41 91 45 92 48 93 42 94
REMARK SMILES IDX 43 95 46 96 44 97
REMARK H PARENT 68 50 36 61
REMARK Flexibility Score: inf
ROOT
ATOM      1  C   UNL     1       2.735  -1.874   2.387  1.00  0.00     0.202 C 
ENDROOT
BRANCH   1   2
ATOM      2  O   UNL     1       4.027  -1.615   1.771  1.00  0.00    -0.374 OA
BRANCH   2   3
ATOM      3  C   UNL     1       4.453  -1.000   0.303  1.00  0.00     0.202 C 
BRANCH   3   4
ATOM      4  C   UNL     1       3.598   0.692  -0.766  1.00  0.00     0.261 C 
BRANCH   4   5
ATOM      5  O   UNL     1       2.640   0.589  -2.007  1.00  0.00    -0.460 OA
BRANCH   5   6
ATOM      6  C   UNL     1       2.784  -0.544  -2.704  1.00  0.00     0.338 C 
ATOM      7  O   UNL     1       2.168  -0.978  -3.642  1.00  0.00    -0.246 OA
BRANCH   6   8
ATOM      8  C   UNL     1       3.660  -1.161  -1.744  1.00  0.00     0.087 C 
ATOM      9  C   UNL     1       5.031  -0.659  -1.877  1.00  0.00     0.027 C 
ATOM     10  C   UNL     1       2.535  -0.912  -0.187  1.00  0.00     0.316 C 
ATOM     11  C   UNL     1       5.800   0.464  -0.691  1.00  0.00     0.019 A 
ATOM     12  O   UNL     1       3.351   0.308   1.100  1.00  0.00    -0.475 OA
ATOM     13  C   UNL     1       6.976   1.032  -1.105  1.00  0.00     0.032 A 
ATOM     14  C   UNL     1       5.007   1.029   0.762  1.00  0.00     0.135 A 
ATOM     15  C   UNL     1       7.416   2.105  -0.332  1.00  0.00     0.042 A 
ATOM     16  C   UNL     1       5.611   2.073   1.533  1.00  0.00     0.026 A 
ATOM     17  Cl  UNL     1       8.872   2.897  -0.842  1.00  0.00    -0.084 Cl
ATOM     18  C   UNL     1       6.762   2.608   0.857  1.00  0.00     0.033 A 
BRANCH  10  19
ATOM     19  C   UNL     1       2.050  -2.453  -0.126  1.00  0.00     0.430 C 
ATOM     20  F   UNL     1       1.024  -2.693   0.716  1.00  0.00    -0.167 F 
ATOM     21  F   UNL     1       1.562  -2.795  -1.356  1.00  0.00    -0.167 F 
ATOM     22  F   UNL     1       3.029  -3.357   0.107  1.00  0.00    -0.167 F 
ENDBRANCH  10  19
BRANCH  16  23
ATOM     23  C   UNL     1       5.248   2.725   2.958  1.00  0.00    -0.015 A 
ATOM     24  C   UNL     1       3.703   3.620   2.654  1.00  0.00     0.009 A 
ATOM     25  C   UNL     1       5.712   2.393   4.917  1.00  0.00     0.009 A 
ATOM     26  C   UNL     1       2.696   4.092   4.020  1.00  0.00     0.001 A 
ATOM     27  C   UNL     1       4.567   2.928   6.199  1.00  0.00     0.001 A 
ATOM     28  C   UNL     1       3.107   3.752   5.710  1.00  0.00     0.000 A 
ENDBRANCH  16  23
ENDBRANCH   6   8
ENDBRANCH   5   6
ENDBRANCH   4   5
ENDBRANCH   3   4
ENDBRANCH   2   3
ENDBRANCH   1   2
BRANCH   1  29
ATOM     29  C   UNL     1       2.623  -1.680   3.902  1.00  0.00     0.261 C 
BRANCH  29  30
ATOM     30  O   UNL     1       3.224  -0.459   4.244  1.00  0.00    -0.460 OA
BRANCH  30  31
ATOM     31  C   UNL     1       4.561  -0.558   4.159  1.00  0.00     0.338 C 
ATOM     32  O   UNL     1       5.281  -1.535   4.240  1.00  0.00    -0.246 OA
BRANCH  31  33
ATOM     33  C   UNL     1       5.010   0.775   3.871  1.00  0.00     0.060 A 
ATOM     34  C   UNL     1       6.743   1.029   3.556  1.00  0.00     0.016 A 
ATOM     35  C   UNL     1       3.968   2.210   4.261  1.00  0.00     0.016 A 
ATOM     36  C   UNL     1       7.516   2.631   3.670  1.00  0.00     0.010 A 
ATOM     37  C   UNL     1       4.910   4.002   4.364  1.00  0.00     0.010 A 
ATOM     38  C   UNL     1       6.665   4.103   4.085  1.00  0.00    -0.014 A 
BRANCH  38  39
ATOM     39  C   UNL     1       7.301   5.346   4.633  1.00  0.00     0.031 A 
ATOM     40  C   UNL     1       7.602   5.491   6.118  1.00  0.00     0.074 A 
ATOM     41  C   UNL     1       7.266   6.465   3.891  1.00  0.00     0.049 A 
ATOM     42  N   UNL     1       7.923   6.555   6.823  1.00  0.00    -0.248 NA
ATOM     43  C   UNL     1       7.433   4.294   6.943  1.00  0.00     0.031 C 
ATOM     44  C   UNL     1       6.806   6.538   2.509  1.00  0.00     0.029 A 
ATOM     45  N   UNL     1       7.566   7.765   4.219  1.00  0.00    -0.354 N 
ATOM     46  C   UNL     1       7.940   6.146   8.158  1.00  0.00     0.074 A 
ATOM     47  C   UNL     1       7.483   4.778   8.173  1.00  0.00     0.031 C 
ATOM     48  C   UNL     1       6.851   7.818   2.103  1.00  0.00     0.029 A 
ATOM     49  C   UNL     1       7.349   8.652   3.195  1.00  0.00     0.049 A 
ATOM     50  H   UNL     1       7.905   8.034   5.103  1.00  0.00     0.167 HD
ATOM     51  C   UNL     1       8.352   6.811   9.269  1.00  0.00     0.037 A 
ATOM     52  C   UNL     1       7.556   9.982   3.139  1.00  0.00     0.037 A 
ATOM     53  C   UNL     1       8.839   8.165   9.247  1.00  0.00     0.049 A 
ATOM     54  C   UNL     1       8.120  10.701   4.338  1.00  0.00     0.074 A 
ATOM     55  C   UNL     1       9.437   8.896  10.259  1.00  0.00     0.029 A 
ATOM     56  N   UNL     1       8.762   8.999   8.143  1.00  0.00    -0.354 N 
ATOM     57  N   UNL     1       8.351  10.253   5.548  1.00  0.00    -0.248 NA
ATOM     58  C   UNL     1       8.492  12.110   4.144  1.00  0.00     0.031 C 
ATOM     59  C   UNL     1       9.667  10.192   9.783  1.00  0.00     0.029 A 
ATOM     60  C   UNL     1       9.284  10.243   8.452  1.00  0.00     0.049 A 
ATOM     61  H   UNL     1       8.390   8.745   7.268  1.00  0.00     0.167 HD
ATOM     62  C   UNL     1       8.950  11.301   6.238  1.00  0.00     0.074 A 
ATOM     63  C   UNL     1       9.046  12.407   5.310  1.00  0.00     0.031 C 
ATOM     64  C   UNL     1       9.395  11.336   7.520  1.00  0.00     0.037 A 
BRANCH  51  65
ATOM     65  C   UNL     1       8.349   6.071  10.590  1.00  0.00     0.064 A 
ATOM     66  C   UNL     1       9.124   4.913  10.789  1.00  0.00     0.173 A 
ATOM     67  C   UNL     1       7.601   6.535  11.686  1.00  0.00     0.173 A 
ATOM     68  F   UNL     1       9.879   4.425   9.792  1.00  0.00    -0.203 F 
ATOM     69  C   UNL     1       9.094   4.215  11.995  1.00  0.00     0.198 A 
ATOM     70  C   UNL     1       7.613   5.861  12.909  1.00  0.00     0.198 A 
ATOM     71  F   UNL     1       6.860   7.648  11.580  1.00  0.00    -0.203 F 
ATOM     72  F   UNL     1       9.778   3.070  12.119  1.00  0.00    -0.200 F 
ATOM     73  C   UNL     1       8.344   4.693  13.056  1.00  0.00     0.200 A 
ATOM     74  F   UNL     1       6.911   6.341  13.945  1.00  0.00    -0.200 F 
ATOM     75  F   UNL     1       8.322   4.024  14.217  1.00  0.00    -0.200 F 
ENDBRANCH  51  65
BRANCH  52  76
ATOM     76  C   UNL     1       7.381  10.688   1.844  1.00  0.00     0.064 A 
ATOM     77  C   UNL     1       8.509  11.084   1.110  1.00  0.00     0.173 A 
ATOM     78  C   UNL     1       6.119  10.961   1.302  1.00  0.00     0.173 A 
ATOM     79  F   UNL     1       9.738  10.851   1.597  1.00  0.00    -0.203 F 
ATOM     80  C   UNL     1       8.383  11.755  -0.102  1.00  0.00     0.198 A 
ATOM     81  C   UNL     1       5.994  11.608   0.072  1.00  0.00     0.198 A 
ATOM     82  F   UNL     1       5.010  10.584   1.953  1.00  0.00    -0.203 F 
ATOM     83  F   UNL     1       9.479  12.163  -0.755  1.00  0.00    -0.200 F 
ATOM     84  C   UNL     1       7.125  12.013  -0.623  1.00  0.00     0.200 A 
ATOM     85  F   UNL     1       4.778  11.839  -0.441  1.00  0.00    -0.200 F 
ATOM     86  F   UNL     1       7.003  12.653  -1.793  1.00  0.00    -0.200 F 
ENDBRANCH  52  76
BRANCH  64  87
ATOM     87  C   UNL     1      10.099  12.581   7.982  1.00  0.00     0.064 A 
ATOM     88  C   UNL     1       9.434  13.806   8.139  1.00  0.00     0.173 A 
ATOM     89  C   UNL     1      11.466  12.534   8.305  1.00  0.00     0.173 A 
ATOM     90  F   UNL     1       8.131  13.911   7.839  1.00  0.00    -0.203 F 
ATOM     91  C   UNL     1      10.119  14.944   8.560  1.00  0.00     0.198 A 
ATOM     92  C   UNL     1      12.137  13.663   8.765  1.00  0.00     0.198 A 
ATOM     93  F   UNL     1      12.151  11.386   8.186  1.00  0.00    -0.203 F 
ATOM     94  F   UNL     1       9.477  16.118   8.638  1.00  0.00    -0.200 F 
ATOM     95  C   UNL     1      11.466  14.870   8.880  1.00  0.00     0.200 A 
ATOM     96  F   UNL     1      13.433  13.582   9.095  1.00  0.00    -0.200 F 
ATOM     97  F   UNL     1      12.120  15.965   9.291  1.00  0.00    -0.200 F 
ENDBRANCH  64  87
ENDBRANCH  38  39
ENDBRANCH  31  33
ENDBRANCH  30  31
ENDBRANCH  29  30
ENDBRANCH   1  29
TORSDOF 16
