REMARK SMILES O=C(CCC(=O)OCCOCCOC(=O)c1ccc(-c2c3nc(c(-c4c(F)c(F)c(F)c(F)c4F)c4ccc([nH]4)c(-c4c(F)c(F)c(F)c(F)c4F)c4nc(c(-c5c(F)c(F)c(F)c(F)c5F)c5ccc2[nH]5)C=C4)C=C3)cc1)Nc1ccc2nc(-c3ccccc3)oc2c1
REMARK SMILES IDX 9 1 8 2 7 3 5 4 6 5 4 6 3 7 2 8 1 9 79 10 80 12 81 13 94 14
REMARK SMILES IDX 82 15 93 16 83 17 92 18 84 19 85 20 86 21 87 22 91 23 88 24
REMARK SMILES IDX 90 25 89 26 10 27 11 28 12 29 13 30 14 31 15 32 16 33 17 34
REMARK SMILES IDX 78 35 18 36 77 37 19 38 20 39 21 40 71 41 22 42 76 43 70 44
REMARK SMILES IDX 72 45 23 46 75 47 69 48 68 49 24 51 56 52 36 53 55 54 37 55
REMARK SMILES IDX 40 56 54 57 73 58 38 59 39 60 53 62 74 63 41 64 25 65 26 66
REMARK SMILES IDX 34 67 27 68 28 69 32 70 35 71 29 72 30 73 33 74 31 75 57 76
REMARK SMILES IDX 58 77 66 78 59 79 60 80 64 81 67 82 61 83 62 84 65 85 63 86
REMARK SMILES IDX 42 87 43 88 51 89 44 90 45 91 49 92 52 93 46 94 47 95 50 96
REMARK SMILES IDX 48 97
REMARK H PARENT 79 11 72 50 40 61
REMARK Flexibility Score: inf
ROOT
ATOM      1  C   UNL     1       6.494   1.734   0.718  1.00  0.00     0.202 C 
ENDROOT
BRANCH   1   2
ATOM      2  C   UNL     1       5.869   2.202  -0.600  1.00  0.00     0.261 C 
BRANCH   2   3
ATOM      3  O   UNL     1       4.622   1.502  -0.839  1.00  0.00    -0.463 OA
BRANCH   3   4
ATOM      4  C   UNL     1       4.469   0.898  -2.050  1.00  0.00     0.306 C 
ATOM      5  O   UNL     1       5.291   0.932  -2.954  1.00  0.00    -0.252 OA
BRANCH   4   6
ATOM      6  C   UNL     1       3.114   0.223  -2.172  1.00  0.00     0.132 C 
BRANCH   6   7
ATOM      7  C   UNL     1       2.742  -0.737  -1.034  1.00  0.00     0.112 C 
BRANCH   7   8
ATOM      8  C   UNL     1       1.820  -0.109   0.009  1.00  0.00     0.224 C 
ATOM      9  O   UNL     1       0.682  -0.517   0.203  1.00  0.00    -0.275 OA
ATOM     10  N   UNL     1       2.412   0.964   0.630  1.00  0.00    -0.326 N 
ATOM     11  H   UNL     1       3.376   1.078   0.467  1.00  0.00     0.169 HD
BRANCH  10  12
ATOM     12  C   UNL     1       1.814   1.915   1.468  1.00  0.00     0.045 A 
ATOM     13  C   UNL     1       2.381   3.194   1.351  1.00  0.00     0.028 A 
ATOM     14  C   UNL     1       0.752   1.656   2.354  1.00  0.00     0.075 A 
ATOM     15  C   UNL     1       1.870   4.279   2.049  1.00  0.00     0.034 A 
ATOM     16  C   UNL     1       0.348   2.751   3.128  1.00  0.00     0.157 A 
ATOM     17  C   UNL     1       0.854   4.032   2.966  1.00  0.00     0.110 A 
ATOM     18  O   UNL     1      -0.539   2.803   4.186  1.00  0.00    -0.436 OA
ATOM     19  N   UNL     1       0.252   4.897   3.815  1.00  0.00    -0.209 NA
ATOM     20  C   UNL     1      -0.519   4.132   4.561  1.00  0.00     0.227 A 
BRANCH  20  21
ATOM     21  C   UNL     1      -1.288   4.589   5.715  1.00  0.00     0.037 A 
ATOM     22  C   UNL     1      -1.708   3.761   6.760  1.00  0.00     0.014 A 
ATOM     23  C   UNL     1      -1.535   5.972   5.816  1.00  0.00     0.014 A 
ATOM     24  C   UNL     1      -2.349   4.315   7.879  1.00  0.00     0.001 A 
ATOM     25  C   UNL     1      -2.176   6.522   6.924  1.00  0.00     0.001 A 
ATOM     26  C   UNL     1      -2.581   5.690   7.960  1.00  0.00     0.000 A 
ENDBRANCH  20  21
ENDBRANCH  10  12
ENDBRANCH   7   8
ENDBRANCH   6   7
ENDBRANCH   4   6
ENDBRANCH   3   4
ENDBRANCH   2   3
ENDBRANCH   1   2
BRANCH   1  27
ATOM     27  O   UNL     1       7.215   0.503   0.635  1.00  0.00    -0.374 OA
BRANCH  27  28
ATOM     28  C   UNL     1       6.447  -0.686   0.483  1.00  0.00     0.202 C 
BRANCH  28  29
ATOM     29  C   UNL     1       5.924  -1.305   1.785  1.00  0.00     0.261 C 
BRANCH  29  30
ATOM     30  O   UNL     1       5.142  -0.379   2.559  1.00  0.00    -0.460 OA
BRANCH  30  31
ATOM     31  C   UNL     1       5.785   0.117   3.644  1.00  0.00     0.338 C 
ATOM     32  O   UNL     1       6.902  -0.191   4.044  1.00  0.00    -0.246 OA
BRANCH  31  33
ATOM     33  C   UNL     1       5.024   1.226   4.249  1.00  0.00     0.060 A 
ATOM     34  C   UNL     1       5.728   2.393   4.566  1.00  0.00     0.016 A 
ATOM     35  C   UNL     1       3.673   1.111   4.579  1.00  0.00     0.016 A 
ATOM     36  C   UNL     1       5.099   3.430   5.255  1.00  0.00     0.010 A 
ATOM     37  C   UNL     1       3.043   2.160   5.263  1.00  0.00     0.010 A 
ATOM     38  C   UNL     1       3.755   3.317   5.634  1.00  0.00    -0.014 A 
BRANCH  38  39
ATOM     39  C   UNL     1       3.133   4.359   6.499  1.00  0.00     0.031 A 
ATOM     40  C   UNL     1       2.785   4.038   7.928  1.00  0.00     0.074 A 
ATOM     41  C   UNL     1       2.893   5.599   6.033  1.00  0.00     0.049 A 
ATOM     42  N   UNL     1       2.299   4.822   8.860  1.00  0.00    -0.248 NA
ATOM     43  C   UNL     1       3.031   2.660   8.377  1.00  0.00     0.031 C 
ATOM     44  C   UNL     1       3.198   6.070   4.686  1.00  0.00     0.029 A 
ATOM     45  N   UNL     1       2.300   6.683   6.636  1.00  0.00    -0.354 N 
ATOM     46  C   UNL     1       2.215   4.043  10.005  1.00  0.00     0.074 A 
ATOM     47  C   UNL     1       2.615   2.704   9.634  1.00  0.00     0.031 C 
ATOM     48  C   UNL     1       2.715   7.314   4.532  1.00  0.00     0.029 A 
ATOM     49  C   UNL     1       2.100   7.742   5.784  1.00  0.00     0.049 A 
ATOM     50  H   UNL     1       2.043   6.699   7.586  1.00  0.00     0.167 HD
ATOM     51  C   UNL     1       1.887   4.420  11.264  1.00  0.00     0.037 A 
ATOM     52  C   UNL     1       1.493   8.926   5.987  1.00  0.00     0.037 A 
ATOM     53  C   UNL     1       1.494   5.753  11.641  1.00  0.00     0.049 A 
ATOM     54  C   UNL     1       1.034   9.294   7.369  1.00  0.00     0.074 A 
ATOM     55  C   UNL     1       1.241   6.255  12.906  1.00  0.00     0.029 A 
ATOM     56  N   UNL     1       1.274   6.792  10.748  1.00  0.00    -0.354 N 
ATOM     57  N   UNL     1       1.077   8.589   8.472  1.00  0.00    -0.248 NA
ATOM     58  C   UNL     1       0.496  10.650   7.544  1.00  0.00     0.031 C 
ATOM     59  C   UNL     1       0.820   7.584  12.775  1.00  0.00     0.029 A 
ATOM     60  C   UNL     1       0.861   7.925  11.433  1.00  0.00     0.049 A 
ATOM     61  H   UNL     1       1.394   6.733   9.773  1.00  0.00     0.167 HD
ATOM     62  C   UNL     1       0.639   9.434   9.482  1.00  0.00     0.074 A 
ATOM     63  C   UNL     1       0.319  10.700   8.857  1.00  0.00     0.031 C 
ATOM     64  C   UNL     1       0.543   9.187  10.812  1.00  0.00     0.037 A 
BRANCH  51  65
ATOM     65  C   UNL     1       1.968   3.372  12.336  1.00  0.00     0.064 A 
ATOM     66  C   UNL     1       3.202   2.856  12.764  1.00  0.00     0.173 A 
ATOM     67  C   UNL     1       0.806   2.894  12.958  1.00  0.00     0.173 A 
ATOM     68  F   UNL     1       4.343   3.274  12.195  1.00  0.00    -0.203 F 
ATOM     69  C   UNL     1       3.266   1.874  13.748  1.00  0.00     0.198 A 
ATOM     70  C   UNL     1       0.876   1.933  13.963  1.00  0.00     0.198 A 
ATOM     71  F   UNL     1      -0.398   3.358  12.592  1.00  0.00    -0.203 F 
ATOM     72  F   UNL     1       4.452   1.357  14.101  1.00  0.00    -0.200 F 
ATOM     73  C   UNL     1       2.104   1.417  14.351  1.00  0.00     0.200 A 
ATOM     74  F   UNL     1      -0.246   1.500  14.554  1.00  0.00    -0.200 F 
ATOM     75  F   UNL     1       2.167   0.473  15.300  1.00  0.00    -0.200 F 
ENDBRANCH  51  65
BRANCH  52  76
ATOM     76  C   UNL     1       1.354   9.886   4.864  1.00  0.00     0.064 A 
ATOM     77  C   UNL     1       2.173  11.020   4.778  1.00  0.00     0.173 A 
ATOM     78  C   UNL     1       0.393   9.695   3.861  1.00  0.00     0.173 A 
ATOM     79  F   UNL     1       3.089  11.256   5.729  1.00  0.00    -0.203 F 
ATOM     80  C   UNL     1       2.025  11.936   3.740  1.00  0.00     0.198 A 
ATOM     81  C   UNL     1       0.259  10.602   2.812  1.00  0.00     0.198 A 
ATOM     82  F   UNL     1      -0.423   8.633   3.904  1.00  0.00    -0.203 F 
ATOM     83  F   UNL     1       2.793  13.033   3.703  1.00  0.00    -0.200 F 
ATOM     84  C   UNL     1       1.071  11.724   2.755  1.00  0.00     0.200 A 
ATOM     85  F   UNL     1      -0.661  10.393   1.860  1.00  0.00    -0.200 F 
ATOM     86  F   UNL     1       0.929  12.607   1.757  1.00  0.00    -0.200 F 
ENDBRANCH  52  76
BRANCH  64  87
ATOM     87  C   UNL     1       0.132  10.332  11.693  1.00  0.00     0.064 A 
ATOM     88  C   UNL     1      -1.170  10.851  11.675  1.00  0.00     0.173 A 
ATOM     89  C   UNL     1       1.062  10.924  12.563  1.00  0.00     0.173 A 
ATOM     90  F   UNL     1      -2.092  10.334  10.849  1.00  0.00    -0.203 F 
ATOM     91  C   UNL     1      -1.516  11.946  12.465  1.00  0.00     0.198 A 
ATOM     92  C   UNL     1       0.704  11.996  13.375  1.00  0.00     0.198 A 
ATOM     93  F   UNL     1       2.321  10.464  12.624  1.00  0.00    -0.203 F 
ATOM     94  F   UNL     1      -2.748  12.467  12.381  1.00  0.00    -0.200 F 
ATOM     95  C   UNL     1      -0.580  12.514  13.316  1.00  0.00     0.200 A 
ATOM     96  F   UNL     1       1.606  12.536  14.207  1.00  0.00    -0.200 F 
ATOM     97  F   UNL     1      -0.913  13.570  14.071  1.00  0.00    -0.200 F 
ENDBRANCH  64  87
ENDBRANCH  38  39
ENDBRANCH  31  33
ENDBRANCH  30  31
ENDBRANCH  29  30
ENDBRANCH  28  29
ENDBRANCH  27  28
ENDBRANCH   1  27
TORSDOF 18
