REMARK SMILES CC1=C(C)C[C@@H](C(=O)OCCOCCOC(=O)c2ccc(-c3c4nc(c(-c5c(F)c(F)c(F)c(F)c5F)c5ccc([nH]5)c(-c5c(F)c(F)c(F)c(F)c5F)c5nc(c(-c6c(F)c(F)c(F)c(F)c6F)c6ccc3[nH]6)C=C5)C=C4)cc2)[C@@H](C(=O)NCC[NH+]2CCOCC2)C1
REMARK SMILES IDX 11 1 10 2 9 3 7 4 8 5 6 6 1 7 2 8 3 9 93 10 4 11 5 12 81 13
REMARK SMILES IDX 82 14 83 15 84 16 85 18 86 19 87 20 88 21 92 22 89 24 91 25
REMARK SMILES IDX 90 26 12 27 13 28 14 29 15 30 16 31 17 32 18 33 19 34 80 35
REMARK SMILES IDX 20 36 79 37 21 38 22 39 23 40 73 41 24 42 78 43 72 44 74 45
REMARK SMILES IDX 25 46 77 47 71 48 70 49 26 51 58 52 38 53 57 54 39 55 42 56
REMARK SMILES IDX 56 57 75 58 40 59 41 60 55 62 76 63 43 64 27 65 28 66 36 67
REMARK SMILES IDX 29 68 30 69 34 70 37 71 31 72 32 73 35 74 33 75 59 76 60 77
REMARK SMILES IDX 68 78 61 79 62 80 66 81 69 82 63 83 64 84 67 85 65 86 44 87
REMARK SMILES IDX 45 88 53 89 46 90 47 91 51 92 54 93 48 94 49 95 52 96 50 97
REMARK H PARENT 84 17 87 23 74 50 42 61
REMARK Flexibility Score: inf
ROOT
ATOM      1  C   UNL     1      -4.947  -0.269  -4.215  1.00  0.00     0.202 C 
ENDROOT
BRANCH   1   2
ATOM      2  C   UNL     1      -3.910  -1.163  -3.528  1.00  0.00     0.261 C 
BRANCH   2   3
ATOM      3  O   UNL     1      -2.664  -0.501  -3.232  1.00  0.00    -0.463 OA
BRANCH   3   4
ATOM      4  C   UNL     1      -1.621  -0.816  -4.022  1.00  0.00     0.310 C 
ATOM      5  O   UNL     1      -1.708  -1.576  -4.986  1.00  0.00    -0.252 OA
BRANCH   4   6
ATOM      6  C   UNL     1      -0.270  -0.226  -3.643  1.00  0.00     0.116 C 
ATOM      7  C   UNL     1       1.157   0.048   0.504  1.00  0.00     0.039 C 
ATOM      8  C   UNL     1       0.926  -0.156  -0.966  1.00  0.00    -0.074 C 
ATOM      9  C   UNL     1       0.708  -1.344  -1.564  1.00  0.00    -0.073 C 
ATOM     10  C   UNL     1       1.008   1.092  -1.817  1.00  0.00     0.045 C 
ATOM     11  C   UNL     1       0.682  -2.688  -0.892  1.00  0.00     0.039 C 
ATOM     12  C   UNL     1       0.555  -1.388  -3.060  1.00  0.00     0.046 C 
ATOM     13  C   UNL     1      -0.032   1.150  -2.960  1.00  0.00     0.097 C 
BRANCH  13  14
ATOM     14  C   UNL     1      -1.206   1.983  -2.450  1.00  0.00     0.224 C 
ATOM     15  O   UNL     1      -2.123   1.522  -1.776  1.00  0.00    -0.275 OA
ATOM     16  N   UNL     1      -1.197   3.344  -2.634  1.00  0.00    -0.350 N 
ATOM     17  H   UNL     1      -2.062   3.782  -2.463  1.00  0.00     0.163 HD
BRANCH  16  18
ATOM     18  C   UNL     1      -0.129   4.258  -3.038  1.00  0.00     0.177 C 
BRANCH  18  19
ATOM     19  C   UNL     1      -0.411   4.970  -4.380  1.00  0.00     0.283 C 
BRANCH  19  20
ATOM     20  N   UNL     1      -0.940   6.349  -4.320  1.00  0.00    -0.330 N 
ATOM     21  C   UNL     1      -2.193   6.537  -3.561  1.00  0.00     0.291 C 
ATOM     22  C   UNL     1      -1.165   6.881  -5.690  1.00  0.00     0.291 C 
ATOM     23  H   UNL     1      -0.214   6.854  -3.812  1.00  0.00     0.348 HD
ATOM     24  C   UNL     1      -3.447   6.022  -4.274  1.00  0.00     0.221 C 
ATOM     25  C   UNL     1      -2.416   6.305  -6.378  1.00  0.00     0.221 C 
ATOM     26  O   UNL     1      -3.586   6.554  -5.593  1.00  0.00    -0.370 OA
ENDBRANCH  19  20
ENDBRANCH  18  19
ENDBRANCH  16  18
ENDBRANCH  13  14
ENDBRANCH   4   6
ENDBRANCH   3   4
ENDBRANCH   2   3
ENDBRANCH   1   2
BRANCH   1  27
ATOM     27  O   UNL     1      -4.648   0.161  -5.540  1.00  0.00    -0.374 OA
BRANCH  27  28
ATOM     28  C   UNL     1      -3.651   1.163  -5.697  1.00  0.00     0.202 C 
BRANCH  28  29
ATOM     29  C   UNL     1      -4.005   2.555  -5.184  1.00  0.00     0.261 C 
BRANCH  29  30
ATOM     30  O   UNL     1      -4.161   2.598  -3.749  1.00  0.00    -0.460 OA
BRANCH  30  31
ATOM     31  C   UNL     1      -5.300   3.180  -3.310  1.00  0.00     0.338 C 
ATOM     32  O   UNL     1      -6.127   3.776  -3.989  1.00  0.00    -0.246 OA
BRANCH  31  33
ATOM     33  C   UNL     1      -5.530   2.939  -1.873  1.00  0.00     0.060 A 
ATOM     34  C   UNL     1      -6.712   2.282  -1.521  1.00  0.00     0.016 A 
ATOM     35  C   UNL     1      -4.703   3.470  -0.880  1.00  0.00     0.016 A 
ATOM     36  C   UNL     1      -7.090   2.191  -0.182  1.00  0.00     0.010 A 
ATOM     37  C   UNL     1      -5.074   3.361   0.469  1.00  0.00     0.010 A 
ATOM     38  C   UNL     1      -6.289   2.754   0.824  1.00  0.00    -0.014 A 
BRANCH  38  39
ATOM     39  C   UNL     1      -6.789   2.759   2.224  1.00  0.00     0.031 A 
ATOM     40  C   UNL     1      -7.360   4.017   2.821  1.00  0.00     0.074 A 
ATOM     41  C   UNL     1      -6.808   1.618   2.937  1.00  0.00     0.049 A 
ATOM     42  N   UNL     1      -7.955   4.191   3.976  1.00  0.00    -0.248 NA
ATOM     43  C   UNL     1      -7.247   5.241   2.015  1.00  0.00     0.031 C 
ATOM     44  C   UNL     1      -6.286   0.332   2.479  1.00  0.00     0.029 A 
ATOM     45  N   UNL     1      -7.302   1.354   4.191  1.00  0.00    -0.354 N 
ATOM     46  C   UNL     1      -8.296   5.536   4.029  1.00  0.00     0.074 A 
ATOM     47  C   UNL     1      -7.802   6.144   2.812  1.00  0.00     0.031 C 
ATOM     48  C   UNL     1      -6.506  -0.591   3.429  1.00  0.00     0.029 A 
ATOM     49  C   UNL     1      -7.167   0.041   4.569  1.00  0.00     0.049 A 
ATOM     50  H   UNL     1      -7.714   2.040   4.764  1.00  0.00     0.167 HD
ATOM     51  C   UNL     1      -8.977   6.201   4.995  1.00  0.00     0.037 A 
ATOM     52  C   UNL     1      -7.536  -0.583   5.705  1.00  0.00     0.037 A 
ATOM     53  C   UNL     1      -9.477   5.601   6.205  1.00  0.00     0.049 A 
ATOM     54  C   UNL     1      -8.255   0.188   6.780  1.00  0.00     0.074 A 
ATOM     55  C   UNL     1     -10.214   6.189   7.219  1.00  0.00     0.029 A 
ATOM     56  N   UNL     1      -9.284   4.277   6.570  1.00  0.00    -0.354 N 
ATOM     57  N   UNL     1      -8.630   1.444   6.790  1.00  0.00    -0.248 NA
ATOM     58  C   UNL     1      -8.612  -0.552   8.000  1.00  0.00     0.031 C 
ATOM     59  C   UNL     1     -10.423   5.235   8.221  1.00  0.00     0.029 A 
ATOM     60  C   UNL     1      -9.861   4.039   7.808  1.00  0.00     0.049 A 
ATOM     61  H   UNL     1      -8.807   3.606   6.030  1.00  0.00     0.167 HD
ATOM     62  C   UNL     1      -9.284   1.638   8.000  1.00  0.00     0.074 A 
ATOM     63  C   UNL     1      -9.270   0.367   8.692  1.00  0.00     0.031 C 
ATOM     64  C   UNL     1      -9.845   2.771   8.491  1.00  0.00     0.037 A 
BRANCH  51  65
ATOM     65  C   UNL     1      -9.220   7.668   4.789  1.00  0.00     0.064 A 
ATOM     66  C   UNL     1     -10.149   8.133   3.847  1.00  0.00     0.173 A 
ATOM     67  C   UNL     1      -8.557   8.616   5.583  1.00  0.00     0.173 A 
ATOM     68  F   UNL     1     -10.803   7.267   3.058  1.00  0.00    -0.203 F 
ATOM     69  C   UNL     1     -10.389   9.496   3.691  1.00  0.00     0.198 A 
ATOM     70  C   UNL     1      -8.819   9.977   5.442  1.00  0.00     0.198 A 
ATOM     71  F   UNL     1      -7.666   8.223   6.505  1.00  0.00    -0.203 F 
ATOM     72  F   UNL     1     -11.253   9.921   2.759  1.00  0.00    -0.200 F 
ATOM     73  C   UNL     1      -9.730  10.416   4.493  1.00  0.00     0.200 A 
ATOM     74  F   UNL     1      -8.191  10.863   6.228  1.00  0.00    -0.200 F 
ATOM     75  F   UNL     1      -9.969  11.726   4.349  1.00  0.00    -0.200 F 
ENDBRANCH  51  65
BRANCH  52  76
ATOM     76  C   UNL     1      -7.241  -2.028   5.880  1.00  0.00     0.064 A 
ATOM     77  C   UNL     1      -8.267  -2.982   5.889  1.00  0.00     0.173 A 
ATOM     78  C   UNL     1      -5.925  -2.481   6.054  1.00  0.00     0.173 A 
ATOM     79  F   UNL     1      -9.544  -2.594   5.753  1.00  0.00    -0.203 F 
ATOM     80  C   UNL     1      -7.989  -4.334   6.082  1.00  0.00     0.198 A 
ATOM     81  C   UNL     1      -5.646  -3.835   6.220  1.00  0.00     0.198 A 
ATOM     82  F   UNL     1      -4.909  -1.606   6.057  1.00  0.00    -0.203 F 
ATOM     83  F   UNL     1      -8.992  -5.221   6.132  1.00  0.00    -0.200 F 
ATOM     84  C   UNL     1      -6.679  -4.760   6.241  1.00  0.00     0.200 A 
ATOM     85  F   UNL     1      -4.378  -4.243   6.363  1.00  0.00    -0.200 F 
ATOM     86  F   UNL     1      -6.412  -6.060   6.424  1.00  0.00    -0.200 F 
ENDBRANCH  52  76
BRANCH  64  87
ATOM     87  C   UNL     1     -10.513   2.686   9.833  1.00  0.00     0.064 A 
ATOM     88  C   UNL     1      -9.771   2.560  11.017  1.00  0.00     0.173 A 
ATOM     89  C   UNL     1     -11.910   2.771   9.940  1.00  0.00     0.173 A 
ATOM     90  F   UNL     1      -8.434   2.460  10.968  1.00  0.00    -0.203 F 
ATOM     91  C   UNL     1     -10.405   2.498  12.256  1.00  0.00     0.198 A 
ATOM     92  C   UNL     1     -12.538   2.737  11.182  1.00  0.00     0.198 A 
ATOM     93  F   UNL     1     -12.666   2.899   8.839  1.00  0.00    -0.203 F 
ATOM     94  F   UNL     1      -9.678   2.333  13.370  1.00  0.00    -0.200 F 
ATOM     95  C   UNL     1     -11.786   2.594  12.338  1.00  0.00     0.200 A 
ATOM     96  F   UNL     1     -13.872   2.843  11.261  1.00  0.00    -0.200 F 
ATOM     97  F   UNL     1     -12.393   2.541  13.532  1.00  0.00    -0.200 F 
ENDBRANCH  64  87
ENDBRANCH  38  39
ENDBRANCH  31  33
ENDBRANCH  30  31
ENDBRANCH  29  30
ENDBRANCH  28  29
ENDBRANCH  27  28
ENDBRANCH   1  27
TORSDOF 18
