REMARK SMILES CC(C)([NH2+]C[C@@H]1COc2ccccc21)C(=O)OCCOCCOC(=O)c1ccc(-c2c3nc(c(-c4c(F)c(F)c(F)c(F)c4F)c4ccc([nH]4)c(-c4c(F)c(F)c(F)c(F)c4F)c4nc(c(-c5c(F)c(F)c(F)c(F)c5F)c5ccc2[nH]5)C=C4)C=C3)cc1
REMARK SMILES IDX 19 1 18 2 17 3 15 4 16 5 2 6 1 7 3 8 4 9 5 12 6 13 7 14
REMARK SMILES IDX 14 15 8 16 9 17 13 18 10 19 12 20 11 21 20 22 21 23 22 24
REMARK SMILES IDX 23 25 24 26 25 27 26 28 27 29 88 30 28 31 87 32 29 33 30 34
REMARK SMILES IDX 31 35 81 36 32 37 86 38 80 39 82 40 33 41 85 42 79 43 78 44
REMARK SMILES IDX 34 46 66 47 46 48 65 49 47 50 50 51 64 52 83 53 48 54 49 55
REMARK SMILES IDX 63 57 84 58 51 59 35 60 36 61 44 62 37 63 38 64 42 65 45 66
REMARK SMILES IDX 39 67 40 68 43 69 41 70 67 71 68 72 76 73 69 74 70 75 74 76
REMARK SMILES IDX 77 77 71 78 72 79 75 80 73 81 52 82 53 83 61 84 54 85 55 86
REMARK SMILES IDX 59 87 62 88 56 89 57 90 60 91 58 92
REMARK H PARENT 4 10 4 11 82 45 50 56
REMARK Flexibility Score: inf
ROOT
ATOM      1  C   UNL     1      -0.287  -2.135   8.897  1.00  0.00     0.202 C 
ENDROOT
BRANCH   1   2
ATOM      2  C   UNL     1      -0.822  -0.756   8.509  1.00  0.00     0.261 C 
BRANCH   2   3
ATOM      3  O   UNL     1      -0.415  -0.428   7.170  1.00  0.00    -0.459 OA
BRANCH   3   4
ATOM      4  C   UNL     1       0.522   0.544   7.060  1.00  0.00     0.367 C 
ATOM      5  O   UNL     1       0.869   1.256   8.001  1.00  0.00    -0.245 OA
BRANCH   4   6
ATOM      6  C   UNL     1       1.112   0.711   5.640  1.00  0.00     0.188 C 
ATOM      7  C   UNL     1       2.632   0.946   5.849  1.00  0.00     0.092 C 
ATOM      8  C   UNL     1       0.521   1.988   5.049  1.00  0.00     0.092 C 
BRANCH   6   9
ATOM      9  N   UNL     1       1.106  -0.453   4.712  1.00  0.00    -0.332 N 
ATOM     10  H   UNL     1       1.805  -1.096   5.083  1.00  0.00     0.347 HD
ATOM     11  H   UNL     1       1.227   0.030   3.822  1.00  0.00     0.347 HD
BRANCH   9  12
ATOM     12  C   UNL     1      -0.052  -1.282   4.397  1.00  0.00     0.273 C 
BRANCH  12  13
ATOM     13  C   UNL     1      -1.219  -0.812   3.505  1.00  0.00     0.116 C 
ATOM     14  C   UNL     1      -0.912   0.248   2.438  1.00  0.00     0.244 C 
ATOM     15  C   UNL     1      -2.331  -0.153   4.228  1.00  0.00     0.006 A 
ATOM     16  O   UNL     1      -1.700   1.441   2.680  1.00  0.00    -0.492 OA
ATOM     17  C   UNL     1      -2.535   1.114   3.714  1.00  0.00     0.123 A 
ATOM     18  C   UNL     1      -3.105  -0.635   5.271  1.00  0.00     0.008 A 
ATOM     19  C   UNL     1      -3.459   1.977   4.267  1.00  0.00     0.047 A 
ATOM     20  C   UNL     1      -4.053   0.217   5.838  1.00  0.00     0.001 A 
ATOM     21  C   UNL     1      -4.218   1.522   5.348  1.00  0.00     0.004 A 
ENDBRANCH  12  13
ENDBRANCH   9  12
ENDBRANCH   6   9
ENDBRANCH   4   6
ENDBRANCH   3   4
ENDBRANCH   2   3
ENDBRANCH   1   2
BRANCH   1  22
ATOM     22  O   UNL     1       1.132  -2.224   9.041  1.00  0.00    -0.374 OA
BRANCH  22  23
ATOM     23  C   UNL     1       1.885  -2.395   7.838  1.00  0.00     0.202 C 
BRANCH  23  24
ATOM     24  C   UNL     1       2.045  -3.841   7.362  1.00  0.00     0.261 C 
BRANCH  24  25
ATOM     25  O   UNL     1       0.778  -4.401   6.970  1.00  0.00    -0.460 OA
BRANCH  25  26
ATOM     26  C   UNL     1       0.248  -5.254   7.872  1.00  0.00     0.338 C 
ATOM     27  O   UNL     1       0.781  -5.687   8.886  1.00  0.00    -0.246 OA
BRANCH  26  28
ATOM     28  C   UNL     1      -1.173  -5.507   7.572  1.00  0.00     0.060 A 
ATOM     29  C   UNL     1      -2.057  -5.498   8.658  1.00  0.00     0.016 A 
ATOM     30  C   UNL     1      -1.624  -5.840   6.292  1.00  0.00     0.016 A 
ATOM     31  C   UNL     1      -3.368  -5.928   8.491  1.00  0.00     0.010 A 
ATOM     32  C   UNL     1      -2.945  -6.272   6.124  1.00  0.00     0.010 A 
ATOM     33  C   UNL     1      -3.799  -6.380   7.238  1.00  0.00    -0.014 A 
BRANCH  33  34
ATOM     34  C   UNL     1      -5.048  -7.177   7.175  1.00  0.00     0.031 A 
ATOM     35  C   UNL     1      -4.942  -8.680   7.182  1.00  0.00     0.074 A 
ATOM     36  C   UNL     1      -6.253  -6.582   7.219  1.00  0.00     0.049 A 
ATOM     37  N   UNL     1      -5.890  -9.582   7.212  1.00  0.00    -0.248 NA
ATOM     38  C   UNL     1      -3.582  -9.242   7.155  1.00  0.00     0.031 C 
ATOM     39  C   UNL     1      -6.481  -5.139   7.255  1.00  0.00     0.029 A 
ATOM     40  N   UNL     1      -7.511  -7.126   7.256  1.00  0.00    -0.354 N 
ATOM     41  C   UNL     1      -5.241 -10.811   7.206  1.00  0.00     0.074 A 
ATOM     42  C   UNL     1      -3.823 -10.543   7.130  1.00  0.00     0.031 C 
ATOM     43  C   UNL     1      -7.805  -4.911   7.311  1.00  0.00     0.029 A 
ATOM     44  C   UNL     1      -8.514  -6.190   7.300  1.00  0.00     0.049 A 
ATOM     45  H   UNL     1      -7.679  -8.096   7.251  1.00  0.00     0.167 HD
ATOM     46  C   UNL     1      -5.778 -12.052   7.275  1.00  0.00     0.037 A 
ATOM     47  C   UNL     1      -9.850  -6.353   7.327  1.00  0.00     0.037 A 
ATOM     48  C   UNL     1      -7.189 -12.319   7.363  1.00  0.00     0.049 A 
ATOM     49  C   UNL     1     -10.424  -7.746   7.368  1.00  0.00     0.074 A 
ATOM     50  C   UNL     1      -7.835 -13.541   7.441  1.00  0.00     0.029 A 
ATOM     51  N   UNL     1      -8.174 -11.343   7.384  1.00  0.00    -0.354 N 
ATOM     52  N   UNL     1      -9.802  -8.900   7.387  1.00  0.00    -0.248 NA
ATOM     53  C   UNL     1     -11.889  -7.856   7.410  1.00  0.00     0.031 C 
ATOM     54  C   UNL     1      -9.213 -13.305   7.468  1.00  0.00     0.029 A 
ATOM     55  C   UNL     1      -9.424 -11.936   7.461  1.00  0.00     0.049 A 
ATOM     56  H   UNL     1      -8.010 -10.373   7.350  1.00  0.00     0.167 HD
ATOM     57  C   UNL     1     -10.794  -9.869   7.480  1.00  0.00     0.074 A 
ATOM     58  C   UNL     1     -12.059  -9.165   7.526  1.00  0.00     0.031 C 
ATOM     59  C   UNL     1     -10.671 -11.219   7.524  1.00  0.00     0.037 A 
BRANCH  46  60
ATOM     60  C   UNL     1      -4.834 -13.218   7.239  1.00  0.00     0.064 A 
ATOM     61  C   UNL     1      -4.006 -13.531   8.327  1.00  0.00     0.173 A 
ATOM     62  C   UNL     1      -4.779 -14.050   6.111  1.00  0.00     0.173 A 
ATOM     63  F   UNL     1      -4.008 -12.756   9.422  1.00  0.00    -0.203 F 
ATOM     64  C   UNL     1      -3.141 -14.622   8.278  1.00  0.00     0.198 A 
ATOM     65  C   UNL     1      -3.934 -15.156   6.077  1.00  0.00     0.198 A 
ATOM     66  F   UNL     1      -5.550 -13.795   5.044  1.00  0.00    -0.203 F 
ATOM     67  F   UNL     1      -2.326 -14.876   9.312  1.00  0.00    -0.200 F 
ATOM     68  C   UNL     1      -3.112 -15.437   7.157  1.00  0.00     0.200 A 
ATOM     69  F   UNL     1      -3.914 -15.949   4.996  1.00  0.00    -0.200 F 
ATOM     70  F   UNL     1      -2.284 -16.491   7.115  1.00  0.00    -0.200 F 
ENDBRANCH  46  60
BRANCH  47  71
ATOM     71  C   UNL     1     -10.745  -5.166   7.326  1.00  0.00     0.064 A 
ATOM     72  C   UNL     1     -11.524  -4.841   8.445  1.00  0.00     0.173 A 
ATOM     73  C   UNL     1     -10.860  -4.349   6.192  1.00  0.00     0.173 A 
ATOM     74  F   UNL     1     -11.466  -5.605   9.546  1.00  0.00    -0.203 F 
ATOM     75  C   UNL     1     -12.403  -3.760   8.421  1.00  0.00     0.198 A 
ATOM     76  C   UNL     1     -11.717  -3.252   6.178  1.00  0.00     0.198 A 
ATOM     77  F   UNL     1     -10.136  -4.617   5.095  1.00  0.00    -0.203 F 
ATOM     78  F   UNL     1     -13.175  -3.503   9.485  1.00  0.00    -0.200 F 
ATOM     79  C   UNL     1     -12.496  -2.964   7.289  1.00  0.00     0.200 A 
ATOM     80  F   UNL     1     -11.796  -2.478   5.087  1.00  0.00    -0.200 F 
ATOM     81  F   UNL     1     -13.342  -1.925   7.266  1.00  0.00    -0.200 F 
ENDBRANCH  47  71
BRANCH  59  82
ATOM     82  C   UNL     1     -11.931 -12.019   7.685  1.00  0.00     0.064 A 
ATOM     83  C   UNL     1     -12.871 -12.137   6.650  1.00  0.00     0.173 A 
ATOM     84  C   UNL     1     -12.190 -12.697   8.887  1.00  0.00     0.173 A 
ATOM     85  F   UNL     1     -12.676 -11.500   5.486  1.00  0.00    -0.203 F 
ATOM     86  C   UNL     1     -14.041 -12.871   6.827  1.00  0.00     0.198 A 
ATOM     87  C   UNL     1     -13.345 -13.456   9.048  1.00  0.00     0.198 A 
ATOM     88  F   UNL     1     -11.318 -12.626   9.904  1.00  0.00    -0.203 F 
ATOM     89  F   UNL     1     -14.952 -12.921   5.845  1.00  0.00    -0.200 F 
ATOM     90  C   UNL     1     -14.274 -13.534   8.023  1.00  0.00     0.200 A 
ATOM     91  F   UNL     1     -13.562 -14.107  10.199  1.00  0.00    -0.200 F 
ATOM     92  F   UNL     1     -15.401 -14.239   8.190  1.00  0.00    -0.200 F 
ENDBRANCH  59  82
ENDBRANCH  33  34
ENDBRANCH  26  28
ENDBRANCH  25  26
ENDBRANCH  24  25
ENDBRANCH  23  24
ENDBRANCH  22  23
ENDBRANCH   1  22
TORSDOF 17
