REMARK SMILES CC1=C2C(CSc3c(Cl)cccc3Cl)=CC(=O)N=C2S[C@H]1C(=O)OCCOCCOC(=O)c1ccc(-c2c3nc(c(-c4c(F)c(F)c(F)c(F)c4F)c4ccc([nH]4)c(-c4c(F)c(F)c(F)c(F)c4F)c4nc(c(-c5c(F)c(F)c(F)c(F)c5F)c5ccc2[nH]5)C=C4)C=C3)cc1
REMARK SMILES IDX 26 1 25 2 24 3 22 4 23 5 21 6 1 7 2 8 3 9 4 10 19 11 20 12
REMARK SMILES IDX 15 13 18 14 16 15 17 16 5 17 6 18 7 19 8 20 13 21 9 22 10 23
REMARK SMILES IDX 12 24 14 25 11 26 27 27 28 28 29 29 30 30 31 31 32 32 33 33
REMARK SMILES IDX 34 34 95 35 35 36 94 37 36 38 37 39 38 40 88 41 39 42 93 43
REMARK SMILES IDX 87 44 89 45 40 46 92 47 86 48 85 49 41 51 73 52 53 53 72 54
REMARK SMILES IDX 54 55 57 56 71 57 90 58 55 59 56 60 70 62 91 63 58 64 42 65
REMARK SMILES IDX 43 66 51 67 44 68 45 69 49 70 52 71 46 72 47 73 50 74 48 75
REMARK SMILES IDX 74 76 75 77 83 78 76 79 77 80 81 81 84 82 78 83 79 84 82 85
REMARK SMILES IDX 80 86 59 87 60 88 68 89 61 90 62 91 66 92 69 93 63 94 64 95
REMARK SMILES IDX 67 96 65 97
REMARK H PARENT 89 50 57 61
REMARK Flexibility Score: inf
ROOT
ATOM      1  C   UNL     1       1.558   4.229  -4.376  1.00  0.00     0.202 C 
ENDROOT
BRANCH   1   2
ATOM      2  C   UNL     1       0.121   4.342  -3.858  1.00  0.00     0.261 C 
BRANCH   2   3
ATOM      3  O   UNL     1      -0.043   3.785  -2.538  1.00  0.00    -0.462 OA
BRANCH   3   4
ATOM      4  C   UNL     1      -0.986   2.804  -2.405  1.00  0.00     0.323 C 
ATOM      5  O   UNL     1      -1.565   2.263  -3.341  1.00  0.00    -0.251 OA
BRANCH   4   6
ATOM      6  C   UNL     1      -1.211   2.387  -0.948  1.00  0.00     0.189 C 
ATOM      7  C   UNL     1       0.343   0.372  -0.722  1.00  0.00     0.042 C 
ATOM      8  C   UNL     1      -0.008   1.757  -0.271  1.00  0.00    -0.039 C 
ATOM      9  C   UNL     1       0.595   2.489   0.685  1.00  0.00     0.012 C 
ATOM     10  C   UNL     1       1.675   2.255   1.628  1.00  0.00    -0.022 C 
ATOM     11  C   UNL     1      -0.074   3.809   0.830  1.00  0.00     0.109 C 
ATOM     12  S   UNL     1      -1.622   3.850   0.044  1.00  0.00    -0.086 SA
ATOM     13  C   UNL     1       2.127   3.341   2.290  1.00  0.00     0.079 C 
ATOM     14  N   UNL     1       0.370   4.830   1.468  1.00  0.00    -0.202 NA
ATOM     15  C   UNL     1       1.592   4.716   2.074  1.00  0.00     0.271 C 
ATOM     16  O   UNL     1       2.227   5.668   2.511  1.00  0.00    -0.267 OA
BRANCH  10  17
ATOM     17  C   UNL     1       2.088   0.864   2.053  1.00  0.00     0.111 C 
BRANCH  17  18
ATOM     18  S   UNL     1       3.876   0.639   2.354  1.00  0.00    -0.118 SA
BRANCH  18  19
ATOM     19  C   UNL     1       4.517   0.245   0.717  1.00  0.00     0.045 A 
ATOM     20  C   UNL     1       4.187  -0.948   0.039  1.00  0.00     0.056 A 
ATOM     21  C   UNL     1       5.466   1.094   0.107  1.00  0.00     0.056 A 
ATOM     22  Cl  UNL     1       3.151  -2.164   0.714  1.00  0.00    -0.083 Cl
ATOM     23  C   UNL     1       4.722  -1.235  -1.226  1.00  0.00     0.022 A 
ATOM     24  C   UNL     1       6.008   0.792  -1.151  1.00  0.00     0.022 A 
ATOM     25  Cl  UNL     1       6.036   2.550   0.855  1.00  0.00    -0.083 Cl
ATOM     26  C   UNL     1       5.627  -0.364  -1.823  1.00  0.00     0.003 A 
ENDBRANCH  18  19
ENDBRANCH  17  18
ENDBRANCH  10  17
ENDBRANCH   4   6
ENDBRANCH   3   4
ENDBRANCH   2   3
ENDBRANCH   1   2
BRANCH   1  27
ATOM     27  O   UNL     1       1.993   2.921  -4.742  1.00  0.00    -0.374 OA
BRANCH  27  28
ATOM     28  C   UNL     1       2.107   1.957  -3.704  1.00  0.00     0.202 C 
BRANCH  28  29
ATOM     29  C   UNL     1       3.274   2.142  -2.734  1.00  0.00     0.261 C 
BRANCH  29  30
ATOM     30  O   UNL     1       3.254   3.392  -2.023  1.00  0.00    -0.460 OA
BRANCH  30  31
ATOM     31  C   UNL     1       4.386   4.128  -2.170  1.00  0.00     0.338 C 
ATOM     32  O   UNL     1       5.400   3.811  -2.770  1.00  0.00    -0.246 OA
BRANCH  31  33
ATOM     33  C   UNL     1       4.230   5.468  -1.580  1.00  0.00     0.060 A 
ATOM     34  C   UNL     1       4.317   6.574  -2.430  1.00  0.00     0.016 A 
ATOM     35  C   UNL     1       4.179   5.643  -0.198  1.00  0.00     0.016 A 
ATOM     36  C   UNL     1       4.410   7.859  -1.893  1.00  0.00     0.010 A 
ATOM     37  C   UNL     1       4.262   6.933   0.339  1.00  0.00     0.010 A 
ATOM     38  C   UNL     1       4.425   8.044  -0.502  1.00  0.00    -0.014 A 
BRANCH  38  39
ATOM     39  C   UNL     1       4.735   9.384   0.058  1.00  0.00     0.031 A 
ATOM     40  C   UNL     1       6.115   9.669   0.587  1.00  0.00     0.074 A 
ATOM     41  C   UNL     1       3.803  10.353   0.059  1.00  0.00     0.049 A 
ATOM     42  N   UNL     1       6.617  10.792   1.040  1.00  0.00    -0.248 NA
ATOM     43  C   UNL     1       7.056   8.539   0.612  1.00  0.00     0.031 C 
ATOM     44  C   UNL     1       2.426  10.197  -0.405  1.00  0.00     0.029 A 
ATOM     45  N   UNL     1       3.877  11.663   0.462  1.00  0.00    -0.354 N 
ATOM     46  C   UNL     1       7.927  10.502   1.402  1.00  0.00     0.074 A 
ATOM     47  C   UNL     1       8.132   9.092   1.153  1.00  0.00     0.031 C 
ATOM     48  C   UNL     1       1.785  11.370  -0.269  1.00  0.00     0.029 A 
ATOM     49  C   UNL     1       2.703  12.354   0.302  1.00  0.00     0.049 A 
ATOM     50  H   UNL     1       4.695  12.068   0.830  1.00  0.00     0.167 HD
ATOM     51  C   UNL     1       8.878  11.340   1.882  1.00  0.00     0.037 A 
ATOM     52  C   UNL     1       2.404  13.637   0.582  1.00  0.00     0.037 A 
ATOM     53  C   UNL     1       8.675  12.743   2.132  1.00  0.00     0.049 A 
ATOM     54  C   UNL     1       3.475  14.546   1.124  1.00  0.00     0.074 A 
ATOM     55  C   UNL     1       9.584  13.682   2.590  1.00  0.00     0.029 A 
ATOM     56  N   UNL     1       7.471  13.408   1.952  1.00  0.00    -0.354 N 
ATOM     57  N   UNL     1       4.730  14.281   1.394  1.00  0.00    -0.248 NA
ATOM     58  C   UNL     1       3.090  15.942   1.382  1.00  0.00     0.031 C 
ATOM     59  C   UNL     1       8.920  14.906   2.723  1.00  0.00     0.029 A 
ATOM     60  C   UNL     1       7.610  14.742   2.304  1.00  0.00     0.049 A 
ATOM     61  H   UNL     1       6.640  12.994   1.624  1.00  0.00     0.167 HD
ATOM     62  C   UNL     1       5.291  15.477   1.823  1.00  0.00     0.074 A 
ATOM     63  C   UNL     1       4.242  16.474   1.765  1.00  0.00     0.031 C 
ATOM     64  C   UNL     1       6.561  15.726   2.227  1.00  0.00     0.037 A 
BRANCH  51  65
ATOM     65  C   UNL     1      10.230  10.756   2.175  1.00  0.00     0.064 A 
ATOM     66  C   UNL     1      11.097  10.362   1.144  1.00  0.00     0.173 A 
ATOM     67  C   UNL     1      10.678  10.619   3.497  1.00  0.00     0.173 A 
ATOM     68  F   UNL     1      10.713  10.464  -0.138  1.00  0.00    -0.203 F 
ATOM     69  C   UNL     1      12.351   9.827   1.427  1.00  0.00     0.198 A 
ATOM     70  C   UNL     1      11.944  10.108   3.776  1.00  0.00     0.198 A 
ATOM     71  F   UNL     1       9.893  10.988   4.520  1.00  0.00    -0.203 F 
ATOM     72  F   UNL     1      13.145   9.417   0.428  1.00  0.00    -0.200 F 
ATOM     73  C   UNL     1      12.776   9.706   2.742  1.00  0.00     0.200 A 
ATOM     74  F   UNL     1      12.359  10.004   5.046  1.00  0.00    -0.200 F 
ATOM     75  F   UNL     1      13.985   9.196   3.012  1.00  0.00    -0.200 F 
ENDBRANCH  51  65
BRANCH  52  76
ATOM     76  C   UNL     1       1.035  14.150   0.321  1.00  0.00     0.064 A 
ATOM     77  C   UNL     1       0.791  15.056  -0.721  1.00  0.00     0.173 A 
ATOM     78  C   UNL     1      -0.054  13.751   1.109  1.00  0.00     0.173 A 
ATOM     79  F   UNL     1       1.805  15.485  -1.486  1.00  0.00    -0.203 F 
ATOM     80  C   UNL     1      -0.488  15.556  -0.953  1.00  0.00     0.198 A 
ATOM     81  C   UNL     1      -1.337  14.232   0.859  1.00  0.00     0.198 A 
ATOM     82  F   UNL     1       0.129  12.888   2.119  1.00  0.00    -0.203 F 
ATOM     83  F   UNL     1      -0.687  16.454  -1.928  1.00  0.00    -0.200 F 
ATOM     84  C   UNL     1      -1.552  15.140  -0.167  1.00  0.00     0.200 A 
ATOM     85  F   UNL     1      -2.364  13.821   1.615  1.00  0.00    -0.200 F 
ATOM     86  F   UNL     1      -2.783  15.620  -0.393  1.00  0.00    -0.200 F 
ENDBRANCH  52  76
BRANCH  64  87
ATOM     87  C   UNL     1       6.900  17.141   2.596  1.00  0.00     0.064 A 
ATOM     88  C   UNL     1       6.432  17.728   3.780  1.00  0.00     0.173 A 
ATOM     89  C   UNL     1       7.732  17.908   1.766  1.00  0.00     0.173 A 
ATOM     90  F   UNL     1       5.623  17.040   4.600  1.00  0.00    -0.203 F 
ATOM     91  C   UNL     1       6.761  19.041   4.106  1.00  0.00     0.198 A 
ATOM     92  C   UNL     1       8.081  19.211   2.109  1.00  0.00     0.198 A 
ATOM     93  F   UNL     1       8.213  17.391   0.625  1.00  0.00    -0.203 F 
ATOM     94  F   UNL     1       6.263  19.598   5.218  1.00  0.00    -0.200 F 
ATOM     95  C   UNL     1       7.589  19.779   3.274  1.00  0.00     0.200 A 
ATOM     96  F   UNL     1       8.891  19.919   1.309  1.00  0.00    -0.200 F 
ATOM     97  F   UNL     1       7.907  21.042   3.591  1.00  0.00    -0.200 F 
ENDBRANCH  64  87
ENDBRANCH  38  39
ENDBRANCH  31  33
ENDBRANCH  30  31
ENDBRANCH  29  30
ENDBRANCH  28  29
ENDBRANCH  27  28
ENDBRANCH   1  27
TORSDOF 17
