REMARK SMILES NS(=O)(=O)c1ccc(-n2nc(C(F)(F)F)cc2-c2ccc(CC(=O)OCCOCCOC(=O)c3ccc(-c4c5nc(c(-c6c(F)c(F)c(F)c(F)c6F)c6ccc([nH]6)c(-c6c(F)c(F)c(F)c(F)c6F)c6nc(c(-c7c(F)c(F)c(F)c(F)c7F)c7ccc4[nH]7)C=C6)C=C5)cc3)cc2)cc1
REMARK SMILES IDX 26 1 25 2 23 3 24 4 22 5 21 6 18 7 19 8 98 9 20 10 97 11
REMARK SMILES IDX 17 12 9 13 10 14 11 15 16 16 8 17 5 18 6 19 100 20 7 21
REMARK SMILES IDX 99 22 2 23 3 24 4 25 1 26 12 29 13 30 14 31 15 32 27 33
REMARK SMILES IDX 28 34 29 35 30 36 31 37 32 38 33 39 34 40 35 41 96 42 36 43
REMARK SMILES IDX 95 44 37 45 38 46 39 47 89 48 40 49 94 50 88 51 90 52 41 53
REMARK SMILES IDX 93 54 87 55 86 56 42 58 74 59 54 60 73 61 55 62 58 63 72 64
REMARK SMILES IDX 91 65 56 66 57 67 71 69 92 70 59 71 43 72 44 73 52 74 45 75
REMARK SMILES IDX 46 76 50 77 53 78 47 79 48 80 51 81 49 82 75 83 76 84 84 85
REMARK SMILES IDX 77 86 78 87 82 88 85 89 79 90 80 91 83 92 81 93 60 94 61 95
REMARK SMILES IDX 69 96 62 97 63 98 67 99 70 100 64 101 65 102 68 103 66 104
REMARK H PARENT 1 27 1 28 90 57 58 68
REMARK Flexibility Score: inf
ROOT
ATOM      1  C   UNL     1       5.734  -3.925   0.327  1.00  0.00     0.261 C 
ENDROOT
BRANCH   1   2
ATOM      2  O   UNL     1       5.780  -3.680   1.745  1.00  0.00    -0.463 OA
BRANCH   2   3
ATOM      3  C   UNL     1       7.001  -3.894   2.309  1.00  0.00     0.310 C 
ATOM      4  O   UNL     1       8.009  -4.200   1.679  1.00  0.00    -0.252 OA
BRANCH   3   5
ATOM      5  C   UNL     1       7.014  -3.844   3.816  1.00  0.00     0.158 C 
BRANCH   5   6
ATOM      6  C   UNL     1       6.055  -2.936   4.551  1.00  0.00    -0.037 A 
ATOM      7  C   UNL     1       4.473  -1.305   6.234  1.00  0.00     0.000 A 
ATOM      8  C   UNL     1       5.578  -0.777   5.551  1.00  0.00     0.010 A 
ATOM      9  C   UNL     1       4.159  -2.656   6.058  1.00  0.00     0.010 A 
ATOM     10  C   UNL     1       6.351  -1.577   4.708  1.00  0.00     0.005 A 
ATOM     11  C   UNL     1       4.940  -3.462   5.219  1.00  0.00     0.005 A 
BRANCH   7  12
ATOM     12  C   UNL     1       3.685  -0.453   7.133  1.00  0.00     0.075 A 
ATOM     13  N   UNL     1       3.253   0.848   6.865  1.00  0.00    -0.233 N 
ATOM     14  N   UNL     1       2.832   1.478   7.994  1.00  0.00    -0.163 NA
ATOM     15  C   UNL     1       2.800   0.519   8.941  1.00  0.00     0.167 A 
ATOM     16  C   UNL     1       3.321  -0.699   8.441  1.00  0.00     0.064 A 
BRANCH  13  17
ATOM     17  C   UNL     1       3.184   1.508   5.601  1.00  0.00     0.065 A 
ATOM     18  C   UNL     1       2.936   2.763   3.099  1.00  0.00     0.082 A 
ATOM     19  C   UNL     1       2.914   1.379   3.201  1.00  0.00     0.024 A 
ATOM     20  C   UNL     1       3.108   3.537   4.249  1.00  0.00     0.024 A 
ATOM     21  C   UNL     1       3.028   0.751   4.438  1.00  0.00     0.030 A 
ATOM     22  C   UNL     1       3.218   2.908   5.505  1.00  0.00     0.030 A 
BRANCH  18  23
ATOM     23  S   UNL     1       2.534   3.535   1.554  1.00  0.00     0.238 S 
ATOM     24  O   UNL     1       3.602   4.410   1.184  1.00  0.00    -0.207 OA
ATOM     25  O   UNL     1       1.139   3.943   1.615  1.00  0.00    -0.207 OA
BRANCH  23  26
ATOM     26  N   UNL     1       2.559   2.280   0.433  1.00  0.00    -0.225 NA
ATOM     27  H   UNL     1       2.335   2.646  -0.492  1.00  0.00     0.137 HD
ATOM     28  H   UNL     1       1.871   1.575   0.697  1.00  0.00     0.137 HD
ENDBRANCH  23  26
ENDBRANCH  18  23
ENDBRANCH  13  17
BRANCH  15  29
ATOM     29  C   UNL     1       2.315   0.741  10.351  1.00  0.00     0.435 C 
ATOM     30  F   UNL     1       2.611   1.975  10.832  1.00  0.00    -0.164 F 
ATOM     31  F   UNL     1       0.972   0.561  10.461  1.00  0.00    -0.164 F 
ATOM     32  F   UNL     1       2.883  -0.150  11.214  1.00  0.00    -0.164 F 
ENDBRANCH  15  29
ENDBRANCH   7  12
ENDBRANCH   5   6
ENDBRANCH   3   5
ENDBRANCH   2   3
ENDBRANCH   1   2
BRANCH   1  33
ATOM     33  C   UNL     1       5.837  -2.695  -0.586  1.00  0.00     0.202 C 
BRANCH  33  34
ATOM     34  O   UNL     1       6.715  -1.646  -0.211  1.00  0.00    -0.374 OA
BRANCH  34  35
ATOM     35  C   UNL     1       6.367  -0.871   0.927  1.00  0.00     0.202 C 
BRANCH  35  36
ATOM     36  C   UNL     1       4.983  -0.240   0.952  1.00  0.00     0.261 C 
BRANCH  36  37
ATOM     37  O   UNL     1       3.913  -1.186   1.126  1.00  0.00    -0.460 OA
BRANCH  37  38
ATOM     38  C   UNL     1       2.931  -1.131   0.184  1.00  0.00     0.338 C 
ATOM     39  O   UNL     1       3.054  -0.784  -0.979  1.00  0.00    -0.246 OA
BRANCH  38  40
ATOM     40  C   UNL     1       1.625  -1.187   0.876  1.00  0.00     0.060 A 
ATOM     41  C   UNL     1       0.619  -0.388   0.323  1.00  0.00     0.016 A 
ATOM     42  C   UNL     1       1.516  -1.676   2.185  1.00  0.00     0.016 A 
ATOM     43  C   UNL     1      -0.368   0.120   1.150  1.00  0.00     0.010 A 
ATOM     44  C   UNL     1       0.516  -1.171   3.009  1.00  0.00     0.010 A 
ATOM     45  C   UNL     1      -0.370  -0.210   2.511  1.00  0.00    -0.014 A 
BRANCH  45  46
ATOM     46  C   UNL     1      -1.447   0.327   3.341  1.00  0.00     0.031 A 
ATOM     47  C   UNL     1      -2.700  -0.405   3.166  1.00  0.00     0.074 A 
ATOM     48  C   UNL     1      -1.392   1.374   4.191  1.00  0.00     0.049 A 
ATOM     49  N   UNL     1      -3.748   0.053   2.571  1.00  0.00    -0.248 NA
ATOM     50  C   UNL     1      -2.770  -1.817   3.558  1.00  0.00     0.031 C 
ATOM     51  C   UNL     1      -0.199   2.115   4.529  1.00  0.00     0.029 A 
ATOM     52  N   UNL     1      -2.347   1.973   4.977  1.00  0.00    -0.354 N 
ATOM     53  C   UNL     1      -4.701  -0.926   2.747  1.00  0.00     0.074 A 
ATOM     54  C   UNL     1      -4.012  -2.118   3.178  1.00  0.00     0.031 C 
ATOM     55  C   UNL     1      -0.411   2.913   5.591  1.00  0.00     0.029 A 
ATOM     56  C   UNL     1      -1.822   2.861   5.915  1.00  0.00     0.049 A 
ATOM     57  H   UNL     1      -3.311   1.793   4.886  1.00  0.00     0.167 HD
ATOM     58  C   UNL     1      -6.000  -0.567   2.872  1.00  0.00     0.037 A 
ATOM     59  C   UNL     1      -2.450   3.587   6.870  1.00  0.00     0.037 A 
ATOM     60  C   UNL     1      -6.256   0.765   2.393  1.00  0.00     0.049 A 
ATOM     61  C   UNL     1      -3.830   3.834   6.413  1.00  0.00     0.074 A 
ATOM     62  C   UNL     1      -6.309   1.376   1.159  1.00  0.00     0.029 A 
ATOM     63  N   UNL     1      -6.143   1.757   3.331  1.00  0.00    -0.354 N 
ATOM     64  N   UNL     1      -4.130   4.651   5.442  1.00  0.00    -0.248 NA
ATOM     65  C   UNL     1      -4.906   2.947   6.841  1.00  0.00     0.031 C 
ATOM     66  C   UNL     1      -6.105   2.769   1.381  1.00  0.00     0.029 A 
ATOM     67  C   UNL     1      -5.929   2.980   2.745  1.00  0.00     0.049 A 
ATOM     68  H   UNL     1      -6.207   1.611   4.303  1.00  0.00     0.167 HD
ATOM     69  C   UNL     1      -5.229   4.065   4.852  1.00  0.00     0.074 A 
ATOM     70  C   UNL     1      -5.775   3.162   5.851  1.00  0.00     0.031 C 
ATOM     71  C   UNL     1      -5.376   4.083   3.499  1.00  0.00     0.037 A 
BRANCH  58  72
ATOM     72  C   UNL     1      -6.907  -1.247   3.849  1.00  0.00     0.064 A 
ATOM     73  C   UNL     1      -8.295  -1.146   3.693  1.00  0.00     0.173 A 
ATOM     74  C   UNL     1      -6.449  -1.767   5.081  1.00  0.00     0.173 A 
ATOM     75  F   UNL     1      -8.814  -0.594   2.586  1.00  0.00    -0.203 F 
ATOM     76  C   UNL     1      -9.169  -1.548   4.704  1.00  0.00     0.198 A 
ATOM     77  C   UNL     1      -7.322  -2.225   6.060  1.00  0.00     0.198 A 
ATOM     78  F   UNL     1      -5.152  -1.744   5.418  1.00  0.00    -0.203 F 
ATOM     79  F   UNL     1     -10.486  -1.353   4.558  1.00  0.00    -0.200 F 
ATOM     80  C   UNL     1      -8.683  -2.099   5.879  1.00  0.00     0.200 A 
ATOM     81  F   UNL     1      -6.830  -2.722   7.204  1.00  0.00    -0.200 F 
ATOM     82  F   UNL     1      -9.521  -2.460   6.858  1.00  0.00    -0.200 F 
ENDBRANCH  58  72
BRANCH  59  83
ATOM     83  C   UNL     1      -1.917   4.119   8.145  1.00  0.00     0.064 A 
ATOM     84  C   UNL     1      -2.521   5.199   8.811  1.00  0.00     0.173 A 
ATOM     85  C   UNL     1      -0.943   3.405   8.870  1.00  0.00     0.173 A 
ATOM     86  F   UNL     1      -3.488   5.909   8.214  1.00  0.00    -0.203 F 
ATOM     87  C   UNL     1      -2.189   5.527  10.129  1.00  0.00     0.198 A 
ATOM     88  C   UNL     1      -0.607   3.742  10.182  1.00  0.00     0.198 A 
ATOM     89  F   UNL     1      -0.370   2.309   8.349  1.00  0.00    -0.203 F 
ATOM     90  F   UNL     1      -2.835   6.523  10.753  1.00  0.00    -0.200 F 
ATOM     91  C   UNL     1      -1.240   4.792  10.817  1.00  0.00     0.200 A 
ATOM     92  F   UNL     1       0.281   3.003  10.857  1.00  0.00    -0.200 F 
ATOM     93  F   UNL     1      -0.969   5.064  12.101  1.00  0.00    -0.200 F 
ENDBRANCH  59  83
BRANCH  71  94
ATOM     94  C   UNL     1      -4.770   5.235   2.759  1.00  0.00     0.064 A 
ATOM     95  C   UNL     1      -3.392   5.476   2.640  1.00  0.00     0.173 A 
ATOM     96  C   UNL     1      -5.644   6.111   2.096  1.00  0.00     0.173 A 
ATOM     97  F   UNL     1      -2.497   4.647   3.195  1.00  0.00    -0.203 F 
ATOM     98  C   UNL     1      -2.918   6.570   1.915  1.00  0.00     0.198 A 
ATOM     99  C   UNL     1      -5.166   7.179   1.345  1.00  0.00     0.198 A 
ATOM    100  F   UNL     1      -6.970   5.910   2.155  1.00  0.00    -0.203 F 
ATOM    101  F   UNL     1      -1.600   6.804   1.831  1.00  0.00    -0.200 F 
ATOM    102  C   UNL     1      -3.804   7.415   1.262  1.00  0.00     0.200 A 
ATOM    103  F   UNL     1      -6.027   7.971   0.690  1.00  0.00    -0.200 F 
ATOM    104  F   UNL     1      -3.347   8.448   0.540  1.00  0.00    -0.200 F 
ENDBRANCH  71  94
ENDBRANCH  45  46
ENDBRANCH  38  40
ENDBRANCH  37  38
ENDBRANCH  36  37
ENDBRANCH  35  36
ENDBRANCH  34  35
ENDBRANCH  33  34
ENDBRANCH   1  33
TORSDOF 20
