REMARK SMILES CC(C)C[C@H](NC(=O)CNC(=O)[C@@H](NC(=O)OCc1ccccc1)C(C)C)C(=O)N[C@@H](C)C(=O)OCCOCCOC(=O)c1ccc(-c2c3nc(c(-c4c(F)c(F)c(F)c(F)c4F)c4ccc([nH]4)c(-c4c(F)c(F)c(F)c(F)c4F)c4nc(c(-c5c(F)c(F)c(F)c(F)c5F)c5ccc2[nH]5)C=C4)C=C3)cc1
REMARK SMILES IDX 33 1 34 2 31 3 32 4 30 5 28 6 29 7 5 9 4 10 2 11 1 12 3 13
REMARK SMILES IDX 6 14 7 15 8 17 9 18 10 19 11 20 12 22 13 23 14 24 15 25
REMARK SMILES IDX 16 27 17 28 18 29 19 30 20 31 24 32 21 33 23 34 22 35 25 36
REMARK SMILES IDX 26 37 27 38 35 39 36 40 37 41 38 42 39 43 40 44 41 45 42 46
REMARK SMILES IDX 43 47 44 48 45 49 106 50 46 51 105 52 47 53 48 54 49 55
REMARK SMILES IDX 99 56 50 57 104 58 98 59 100 60 51 61 103 62 97 63 96 64
REMARK SMILES IDX 52 66 84 67 64 68 83 69 65 70 68 71 82 72 101 73 66 74 67 75
REMARK SMILES IDX 81 77 102 78 69 79 53 80 54 81 62 82 55 83 56 84 60 85 63 86
REMARK SMILES IDX 57 87 58 88 61 89 59 90 85 91 86 92 94 93 87 94 88 95 92 96
REMARK SMILES IDX 95 97 89 98 90 99 93 100 91 101 70 102 71 103 79 104 72 105
REMARK SMILES IDX 73 106 77 107 80 108 74 109 75 110 78 111 76 112
REMARK H PARENT 30 8 6 16 10 21 14 26 100 65 68 76
REMARK Flexibility Score: inf
ROOT
ATOM      1  C   UNL     1      -3.841   3.482  -3.969  1.00  0.00     0.328 C 
ATOM      2  O   UNL     1      -3.207   3.812  -4.964  1.00  0.00    -0.250 OA
ENDROOT
BRANCH   1   3
ATOM      3  C   UNL     1      -3.477   2.254  -3.119  1.00  0.00     0.189 C 
ATOM      4  C   UNL     1      -3.700   1.000  -3.948  1.00  0.00     0.043 C 
BRANCH   3   5
ATOM      5  N   UNL     1      -4.186   2.153  -1.850  1.00  0.00    -0.341 N 
ATOM      6  C   UNL     1      -3.757   1.772  -0.619  1.00  0.00     0.243 C 
ATOM      7  O   UNL     1      -4.597   1.849   0.286  1.00  0.00    -0.273 OA
ATOM      8  H   UNL     1      -5.137   2.402  -1.892  1.00  0.00     0.164 HD
BRANCH   6   9
ATOM      9  C   UNL     1      -2.275   1.418  -0.269  1.00  0.00     0.171 C 
BRANCH   9  10
ATOM     10  C   UNL     1      -1.435   2.539   0.347  1.00  0.00     0.038 C 
BRANCH  10  11
ATOM     11  C   UNL     1      -2.155   3.663   1.089  1.00  0.00    -0.015 C 
ATOM     12  C   UNL     1      -2.636   3.308   2.487  1.00  0.00     0.007 C 
ATOM     13  C   UNL     1      -1.374   4.977   1.159  1.00  0.00     0.007 C 
ENDBRANCH  10  11
ENDBRANCH   9  10
BRANCH   9  14
ATOM     14  N   UNL     1      -1.562   0.605  -1.276  1.00  0.00    -0.343 N 
ATOM     15  C   UNL     1      -0.622   0.706  -2.242  1.00  0.00     0.240 C 
ATOM     16  H   UNL     1      -1.880  -0.326  -1.228  1.00  0.00     0.164 HD
ATOM     17  O   UNL     1      -0.432  -0.360  -2.851  1.00  0.00    -0.273 OA
BRANCH  15  18
ATOM     18  C   UNL     1       0.319   1.892  -2.579  1.00  0.00     0.216 C 
BRANCH  18  19
ATOM     19  N   UNL     1      -0.082   3.290  -2.637  1.00  0.00    -0.345 N 
ATOM     20  C   UNL     1       0.474   4.438  -2.156  1.00  0.00     0.243 C 
ATOM     21  H   UNL     1      -0.926   3.436  -3.123  1.00  0.00     0.164 HD
ATOM     22  O   UNL     1       0.085   5.463  -2.731  1.00  0.00    -0.273 OA
BRANCH  20  23
ATOM     23  C   UNL     1       1.407   4.553  -0.899  1.00  0.00     0.177 C 
BRANCH  23  24
ATOM     24  N   UNL     1       1.526   3.346  -0.097  1.00  0.00    -0.309 N 
ATOM     25  C   UNL     1       2.394   2.317  -0.122  1.00  0.00     0.408 C 
ATOM     26  H   UNL     1       0.837   3.266   0.602  1.00  0.00     0.167 HD
ATOM     27  O   UNL     1       2.091   1.249   0.394  1.00  0.00    -0.225 OA
BRANCH  25  28
ATOM     28  O   UNL     1       3.591   2.645  -0.632  1.00  0.00    -0.445 OA
BRANCH  28  29
ATOM     29  C   UNL     1       4.649   1.772  -0.227  1.00  0.00     0.270 C 
BRANCH  29  30
ATOM     30  C   UNL     1       5.141   2.020   1.192  1.00  0.00    -0.011 A 
ATOM     31  C   UNL     1       4.289   2.317   2.273  1.00  0.00     0.007 A 
ATOM     32  C   UNL     1       6.505   1.861   1.468  1.00  0.00     0.007 A 
ATOM     33  C   UNL     1       4.775   2.465   3.571  1.00  0.00     0.000 A 
ATOM     34  C   UNL     1       6.994   2.006   2.769  1.00  0.00     0.000 A 
ATOM     35  C   UNL     1       6.130   2.307   3.820  1.00  0.00     0.000 A 
ENDBRANCH  29  30
ENDBRANCH  28  29
ENDBRANCH  25  28
ENDBRANCH  23  24
BRANCH  23  36
ATOM     36  C   UNL     1       2.689   5.412  -1.026  1.00  0.00     0.015 C 
ATOM     37  C   UNL     1       2.422   6.777  -1.673  1.00  0.00     0.010 C 
ATOM     38  C   UNL     1       3.286   5.686   0.369  1.00  0.00     0.010 C 
ENDBRANCH  23  36
ENDBRANCH  20  23
ENDBRANCH  18  19
ENDBRANCH  15  18
ENDBRANCH   9  14
ENDBRANCH   6   9
ENDBRANCH   3   5
ENDBRANCH   1   3
BRANCH   1  39
ATOM     39  O   UNL     1      -4.926   4.138  -3.481  1.00  0.00    -0.462 OA
BRANCH  39  40
ATOM     40  C   UNL     1      -5.133   5.471  -3.992  1.00  0.00     0.261 C 
BRANCH  40  41
ATOM     41  C   UNL     1      -5.603   6.373  -2.846  1.00  0.00     0.202 C 
BRANCH  41  42
ATOM     42  O   UNL     1      -4.540   6.819  -1.992  1.00  0.00    -0.374 OA
BRANCH  42  43
ATOM     43  C   UNL     1      -3.977   5.836  -1.123  1.00  0.00     0.202 C 
BRANCH  43  44
ATOM     44  C   UNL     1      -4.633   5.766   0.254  1.00  0.00     0.261 C 
BRANCH  44  45
ATOM     45  O   UNL     1      -6.031   5.735   0.134  1.00  0.00    -0.460 OA
BRANCH  45  46
ATOM     46  C   UNL     1      -6.652   6.768   0.719  1.00  0.00     0.338 C 
ATOM     47  O   UNL     1      -6.212   7.681   1.385  1.00  0.00    -0.246 OA
BRANCH  46  48
ATOM     48  C   UNL     1      -7.994   6.641   0.192  1.00  0.00     0.060 A 
ATOM     49  C   UNL     1      -8.448   7.674  -0.625  1.00  0.00     0.016 A 
ATOM     50  C   UNL     1      -8.701   5.448   0.392  1.00  0.00     0.016 A 
ATOM     51  C   UNL     1      -9.687   7.541  -1.209  1.00  0.00     0.010 A 
ATOM     52  C   UNL     1      -9.934   5.309  -0.206  1.00  0.00     0.010 A 
ATOM     53  C   UNL     1     -10.436   6.381  -0.956  1.00  0.00    -0.014 A 
BRANCH  53  54
ATOM     54  C   UNL     1     -11.861   6.405  -1.271  1.00  0.00     0.031 A 
ATOM     55  C   UNL     1     -12.787   6.805  -0.168  1.00  0.00     0.074 A 
ATOM     56  C   UNL     1     -12.259   6.113  -2.514  1.00  0.00     0.049 A 
ATOM     57  N   UNL     1     -14.081   6.950  -0.188  1.00  0.00    -0.248 NA
ATOM     58  C   UNL     1     -12.168   7.074   1.145  1.00  0.00     0.031 C 
ATOM     59  C   UNL     1     -11.374   5.729  -3.615  1.00  0.00     0.029 A 
ATOM     60  N   UNL     1     -13.508   6.102  -3.057  1.00  0.00    -0.354 N 
ATOM     61  C   UNL     1     -14.428   7.325   1.101  1.00  0.00     0.074 A 
ATOM     62  C   UNL     1     -13.224   7.339   1.895  1.00  0.00     0.031 C 
ATOM     63  C   UNL     1     -12.117   5.528  -4.715  1.00  0.00     0.029 A 
ATOM     64  C   UNL     1     -13.520   5.751  -4.380  1.00  0.00     0.049 A 
ATOM     65  H   UNL     1     -14.321   6.325  -2.548  1.00  0.00     0.167 HD
ATOM     66  C   UNL     1     -15.656   7.645   1.565  1.00  0.00     0.037 A 
ATOM     67  C   UNL     1     -14.570   5.631  -5.210  1.00  0.00     0.037 A 
ATOM     68  C   UNL     1     -16.826   7.605   0.735  1.00  0.00     0.049 A 
ATOM     69  C   UNL     1     -15.931   5.958  -4.660  1.00  0.00     0.074 A 
ATOM     70  C   UNL     1     -18.133   7.907   1.060  1.00  0.00     0.029 A 
ATOM     71  N   UNL     1     -16.816   7.223  -0.603  1.00  0.00    -0.354 N 
ATOM     72  N   UNL     1     -16.262   6.352  -3.451  1.00  0.00    -0.248 NA
ATOM     73  C   UNL     1     -17.061   5.834  -5.584  1.00  0.00     0.031 C 
ATOM     74  C   UNL     1     -18.921   7.663  -0.071  1.00  0.00     0.029 A 
ATOM     75  C   UNL     1     -18.099   7.258  -1.115  1.00  0.00     0.049 A 
ATOM     76  H   UNL     1     -16.013   6.966  -1.111  1.00  0.00     0.167 HD
ATOM     77  C   UNL     1     -17.635   6.543  -3.470  1.00  0.00     0.074 A 
ATOM     78  C   UNL     1     -18.069   6.235  -4.821  1.00  0.00     0.031 C 
ATOM     79  C   UNL     1     -18.468   6.935  -2.472  1.00  0.00     0.037 A 
BRANCH  66  80
ATOM     80  C   UNL     1     -15.765   8.012   3.014  1.00  0.00     0.064 A 
ATOM     81  C   UNL     1     -15.209   9.197   3.523  1.00  0.00     0.173 A 
ATOM     82  C   UNL     1     -16.393   7.144   3.919  1.00  0.00     0.173 A 
ATOM     83  F   UNL     1     -14.569  10.048   2.706  1.00  0.00    -0.203 F 
ATOM     84  C   UNL     1     -15.245   9.480   4.887  1.00  0.00     0.198 A 
ATOM     85  C   UNL     1     -16.454   7.445   5.278  1.00  0.00     0.198 A 
ATOM     86  F   UNL     1     -16.930   5.992   3.489  1.00  0.00    -0.203 F 
ATOM     87  F   UNL     1     -14.647  10.583   5.357  1.00  0.00    -0.200 F 
ATOM     88  C   UNL     1     -15.871   8.606   5.762  1.00  0.00     0.200 A 
ATOM     89  F   UNL     1     -17.061   6.599   6.122  1.00  0.00    -0.200 F 
ATOM     90  F   UNL     1     -15.899   8.875   7.075  1.00  0.00    -0.200 F 
ENDBRANCH  66  80
BRANCH  67  91
ATOM     91  C   UNL     1     -14.351   5.225  -6.618  1.00  0.00     0.064 A 
ATOM     92  C   UNL     1     -14.522   6.136  -7.668  1.00  0.00     0.173 A 
ATOM     93  C   UNL     1     -13.912   3.932  -6.942  1.00  0.00     0.173 A 
ATOM     94  F   UNL     1     -14.944   7.383  -7.409  1.00  0.00    -0.203 F 
ATOM     95  C   UNL     1     -14.272   5.768  -8.989  1.00  0.00     0.198 A 
ATOM     96  C   UNL     1     -13.641   3.571  -8.260  1.00  0.00     0.198 A 
ATOM     97  F   UNL     1     -13.719   3.025  -5.972  1.00  0.00    -0.203 F 
ATOM     98  F   UNL     1     -14.466   6.653  -9.976  1.00  0.00    -0.200 F 
ATOM     99  C   UNL     1     -13.825   4.489  -9.283  1.00  0.00     0.200 A 
ATOM    100  F   UNL     1     -13.190   2.340  -8.537  1.00  0.00    -0.200 F 
ATOM    101  F   UNL     1     -13.571   4.140 -10.552  1.00  0.00    -0.200 F 
ENDBRANCH  67  91
BRANCH  79 102
ATOM    102  C   UNL     1     -19.917   7.064  -2.825  1.00  0.00     0.064 A 
ATOM    103  C   UNL     1     -20.724   5.936  -3.019  1.00  0.00     0.173 A 
ATOM    104  C   UNL     1     -20.511   8.332  -2.916  1.00  0.00     0.173 A 
ATOM    105  F   UNL     1     -20.193   4.705  -2.954  1.00  0.00    -0.203 F 
ATOM    106  C   UNL     1     -22.075   6.072  -3.319  1.00  0.00     0.198 A 
ATOM    107  C   UNL     1     -21.868   8.463  -3.184  1.00  0.00     0.198 A 
ATOM    108  F   UNL     1     -19.777   9.438  -2.726  1.00  0.00    -0.203 F 
ATOM    109  F   UNL     1     -22.822   4.983  -3.548  1.00  0.00    -0.200 F 
ATOM    110  C   UNL     1     -22.647   7.334  -3.393  1.00  0.00     0.200 A 
ATOM    111  F   UNL     1     -22.423   9.681  -3.240  1.00  0.00    -0.200 F 
ATOM    112  F   UNL     1     -23.951   7.463  -3.673  1.00  0.00    -0.200 F 
ENDBRANCH  79 102
ENDBRANCH  53  54
ENDBRANCH  46  48
ENDBRANCH  45  46
ENDBRANCH  44  45
ENDBRANCH  43  44
ENDBRANCH  42  43
ENDBRANCH  41  42
ENDBRANCH  40  41
ENDBRANCH  39  40
ENDBRANCH   1  39
TORSDOF 27
