REMARK SMILES O=C(CC1c2ccccc2CCc2ccccc21)OCCOCCOC(=O)c1ccc(-c2c3nc(c(-c4c(F)c(F)c(F)c(F)c4F)c4ccc([nH]4)c(-c4c(F)c(F)c(F)c(F)c4F)c4nc(c(-c5c(F)c(F)c(F)c(F)c5F)c5ccc2[nH]5)C=C4)C=C3)cc1
REMARK SMILES IDX 21 1 20 2 19 3 2 4 1 5 3 6 4 7 5 8 6 9 10 10 7 11 9 12 8 13
REMARK SMILES IDX 11 14 18 16 13 17 17 18 14 19 16 20 15 21 12 22 22 24 23 25
REMARK SMILES IDX 24 26 25 27 26 28 27 29 28 30 29 31 90 32 30 33 89 34 31 35
REMARK SMILES IDX 32 36 33 37 83 38 34 39 88 40 82 41 84 42 35 43 87 44 81 45
REMARK SMILES IDX 80 46 36 48 68 49 48 50 67 51 49 52 52 53 66 54 85 55 50 56
REMARK SMILES IDX 51 57 65 59 86 60 53 61 37 62 38 63 46 64 39 65 40 66 44 67
REMARK SMILES IDX 47 68 41 69 42 70 45 71 43 72 69 73 70 74 78 75 71 76 72 77
REMARK SMILES IDX 76 78 79 79 73 80 74 81 77 82 75 83 54 84 55 85 63 86 56 87
REMARK SMILES IDX 57 88 61 89 64 90 58 91 59 92 62 93 60 94
REMARK H PARENT 84 47 52 58
REMARK Flexibility Score: 90.00
ROOT
ATOM      1  C   UNL     1       5.055  -0.305   1.234  1.00  0.00     0.202 C 
ENDROOT
BRANCH   1   2
ATOM      2  C   UNL     1       4.624   0.858   0.346  1.00  0.00     0.261 C 
BRANCH   2   3
ATOM      3  O   UNL     1       3.217   1.069   0.241  1.00  0.00    -0.463 OA
BRANCH   3   4
ATOM      4  C   UNL     1       2.403   0.439  -0.631  1.00  0.00     0.306 C 
ATOM      5  O   UNL     1       1.214   0.757  -0.671  1.00  0.00    -0.252 OA
BRANCH   4   6
ATOM      6  C   UNL     1       2.912  -0.733  -1.441  1.00  0.00     0.135 C 
BRANCH   6   7
ATOM      7  C   UNL     1       3.827  -0.416  -2.626  1.00  0.00     0.061 C 
BRANCH   7   8
ATOM      8  C   UNL     1       3.148   0.597  -3.511  1.00  0.00    -0.037 A 
ATOM      9  C   UNL     1       3.524   1.950  -3.311  1.00  0.00     0.004 A 
ATOM     10  C   UNL     1       2.052   0.289  -4.327  1.00  0.00    -0.044 A 
ATOM     11  C   UNL     1       2.783   2.994  -3.845  1.00  0.00     0.000 A 
ATOM     12  C   UNL     1       1.318   1.370  -4.859  1.00  0.00     0.004 A 
ATOM     13  C   UNL     1       1.663   2.701  -4.605  1.00  0.00     0.000 A 
BRANCH  10  14
ATOM     14  C   UNL     1       1.594  -1.099  -4.728  1.00  0.00     0.040 CG0
ATOM     15  G   UNL     1       2.081  -2.402  -4.074  1.00  0.00     0.000 G0
ENDBRANCH  10  14
ENDBRANCH   7   8
BRANCH   7  16
ATOM     16  C   UNL     1       4.384  -1.655  -3.304  1.00  0.00    -0.037 A 
ATOM     17  C   UNL     1       3.570  -2.591  -3.957  1.00  0.00    -0.044 A 
ATOM     18  C   UNL     1       5.771  -1.908  -3.204  1.00  0.00     0.004 A 
ATOM     19  C   UNL     1       4.151  -3.778  -4.443  1.00  0.00     0.004 A 
ATOM     20  C   UNL     1       6.335  -3.075  -3.715  1.00  0.00     0.000 A 
ATOM     21  C   UNL     1       5.521  -4.017  -4.325  1.00  0.00     0.000 A 
BRANCH  17  22
ATOM     22  C   UNL     1       2.081  -2.402  -4.074  1.00  0.00     0.040 CG0
ATOM     23  G   UNL     1       1.594  -1.099  -4.728  1.00  0.00     0.000 G0
ENDBRANCH  17  22
ENDBRANCH   7  16
ENDBRANCH   6   7
ENDBRANCH   4   6
ENDBRANCH   3   4
ENDBRANCH   2   3
ENDBRANCH   1   2
BRANCH   1  24
ATOM     24  O   UNL     1       4.410  -1.564   1.125  1.00  0.00    -0.374 OA
BRANCH  24  25
ATOM     25  C   UNL     1       3.114  -1.716   1.722  1.00  0.00     0.202 C 
BRANCH  25  26
ATOM     26  C   UNL     1       3.063  -1.927   3.234  1.00  0.00     0.261 C 
BRANCH  26  27
ATOM     27  O   UNL     1       3.396  -0.716   3.927  1.00  0.00    -0.460 OA
BRANCH  27  28
ATOM     28  C   UNL     1       4.651  -0.678   4.421  1.00  0.00     0.338 C 
ATOM     29  O   UNL     1       5.467  -1.589   4.454  1.00  0.00    -0.246 OA
BRANCH  28  30
ATOM     30  C   UNL     1       5.014   0.723   4.696  1.00  0.00     0.060 A 
ATOM     31  C   UNL     1       6.274   1.158   4.256  1.00  0.00     0.016 A 
ATOM     32  C   UNL     1       4.161   1.579   5.394  1.00  0.00     0.016 A 
ATOM     33  C   UNL     1       6.735   2.414   4.612  1.00  0.00     0.010 A 
ATOM     34  C   UNL     1       4.632   2.835   5.772  1.00  0.00     0.010 A 
ATOM     35  C   UNL     1       5.946   3.214   5.446  1.00  0.00    -0.014 A 
BRANCH  35  36
ATOM     36  C   UNL     1       6.623   4.270   6.224  1.00  0.00     0.031 A 
ATOM     37  C   UNL     1       7.067   3.925   7.620  1.00  0.00     0.074 A 
ATOM     38  C   UNL     1       6.905   5.460   5.675  1.00  0.00     0.049 A 
ATOM     39  N   UNL     1       7.689   4.661   8.503  1.00  0.00    -0.248 NA
ATOM     40  C   UNL     1       6.764   2.560   8.085  1.00  0.00     0.031 C 
ATOM     41  C   UNL     1       6.570   5.861   4.311  1.00  0.00     0.029 A 
ATOM     42  N   UNL     1       7.547   6.546   6.204  1.00  0.00    -0.354 N 
ATOM     43  C   UNL     1       7.832   3.856   9.627  1.00  0.00     0.074 A 
ATOM     44  C   UNL     1       7.205   2.589   9.332  1.00  0.00     0.031 C 
ATOM     45  C   UNL     1       7.011   7.115   4.108  1.00  0.00     0.029 A 
ATOM     46  C   UNL     1       7.629   7.606   5.338  1.00  0.00     0.049 A 
ATOM     47  H   UNL     1       7.914   6.565   7.117  1.00  0.00     0.167 HD
ATOM     48  C   UNL     1       8.443   4.148  10.798  1.00  0.00     0.037 A 
ATOM     49  C   UNL     1       8.138   8.836   5.536  1.00  0.00     0.037 A 
ATOM     50  C   UNL     1       9.072   5.412  11.070  1.00  0.00     0.049 A 
ATOM     51  C   UNL     1       8.761   9.156   6.871  1.00  0.00     0.074 A 
ATOM     52  C   UNL     1       9.735   5.820  12.212  1.00  0.00     0.029 A 
ATOM     53  N   UNL     1       9.105   6.479  10.181  1.00  0.00    -0.354 N 
ATOM     54  N   UNL     1       8.911   8.389   7.925  1.00  0.00    -0.248 NA
ATOM     55  C   UNL     1       9.297  10.513   7.036  1.00  0.00     0.031 C 
ATOM     56  C   UNL     1      10.114   7.155  12.039  1.00  0.00     0.029 A 
ATOM     57  C   UNL     1       9.757   7.555  10.760  1.00  0.00     0.049 A 
ATOM     58  H   UNL     1       8.722   6.471   9.274  1.00  0.00     0.167 HD
ATOM     59  C   UNL     1       9.598   9.153   8.861  1.00  0.00     0.074 A 
ATOM     60  C   UNL     1       9.841  10.441   8.242  1.00  0.00     0.031 C 
ATOM     61  C   UNL     1       9.999   8.821  10.114  1.00  0.00     0.037 A 
BRANCH  48  62
ATOM     62  C   UNL     1       8.416   3.103  11.876  1.00  0.00     0.064 A 
ATOM     63  C   UNL     1       9.125   1.897  11.767  1.00  0.00     0.173 A 
ATOM     64  C   UNL     1       7.669   3.318  13.045  1.00  0.00     0.173 A 
ATOM     65  F   UNL     1       9.838   1.629  10.662  1.00  0.00    -0.203 F 
ATOM     66  C   UNL     1       9.062   0.933  12.772  1.00  0.00     0.198 A 
ATOM     67  C   UNL     1       7.638   2.368  14.063  1.00  0.00     0.198 A 
ATOM     68  F   UNL     1       6.969   4.451  13.202  1.00  0.00    -0.203 F 
ATOM     69  F   UNL     1       9.699  -0.236  12.618  1.00  0.00    -0.200 F 
ATOM     70  C   UNL     1       8.325   1.173  13.922  1.00  0.00     0.200 A 
ATOM     71  F   UNL     1       6.934   2.608  15.178  1.00  0.00    -0.200 F 
ATOM     72  F   UNL     1       8.270   0.248  14.890  1.00  0.00    -0.200 F 
ENDBRANCH  48  62
BRANCH  49  73
ATOM     73  C   UNL     1       8.094   9.845   4.446  1.00  0.00     0.064 A 
ATOM     74  C   UNL     1       9.269  10.300   3.835  1.00  0.00     0.173 A 
ATOM     75  C   UNL     1       6.877  10.384   4.003  1.00  0.00     0.173 A 
ATOM     76  F   UNL     1      10.459   9.828   4.236  1.00  0.00    -0.203 F 
ATOM     77  C   UNL     1       9.233  11.276   2.840  1.00  0.00     0.198 A 
ATOM     78  C   UNL     1       6.839  11.336   2.986  1.00  0.00     0.198 A 
ATOM     79  F   UNL     1       5.722   9.980   4.551  1.00  0.00    -0.203 F 
ATOM     80  F   UNL     1      10.376  11.731   2.310  1.00  0.00    -0.200 F 
ATOM     81  C   UNL     1       8.018  11.789   2.413  1.00  0.00     0.200 A 
ATOM     82  F   UNL     1       5.661  11.817   2.565  1.00  0.00    -0.200 F 
ATOM     83  F   UNL     1       7.983  12.725   1.455  1.00  0.00    -0.200 F 
ENDBRANCH  49  73
BRANCH  61  84
ATOM     84  C   UNL     1      10.806   9.840  10.869  1.00  0.00     0.064 A 
ATOM     85  C   UNL     1      10.247  11.040  11.331  1.00  0.00     0.173 A 
ATOM     86  C   UNL     1      12.159   9.595  11.150  1.00  0.00     0.173 A 
ATOM     87  F   UNL     1       8.960  11.328  11.081  1.00  0.00    -0.203 F 
ATOM     88  C   UNL     1      11.025  11.977  12.007  1.00  0.00     0.198 A 
ATOM     89  C   UNL     1      12.922  10.515  11.862  1.00  0.00     0.198 A 
ATOM     90  F   UNL     1      12.740   8.456  10.743  1.00  0.00    -0.203 F 
ATOM     91  F   UNL     1      10.487  13.148  12.377  1.00  0.00    -0.200 F 
ATOM     92  C   UNL     1      12.359  11.711  12.277  1.00  0.00     0.200 A 
ATOM     93  F   UNL     1      14.205  10.246  12.140  1.00  0.00    -0.200 F 
ATOM     94  F   UNL     1      13.104  12.613  12.929  1.00  0.00    -0.200 F 
ENDBRANCH  61  84
ENDBRANCH  35  36
ENDBRANCH  28  30
ENDBRANCH  27  28
ENDBRANCH  26  27
ENDBRANCH  25  26
ENDBRANCH  24  25
ENDBRANCH   1  24
TORSDOF 15
