REMARK SMILES COc1cc([C@@H]2CC[NH2+][C@@H]2C(=O)OCCOCCOC(=O)c2ccc(-c3c4nc(c(-c5c(F)c(F)c(F)c(F)c5F)c5ccc([nH]5)c(-c5c(F)c(F)c(F)c(F)c5F)c5nc(c(-c6c(F)c(F)c(F)c(F)c6F)c6ccc3[nH]6)C=C5)C=C4)cc2)cc(OC)c1OC
REMARK SMILES IDX 16 1 15 2 14 3 13 4 11 5 12 6 10 7 6 8 7 9 8 10 9 11 5 14
REMARK SMILES IDX 3 15 4 16 89 17 86 18 85 19 2 20 1 21 90 22 91 23 87 24
REMARK SMILES IDX 88 25 17 26 18 27 19 28 20 29 21 30 22 31 23 32 84 33 24 34
REMARK SMILES IDX 83 35 25 36 26 37 27 38 77 39 28 40 82 41 76 42 78 43 29 44
REMARK SMILES IDX 81 45 75 46 74 47 30 49 62 50 42 51 61 52 43 53 46 54 60 55
REMARK SMILES IDX 79 56 44 57 45 58 59 60 80 61 47 62 31 63 32 64 40 65 33 66
REMARK SMILES IDX 34 67 38 68 41 69 35 70 36 71 39 72 37 73 63 74 64 75 72 76
REMARK SMILES IDX 65 77 66 78 70 79 73 80 67 81 68 82 71 83 69 84 48 85 49 86
REMARK SMILES IDX 57 87 50 88 51 89 55 90 58 91 52 92 53 93 56 94 54 95
REMARK H PARENT 9 12 9 13 78 48 46 59
REMARK Flexibility Score: inf
ROOT
ATOM      1  O   UNL     1      -0.406   7.542   0.360  1.00  0.00    -0.374 OA
ENDROOT
BRANCH   1   2
ATOM      2  C   UNL     1       1.007   7.411   0.224  1.00  0.00     0.202 C 
BRANCH   2   3
ATOM      3  C   UNL     1       1.518   6.158  -0.491  1.00  0.00     0.261 C 
BRANCH   3   4
ATOM      4  O   UNL     1       1.101   6.101  -1.861  1.00  0.00    -0.459 OA
BRANCH   4   5
ATOM      5  C   UNL     1       0.045   5.280  -2.120  1.00  0.00     0.365 C 
ATOM      6  O   UNL     1      -0.577   4.648  -1.270  1.00  0.00    -0.245 OA
BRANCH   5   7
ATOM      7  C   UNL     1      -0.317   5.216  -3.607  1.00  0.00     0.301 C 
ATOM      8  C   UNL     1      -0.033   3.843  -4.238  1.00  0.00     0.095 C 
ATOM      9  C   UNL     1       0.391   4.199  -5.661  1.00  0.00     0.076 C 
ATOM     10  C   UNL     1       1.000   5.584  -5.564  1.00  0.00     0.262 C 
ATOM     11  N   UNL     1       0.336   6.262  -4.451  1.00  0.00    -0.334 N 
ATOM     12  H   UNL     1      -0.366   6.910  -4.807  1.00  0.00     0.347 HD
ATOM     13  H   UNL     1       1.012   6.793  -3.902  1.00  0.00     0.347 HD
BRANCH   8  14
ATOM     14  C   UNL     1       0.958   2.979  -3.476  1.00  0.00    -0.030 A 
ATOM     15  C   UNL     1       1.368   1.088  -1.989  1.00  0.00     0.164 A 
ATOM     16  C   UNL     1       0.517   1.815  -2.839  1.00  0.00     0.055 A 
ATOM     17  C   UNL     1       2.705   1.476  -1.784  1.00  0.00     0.203 A 
ATOM     18  C   UNL     1       3.154   2.645  -2.429  1.00  0.00     0.164 A 
ATOM     19  C   UNL     1       2.284   3.368  -3.264  1.00  0.00     0.055 A 
BRANCH  15  20
ATOM     20  O   UNL     1       0.836  -0.032  -1.399  1.00  0.00    -0.493 OA
ATOM     21  C   UNL     1       0.018   0.316  -0.278  1.00  0.00     0.278 C 
ENDBRANCH  15  20
BRANCH  17  22
ATOM     22  O   UNL     1       3.605   0.841  -0.974  1.00  0.00    -0.490 OA
ATOM     23  C   UNL     1       3.323  -0.448  -0.458  1.00  0.00     0.278 C 
ENDBRANCH  17  22
BRANCH  18  24
ATOM     24  O   UNL     1       4.382   3.257  -2.356  1.00  0.00    -0.493 OA
ATOM     25  C   UNL     1       5.408   2.667  -1.576  1.00  0.00     0.278 C 
ENDBRANCH  18  24
ENDBRANCH   8  14
ENDBRANCH   5   7
ENDBRANCH   4   5
ENDBRANCH   3   4
ENDBRANCH   2   3
ENDBRANCH   1   2
BRANCH   1  26
ATOM     26  C   UNL     1      -1.137   8.004  -0.776  1.00  0.00     0.202 C 
BRANCH  26  27
ATOM     27  C   UNL     1      -1.093   9.511  -1.045  1.00  0.00     0.261 C 
BRANCH  27  28
ATOM     28  O   UNL     1       0.214   9.941  -1.464  1.00  0.00    -0.460 OA
BRANCH  28  29
ATOM     29  C   UNL     1       0.861  10.731  -0.574  1.00  0.00     0.338 C 
ATOM     30  O   UNL     1       0.429  11.177   0.474  1.00  0.00    -0.246 OA
BRANCH  29  31
ATOM     31  C   UNL     1       2.275  10.879  -0.965  1.00  0.00     0.060 A 
ATOM     32  C   UNL     1       3.243  10.602   0.009  1.00  0.00     0.016 A 
ATOM     33  C   UNL     1       2.644  11.375  -2.216  1.00  0.00     0.016 A 
ATOM     34  C   UNL     1       4.583  10.883  -0.241  1.00  0.00     0.010 A 
ATOM     35  C   UNL     1       3.989  11.667  -2.463  1.00  0.00     0.010 A 
ATOM     36  C   UNL     1       4.955  11.461  -1.461  1.00  0.00    -0.014 A 
BRANCH  36  37
ATOM     37  C   UNL     1       6.324  12.004  -1.621  1.00  0.00     0.031 A 
ATOM     38  C   UNL     1       6.553  13.472  -1.391  1.00  0.00     0.074 A 
ATOM     39  C   UNL     1       7.349  11.200  -1.950  1.00  0.00     0.049 A 
ATOM     40  N   UNL     1       7.651  14.172  -1.512  1.00  0.00    -0.248 NA
ATOM     41  C   UNL     1       5.381  14.257  -0.971  1.00  0.00     0.031 C 
ATOM     42  C   UNL     1       7.252   9.760  -2.170  1.00  0.00     0.029 A 
ATOM     43  N   UNL     1       8.671  11.491  -2.170  1.00  0.00    -0.354 N 
ATOM     44  C   UNL     1       7.301  15.478  -1.196  1.00  0.00     0.074 A 
ATOM     45  C   UNL     1       5.885  15.480  -0.899  1.00  0.00     0.031 C 
ATOM     46  C   UNL     1       8.463   9.292  -2.518  1.00  0.00     0.029 A 
ATOM     47  C   UNL     1       9.409  10.406  -2.570  1.00  0.00     0.049 A 
ATOM     48  H   UNL     1       9.054  12.390  -2.053  1.00  0.00     0.167 HD
ATOM     49  C   UNL     1       8.093  16.576  -1.153  1.00  0.00     0.037 A 
ATOM     50  C   UNL     1      10.697  10.329  -2.958  1.00  0.00     0.037 A 
ATOM     51  C   UNL     1       9.503  16.568  -1.441  1.00  0.00     0.049 A 
ATOM     52  C   UNL     1      11.548  11.571  -2.946  1.00  0.00     0.074 A 
ATOM     53  C   UNL     1      10.402  17.617  -1.381  1.00  0.00     0.029 A 
ATOM     54  N   UNL     1      10.215  15.451  -1.855  1.00  0.00    -0.354 N 
ATOM     55  N   UNL     1      11.222  12.794  -2.606  1.00  0.00    -0.248 NA
ATOM     56  C   UNL     1      12.948  11.420  -3.367  1.00  0.00     0.031 C 
ATOM     57  C   UNL     1      11.649  17.146  -1.807  1.00  0.00     0.029 A 
ATOM     58  C   UNL     1      11.537  15.793  -2.085  1.00  0.00     0.049 A 
ATOM     59  H   UNL     1       9.836  14.550  -1.968  1.00  0.00     0.167 HD
ATOM     60  C   UNL     1      12.375  13.554  -2.752  1.00  0.00     0.074 A 
ATOM     61  C   UNL     1      13.415  12.650  -3.200  1.00  0.00     0.031 C 
ATOM     62  C   UNL     1      12.558  14.879  -2.532  1.00  0.00     0.037 A 
BRANCH  49  63
ATOM     63  C   UNL     1       7.443  17.884  -0.812  1.00  0.00     0.064 A 
ATOM     64  C   UNL     1       7.003  18.174   0.488  1.00  0.00     0.173 A 
ATOM     65  C   UNL     1       7.278  18.869  -1.797  1.00  0.00     0.173 A 
ATOM     66  F   UNL     1       7.125  17.260   1.462  1.00  0.00    -0.203 F 
ATOM     67  C   UNL     1       6.396  19.393   0.783  1.00  0.00     0.198 A 
ATOM     68  C   UNL     1       6.695  20.096  -1.493  1.00  0.00     0.198 A 
ATOM     69  F   UNL     1       7.684  18.642  -3.055  1.00  0.00    -0.203 F 
ATOM     70  F   UNL     1       5.941  19.631   2.021  1.00  0.00    -0.200 F 
ATOM     71  C   UNL     1       6.248  20.354  -0.206  1.00  0.00     0.200 A 
ATOM     72  F   UNL     1       6.561  21.027  -2.447  1.00  0.00    -0.200 F 
ATOM     73  F   UNL     1       5.667  21.527   0.080  1.00  0.00    -0.200 F 
ENDBRANCH  49  63
BRANCH  50  74
ATOM     74  C   UNL     1      11.249   9.027  -3.409  1.00  0.00     0.064 A 
ATOM     75  C   UNL     1      12.184   8.327  -2.636  1.00  0.00     0.173 A 
ATOM     76  C   UNL     1      10.843   8.453  -4.624  1.00  0.00     0.173 A 
ATOM     77  F   UNL     1      12.621   8.848  -1.480  1.00  0.00    -0.203 F 
ATOM     78  C   UNL     1      12.700   7.106  -3.065  1.00  0.00     0.198 A 
ATOM     79  C   UNL     1      11.341   7.220  -5.039  1.00  0.00     0.198 A 
ATOM     80  F   UNL     1       9.952   9.086  -5.401  1.00  0.00    -0.203 F 
ATOM     81  F   UNL     1      13.620   6.473  -2.324  1.00  0.00    -0.200 F 
ATOM     82  C   UNL     1      12.273   6.550  -4.262  1.00  0.00     0.200 A 
ATOM     83  F   UNL     1      10.918   6.683  -6.191  1.00  0.00    -0.200 F 
ATOM     84  F   UNL     1      12.764   5.372  -4.669  1.00  0.00    -0.200 F 
ENDBRANCH  50  74
BRANCH  62  85
ATOM     85  C   UNL     1      13.935  15.432  -2.753  1.00  0.00     0.064 A 
ATOM     86  C   UNL     1      14.453  15.617  -4.043  1.00  0.00     0.173 A 
ATOM     87  C   UNL     1      14.724  15.830  -1.663  1.00  0.00     0.173 A 
ATOM     88  F   UNL     1      13.743  15.239  -5.116  1.00  0.00    -0.203 F 
ATOM     89  C   UNL     1      15.720  16.164  -4.232  1.00  0.00     0.198 A 
ATOM     90  C   UNL     1      15.978  16.401  -1.857  1.00  0.00     0.198 A 
ATOM     91  F   UNL     1      14.270  15.680  -0.409  1.00  0.00    -0.203 F 
ATOM     92  F   UNL     1      16.212  16.297  -5.472  1.00  0.00    -0.200 F 
ATOM     93  C   UNL     1      16.477  16.562  -3.141  1.00  0.00     0.200 A 
ATOM     94  F   UNL     1      16.704  16.797  -0.802  1.00  0.00    -0.200 F 
ATOM     95  F   UNL     1      17.692  17.098  -3.326  1.00  0.00    -0.200 F 
ENDBRANCH  62  85
ENDBRANCH  36  37
ENDBRANCH  29  31
ENDBRANCH  28  29
ENDBRANCH  27  28
ENDBRANCH  26  27
ENDBRANCH   1  26
TORSDOF 18
