REMARK SMILES O=C(/C=C\c1ccc([N+](=O)[O-])cc1)OCCOCCOC(=O)c1ccc(-c2c3nc(c(-c4c(F)c(F)c(F)c(F)c4F)c4ccc([nH]4)c(-c4c(F)c(F)c(F)c(F)c4F)c4nc(c(-c5c(F)c(F)c(F)c(F)c5F)c5ccc2[nH]5)C=C4)C=C3)cc1
REMARK SMILES IDX 17 1 16 2 15 3 14 4 2 5 1 6 3 7 4 8 5 9 6 10 13 11 7 12
REMARK SMILES IDX 12 13 8 14 9 15 10 16 11 17 18 18 19 19 20 20 21 21 22 22
REMARK SMILES IDX 23 23 24 24 85 25 25 26 84 27 26 28 27 29 28 30 78 31 29 32
REMARK SMILES IDX 83 33 77 34 79 35 30 36 82 37 76 38 75 39 31 41 63 42 43 43
REMARK SMILES IDX 62 44 44 45 47 46 61 47 80 48 45 49 46 50 60 52 81 53 48 54
REMARK SMILES IDX 32 55 33 56 41 57 34 58 35 59 39 60 42 61 36 62 37 63 40 64
REMARK SMILES IDX 38 65 64 66 65 67 73 68 66 69 67 70 71 71 74 72 68 73 69 74
REMARK SMILES IDX 72 75 70 76 49 77 50 78 58 79 51 80 52 81 56 82 59 83 53 84
REMARK SMILES IDX 54 85 57 86 55 87
REMARK H PARENT 79 40 47 51
REMARK Flexibility Score: inf
ROOT
ATOM      1  O   UNL     1       2.269   0.437   2.117  1.00  0.00    -0.374 OA
ENDROOT
BRANCH   1   2
ATOM      2  C   UNL     1       3.455   0.573   1.345  1.00  0.00     0.202 C 
BRANCH   2   3
ATOM      3  C   UNL     1       3.245   0.709  -0.163  1.00  0.00     0.261 C 
BRANCH   3   4
ATOM      4  O   UNL     1       2.635  -0.422  -0.806  1.00  0.00    -0.460 OA
BRANCH   4   5
ATOM      5  C   UNL     1       3.040  -1.702  -0.834  1.00  0.00     0.330 C 
ATOM      6  O   UNL     1       2.319  -2.555  -1.349  1.00  0.00    -0.247 OA
BRANCH   5   7
ATOM      7  C   UNL     1       4.244  -2.180  -0.134  1.00  0.00     0.094 C 
ATOM      8  C   UNL     1       5.565  -1.931  -0.123  1.00  0.00     0.015 C 
BRANCH   8   9
ATOM      9  C   UNL     1       6.452  -0.980  -0.801  1.00  0.00    -0.025 A 
ATOM     10  C   UNL     1       7.329  -1.448  -1.792  1.00  0.00     0.015 A 
ATOM     11  C   UNL     1       6.627   0.321  -0.316  1.00  0.00     0.015 A 
ATOM     12  C   UNL     1       8.337  -0.622  -2.310  1.00  0.00     0.086 A 
ATOM     13  C   UNL     1       7.601   1.169  -0.852  1.00  0.00     0.086 A 
ATOM     14  C   UNL     1       8.458   0.692  -1.846  1.00  0.00     0.269 A 
BRANCH  14  15
ATOM     15  N   UNL     1       9.512   1.569  -2.368  1.00  0.00     0.062 N 
ATOM     16  O   UNL     1      10.406   1.052  -3.051  1.00  0.00    -0.258 OA
ATOM     17  O   UNL     1       9.439   2.775  -2.092  1.00  0.00    -0.258 OA
ENDBRANCH  14  15
ENDBRANCH   8   9
ENDBRANCH   5   7
ENDBRANCH   4   5
ENDBRANCH   3   4
ENDBRANCH   2   3
ENDBRANCH   1   2
BRANCH   1  18
ATOM     18  C   UNL     1       1.356   1.537   2.112  1.00  0.00     0.202 C 
BRANCH  18  19
ATOM     19  C   UNL     1       1.942   2.877   2.575  1.00  0.00     0.261 C 
BRANCH  19  20
ATOM     20  O   UNL     1       2.425   3.634   1.442  1.00  0.00    -0.460 OA
BRANCH  20  21
ATOM     21  C   UNL     1       3.722   4.016   1.477  1.00  0.00     0.338 C 
ATOM     22  O   UNL     1       4.556   3.742   2.321  1.00  0.00    -0.246 OA
BRANCH  21  23
ATOM     23  C   UNL     1       4.057   4.744   0.242  1.00  0.00     0.060 A 
ATOM     24  C   UNL     1       5.122   4.276  -0.536  1.00  0.00     0.016 A 
ATOM     25  C   UNL     1       3.412   5.936  -0.080  1.00  0.00     0.016 A 
ATOM     26  C   UNL     1       5.577   5.022  -1.624  1.00  0.00     0.010 A 
ATOM     27  C   UNL     1       3.865   6.680  -1.173  1.00  0.00     0.010 A 
ATOM     28  C   UNL     1       4.966   6.243  -1.935  1.00  0.00    -0.014 A 
BRANCH  28  29
ATOM     29  C   UNL     1       5.517   7.147  -2.974  1.00  0.00     0.031 A 
ATOM     30  C   UNL     1       6.167   8.430  -2.546  1.00  0.00     0.074 A 
ATOM     31  C   UNL     1       5.394   6.864  -4.282  1.00  0.00     0.049 A 
ATOM     32  N   UNL     1       6.425   9.508  -3.240  1.00  0.00    -0.248 NA
ATOM     33  C   UNL     1       6.565   8.508  -1.133  1.00  0.00     0.031 C 
ATOM     34  C   UNL     1       4.867   5.619  -4.832  1.00  0.00     0.029 A 
ATOM     35  N   UNL     1       5.677   7.631  -5.385  1.00  0.00    -0.354 N 
ATOM     36  C   UNL     1       6.958  10.416  -2.335  1.00  0.00     0.074 A 
ATOM     37  C   UNL     1       7.002   9.756  -1.047  1.00  0.00     0.031 C 
ATOM     38  C   UNL     1       4.837   5.715  -6.171  1.00  0.00     0.029 A 
ATOM     39  C   UNL     1       5.269   7.055  -6.562  1.00  0.00     0.049 A 
ATOM     40  H   UNL     1       6.126   8.506  -5.337  1.00  0.00     0.167 HD
ATOM     41  C   UNL     1       7.352  11.692  -2.562  1.00  0.00     0.037 A 
ATOM     42  C   UNL     1       5.188   7.573  -7.804  1.00  0.00     0.037 A 
ATOM     43  C   UNL     1       7.332  12.322  -3.856  1.00  0.00     0.049 A 
ATOM     44  C   UNL     1       5.588   9.006  -8.035  1.00  0.00     0.074 A 
ATOM     45  C   UNL     1       7.707  13.609  -4.200  1.00  0.00     0.029 A 
ATOM     46  N   UNL     1       6.920  11.700  -5.026  1.00  0.00    -0.354 N 
ATOM     47  N   UNL     1       6.019   9.893  -7.171  1.00  0.00    -0.248 NA
ATOM     48  C   UNL     1       5.470   9.516  -9.408  1.00  0.00     0.031 C 
ATOM     49  C   UNL     1       7.485  13.777  -5.571  1.00  0.00     0.029 A 
ATOM     50  C   UNL     1       7.016  12.580  -6.091  1.00  0.00     0.049 A 
ATOM     51  H   UNL     1       6.605  10.769  -5.090  1.00  0.00     0.167 HD
ATOM     52  C   UNL     1       6.239  11.058  -7.894  1.00  0.00     0.074 A 
ATOM     53  C   UNL     1       5.900  10.763  -9.271  1.00  0.00     0.031 C 
ATOM     54  C   UNL     1       6.679  12.263  -7.456  1.00  0.00     0.037 A 
BRANCH  41  55
ATOM     55  C   UNL     1       7.768  12.505  -1.371  1.00  0.00     0.064 A 
ATOM     56  C   UNL     1       8.970  12.271  -0.688  1.00  0.00     0.173 A 
ATOM     57  C   UNL     1       6.935  13.531  -0.899  1.00  0.00     0.173 A 
ATOM     58  F   UNL     1       9.794  11.290  -1.087  1.00  0.00    -0.203 F 
ATOM     59  C   UNL     1       9.305  13.011   0.445  1.00  0.00     0.198 A 
ATOM     60  C   UNL     1       7.286  14.287   0.215  1.00  0.00     0.198 A 
ATOM     61  F   UNL     1       5.774  13.798  -1.517  1.00  0.00    -0.203 F 
ATOM     62  F   UNL     1      10.429  12.729   1.119  1.00  0.00    -0.200 F 
ATOM     63  C   UNL     1       8.464  14.019   0.893  1.00  0.00     0.200 A 
ATOM     64  F   UNL     1       6.476  15.267   0.641  1.00  0.00    -0.200 F 
ATOM     65  F   UNL     1       8.784  14.723   1.988  1.00  0.00    -0.200 F 
ENDBRANCH  41  55
BRANCH  42  66
ATOM     66  C   UNL     1       4.647   6.736  -8.905  1.00  0.00     0.064 A 
ATOM     67  C   UNL     1       5.480   6.253  -9.922  1.00  0.00     0.173 A 
ATOM     68  C   UNL     1       3.293   6.367  -8.937  1.00  0.00     0.173 A 
ATOM     69  F   UNL     1       6.774   6.602  -9.949  1.00  0.00    -0.203 F 
ATOM     70  C   UNL     1       4.981   5.426 -10.927  1.00  0.00     0.198 A 
ATOM     71  C   UNL     1       2.801   5.519  -9.926  1.00  0.00     0.198 A 
ATOM     72  F   UNL     1       2.454   6.807  -7.987  1.00  0.00    -0.203 F 
ATOM     73  F   UNL     1       5.793   4.994 -11.901  1.00  0.00    -0.200 F 
ATOM     74  C   UNL     1       3.645   5.050 -10.921  1.00  0.00     0.200 A 
ATOM     75  F   UNL     1       1.514   5.147  -9.908  1.00  0.00    -0.200 F 
ATOM     76  F   UNL     1       3.171   4.237 -11.875  1.00  0.00    -0.200 F 
ENDBRANCH  42  66
BRANCH  54  77
ATOM     77  C   UNL     1       6.856  13.347  -8.478  1.00  0.00     0.064 A 
ATOM     78  C   UNL     1       5.760  14.037  -9.014  1.00  0.00     0.173 A 
ATOM     79  C   UNL     1       8.143  13.741  -8.875  1.00  0.00     0.173 A 
ATOM     80  F   UNL     1       4.511  13.688  -8.674  1.00  0.00    -0.203 F 
ATOM     81  C   UNL     1       5.946  15.078  -9.921  1.00  0.00     0.198 A 
ATOM     82  C   UNL     1       8.326  14.795  -9.765  1.00  0.00     0.198 A 
ATOM     83  F   UNL     1       9.223  13.113  -8.386  1.00  0.00    -0.203 F 
ATOM     84  F   UNL     1       4.885  15.707 -10.443  1.00  0.00    -0.200 F 
ATOM     85  C   UNL     1       7.228  15.461 -10.289  1.00  0.00     0.200 A 
ATOM     86  F   UNL     1       9.565  15.171 -10.111  1.00  0.00    -0.200 F 
ATOM     87  F   UNL     1       7.405  16.470 -11.153  1.00  0.00    -0.200 F 
ENDBRANCH  54  77
ENDBRANCH  28  29
ENDBRANCH  21  23
ENDBRANCH  20  21
ENDBRANCH  19  20
ENDBRANCH  18  19
ENDBRANCH   1  18
TORSDOF 16
