REMARK SMILES C[C@H]1[C@H](C(=O)OCCOCCOC(=O)c2ccc(-c3c4nc(c(-c5c(F)c(F)c(F)c(F)c5F)c5ccc([nH]5)c(-c5c(F)c(F)c(F)c(F)c5F)c5nc(c(-c6c(F)c(F)c(F)c(F)c6F)c6ccc3[nH]6)C=C5)C=C4)cc2)CCN1C(=O)COc1ccc(F)cc1Br
REMARK SMILES IDX 8 1 7 2 6 3 4 4 5 5 3 6 1 7 2 8 80 9 78 10 79 11 81 12 82 13
REMARK SMILES IDX 83 14 84 15 85 16 86 17 91 18 87 19 90 20 92 21 88 22 89 23
REMARK SMILES IDX 9 24 10 25 11 26 12 27 13 28 14 29 15 30 16 31 77 32 17 33
REMARK SMILES IDX 76 34 18 35 19 36 20 37 70 38 21 39 75 40 69 41 71 42 22 43
REMARK SMILES IDX 74 44 68 45 67 46 23 48 55 49 35 50 54 51 36 52 39 53 53 54
REMARK SMILES IDX 72 55 37 56 38 57 52 59 73 60 40 61 24 62 25 63 33 64 26 65
REMARK SMILES IDX 27 66 31 67 34 68 28 69 29 70 32 71 30 72 56 73 57 74 65 75
REMARK SMILES IDX 58 76 59 77 63 78 66 79 60 80 61 81 64 82 62 83 41 84 42 85
REMARK SMILES IDX 50 86 43 87 44 88 48 89 51 90 45 91 46 92 49 93 47 94
REMARK H PARENT 71 47 39 58
REMARK Flexibility Score: inf
ROOT
ATOM      1  C   UNL     1       0.503   3.838   3.436  1.00  0.00     0.202 C 
ENDROOT
BRANCH   1   2
ATOM      2  C   UNL     1      -0.836   3.525   2.764  1.00  0.00     0.261 C 
BRANCH   2   3
ATOM      3  O   UNL     1      -0.763   2.328   1.968  1.00  0.00    -0.463 OA
BRANCH   3   4
ATOM      4  C   UNL     1      -0.874   2.497   0.624  1.00  0.00     0.311 C 
ATOM      5  O   UNL     1      -1.051   3.569   0.061  1.00  0.00    -0.252 OA
BRANCH   4   6
ATOM      6  C   UNL     1      -0.811   1.191  -0.128  1.00  0.00     0.123 C 
ATOM      7  C   UNL     1       1.514   0.314  -0.476  1.00  0.00     0.032 C 
ATOM      8  C   UNL     1       0.242   0.166   0.360  1.00  0.00     0.096 C 
ATOM      9  N   UNL     1      -0.445  -1.134   0.231  1.00  0.00    -0.336 N 
ATOM     10  C   UNL     1      -2.145   0.468  -0.019  1.00  0.00     0.039 C 
ATOM     11  C   UNL     1      -1.770  -0.959  -0.339  1.00  0.00     0.121 C 
BRANCH   9  12
ATOM     12  C   UNL     1      -0.149  -2.329   0.865  1.00  0.00     0.260 C 
ATOM     13  O   UNL     1      -1.044  -3.055   1.312  1.00  0.00    -0.271 OA
BRANCH  12  14
ATOM     14  C   UNL     1       1.305  -2.798   0.972  1.00  0.00     0.329 C 
BRANCH  14  15
ATOM     15  O   UNL     1       2.193  -2.406  -0.053  1.00  0.00    -0.483 OA
BRANCH  15  16
ATOM     16  C   UNL     1       2.517  -3.248  -1.077  1.00  0.00     0.134 A 
ATOM     17  C   UNL     1       3.900  -3.269  -1.331  1.00  0.00     0.050 A 
ATOM     18  C   UNL     1       1.659  -3.886  -1.984  1.00  0.00     0.062 A 
ATOM     19  C   UNL     1       4.418  -3.886  -2.470  1.00  0.00     0.043 A 
ATOM     20  C   UNL     1       2.184  -4.490  -3.135  1.00  0.00     0.058 A 
ATOM     21  Br  UNL     1      -0.226  -3.963  -1.866  1.00  0.00    -0.047 Br
ATOM     22  C   UNL     1       3.550  -4.475  -3.372  1.00  0.00     0.124 A 
ATOM     23  F   UNL     1       4.029  -5.018  -4.498  1.00  0.00    -0.207 F 
ENDBRANCH  15  16
ENDBRANCH  14  15
ENDBRANCH  12  14
ENDBRANCH   9  12
ENDBRANCH   4   6
ENDBRANCH   3   4
ENDBRANCH   2   3
ENDBRANCH   1   2
BRANCH   1  24
ATOM     24  O   UNL     1       1.558   4.250   2.568  1.00  0.00    -0.374 OA
BRANCH  24  25
ATOM     25  C   UNL     1       2.223   3.235   1.819  1.00  0.00     0.202 C 
BRANCH  25  26
ATOM     26  C   UNL     1       3.288   2.432   2.572  1.00  0.00     0.261 C 
BRANCH  26  27
ATOM     27  O   UNL     1       2.712   1.645   3.631  1.00  0.00    -0.460 OA
BRANCH  27  28
ATOM     28  C   UNL     1       3.051   2.055   4.875  1.00  0.00     0.338 C 
ATOM     29  O   UNL     1       3.857   2.928   5.172  1.00  0.00    -0.246 OA
BRANCH  28  30
ATOM     30  C   UNL     1       2.196   1.417   5.893  1.00  0.00     0.060 A 
ATOM     31  C   UNL     1       1.620   2.260   6.851  1.00  0.00     0.016 A 
ATOM     32  C   UNL     1       2.054   0.031   5.990  1.00  0.00     0.016 A 
ATOM     33  C   UNL     1       0.975   1.719   7.958  1.00  0.00     0.010 A 
ATOM     34  C   UNL     1       1.406  -0.514   7.107  1.00  0.00     0.010 A 
ATOM     35  C   UNL     1       0.916   0.328   8.122  1.00  0.00    -0.014 A 
BRANCH  35  36
ATOM     36  C   UNL     1       0.522  -0.207   9.450  1.00  0.00     0.031 A 
ATOM     37  C   UNL     1       1.603  -0.591  10.425  1.00  0.00     0.074 A 
ATOM     38  C   UNL     1      -0.769  -0.257   9.820  1.00  0.00     0.049 A 
ATOM     39  N   UNL     1       1.499  -0.995  11.667  1.00  0.00    -0.248 NA
ATOM     40  C   UNL     1       2.989  -0.504   9.937  1.00  0.00     0.031 C 
ATOM     41  C   UNL     1      -1.903   0.118   8.979  1.00  0.00     0.029 A 
ATOM     42  N   UNL     1      -1.339  -0.633  11.010  1.00  0.00    -0.354 N 
ATOM     43  C   UNL     1       2.801  -1.204  12.105  1.00  0.00     0.074 A 
ATOM     44  C   UNL     1       3.676  -0.923  10.989  1.00  0.00     0.031 C 
ATOM     45  C   UNL     1      -3.037  -0.042   9.683  1.00  0.00     0.029 A 
ATOM     46  C   UNL     1      -2.708  -0.544  11.016  1.00  0.00     0.049 A 
ATOM     47  H   UNL     1      -0.815  -0.939  11.786  1.00  0.00     0.167 HD
ATOM     48  C   UNL     1       3.230  -1.581  13.334  1.00  0.00     0.037 A 
ATOM     49  C   UNL     1      -3.593  -0.835  11.989  1.00  0.00     0.037 A 
ATOM     50  C   UNL     1       2.363  -1.857  14.448  1.00  0.00     0.049 A 
ATOM     51  C   UNL     1      -3.092  -1.298  13.333  1.00  0.00     0.074 A 
ATOM     52  C   UNL     1       2.703  -2.235  15.735  1.00  0.00     0.029 A 
ATOM     53  N   UNL     1       0.979  -1.789  14.403  1.00  0.00    -0.354 N 
ATOM     54  N   UNL     1      -1.859  -1.460  13.747  1.00  0.00    -0.248 NA
ATOM     55  C   UNL     1      -4.110  -1.604  14.348  1.00  0.00     0.031 C 
ATOM     56  C   UNL     1       1.522  -2.436  16.458  1.00  0.00     0.029 A 
ATOM     57  C   UNL     1       0.449  -2.136  15.635  1.00  0.00     0.049 A 
ATOM     58  H   UNL     1       0.451  -1.532  13.613  1.00  0.00     0.167 HD
ATOM     59  C   UNL     1      -1.951  -1.859  15.075  1.00  0.00     0.074 A 
ATOM     60  C   UNL     1      -3.361  -1.899  15.401  1.00  0.00     0.031 C 
ATOM     61  C   UNL     1      -0.957  -2.164  15.946  1.00  0.00     0.037 A 
BRANCH  48  62
ATOM     62  C   UNL     1       4.710  -1.733  13.529  1.00  0.00     0.064 A 
ATOM     63  C   UNL     1       5.563  -0.621  13.591  1.00  0.00     0.173 A 
ATOM     64  C   UNL     1       5.279  -3.006  13.682  1.00  0.00     0.173 A 
ATOM     65  F   UNL     1       5.070   0.617  13.434  1.00  0.00    -0.203 F 
ATOM     66  C   UNL     1       6.934  -0.779  13.774  1.00  0.00     0.198 A 
ATOM     67  C   UNL     1       6.647  -3.159  13.892  1.00  0.00     0.198 A 
ATOM     68  F   UNL     1       4.507  -4.102  13.633  1.00  0.00    -0.203 F 
ATOM     69  F   UNL     1       7.736   0.295  13.783  1.00  0.00    -0.200 F 
ATOM     70  C   UNL     1       7.474  -2.047  13.930  1.00  0.00     0.200 A 
ATOM     71  F   UNL     1       7.166  -4.385  14.052  1.00  0.00    -0.200 F 
ATOM     72  F   UNL     1       8.794  -2.198  14.110  1.00  0.00    -0.200 F 
ENDBRANCH  48  62
BRANCH  49  73
ATOM     73  C   UNL     1      -5.050  -0.689  11.734  1.00  0.00     0.064 A 
ATOM     74  C   UNL     1      -5.801   0.309  12.369  1.00  0.00     0.173 A 
ATOM     75  C   UNL     1      -5.723  -1.560  10.865  1.00  0.00     0.173 A 
ATOM     76  F   UNL     1      -5.206   1.149  13.229  1.00  0.00    -0.203 F 
ATOM     77  C   UNL     1      -7.174   0.419  12.159  1.00  0.00     0.198 A 
ATOM     78  C   UNL     1      -7.091  -1.432  10.635  1.00  0.00     0.198 A 
ATOM     79  F   UNL     1      -5.049  -2.534  10.235  1.00  0.00    -0.203 F 
ATOM     80  F   UNL     1      -7.877   1.353  12.814  1.00  0.00    -0.200 F 
ATOM     81  C   UNL     1      -7.817  -0.448  11.288  1.00  0.00     0.200 A 
ATOM     82  F   UNL     1      -7.706  -2.266   9.786  1.00  0.00    -0.200 F 
ATOM     83  F   UNL     1      -9.137  -0.340  11.085  1.00  0.00    -0.200 F 
ENDBRANCH  49  73
BRANCH  61  84
ATOM     84  C   UNL     1      -1.359  -2.534  17.345  1.00  0.00     0.064 A 
ATOM     85  C   UNL     1      -1.974  -3.760  17.635  1.00  0.00     0.173 A 
ATOM     86  C   UNL     1      -1.098  -1.661  18.412  1.00  0.00     0.173 A 
ATOM     87  F   UNL     1      -2.256  -4.624  16.647  1.00  0.00    -0.203 F 
ATOM     88  C   UNL     1      -2.343  -4.085  18.938  1.00  0.00     0.198 A 
ATOM     89  C   UNL     1      -1.442  -2.002  19.717  1.00  0.00     0.198 A 
ATOM     90  F   UNL     1      -0.504  -0.479  18.190  1.00  0.00    -0.203 F 
ATOM     91  F   UNL     1      -2.976  -5.240  19.184  1.00  0.00    -0.200 F 
ATOM     92  C   UNL     1      -2.071  -3.209  19.978  1.00  0.00     0.200 A 
ATOM     93  F   UNL     1      -1.167  -1.159  20.723  1.00  0.00    -0.200 F 
ATOM     94  F   UNL     1      -2.425  -3.525  21.231  1.00  0.00    -0.200 F 
ENDBRANCH  61  84
ENDBRANCH  35  36
ENDBRANCH  28  30
ENDBRANCH  27  28
ENDBRANCH  26  27
ENDBRANCH  25  26
ENDBRANCH  24  25
ENDBRANCH   1  24
TORSDOF 18
