REMARK SMILES Nc1ccc2[nH]cc(C(=O)OCCOCCOC(=O)c3ccc(-c4c5nc(c(-c6c(F)c(F)c(F)c(F)c6F)c6ccc([nH]6)c(-c6c(F)c(F)c(F)c(F)c6F)c6nc(c(-c7c(F)c(F)c(F)c(F)c7F)c7ccc4[nH]7)C=C6)C=C5)cc3)c2c1
REMARK SMILES IDX 15 1 14 2 13 3 12 4 11 5 9 6 10 7 8 8 2 9 3 10 84 11 4 12
REMARK SMILES IDX 83 13 5 14 6 15 7 16 1 18 16 21 17 22 18 23 19 24 20 25
REMARK SMILES IDX 21 26 82 27 22 28 81 29 23 30 24 31 25 32 75 33 26 34 80 35
REMARK SMILES IDX 74 36 76 37 27 38 79 39 73 40 72 41 28 43 60 44 40 45 59 46
REMARK SMILES IDX 41 47 44 48 58 49 77 50 42 51 43 52 57 54 78 55 45 56 29 57
REMARK SMILES IDX 30 58 38 59 31 60 32 61 36 62 39 63 33 64 34 65 37 66 35 67
REMARK SMILES IDX 61 68 62 69 70 70 63 71 64 72 68 73 71 74 65 75 66 76 69 77
REMARK SMILES IDX 67 78 46 79 47 80 55 81 48 82 49 83 53 84 56 85 50 86 51 87
REMARK SMILES IDX 54 88 52 89
REMARK H PARENT 6 17 1 19 1 20 76 42 44 53
REMARK Flexibility Score: inf
ROOT
ATOM      1  C   UNL     1      -3.496   5.459  -1.440  1.00  0.00     0.202 C 
ENDROOT
BRANCH   1   2
ATOM      2  O   UNL     1      -4.763   5.368  -0.780  1.00  0.00    -0.374 OA
BRANCH   2   3
ATOM      3  C   UNL     1      -4.822   4.646   0.441  1.00  0.00     0.202 C 
BRANCH   3   4
ATOM      4  C   UNL     1      -4.867   3.113   0.417  1.00  0.00     0.261 C 
BRANCH   4   5
ATOM      5  O   UNL     1      -3.810   2.543  -0.355  1.00  0.00    -0.460 OA
BRANCH   5   6
ATOM      6  C   UNL     1      -4.196   2.171  -1.606  1.00  0.00     0.340 C 
ATOM      7  O   UNL     1      -5.359   2.167  -2.004  1.00  0.00    -0.246 OA
BRANCH   6   8
ATOM      8  C   UNL     1      -3.075   1.917  -2.493  1.00  0.00     0.085 A 
ATOM      9  C   UNL     1       0.272   0.534  -1.189  1.00  0.00     0.032 A 
ATOM     10  C   UNL     1       0.867   0.451  -2.448  1.00  0.00     0.027 A 
ATOM     11  C   UNL     1      -1.024   1.061  -1.073  1.00  0.00     0.036 A 
ATOM     12  C   UNL     1       0.198   0.854  -3.607  1.00  0.00     0.029 A 
ATOM     13  C   UNL     1      -1.746   1.446  -2.229  1.00  0.00     0.016 A 
ATOM     14  C   UNL     1      -1.100   1.350  -3.465  1.00  0.00     0.046 A 
ATOM     15  N   UNL     1      -1.963   1.823  -4.423  1.00  0.00    -0.360 N 
ATOM     16  C   UNL     1      -3.154   2.155  -3.855  1.00  0.00     0.099 A 
ATOM     17  H   UNL     1      -1.750   1.909  -5.381  1.00  0.00     0.166 HD
BRANCH   9  18
ATOM     18  N   UNL     1       1.005   0.206  -0.056  1.00  0.00    -0.399 N 
ATOM     19  H   UNL     1       1.913  -0.163  -0.147  1.00  0.00     0.156 HD
ATOM     20  H   UNL     1       0.617   0.343   0.838  1.00  0.00     0.156 HD
ENDBRANCH   9  18
ENDBRANCH   6   8
ENDBRANCH   5   6
ENDBRANCH   4   5
ENDBRANCH   3   4
ENDBRANCH   2   3
ENDBRANCH   1   2
BRANCH   1  21
ATOM     21  C   UNL     1      -2.356   6.240  -0.756  1.00  0.00     0.261 C 
BRANCH  21  22
ATOM     22  O   UNL     1      -1.924   5.594   0.451  1.00  0.00    -0.460 OA
BRANCH  22  23
ATOM     23  C   UNL     1      -1.764   6.408   1.530  1.00  0.00     0.338 C 
ATOM     24  O   UNL     1      -1.546   7.606   1.532  1.00  0.00    -0.246 OA
BRANCH  23  25
ATOM     25  C   UNL     1      -2.334   5.659   2.672  1.00  0.00     0.060 A 
ATOM     26  C   UNL     1      -2.030   4.305   2.862  1.00  0.00     0.016 A 
ATOM     27  C   UNL     1      -3.462   6.239   3.276  1.00  0.00     0.016 A 
ATOM     28  C   UNL     1      -2.928   3.507   3.563  1.00  0.00     0.010 A 
ATOM     29  C   UNL     1      -4.372   5.430   3.945  1.00  0.00     0.010 A 
ATOM     30  C   UNL     1      -4.129   4.057   4.045  1.00  0.00    -0.014 A 
BRANCH  30  31
ATOM     31  C   UNL     1      -5.044   3.192   4.798  1.00  0.00     0.031 A 
ATOM     32  C   UNL     1      -4.527   2.836   6.155  1.00  0.00     0.074 A 
ATOM     33  C   UNL     1      -6.298   2.872   4.406  1.00  0.00     0.049 A 
ATOM     34  N   UNL     1      -4.400   1.669   6.699  1.00  0.00    -0.248 NA
ATOM     35  C   UNL     1      -3.993   3.939   6.975  1.00  0.00     0.031 C 
ATOM     36  C   UNL     1      -7.052   3.383   3.262  1.00  0.00     0.029 A 
ATOM     37  N   UNL     1      -7.215   2.062   5.015  1.00  0.00    -0.354 N 
ATOM     38  C   UNL     1      -3.893   1.897   7.979  1.00  0.00     0.074 A 
ATOM     39  C   UNL     1      -3.557   3.293   8.053  1.00  0.00     0.031 C 
ATOM     40  C   UNL     1      -8.352   3.030   3.365  1.00  0.00     0.029 A 
ATOM     41  C   UNL     1      -8.517   2.199   4.539  1.00  0.00     0.049 A 
ATOM     42  H   UNL     1      -6.975   1.432   5.732  1.00  0.00     0.167 HD
ATOM     43  C   UNL     1      -3.928   0.957   8.962  1.00  0.00     0.037 A 
ATOM     44  C   UNL     1      -9.657   1.744   5.123  1.00  0.00     0.037 A 
ATOM     45  C   UNL     1      -4.073  -0.366   8.427  1.00  0.00     0.049 A 
ATOM     46  C   UNL     1      -9.267   0.696   6.096  1.00  0.00     0.074 A 
ATOM     47  C   UNL     1      -3.273  -1.183   7.653  1.00  0.00     0.029 A 
ATOM     48  N   UNL     1      -5.324  -0.924   8.381  1.00  0.00    -0.354 N 
ATOM     49  N   UNL     1      -8.773  -0.462   5.759  1.00  0.00    -0.248 NA
ATOM     50  C   UNL     1      -8.991   1.129   7.457  1.00  0.00     0.031 C 
ATOM     51  C   UNL     1      -4.175  -1.874   6.793  1.00  0.00     0.029 A 
ATOM     52  C   UNL     1      -5.468  -1.479   7.134  1.00  0.00     0.049 A 
ATOM     53  H   UNL     1      -5.992  -0.927   9.104  1.00  0.00     0.167 HD
ATOM     54  C   UNL     1      -7.785  -0.706   6.699  1.00  0.00     0.074 A 
ATOM     55  C   UNL     1      -8.003   0.283   7.753  1.00  0.00     0.031 C 
ATOM     56  C   UNL     1      -6.714  -1.498   6.409  1.00  0.00     0.037 A 
BRANCH  43  57
ATOM     57  C   UNL     1      -4.094   1.273  10.423  1.00  0.00     0.064 A 
ATOM     58  C   UNL     1      -3.895   0.267  11.388  1.00  0.00     0.173 A 
ATOM     59  C   UNL     1      -4.707   2.455  10.893  1.00  0.00     0.173 A 
ATOM     60  F   UNL     1      -3.348  -0.910  11.046  1.00  0.00    -0.203 F 
ATOM     61  C   UNL     1      -4.324   0.417  12.710  1.00  0.00     0.198 A 
ATOM     62  C   UNL     1      -5.086   2.623  12.223  1.00  0.00     0.198 A 
ATOM     63  F   UNL     1      -5.059   3.447  10.064  1.00  0.00    -0.203 F 
ATOM     64  F   UNL     1      -4.211  -0.607  13.566  1.00  0.00    -0.200 F 
ATOM     65  C   UNL     1      -4.920   1.594  13.126  1.00  0.00     0.200 A 
ATOM     66  F   UNL     1      -5.680   3.764  12.601  1.00  0.00    -0.200 F 
ATOM     67  F   UNL     1      -5.378   1.720  14.378  1.00  0.00    -0.200 F 
ENDBRANCH  43  57
BRANCH  44  68
ATOM     68  C   UNL     1     -10.973   2.436   5.204  1.00  0.00     0.064 A 
ATOM     69  C   UNL     1     -12.126   1.756   5.636  1.00  0.00     0.173 A 
ATOM     70  C   UNL     1     -11.068   3.841   5.147  1.00  0.00     0.173 A 
ATOM     71  F   UNL     1     -12.113   0.421   5.764  1.00  0.00    -0.203 F 
ATOM     72  C   UNL     1     -13.286   2.442   6.019  1.00  0.00     0.198 A 
ATOM     73  C   UNL     1     -12.226   4.523   5.522  1.00  0.00     0.198 A 
ATOM     74  F   UNL     1     -10.005   4.592   4.827  1.00  0.00    -0.203 F 
ATOM     75  F   UNL     1     -14.340   1.763   6.493  1.00  0.00    -0.200 F 
ATOM     76  C   UNL     1     -13.330   3.825   5.974  1.00  0.00     0.200 A 
ATOM     77  F   UNL     1     -12.240   5.863   5.508  1.00  0.00    -0.200 F 
ATOM     78  F   UNL     1     -14.412   4.487   6.406  1.00  0.00    -0.200 F 
ENDBRANCH  44  68
BRANCH  56  79
ATOM     79  C   UNL     1      -6.735  -2.259   5.112  1.00  0.00     0.064 A 
ATOM     80  C   UNL     1      -6.734  -1.646   3.845  1.00  0.00     0.173 A 
ATOM     81  C   UNL     1      -6.585  -3.650   5.152  1.00  0.00     0.173 A 
ATOM     82  F   UNL     1      -6.770  -0.313   3.724  1.00  0.00    -0.203 F 
ATOM     83  C   UNL     1      -6.626  -2.398   2.676  1.00  0.00     0.198 A 
ATOM     84  C   UNL     1      -6.439  -4.396   3.985  1.00  0.00     0.198 A 
ATOM     85  F   UNL     1      -6.519  -4.284   6.333  1.00  0.00    -0.203 F 
ATOM     86  F   UNL     1      -6.628  -1.788   1.481  1.00  0.00    -0.200 F 
ATOM     87  C   UNL     1      -6.468  -3.772   2.748  1.00  0.00     0.200 A 
ATOM     88  F   UNL     1      -6.233  -5.718   4.062  1.00  0.00    -0.200 F 
ATOM     89  F   UNL     1      -6.312  -4.492   1.628  1.00  0.00    -0.200 F 
ENDBRANCH  56  79
ENDBRANCH  30  31
ENDBRANCH  23  25
ENDBRANCH  22  23
ENDBRANCH  21  22
ENDBRANCH   1  21
TORSDOF 15
