REMARK SMILES Cc1ccc([C@@]23C[C@@H]4C[C@@H](C[C@@](C(=O)N5CCC(C(=O)OCCOCCOC(=O)c6ccc(-c7c8nc(c(-c9c(F)c(F)c(F)c(F)c9F)c9ccc([nH]9)c(-c9c(F)c(F)c(F)c(F)c9F)c9nc(c(-c%10c(F)c(F)c(F)c(F)c%10F)c%10ccc7[nH]%10)C=C9)C=C8)cc6)CC5)(C4)C2)C3)cc1
REMARK SMILES IDX 24 1 23 2 22 3 21 4 19 5 20 6 18 7 13 8 14 9 15 10 16 11
REMARK SMILES IDX 94 12 17 13 93 14 12 15 6 16 7 17 96 18 97 19 8 20 10 21
REMARK SMILES IDX 9 22 95 23 11 24 5 25 1 26 2 27 3 28 99 29 4 30 98 31 25 32
REMARK SMILES IDX 26 33 27 34 28 35 29 36 30 37 31 38 92 39 32 40 91 41 33 42
REMARK SMILES IDX 34 43 35 44 85 45 36 46 90 47 84 48 86 49 37 50 89 51 83 52
REMARK SMILES IDX 82 53 38 55 70 56 50 57 69 58 51 59 54 60 68 61 87 62 52 63
REMARK SMILES IDX 53 64 67 66 88 67 55 68 39 69 40 70 48 71 41 72 42 73 46 74
REMARK SMILES IDX 49 75 43 76 44 77 47 78 45 79 71 80 72 81 80 82 73 83 74 84
REMARK SMILES IDX 78 85 81 86 75 87 76 88 79 89 77 90 56 91 57 92 65 93 58 94
REMARK SMILES IDX 59 95 63 96 66 97 60 98 61 99 64 100 62 101
REMARK H PARENT 86 54 54 65
REMARK Flexibility Score: inf
ROOT
ATOM      1  O   UNL     1      -6.633  -3.105  -6.806  1.00  0.00    -0.374 OA
ENDROOT
BRANCH   1   2
ATOM      2  C   UNL     1      -7.442  -2.239  -6.030  1.00  0.00     0.202 C 
BRANCH   2   3
ATOM      3  C   UNL     1      -8.156  -3.138  -5.075  1.00  0.00     0.261 C 
BRANCH   3   4
ATOM      4  O   UNL     1      -7.284  -3.651  -4.059  1.00  0.00    -0.463 OA
BRANCH   4   5
ATOM      5  C   UNL     1      -6.369  -4.629  -4.373  1.00  0.00     0.309 C 
ATOM      6  O   UNL     1      -6.438  -5.441  -5.265  1.00  0.00    -0.252 OA
BRANCH   5   7
ATOM      7  C   UNL     1      -5.218  -4.525  -3.402  1.00  0.00     0.103 C 
ATOM      8  C   UNL     1      -5.596  -2.401  -0.097  1.00  0.00     0.228 C 
ATOM      9  O   UNL     1      -6.475  -2.922   0.591  1.00  0.00    -0.274 OA
ATOM     10  N   UNL     1      -4.783  -3.159  -0.961  1.00  0.00    -0.342 N 
ATOM     11  C   UNL     1      -4.831  -4.605  -0.881  1.00  0.00     0.120 C 
ATOM     12  C   UNL     1      -4.032  -2.697  -2.140  1.00  0.00     0.120 C 
ATOM     13  C   UNL     1      -5.646  -5.118  -2.049  1.00  0.00     0.037 C 
ATOM     14  C   UNL     1      -4.814  -3.043  -3.374  1.00  0.00     0.037 C 
BRANCH   8  15
ATOM     15  C   UNL     1      -5.282  -0.900   0.039  1.00  0.00     0.051 C 
ATOM     16  C   UNL     1      -3.164   0.543   0.219  1.00  0.00    -0.003 C 
ATOM     17  C   UNL     1      -3.661   1.223  -1.095  1.00  0.00     0.015 C 
ATOM     18  C   UNL     1      -3.773  -0.851   0.297  1.00  0.00     0.028 C 
ATOM     19  C   UNL     1      -3.769   1.288   1.434  1.00  0.00     0.015 C 
ATOM     20  C   UNL     1      -5.198   1.313  -1.152  1.00  0.00    -0.009 C 
ATOM     21  C   UNL     1      -5.322   1.275   1.356  1.00  0.00    -0.009 C 
ATOM     22  C   UNL     1      -5.731   2.044   0.088  1.00  0.00     0.007 C 
ATOM     23  C   UNL     1      -5.785  -0.100  -1.178  1.00  0.00     0.020 C 
ATOM     24  C   UNL     1      -5.884  -0.180   1.278  1.00  0.00     0.020 C 
BRANCH  16  25
ATOM     25  C   UNL     1      -1.626   0.429   0.225  1.00  0.00    -0.042 A 
ATOM     26  C   UNL     1       2.698   0.096  -0.030  1.00  0.00     0.044 C 
ATOM     27  C   UNL     1       1.210   0.231   0.056  1.00  0.00    -0.051 A 
ATOM     28  C   UNL     1       0.434  -0.917   0.139  1.00  0.00     0.004 A 
ATOM     29  C   UNL     1       0.572   1.476   0.063  1.00  0.00     0.004 A 
ATOM     30  C   UNL     1      -0.952  -0.816   0.240  1.00  0.00     0.004 A 
ATOM     31  C   UNL     1      -0.826   1.574   0.144  1.00  0.00     0.004 A 
ENDBRANCH  16  25
ENDBRANCH   8  15
ENDBRANCH   5   7
ENDBRANCH   4   5
ENDBRANCH   3   4
ENDBRANCH   2   3
ENDBRANCH   1   2
BRANCH   1  32
ATOM     32  C   UNL     1      -5.864  -2.490  -7.816  1.00  0.00     0.202 C 
BRANCH  32  33
ATOM     33  C   UNL     1      -6.720  -1.730  -8.838  1.00  0.00     0.261 C 
BRANCH  33  34
ATOM     34  O   UNL     1      -7.623  -2.655  -9.483  1.00  0.00    -0.460 OA
BRANCH  34  35
ATOM     35  C   UNL     1      -8.932  -2.583  -9.111  1.00  0.00     0.338 C 
ATOM     36  O   UNL     1      -9.586  -1.556  -9.025  1.00  0.00    -0.246 OA
BRANCH  35  37
ATOM     37  C   UNL     1      -9.365  -3.893  -8.535  1.00  0.00     0.060 A 
ATOM     38  C   UNL     1     -10.557  -3.978  -7.786  1.00  0.00     0.016 A 
ATOM     39  C   UNL     1      -8.433  -4.924  -8.464  1.00  0.00     0.016 A 
ATOM     40  C   UNL     1     -10.735  -5.008  -6.845  1.00  0.00     0.010 A 
ATOM     41  C   UNL     1      -8.571  -5.877  -7.476  1.00  0.00     0.010 A 
ATOM     42  C   UNL     1      -9.694  -5.906  -6.627  1.00  0.00    -0.014 A 
BRANCH  42  43
ATOM     43  C   UNL     1      -9.560  -6.833  -5.494  1.00  0.00     0.031 A 
ATOM     44  C   UNL     1      -9.369  -8.267  -5.802  1.00  0.00     0.074 A 
ATOM     45  C   UNL     1      -9.270  -6.394  -4.239  1.00  0.00     0.049 A 
ATOM     46  N   UNL     1      -9.280  -9.176  -4.897  1.00  0.00    -0.248 NA
ATOM     47  C   UNL     1      -9.296  -8.825  -7.153  1.00  0.00     0.031 C 
ATOM     48  C   UNL     1      -8.524  -7.097  -3.188  1.00  0.00     0.029 A 
ATOM     49  N   UNL     1      -9.565  -5.170  -3.620  1.00  0.00    -0.354 N 
ATOM     50  C   UNL     1      -8.743 -10.288  -5.485  1.00  0.00     0.074 A 
ATOM     51  C   UNL     1      -8.946 -10.090  -6.896  1.00  0.00     0.031 C 
ATOM     52  C   UNL     1      -8.681  -6.456  -2.018  1.00  0.00     0.029 A 
ATOM     53  C   UNL     1      -9.639  -5.391  -2.231  1.00  0.00     0.049 A 
ATOM     54  H   UNL     1      -9.697  -4.308  -4.077  1.00  0.00     0.167 HD
ATOM     55  C   UNL     1      -8.065 -11.162  -4.690  1.00  0.00     0.037 A 
ATOM     56  C   UNL     1     -10.797  -5.148  -1.563  1.00  0.00     0.037 A 
ATOM     57  C   UNL     1      -8.284 -10.854  -3.258  1.00  0.00     0.049 A 
ATOM     58  C   UNL     1     -11.376  -6.466  -1.114  1.00  0.00     0.074 A 
ATOM     59  C   UNL     1      -7.499 -10.466  -2.186  1.00  0.00     0.029 A 
ATOM     60  N   UNL     1      -9.597 -10.662  -2.827  1.00  0.00    -0.354 N 
ATOM     61  N   UNL     1     -10.729  -7.593  -1.244  1.00  0.00    -0.248 NA
ATOM     62  C   UNL     1     -12.707  -6.666  -0.568  1.00  0.00     0.031 C 
ATOM     63  C   UNL     1      -8.371  -9.999  -1.139  1.00  0.00     0.029 A 
ATOM     64  C   UNL     1      -9.687 -10.156  -1.544  1.00  0.00     0.049 A 
ATOM     65  H   UNL     1     -10.383 -10.867  -3.383  1.00  0.00     0.167 HD
ATOM     66  C   UNL     1     -11.497  -8.645  -0.889  1.00  0.00     0.074 A 
ATOM     67  C   UNL     1     -12.753  -8.011  -0.491  1.00  0.00     0.031 C 
ATOM     68  C   UNL     1     -11.023  -9.928  -0.971  1.00  0.00     0.037 A 
BRANCH  55  69
ATOM     69  C   UNL     1      -7.123 -12.230  -5.213  1.00  0.00     0.064 A 
ATOM     70  C   UNL     1      -6.637 -13.233  -4.351  1.00  0.00     0.173 A 
ATOM     71  C   UNL     1      -6.601 -12.289  -6.529  1.00  0.00     0.173 A 
ATOM     72  F   UNL     1      -7.008 -13.274  -3.064  1.00  0.00    -0.203 F 
ATOM     73  C   UNL     1      -5.740 -14.224  -4.777  1.00  0.00     0.198 A 
ATOM     74  C   UNL     1      -5.756 -13.314  -6.969  1.00  0.00     0.198 A 
ATOM     75  F   UNL     1      -6.826 -11.328  -7.431  1.00  0.00    -0.203 F 
ATOM     76  F   UNL     1      -5.278 -15.125  -3.899  1.00  0.00    -0.200 F 
ATOM     77  C   UNL     1      -5.319 -14.279  -6.091  1.00  0.00     0.200 A 
ATOM     78  F   UNL     1      -5.351 -13.338  -8.248  1.00  0.00    -0.200 F 
ATOM     79  F   UNL     1      -4.478 -15.237  -6.503  1.00  0.00    -0.200 F 
ENDBRANCH  55  69
BRANCH  56  80
ATOM     80  C   UNL     1     -11.468  -3.928  -2.119  1.00  0.00     0.064 A 
ATOM     81  C   UNL     1     -10.782  -2.698  -1.954  1.00  0.00     0.173 A 
ATOM     82  C   UNL     1     -12.353  -4.020  -3.202  1.00  0.00     0.173 A 
ATOM     83  F   UNL     1      -9.897  -2.552  -0.955  1.00  0.00    -0.203 F 
ATOM     84  C   UNL     1     -10.850  -1.688  -2.916  1.00  0.00     0.198 A 
ATOM     85  C   UNL     1     -12.417  -3.002  -4.162  1.00  0.00     0.198 A 
ATOM     86  F   UNL     1     -13.027  -5.156  -3.426  1.00  0.00    -0.203 F 
ATOM     87  F   UNL     1     -10.036  -0.623  -2.831  1.00  0.00    -0.200 F 
ATOM     88  C   UNL     1     -11.633  -1.863  -4.042  1.00  0.00     0.200 A 
ATOM     89  F   UNL     1     -13.147  -3.179  -5.273  1.00  0.00    -0.200 F 
ATOM     90  F   UNL     1     -11.562  -0.981  -5.051  1.00  0.00    -0.200 F 
ENDBRANCH  56  80
BRANCH  68  91
ATOM     91  C   UNL     1     -11.865 -11.103  -0.565  1.00  0.00     0.064 A 
ATOM     92  C   UNL     1     -12.784 -11.035   0.491  1.00  0.00     0.173 A 
ATOM     93  C   UNL     1     -11.762 -12.357  -1.206  1.00  0.00     0.173 A 
ATOM     94  F   UNL     1     -12.814  -9.979   1.317  1.00  0.00    -0.203 F 
ATOM     95  C   UNL     1     -13.685 -12.066   0.742  1.00  0.00     0.198 A 
ATOM     96  C   UNL     1     -12.616 -13.411  -0.907  1.00  0.00     0.198 A 
ATOM     97  F   UNL     1     -10.851 -12.610  -2.152  1.00  0.00    -0.203 F 
ATOM     98  F   UNL     1     -14.634 -11.901   1.673  1.00  0.00    -0.200 F 
ATOM     99  C   UNL     1     -13.612 -13.248   0.031  1.00  0.00     0.200 A 
ATOM    100  F   UNL     1     -12.479 -14.575  -1.556  1.00  0.00    -0.200 F 
ATOM    101  F   UNL     1     -14.489 -14.233   0.258  1.00  0.00    -0.200 F 
ENDBRANCH  68  91
ENDBRANCH  42  43
ENDBRANCH  35  37
ENDBRANCH  34  35
ENDBRANCH  33  34
ENDBRANCH  32  33
ENDBRANCH   1  32
TORSDOF 16
