REMARK SMILES CC(C)(C)c1cc2c(cc1Cl)C=C(C(=O)OCCOCCOC(=O)c1ccc(-c3c4nc(c(-c5c(F)c(F)c(F)c(F)c5F)c5ccc([nH]5)c(-c5c(F)c(F)c(F)c(F)c5F)c5nc(c(-c6c(F)c(F)c(F)c(F)c6F)c6ccc3[nH]6)C=C5)C=C4)cc1)[C@@H](C(F)(F)F)O2
REMARK SMILES IDX 20 1 19 2 18 3 17 4 16 5 14 6 15 7 13 8 5 9 6 10 10 11 7 12
REMARK SMILES IDX 9 13 11 14 8 15 93 16 12 17 88 18 2 19 1 20 3 21 4 22 89 23
REMARK SMILES IDX 90 24 91 25 92 26 21 27 22 28 23 29 24 30 25 31 26 32 87 33
REMARK SMILES IDX 27 34 86 35 28 36 29 37 30 38 80 39 31 40 85 41 79 42 81 43
REMARK SMILES IDX 32 44 84 45 78 46 77 47 33 49 65 50 45 51 64 52 46 53 49 54
REMARK SMILES IDX 63 55 82 56 47 57 48 58 62 60 83 61 50 62 34 63 35 64 43 65
REMARK SMILES IDX 36 66 37 67 41 68 44 69 38 70 39 71 42 72 40 73 66 74 67 75
REMARK SMILES IDX 75 76 68 77 69 78 73 79 76 80 70 81 71 82 74 83 72 84 51 85
REMARK SMILES IDX 52 86 60 87 53 88 54 89 58 90 61 91 55 92 56 93 59 94 57 95
REMARK H PARENT 81 48 49 59
REMARK Flexibility Score: inf
ROOT
ATOM      1  C   UNL     1       1.449   2.431   9.591  1.00  0.00     0.202 C 
ENDROOT
BRANCH   1   2
ATOM      2  O   UNL     1       2.515   2.574  10.528  1.00  0.00    -0.374 OA
BRANCH   2   3
ATOM      3  C   UNL     1       3.119   3.853  10.689  1.00  0.00     0.202 C 
BRANCH   3   4
ATOM      4  C   UNL     1       4.053   4.353   9.583  1.00  0.00     0.261 C 
BRANCH   4   5
ATOM      5  O   UNL     1       3.424   4.344   8.293  1.00  0.00    -0.460 OA
BRANCH   5   6
ATOM      6  C   UNL     1       3.922   3.414   7.443  1.00  0.00     0.338 C 
ATOM      7  O   UNL     1       4.892   2.697   7.630  1.00  0.00    -0.246 OA
BRANCH   6   8
ATOM      8  C   UNL     1       3.038   3.278   6.272  1.00  0.00     0.087 C 
ATOM      9  C   UNL     1       0.931   1.444   2.067  1.00  0.00    -0.020 A 
ATOM     10  C   UNL     1       1.052   2.726   2.668  1.00  0.00     0.053 A 
ATOM     11  C   UNL     1       1.278   0.348   2.886  1.00  0.00     0.045 A 
ATOM     12  C   UNL     1       1.617   2.918   3.932  1.00  0.00     0.128 A 
ATOM     13  C   UNL     1       1.852   0.544   4.153  1.00  0.00     0.032 A 
ATOM     14  Cl  UNL     1       1.012  -1.312   2.489  1.00  0.00    -0.084 Cl
ATOM     15  C   UNL     1       2.062   1.825   4.656  1.00  0.00     0.019 A 
ATOM     16  O   UNL     1       1.704   4.207   4.377  1.00  0.00    -0.475 OA
ATOM     17  C   UNL     1       2.791   2.018   5.891  1.00  0.00     0.027 C 
ATOM     18  C   UNL     1       2.507   4.490   5.560  1.00  0.00     0.316 C 
BRANCH   9  19
ATOM     19  C   UNL     1       0.421   1.365   0.606  1.00  0.00    -0.012 C 
ATOM     20  C   UNL     1       0.885   0.128  -0.200  1.00  0.00     0.016 C 
ATOM     21  C   UNL     1       0.918   2.576  -0.236  1.00  0.00     0.016 C 
ATOM     22  C   UNL     1      -1.118   1.386   0.629  1.00  0.00     0.016 C 
ENDBRANCH   9  19
BRANCH  18  23
ATOM     23  C   UNL     1       3.616   5.476   5.163  1.00  0.00     0.430 C 
ATOM     24  F   UNL     1       3.110   6.536   4.488  1.00  0.00    -0.167 F 
ATOM     25  F   UNL     1       4.252   5.980   6.247  1.00  0.00    -0.167 F 
ATOM     26  F   UNL     1       4.550   4.899   4.375  1.00  0.00    -0.167 F 
ENDBRANCH  18  23
ENDBRANCH   6   8
ENDBRANCH   5   6
ENDBRANCH   4   5
ENDBRANCH   3   4
ENDBRANCH   2   3
ENDBRANCH   1   2
BRANCH   1  27
ATOM     27  C   UNL     1       0.101   3.094   9.904  1.00  0.00     0.261 C 
BRANCH  27  28
ATOM     28  O   UNL     1       0.177   4.529   9.959  1.00  0.00    -0.460 OA
BRANCH  28  29
ATOM     29  C   UNL     1       0.026   5.061  11.198  1.00  0.00     0.338 C 
ATOM     30  O   UNL     1      -0.186   4.464  12.242  1.00  0.00    -0.246 OA
BRANCH  29  31
ATOM     31  C   UNL     1       0.360   6.495  11.152  1.00  0.00     0.060 A 
ATOM     32  C   UNL     1      -0.325   7.366  10.305  1.00  0.00     0.016 A 
ATOM     33  C   UNL     1       1.358   6.973  12.013  1.00  0.00     0.016 A 
ATOM     34  C   UNL     1      -0.020   8.729  10.338  1.00  0.00     0.010 A 
ATOM     35  C   UNL     1       1.661   8.333  12.044  1.00  0.00     0.010 A 
ATOM     36  C   UNL     1       0.961   9.224  11.219  1.00  0.00    -0.014 A 
BRANCH  36  37
ATOM     37  C   UNL     1       1.164  10.688  11.356  1.00  0.00     0.031 A 
ATOM     38  C   UNL     1       2.381  11.364  10.803  1.00  0.00     0.074 A 
ATOM     39  C   UNL     1       0.225  11.406  12.001  1.00  0.00     0.049 A 
ATOM     40  N   UNL     1       2.669  12.642  10.774  1.00  0.00    -0.248 NA
ATOM     41  C   UNL     1       3.413  10.500  10.213  1.00  0.00     0.031 C 
ATOM     42  C   UNL     1      -0.979  10.848  12.615  1.00  0.00     0.029 A 
ATOM     43  N   UNL     1       0.128  12.754  12.237  1.00  0.00    -0.354 N 
ATOM     44  C   UNL     1       3.901  12.739  10.143  1.00  0.00     0.074 A 
ATOM     45  C   UNL     1       4.333  11.387   9.855  1.00  0.00     0.031 C 
ATOM     46  C   UNL     1      -1.715  11.848  13.124  1.00  0.00     0.029 A 
ATOM     47  C   UNL     1      -1.019  13.112  12.901  1.00  0.00     0.049 A 
ATOM     48  H   UNL     1       0.815  13.402  11.958  1.00  0.00     0.167 HD
ATOM     49  C   UNL     1       4.590  13.858   9.813  1.00  0.00     0.037 A 
ATOM     50  C   UNL     1      -1.465  14.324  13.283  1.00  0.00     0.037 A 
ATOM     51  C   UNL     1       4.158  15.199  10.117  1.00  0.00     0.049 A 
ATOM     52  C   UNL     1      -0.652  15.545  12.950  1.00  0.00     0.074 A 
ATOM     53  C   UNL     1       4.774  16.396   9.792  1.00  0.00     0.029 A 
ATOM     54  N   UNL     1       3.011  15.523  10.827  1.00  0.00    -0.354 N 
ATOM     55  N   UNL     1       0.471  15.632  12.280  1.00  0.00    -0.248 NA
ATOM     56  C   UNL     1      -1.171  16.837  13.422  1.00  0.00     0.031 C 
ATOM     57  C   UNL     1       4.034  17.439  10.355  1.00  0.00     0.029 A 
ATOM     58  C   UNL     1       2.920  16.899  10.979  1.00  0.00     0.049 A 
ATOM     59  H   UNL     1       2.358  14.873  11.173  1.00  0.00     0.167 HD
ATOM     60  C   UNL     1       0.782  16.984  12.230  1.00  0.00     0.074 A 
ATOM     61  C   UNL     1      -0.282  17.683  12.919  1.00  0.00     0.031 C 
ATOM     62  C   UNL     1       1.857  17.588  11.666  1.00  0.00     0.037 A 
BRANCH  49  63
ATOM     63  C   UNL     1       5.884  13.692   9.068  1.00  0.00     0.064 A 
ATOM     64  C   UNL     1       5.905  13.270   7.730  1.00  0.00     0.173 A 
ATOM     65  C   UNL     1       7.105  14.046   9.662  1.00  0.00     0.173 A 
ATOM     66  F   UNL     1       4.766  12.916   7.115  1.00  0.00    -0.203 F 
ATOM     67  C   UNL     1       7.101  13.195   7.020  1.00  0.00     0.198 A 
ATOM     68  C   UNL     1       8.295  13.998   8.941  1.00  0.00     0.198 A 
ATOM     69  F   UNL     1       7.141  14.466  10.936  1.00  0.00    -0.203 F 
ATOM     70  F   UNL     1       7.099  12.760   5.752  1.00  0.00    -0.200 F 
ATOM     71  C   UNL     1       8.293  13.569   7.622  1.00  0.00     0.200 A 
ATOM     72  F   UNL     1       9.443  14.378   9.518  1.00  0.00    -0.200 F 
ATOM     73  F   UNL     1       9.440  13.516   6.931  1.00  0.00    -0.200 F 
ENDBRANCH  49  63
BRANCH  50  74
ATOM     74  C   UNL     1      -2.768  14.438  13.989  1.00  0.00     0.064 A 
ATOM     75  C   UNL     1      -3.872  15.039  13.369  1.00  0.00     0.173 A 
ATOM     76  C   UNL     1      -2.944  13.930  15.285  1.00  0.00     0.173 A 
ATOM     77  F   UNL     1      -3.748  15.556  12.138  1.00  0.00    -0.203 F 
ATOM     78  C   UNL     1      -5.099  15.136  14.021  1.00  0.00     0.198 A 
ATOM     79  C   UNL     1      -4.180  13.999  15.923  1.00  0.00     0.198 A 
ATOM     80  F   UNL     1      -1.920  13.341  15.920  1.00  0.00    -0.203 F 
ATOM     81  F   UNL     1      -6.128  15.748  13.419  1.00  0.00    -0.200 F 
ATOM     82  C   UNL     1      -5.255  14.608  15.294  1.00  0.00     0.200 A 
ATOM     83  F   UNL     1      -4.330  13.472  17.146  1.00  0.00    -0.200 F 
ATOM     84  F   UNL     1      -6.439  14.689  15.915  1.00  0.00    -0.200 F 
ENDBRANCH  50  74
BRANCH  62  85
ATOM     85  C   UNL     1       1.942  19.086  11.756  1.00  0.00     0.064 A 
ATOM     86  C   UNL     1       2.212  19.735  12.970  1.00  0.00     0.173 A 
ATOM     87  C   UNL     1       1.828  19.877  10.602  1.00  0.00     0.173 A 
ATOM     88  F   UNL     1       2.316  19.027  14.105  1.00  0.00    -0.203 F 
ATOM     89  C   UNL     1       2.349  21.119  13.028  1.00  0.00     0.198 A 
ATOM     90  C   UNL     1       1.999  21.258  10.658  1.00  0.00     0.198 A 
ATOM     91  F   UNL     1       1.577  19.308   9.413  1.00  0.00    -0.203 F 
ATOM     92  F   UNL     1       2.569  21.720  14.206  1.00  0.00    -0.200 F 
ATOM     93  C   UNL     1       2.255  21.878  11.871  1.00  0.00     0.200 A 
ATOM     94  F   UNL     1       1.926  21.987   9.536  1.00  0.00    -0.200 F 
ATOM     95  F   UNL     1       2.408  23.208  11.926  1.00  0.00    -0.200 F 
ENDBRANCH  62  85
ENDBRANCH  36  37
ENDBRANCH  29  31
ENDBRANCH  28  29
ENDBRANCH  27  28
ENDBRANCH   1  27
TORSDOF 16
