REMARK SMILES C[N@H+]1CCCN(c2nc3ccccc3c(=O)n2CC(=O)OCCOCCOC(=O)c2ccc(-c3c4nc(c(-c5c(F)c(F)c(F)c(F)c5F)c5ccc([nH]5)c(-c5c(F)c(F)c(F)c(F)c5F)c5nc(c(-c6c(F)c(F)c(F)c(F)c6F)c6ccc3[nH]6)C=C5)C=C4)cc2)CC1
REMARK SMILES IDX 22 1 21 2 19 3 20 4 18 5 17 6 7 7 8 8 9 9 15 10 10 11 14 12
REMARK SMILES IDX 16 13 11 14 13 15 12 16 6 17 93 18 94 19 2 20 1 21 3 23 5 25
REMARK SMILES IDX 4 26 23 28 24 29 25 30 26 31 27 32 28 33 29 34 30 35 31 36
REMARK SMILES IDX 92 37 32 38 91 39 33 40 34 41 35 42 85 43 36 44 90 45 84 46
REMARK SMILES IDX 86 47 37 48 89 49 83 50 82 51 38 53 70 54 50 55 69 56 51 57
REMARK SMILES IDX 54 58 68 59 87 60 52 61 53 62 67 64 88 65 55 66 39 67 40 68
REMARK SMILES IDX 48 69 41 70 42 71 46 72 49 73 43 74 44 75 47 76 45 77 71 78
REMARK SMILES IDX 72 79 80 80 73 81 74 82 78 83 81 84 75 85 76 86 79 87 77 88
REMARK SMILES IDX 56 89 57 90 65 91 58 92 59 93 63 94 66 95 60 96 61 97 64 98
REMARK SMILES IDX 62 99
REMARK H PARENT 2 22 86 52 54 63
REMARK Flexibility Score: 80.00
ROOT
ATOM      1  C   UNL     1      -3.018  -5.729  -4.368  1.00  0.00     0.261 C 
ENDROOT
BRANCH   1   2
ATOM      2  O   UNL     1      -2.173  -5.824  -3.206  1.00  0.00    -0.462 OA
BRANCH   2   3
ATOM      3  C   UNL     1      -2.649  -5.190  -2.097  1.00  0.00     0.326 C 
ATOM      4  O   UNL     1      -3.627  -4.447  -2.096  1.00  0.00    -0.250 OA
BRANCH   3   5
ATOM      5  C   UNL     1      -1.963  -5.587  -0.793  1.00  0.00     0.251 C 
BRANCH   5   6
ATOM      6  N   UNL     1      -0.686  -6.298  -0.853  1.00  0.00    -0.267 N 
ATOM      7  C   UNL     1       0.518  -5.635  -1.082  1.00  0.00     0.209 A 
ATOM      8  N   UNL     1       1.643  -6.282  -1.221  1.00  0.00    -0.214 NA
ATOM      9  C   UNL     1       1.662  -7.677  -1.119  1.00  0.00     0.080 A 
ATOM     10  C   UNL     1      -0.726  -7.671  -0.628  1.00  0.00     0.263 A 
ATOM     11  C   UNL     1       2.863  -8.366  -1.312  1.00  0.00     0.029 A 
ATOM     12  C   UNL     1       0.523  -8.412  -0.825  1.00  0.00     0.066 A 
ATOM     13  O   UNL     1      -1.727  -8.289  -0.270  1.00  0.00    -0.268 OA
ATOM     14  C   UNL     1       2.910  -9.764  -1.238  1.00  0.00     0.002 A 
ATOM     15  C   UNL     1       0.557  -9.811  -0.735  1.00  0.00     0.016 A 
ATOM     16  C   UNL     1       1.753 -10.488  -0.955  1.00  0.00     0.001 A 
BRANCH   7  17
ATOM     17  N   UNL     1       0.537  -4.252  -1.177  1.00  0.00    -0.336 N 
BRANCH  17  18
ATOM     18  C   UNL     1       0.292  -3.442   0.032  1.00  0.00     0.181 C 
BRANCH  18  19
ATOM     19  C   UNL     1       1.178  -2.202   0.230  1.00  0.00     0.283 C 
BRANCH  19  20
ATOM     20  N   UNL     1       0.696  -1.061  -0.571  1.00  0.00    -0.336 N 
ATOM     21  C   UNL     1       1.107   0.206   0.037  1.00  0.00     0.332 C 
ATOM     22  H   UNL     1      -0.322  -1.120  -0.578  1.00  0.00     0.347 HD
BRANCH  20  23
ATOM     23  C   UNL     1       1.139  -1.119  -1.968  1.00  0.00     0.263 CG0
ATOM     24  G   UNL     1       0.666  -2.348  -2.747  1.00  0.00     0.000 G0
ENDBRANCH  20  23
ENDBRANCH  19  20
ENDBRANCH  18  19
ENDBRANCH  17  18
BRANCH  17  25
ATOM     25  C   UNL     1       1.301  -3.647  -2.269  1.00  0.00     0.125 C 
BRANCH  25  26
ATOM     26  C   UNL     1       0.666  -2.348  -2.747  1.00  0.00     0.083 CG0
ATOM     27  G   UNL     1       1.139  -1.119  -1.968  1.00  0.00     0.000 G0
ENDBRANCH  25  26
ENDBRANCH  17  25
ENDBRANCH   7  17
ENDBRANCH   5   6
ENDBRANCH   3   5
ENDBRANCH   2   3
ENDBRANCH   1   2
BRANCH   1  28
ATOM     28  C   UNL     1      -3.554  -7.086  -4.847  1.00  0.00     0.202 C 
BRANCH  28  29
ATOM     29  O   UNL     1      -4.197  -7.927  -3.896  1.00  0.00    -0.374 OA
BRANCH  29  30
ATOM     30  C   UNL     1      -3.381  -8.534  -2.893  1.00  0.00     0.202 C 
BRANCH  30  31
ATOM     31  C   UNL     1      -2.380  -9.607  -3.339  1.00  0.00     0.261 C 
BRANCH  31  32
ATOM     32  O   UNL     1      -1.347  -9.087  -4.199  1.00  0.00    -0.460 OA
BRANCH  32  33
ATOM     33  C   UNL     1      -1.321  -9.623  -5.443  1.00  0.00     0.338 C 
ATOM     34  O   UNL     1      -2.011 -10.536  -5.875  1.00  0.00    -0.246 OA
BRANCH  33  35
ATOM     35  C   UNL     1      -0.464  -8.809  -6.324  1.00  0.00     0.060 A 
ATOM     36  C   UNL     1       0.890  -8.611  -6.056  1.00  0.00     0.016 A 
ATOM     37  C   UNL     1      -1.043  -8.287  -7.490  1.00  0.00     0.016 A 
ATOM     38  C   UNL     1       1.675  -7.913  -6.982  1.00  0.00     0.010 A 
ATOM     39  C   UNL     1      -0.261  -7.588  -8.407  1.00  0.00     0.010 A 
ATOM     40  C   UNL     1       1.110  -7.415  -8.171  1.00  0.00    -0.014 A 
BRANCH  40  41
ATOM     41  C   UNL     1       1.959  -6.812  -9.229  1.00  0.00     0.031 A 
ATOM     42  C   UNL     1       1.931  -5.338  -9.504  1.00  0.00     0.074 A 
ATOM     43  C   UNL     1       2.716  -7.626  -9.990  1.00  0.00     0.049 A 
ATOM     44  N   UNL     1       2.588  -4.654 -10.407  1.00  0.00    -0.248 NA
ATOM     45  C   UNL     1       1.041  -4.524  -8.663  1.00  0.00     0.031 C 
ATOM     46  C   UNL     1       2.788  -9.080  -9.844  1.00  0.00     0.029 A 
ATOM     47  N   UNL     1       3.556  -7.354 -11.041  1.00  0.00    -0.354 N 
ATOM     48  C   UNL     1       2.202  -3.332 -10.239  1.00  0.00     0.074 A 
ATOM     49  C   UNL     1       1.220  -3.312  -9.174  1.00  0.00     0.031 C 
ATOM     50  C   UNL     1       3.638  -9.571 -10.759  1.00  0.00     0.029 A 
ATOM     51  C   UNL     1       4.141  -8.474 -11.580  1.00  0.00     0.049 A 
ATOM     52  H   UNL     1       3.723  -6.444 -11.376  1.00  0.00     0.167 HD
ATOM     53  C   UNL     1       2.643  -2.237 -10.904  1.00  0.00     0.037 A 
ATOM     54  C   UNL     1       4.981  -8.603 -12.625  1.00  0.00     0.037 A 
ATOM     55  C   UNL     1       3.616  -2.267 -11.968  1.00  0.00     0.049 A 
ATOM     56  C   UNL     1       5.425  -7.372 -13.367  1.00  0.00     0.074 A 
ATOM     57  C   UNL     1       4.160  -1.203 -12.668  1.00  0.00     0.029 A 
ATOM     58  N   UNL     1       4.181  -3.419 -12.497  1.00  0.00    -0.354 N 
ATOM     59  N   UNL     1       5.114  -6.118 -13.149  1.00  0.00    -0.248 NA
ATOM     60  C   UNL     1       6.342  -7.574 -14.497  1.00  0.00     0.031 C 
ATOM     61  C   UNL     1       5.005  -1.713 -13.658  1.00  0.00     0.029 A 
ATOM     62  C   UNL     1       5.040  -3.092 -13.536  1.00  0.00     0.049 A 
ATOM     63  H   UNL     1       3.998  -4.334 -12.181  1.00  0.00     0.167 HD
ATOM     64  C   UNL     1       5.807  -5.381 -14.099  1.00  0.00     0.074 A 
ATOM     65  C   UNL     1       6.579  -6.327 -14.877  1.00  0.00     0.031 C 
ATOM     66  C   UNL     1       5.798  -4.042 -14.311  1.00  0.00     0.037 A 
BRANCH  53  67
ATOM     67  C   UNL     1       2.092  -0.897 -10.505  1.00  0.00     0.064 A 
ATOM     68  C   UNL     1       2.447  -0.293  -9.290  1.00  0.00     0.173 A 
ATOM     69  C   UNL     1       1.285  -0.165 -11.390  1.00  0.00     0.173 A 
ATOM     70  F   UNL     1       3.210  -0.952  -8.405  1.00  0.00    -0.203 F 
ATOM     71  C   UNL     1       2.009   0.991  -8.973  1.00  0.00     0.198 A 
ATOM     72  C   UNL     1       0.872   1.129 -11.081  1.00  0.00     0.198 A 
ATOM     73  F   UNL     1       0.922  -0.693 -12.569  1.00  0.00    -0.203 F 
ATOM     74  F   UNL     1       2.341   1.537  -7.795  1.00  0.00    -0.200 F 
ATOM     75  C   UNL     1       1.233   1.705  -9.873  1.00  0.00     0.200 A 
ATOM     76  F   UNL     1       0.136   1.824 -11.960  1.00  0.00    -0.200 F 
ATOM     77  F   UNL     1       0.834   2.949  -9.576  1.00  0.00    -0.200 F 
ENDBRANCH  53  67
BRANCH  54  78
ATOM     78  C   UNL     1       5.469  -9.952 -13.016  1.00  0.00     0.064 A 
ATOM     79  C   UNL     1       6.814 -10.309 -12.846  1.00  0.00     0.173 A 
ATOM     80  C   UNL     1       4.602 -10.915 -13.555  1.00  0.00     0.173 A 
ATOM     81  F   UNL     1       7.686  -9.417 -12.355  1.00  0.00    -0.203 F 
ATOM     82  C   UNL     1       7.276 -11.572 -13.213  1.00  0.00     0.198 A 
ATOM     83  C   UNL     1       5.058 -12.187 -13.892  1.00  0.00     0.198 A 
ATOM     84  F   UNL     1       3.305 -10.624 -13.736  1.00  0.00    -0.203 F 
ATOM     85  F   UNL     1       8.575 -11.871 -13.080  1.00  0.00    -0.200 F 
ATOM     86  C   UNL     1       6.396 -12.512 -13.728  1.00  0.00     0.200 A 
ATOM     87  F   UNL     1       4.202 -13.098 -14.373  1.00  0.00    -0.200 F 
ATOM     88  F   UNL     1       6.839 -13.729 -14.070  1.00  0.00    -0.200 F 
ENDBRANCH  54  78
BRANCH  66  89
ATOM     89  C   UNL     1       6.656  -3.513 -15.427  1.00  0.00     0.064 A 
ATOM     90  C   UNL     1       6.343  -3.757 -16.773  1.00  0.00     0.173 A 
ATOM     91  C   UNL     1       7.777  -2.715 -15.150  1.00  0.00     0.173 A 
ATOM     92  F   UNL     1       5.289  -4.524 -17.092  1.00  0.00    -0.203 F 
ATOM     93  C   UNL     1       7.134  -3.245 -17.798  1.00  0.00     0.198 A 
ATOM     94  C   UNL     1       8.546  -2.175 -16.178  1.00  0.00     0.198 A 
ATOM     95  F   UNL     1       8.118  -2.442 -13.882  1.00  0.00    -0.203 F 
ATOM     96  F   UNL     1       6.844  -3.535 -19.074  1.00  0.00    -0.200 F 
ATOM     97  C   UNL     1       8.229  -2.447 -17.500  1.00  0.00     0.200 A 
ATOM     98  F   UNL     1       9.592  -1.389 -15.889  1.00  0.00    -0.200 F 
ATOM     99  F   UNL     1       8.983  -1.946 -18.488  1.00  0.00    -0.200 F 
ENDBRANCH  66  89
ENDBRANCH  40  41
ENDBRANCH  33  35
ENDBRANCH  32  33
ENDBRANCH  31  32
ENDBRANCH  30  31
ENDBRANCH  29  30
ENDBRANCH  28  29
ENDBRANCH   1  28
TORSDOF 16
