REMARK SMILES C=CC[N@@H+](CC(=O)OCCOCCOC(=O)c1ccc(-c2c3nc(c(-c4c(F)c(F)c(F)c(F)c4F)c4ccc([nH]4)c(-c4c(F)c(F)c(F)c(F)c4F)c4nc(c(-c5c(F)c(F)c(F)c(F)c5F)c5ccc2[nH]5)C=C4)C=C3)cc1)Cc1ccc([N+](=O)[O-])o1
REMARK SMILES IDX 10 1 9 2 8 3 6 4 7 5 5 6 4 7 3 9 2 10 1 11 80 12 81 13 82 14
REMARK SMILES IDX 88 15 83 16 84 17 85 18 86 19 87 20 11 21 12 22 13 23 14 24
REMARK SMILES IDX 15 25 16 26 17 27 18 28 79 29 19 30 78 31 20 32 21 33 22 34
REMARK SMILES IDX 72 35 23 36 77 37 71 38 73 39 24 40 76 41 70 42 69 43 25 45
REMARK SMILES IDX 57 46 37 47 56 48 38 49 41 50 55 51 74 52 39 53 40 54 54 56
REMARK SMILES IDX 75 57 42 58 26 59 27 60 35 61 28 62 29 63 33 64 36 65 30 66
REMARK SMILES IDX 31 67 34 68 32 69 58 70 59 71 67 72 60 73 61 74 65 75 68 76
REMARK SMILES IDX 62 77 63 78 66 79 64 80 43 81 44 82 52 83 45 84 46 85 50 86
REMARK SMILES IDX 53 87 47 88 48 89 51 90 49 91
REMARK H PARENT 4 8 73 44 41 55
REMARK Flexibility Score: inf
ROOT
ATOM      1  C   UNL     1      -4.691   0.580   2.229  1.00  0.00     0.202 C 
ENDROOT
BRANCH   1   2
ATOM      2  C   UNL     1      -4.976  -0.165   0.914  1.00  0.00     0.261 C 
BRANCH   2   3
ATOM      3  O   UNL     1      -4.000   0.035  -0.126  1.00  0.00    -0.459 OA
BRANCH   3   4
ATOM      4  C   UNL     1      -4.403   0.813  -1.167  1.00  0.00     0.361 C 
ATOM      5  O   UNL     1      -5.535   1.279  -1.273  1.00  0.00    -0.245 OA
BRANCH   4   6
ATOM      6  C   UNL     1      -3.352   1.022  -2.252  1.00  0.00     0.387 C 
BRANCH   6   7
ATOM      7  N   UNL     1      -1.933   1.157  -1.874  1.00  0.00    -0.316 N 
ATOM      8  H   UNL     1      -1.486   1.373  -2.765  1.00  0.00     0.349 HD
BRANCH   7   9
ATOM      9  C   UNL     1      -1.257  -0.084  -1.535  1.00  0.00     0.291 C 
BRANCH   9  10
ATOM     10  C   UNL     1       0.239   0.056  -1.527  1.00  0.00     0.025 C 
ATOM     11  C   UNL     1       1.003  -0.120  -0.441  1.00  0.00     0.010 C 
ENDBRANCH   9  10
ENDBRANCH   7   9
BRANCH   7  12
ATOM     12  C   UNL     1      -1.544   2.373  -1.164  1.00  0.00     0.339 C 
BRANCH  12  13
ATOM     13  C   UNL     1      -1.807   2.393   0.298  1.00  0.00     0.165 A 
ATOM     14  C   UNL     1      -2.065   1.244   1.612  1.00  0.00     0.059 A 
ATOM     15  O   UNL     1      -2.200   4.065   1.064  1.00  0.00    -0.400 OA
ATOM     16  C   UNL     1      -2.538   2.210   3.231  1.00  0.00     0.134 A 
ATOM     17  C   UNL     1      -2.688   3.905   2.865  1.00  0.00     0.433 A 
BRANCH  17  18
ATOM     18  N   UNL     1      -3.053   5.075   3.575  1.00  0.00     0.102 N 
ATOM     19  O   UNL     1      -3.423   4.909   4.742  1.00  0.00    -0.256 OA
ATOM     20  O   UNL     1      -2.958   6.146   2.970  1.00  0.00    -0.256 OA
ENDBRANCH  17  18
ENDBRANCH  12  13
ENDBRANCH   7  12
ENDBRANCH   6   7
ENDBRANCH   4   6
ENDBRANCH   3   4
ENDBRANCH   2   3
ENDBRANCH   1   2
BRANCH   1  21
ATOM     21  O   UNL     1      -4.529   2.012   2.235  1.00  0.00    -0.374 OA
BRANCH  21  22
ATOM     22  C   UNL     1      -3.342   2.709   1.475  1.00  0.00     0.202 C 
BRANCH  22  23
ATOM     23  C   UNL     1      -1.163   2.955   2.043  1.00  0.00     0.261 C 
BRANCH  23  24
ATOM     24  O   UNL     1      -0.135   1.781   2.440  1.00  0.00    -0.460 OA
BRANCH  24  25
ATOM     25  C   UNL     1       0.127   1.555   3.751  1.00  0.00     0.338 C 
ATOM     26  O   UNL     1       0.049   2.358   4.664  1.00  0.00    -0.246 OA
BRANCH  25  27
ATOM     27  C   UNL     1       0.115   0.090   3.963  1.00  0.00     0.060 A 
ATOM     28  C   UNL     1      -0.881  -0.432   4.802  1.00  0.00     0.016 A 
ATOM     29  C   UNL     1       1.059  -0.754   3.378  1.00  0.00     0.016 A 
ATOM     30  C   UNL     1      -0.885  -1.780   5.133  1.00  0.00     0.010 A 
ATOM     31  C   UNL     1       1.059  -2.111   3.716  1.00  0.00     0.010 A 
ATOM     32  C   UNL     1       0.131  -2.609   4.650  1.00  0.00    -0.014 A 
BRANCH  32  33
ATOM     33  C   UNL     1       0.377  -3.891   5.353  1.00  0.00     0.031 A 
ATOM     34  C   UNL     1       1.500  -3.939   6.356  1.00  0.00     0.074 A 
ATOM     35  C   UNL     1      -0.431  -4.949   5.176  1.00  0.00     0.049 A 
ATOM     36  N   UNL     1       1.922  -4.934   7.092  1.00  0.00    -0.248 NA
ATOM     37  C   UNL     1       2.255  -2.689   6.552  1.00  0.00     0.031 C 
ATOM     38  C   UNL     1      -1.583  -4.989   4.278  1.00  0.00     0.029 A 
ATOM     39  N   UNL     1      -0.404  -6.194   5.750  1.00  0.00    -0.354 N 
ATOM     40  C   UNL     1       3.002  -4.437   7.813  1.00  0.00     0.074 A 
ATOM     41  C   UNL     1       3.195  -3.065   7.403  1.00  0.00     0.031 C 
ATOM     42  C   UNL     1      -2.151  -6.205   4.356  1.00  0.00     0.029 A 
ATOM     43  C   UNL     1      -1.380  -7.035   5.279  1.00  0.00     0.049 A 
ATOM     44  H   UNL     1       0.253  -6.458   6.434  1.00  0.00     0.167 HD
ATOM     45  C   UNL     1       3.759  -5.068   8.742  1.00  0.00     0.037 A 
ATOM     46  C   UNL     1      -1.606  -8.334   5.551  1.00  0.00     0.037 A 
ATOM     47  C   UNL     1       3.544  -6.431   9.150  1.00  0.00     0.049 A 
ATOM     48  C   UNL     1      -0.720  -9.031   6.551  1.00  0.00     0.074 A 
ATOM     49  C   UNL     1       4.233  -7.170  10.095  1.00  0.00     0.029 A 
ATOM     50  N   UNL     1       2.563  -7.263   8.629  1.00  0.00    -0.354 N 
ATOM     51  N   UNL     1       0.296  -8.556   7.233  1.00  0.00    -0.248 NA
ATOM     52  C   UNL     1      -1.023 -10.440   6.829  1.00  0.00     0.031 C 
ATOM     53  C   UNL     1       3.715  -8.469  10.093  1.00  0.00     0.029 A 
ATOM     54  C   UNL     1       2.648  -8.518   9.209  1.00  0.00     0.049 A 
ATOM     55  H   UNL     1       1.903  -7.000   7.947  1.00  0.00     0.167 HD
ATOM     56  C   UNL     1       0.735  -9.597   8.042  1.00  0.00     0.074 A 
ATOM     57  C   UNL     1      -0.142 -10.720   7.779  1.00  0.00     0.031 C 
ATOM     58  C   UNL     1       1.767  -9.624   8.924  1.00  0.00     0.037 A 
BRANCH  45  59
ATOM     59  C   UNL     1       4.913  -4.307   9.336  1.00  0.00     0.064 A 
ATOM     60  C   UNL     1       4.728  -3.196  10.175  1.00  0.00     0.173 A 
ATOM     61  C   UNL     1       6.232  -4.706   9.067  1.00  0.00     0.173 A 
ATOM     62  F   UNL     1       3.490  -2.757  10.452  1.00  0.00    -0.203 F 
ATOM     63  C   UNL     1       5.816  -2.496  10.692  1.00  0.00     0.198 A 
ATOM     64  C   UNL     1       7.317  -4.027   9.616  1.00  0.00     0.198 A 
ATOM     65  F   UNL     1       6.471  -5.759   8.271  1.00  0.00    -0.203 F 
ATOM     66  F   UNL     1       5.614  -1.401  11.438  1.00  0.00    -0.200 F 
ATOM     67  C   UNL     1       7.109  -2.917  10.419  1.00  0.00     0.200 A 
ATOM     68  F   UNL     1       8.564  -4.445   9.362  1.00  0.00    -0.200 F 
ATOM     69  F   UNL     1       8.155  -2.247  10.922  1.00  0.00    -0.200 F 
ENDBRANCH  45  59
BRANCH  46  70
ATOM     70  C   UNL     1      -2.708  -9.054   4.859  1.00  0.00     0.064 A 
ATOM     71  C   UNL     1      -3.832  -9.515   5.559  1.00  0.00     0.173 A 
ATOM     72  C   UNL     1      -2.662  -9.290   3.476  1.00  0.00     0.173 A 
ATOM     73  F   UNL     1      -3.915  -9.334   6.885  1.00  0.00    -0.203 F 
ATOM     74  C   UNL     1      -4.858 -10.197   4.907  1.00  0.00     0.198 A 
ATOM     75  C   UNL     1      -3.704  -9.941   2.820  1.00  0.00     0.198 A 
ATOM     76  F   UNL     1      -1.612  -8.868   2.757  1.00  0.00    -0.203 F 
ATOM     77  F   UNL     1      -5.900 -10.664   5.607  1.00  0.00    -0.200 F 
ATOM     78  C   UNL     1      -4.798 -10.401   3.536  1.00  0.00     0.200 A 
ATOM     79  F   UNL     1      -3.650 -10.117   1.492  1.00  0.00    -0.200 F 
ATOM     80  F   UNL     1      -5.791 -11.043   2.907  1.00  0.00    -0.200 F 
ENDBRANCH  46  70
BRANCH  58  81
ATOM     81  C   UNL     1       1.968 -10.899   9.697  1.00  0.00     0.064 A 
ATOM     82  C   UNL     1       2.385 -12.087   9.077  1.00  0.00     0.173 A 
ATOM     83  C   UNL     1       1.740 -10.928  11.082  1.00  0.00     0.173 A 
ATOM     84  F   UNL     1       2.609 -12.116   7.755  1.00  0.00    -0.203 F 
ATOM     85  C   UNL     1       2.508 -13.268   9.804  1.00  0.00     0.198 A 
ATOM     86  C   UNL     1       1.907 -12.101  11.813  1.00  0.00     0.198 A 
ATOM     87  F   UNL     1       1.355  -9.818  11.729  1.00  0.00    -0.203 F 
ATOM     88  F   UNL     1       2.826 -14.408   9.175  1.00  0.00    -0.200 F 
ATOM     89  C   UNL     1       2.274 -13.273  11.171  1.00  0.00     0.200 A 
ATOM     90  F   UNL     1       1.702 -12.098  13.137  1.00  0.00    -0.200 F 
ATOM     91  F   UNL     1       2.389 -14.412  11.868  1.00  0.00    -0.200 F 
ENDBRANCH  58  81
ENDBRANCH  32  33
ENDBRANCH  25  27
ENDBRANCH  24  25
ENDBRANCH  23  24
ENDBRANCH  22  23
ENDBRANCH  21  22
ENDBRANCH   1  21
TORSDOF 20
