REMARK SMILES C[C@@H]1CC[N@@H+]1[C@@H](CO)C(=O)OCCOCCOC(=O)c1ccc(-c2c3nc(c(-c4c(F)c(F)c(F)c(F)c4F)c4ccc([nH]4)c(-c4c(F)c(F)c(F)c(F)c4F)c4nc(c(-c5c(F)c(F)c(F)c(F)c5F)c5ccc2[nH]5)C=C4)C=C3)cc1
REMARK SMILES IDX 14 1 13 2 12 3 11 4 9 5 10 6 6 7 5 8 1 9 2 10 3 11 4 12 7 14
REMARK SMILES IDX 8 15 15 17 16 18 17 19 18 20 19 21 20 22 21 23 82 24 22 25
REMARK SMILES IDX 81 26 23 27 24 28 25 29 75 30 26 31 80 32 74 33 76 34 27 35
REMARK SMILES IDX 79 36 73 37 72 38 28 40 60 41 40 42 59 43 41 44 44 45 58 46
REMARK SMILES IDX 77 47 42 48 43 49 57 51 78 52 45 53 29 54 30 55 38 56 31 57
REMARK SMILES IDX 32 58 36 59 39 60 33 61 34 62 37 63 35 64 61 65 62 66 70 67
REMARK SMILES IDX 63 68 64 69 68 70 71 71 65 72 66 73 69 74 67 75 46 76 47 77
REMARK SMILES IDX 55 78 48 79 49 80 53 81 56 82 50 83 51 84 54 85 52 86
REMARK H PARENT 5 13 8 16 76 39 44 50
REMARK Flexibility Score: inf
ROOT
ATOM      1  O   UNL     1       1.669  -6.366   1.924  1.00  0.00    -0.374 OA
ENDROOT
BRANCH   1   2
ATOM      2  C   UNL     1       2.713  -5.991   2.821  1.00  0.00     0.202 C 
BRANCH   2   3
ATOM      3  C   UNL     1       3.794  -5.077   2.239  1.00  0.00     0.261 C 
BRANCH   3   4
ATOM      4  O   UNL     1       3.311  -3.732   2.063  1.00  0.00    -0.459 OA
BRANCH   4   5
ATOM      5  C   UNL     1       3.168  -3.305   0.774  1.00  0.00     0.367 C 
ATOM      6  O   UNL     1       3.517  -3.945  -0.212  1.00  0.00    -0.245 OA
BRANCH   5   7
ATOM      7  C   UNL     1       2.589  -1.885   0.687  1.00  0.00     0.321 C 
BRANCH   7   8
ATOM      8  N   UNL     1       1.307  -1.797   1.438  1.00  0.00    -0.319 N 
ATOM      9  C   UNL     1       0.595   0.173  -0.082  1.00  0.00     0.075 C 
ATOM     10  C   UNL     1       0.491  -0.568   1.235  1.00  0.00     0.187 C 
ATOM     11  C   UNL     1       1.127   0.031   2.505  1.00  0.00     0.126 C 
ATOM     12  C   UNL     1       1.438  -1.433   2.870  1.00  0.00     0.269 C 
ATOM     13  H   UNL     1       0.947  -2.706   1.147  1.00  0.00     0.349 HD
ENDBRANCH   7   8
BRANCH   7  14
ATOM     14  C   UNL     1       3.777  -0.913   0.868  1.00  0.00     0.233 C 
BRANCH  14  15
ATOM     15  O   UNL     1       4.263  -0.791   2.202  1.00  0.00    -0.390 OA
ATOM     16  H   UNL     1       3.566  -0.425   2.768  1.00  0.00     0.210 HD
ENDBRANCH  14  15
ENDBRANCH   7  14
ENDBRANCH   5   7
ENDBRANCH   4   5
ENDBRANCH   3   4
ENDBRANCH   2   3
ENDBRANCH   1   2
BRANCH   1  17
ATOM     17  C   UNL     1       0.637  -5.407   1.696  1.00  0.00     0.202 C 
BRANCH  17  18
ATOM     18  C   UNL     1      -0.458  -5.339   2.766  1.00  0.00     0.261 C 
BRANCH  18  19
ATOM     19  O   UNL     1       0.047  -4.861   4.027  1.00  0.00    -0.460 OA
BRANCH  19  20
ATOM     20  C   UNL     1       0.108  -5.791   5.005  1.00  0.00     0.338 C 
ATOM     21  O   UNL     1      -0.289  -6.950   4.957  1.00  0.00    -0.246 OA
BRANCH  20  22
ATOM     22  C   UNL     1       0.883  -5.281   6.150  1.00  0.00     0.060 A 
ATOM     23  C   UNL     1       1.901  -6.101   6.654  1.00  0.00     0.016 A 
ATOM     24  C   UNL     1       0.571  -4.072   6.778  1.00  0.00     0.016 A 
ATOM     25  C   UNL     1       2.568  -5.748   7.824  1.00  0.00     0.010 A 
ATOM     26  C   UNL     1       1.239  -3.721   7.957  1.00  0.00     0.010 A 
ATOM     27  C   UNL     1       2.209  -4.579   8.508  1.00  0.00    -0.014 A 
BRANCH  27  28
ATOM     28  C   UNL     1       2.739  -4.351   9.874  1.00  0.00     0.031 A 
ATOM     29  C   UNL     1       1.885  -4.717  11.057  1.00  0.00     0.074 A 
ATOM     30  C   UNL     1       3.981  -3.873  10.062  1.00  0.00     0.049 A 
ATOM     31  N   UNL     1       2.148  -4.619  12.336  1.00  0.00    -0.248 NA
ATOM     32  C   UNL     1       0.554  -5.268  10.758  1.00  0.00     0.031 C 
ATOM     33  C   UNL     1       4.916  -3.513   8.999  1.00  0.00     0.029 A 
ATOM     34  N   UNL     1       4.669  -3.610  11.221  1.00  0.00    -0.354 N 
ATOM     35  C   UNL     1       1.018  -5.091  12.991  1.00  0.00     0.074 A 
ATOM     36  C   UNL     1       0.054  -5.446  11.972  1.00  0.00     0.031 C 
ATOM     37  C   UNL     1       6.056  -3.068   9.555  1.00  0.00     0.029 A 
ATOM     38  C   UNL     1       5.921  -3.091  11.010  1.00  0.00     0.049 A 
ATOM     39  H   UNL     1       4.298  -3.778  12.117  1.00  0.00     0.167 HD
ATOM     40  C   UNL     1       0.808  -5.229  14.322  1.00  0.00     0.037 A 
ATOM     41  C   UNL     1       6.847  -2.670  11.894  1.00  0.00     0.037 A 
ATOM     42  C   UNL     1       1.768  -4.882  15.336  1.00  0.00     0.049 A 
ATOM     43  C   UNL     1       6.568  -2.783  13.370  1.00  0.00     0.074 A 
ATOM     44  C   UNL     1       1.657  -5.010  16.710  1.00  0.00     0.029 A 
ATOM     45  N   UNL     1       3.016  -4.331  15.085  1.00  0.00    -0.354 N 
ATOM     46  N   UNL     1       5.511  -3.264  13.980  1.00  0.00    -0.248 NA
ATOM     47  C   UNL     1       7.615  -2.299  14.282  1.00  0.00     0.031 C 
ATOM     48  C   UNL     1       2.820  -4.492  17.292  1.00  0.00     0.029 A 
ATOM     49  C   UNL     1       3.675  -4.089  16.279  1.00  0.00     0.049 A 
ATOM     50  H   UNL     1       3.379  -4.141  14.190  1.00  0.00     0.167 HD
ATOM     51  C   UNL     1       5.776  -3.166  15.340  1.00  0.00     0.074 A 
ATOM     52  C   UNL     1       7.099  -2.592  15.467  1.00  0.00     0.031 C 
ATOM     53  C   UNL     1       4.994  -3.522  16.390  1.00  0.00     0.037 A 
BRANCH  40  54
ATOM     54  C   UNL     1      -0.526  -5.759  14.760  1.00  0.00     0.064 A 
ATOM     55  C   UNL     1      -0.880  -7.104  14.580  1.00  0.00     0.173 A 
ATOM     56  C   UNL     1      -1.450  -4.915  15.394  1.00  0.00     0.173 A 
ATOM     57  F   UNL     1      -0.037  -7.948  13.966  1.00  0.00    -0.203 F 
ATOM     58  C   UNL     1      -2.121  -7.580  14.998  1.00  0.00     0.198 A 
ATOM     59  C   UNL     1      -2.679  -5.400  15.835  1.00  0.00     0.198 A 
ATOM     60  F   UNL     1      -1.159  -3.621  15.593  1.00  0.00    -0.203 F 
ATOM     61  F   UNL     1      -2.456  -8.858  14.776  1.00  0.00    -0.200 F 
ATOM     62  C   UNL     1      -3.016  -6.730  15.630  1.00  0.00     0.200 A 
ATOM     63  F   UNL     1      -3.538  -4.580  16.456  1.00  0.00    -0.200 F 
ATOM     64  F   UNL     1      -4.207  -7.190  16.037  1.00  0.00    -0.200 F 
ENDBRANCH  40  54
BRANCH  41  65
ATOM     65  C   UNL     1       8.129  -2.098  11.407  1.00  0.00     0.064 A 
ATOM     66  C   UNL     1       9.340  -2.780  11.583  1.00  0.00     0.173 A 
ATOM     67  C   UNL     1       8.167  -0.851  10.767  1.00  0.00     0.173 A 
ATOM     68  F   UNL     1       9.357  -3.964  12.212  1.00  0.00    -0.203 F 
ATOM     69  C   UNL     1      10.545  -2.228  11.151  1.00  0.00     0.198 A 
ATOM     70  C   UNL     1       9.369  -0.312  10.312  1.00  0.00     0.198 A 
ATOM     71  F   UNL     1       7.035  -0.158  10.577  1.00  0.00    -0.203 F 
ATOM     72  F   UNL     1      11.695  -2.880  11.370  1.00  0.00    -0.200 F 
ATOM     73  C   UNL     1      10.557  -0.998  10.510  1.00  0.00     0.200 A 
ATOM     74  F   UNL     1       9.375   0.872   9.684  1.00  0.00    -0.200 F 
ATOM     75  F   UNL     1      11.716  -0.469  10.092  1.00  0.00    -0.200 F 
ENDBRANCH  41  65
BRANCH  53  76
ATOM     76  C   UNL     1       5.560  -3.331  17.767  1.00  0.00     0.064 A 
ATOM     77  C   UNL     1       5.704  -2.056  18.334  1.00  0.00     0.173 A 
ATOM     78  C   UNL     1       5.924  -4.441  18.545  1.00  0.00     0.173 A 
ATOM     79  F   UNL     1       5.383  -0.963  17.626  1.00  0.00    -0.203 F 
ATOM     80  C   UNL     1       6.215  -1.899  19.620  1.00  0.00     0.198 A 
ATOM     81  C   UNL     1       6.408  -4.281  19.840  1.00  0.00     0.198 A 
ATOM     82  F   UNL     1       5.798  -5.682  18.052  1.00  0.00    -0.203 F 
ATOM     83  F   UNL     1       6.388  -0.669  20.124  1.00  0.00    -0.200 F 
ATOM     84  C   UNL     1       6.560  -3.010  20.374  1.00  0.00     0.200 A 
ATOM     85  F   UNL     1       6.728  -5.357  20.572  1.00  0.00    -0.200 F 
ATOM     86  F   UNL     1       7.047  -2.857  21.613  1.00  0.00    -0.200 F 
ENDBRANCH  53  76
ENDBRANCH  27  28
ENDBRANCH  20  22
ENDBRANCH  19  20
ENDBRANCH  18  19
ENDBRANCH  17  18
ENDBRANCH   1  17
TORSDOF 17
