REMARK SMILES CC(C)(C#N)Nc1ccccc1C(=O)OCCOCCOC(=O)c1ccc(-c2c3nc(c(-c4c(F)c(F)c(F)c(F)c4F)c4ccc([nH]4)c(-c4c(F)c(F)c(F)c(F)c4F)c4nc(c(-c5c(F)c(F)c(F)c(F)c5F)c5ccc2[nH]5)C=C4)C=C3)cc1
REMARK SMILES IDX 17 1 16 2 15 3 13 4 14 5 12 6 7 7 8 8 9 9 11 10 10 11 6 12
REMARK SMILES IDX 2 14 1 15 3 16 4 17 5 18 18 19 19 20 20 21 21 22 22 23 23 24
REMARK SMILES IDX 24 25 25 26 86 27 26 28 85 29 27 30 28 31 29 32 79 33 30 34
REMARK SMILES IDX 84 35 78 36 80 37 31 38 83 39 77 40 76 41 32 43 64 44 44 45
REMARK SMILES IDX 63 46 45 47 48 48 62 49 81 50 46 51 47 52 61 54 82 55 49 56
REMARK SMILES IDX 33 57 34 58 42 59 35 60 36 61 40 62 43 63 37 64 38 65 41 66
REMARK SMILES IDX 39 67 65 68 66 69 74 70 67 71 68 72 72 73 75 74 69 75 70 76
REMARK SMILES IDX 73 77 71 78 50 79 51 80 59 81 52 82 53 83 57 84 60 85 54 86
REMARK SMILES IDX 55 87 58 88 56 89
REMARK H PARENT 6 13 80 42 48 53
REMARK Flexibility Score: inf
ROOT
ATOM      1  C   UNL     1      -4.480   0.969   1.448  1.00  0.00     0.202 C 
ENDROOT
BRANCH   1   2
ATOM      2  C   UNL     1      -3.502  -0.202   1.472  1.00  0.00     0.261 C 
BRANCH   2   3
ATOM      3  O   UNL     1      -2.966  -0.462   0.162  1.00  0.00    -0.460 OA
BRANCH   3   4
ATOM      4  C   UNL     1      -3.043  -1.745  -0.255  1.00  0.00     0.340 C 
ATOM      5  O   UNL     1      -3.548  -2.666   0.371  1.00  0.00    -0.246 OA
BRANCH   4   6
ATOM      6  C   UNL     1      -2.549  -1.911  -1.641  1.00  0.00     0.083 A 
ATOM      7  C   UNL     1      -1.413  -1.323  -2.232  1.00  0.00     0.050 A 
ATOM      8  C   UNL     1      -1.166  -1.701  -3.581  1.00  0.00     0.026 A 
ATOM      9  C   UNL     1      -1.986  -2.568  -4.311  1.00  0.00     0.002 A 
ATOM     10  C   UNL     1      -3.393  -2.767  -2.397  1.00  0.00     0.018 A 
ATOM     11  C   UNL     1      -3.117  -3.094  -3.720  1.00  0.00     0.001 A 
BRANCH   7  12
ATOM     12  N   UNL     1      -0.446  -0.489  -1.710  1.00  0.00    -0.367 N 
ATOM     13  H   UNL     1      -0.042   0.076  -2.407  1.00  0.00     0.162 HD
BRANCH  12  14
ATOM     14  C   UNL     1       0.142  -0.221  -0.386  1.00  0.00     0.119 C 
ATOM     15  C   UNL     1      -0.399   1.126   0.129  1.00  0.00     0.051 C 
ATOM     16  C   UNL     1       0.005  -1.373   0.614  1.00  0.00     0.051 C 
BRANCH  14  17
ATOM     17  C   UNL     1       1.625  -0.034  -0.559  1.00  0.00     0.090 C 
ATOM     18  N   UNL     1       2.765   0.133  -0.686  1.00  0.00    -0.196 NA
ENDBRANCH  14  17
ENDBRANCH  12  14
ENDBRANCH   7  12
ENDBRANCH   4   6
ENDBRANCH   3   4
ENDBRANCH   2   3
ENDBRANCH   1   2
BRANCH   1  19
ATOM     19  O   UNL     1      -5.666   0.822   0.674  1.00  0.00    -0.374 OA
BRANCH  19  20
ATOM     20  C   UNL     1      -5.542   0.630  -0.731  1.00  0.00     0.202 C 
BRANCH  20  21
ATOM     21  C   UNL     1      -5.096   1.817  -1.599  1.00  0.00     0.261 C 
BRANCH  21  22
ATOM     22  O   UNL     1      -3.900   2.485  -1.168  1.00  0.00    -0.460 OA
BRANCH  22  23
ATOM     23  C   UNL     1      -4.126   3.630  -0.477  1.00  0.00     0.338 C 
ATOM     24  O   UNL     1      -5.200   4.101  -0.146  1.00  0.00    -0.246 OA
BRANCH  23  25
ATOM     25  C   UNL     1      -2.849   4.229  -0.054  1.00  0.00     0.060 A 
ATOM     26  C   UNL     1      -2.594   4.366   1.315  1.00  0.00     0.016 A 
ATOM     27  C   UNL     1      -1.987   4.786  -0.999  1.00  0.00     0.016 A 
ATOM     28  C   UNL     1      -1.497   5.110   1.747  1.00  0.00     0.010 A 
ATOM     29  C   UNL     1      -0.888   5.532  -0.563  1.00  0.00     0.010 A 
ATOM     30  C   UNL     1      -0.662   5.734   0.811  1.00  0.00    -0.014 A 
BRANCH  30  31
ATOM     31  C   UNL     1       0.360   6.714   1.262  1.00  0.00     0.031 A 
ATOM     32  C   UNL     1       0.116   8.184   1.047  1.00  0.00     0.074 A 
ATOM     33  C   UNL     1       1.485   6.301   1.871  1.00  0.00     0.049 A 
ATOM     34  N   UNL     1       0.897   9.205   1.300  1.00  0.00    -0.248 NA
ATOM     35  C   UNL     1      -1.183   8.554   0.462  1.00  0.00     0.031 C 
ATOM     36  C   UNL     1       1.820   4.912   2.172  1.00  0.00     0.029 A 
ATOM     37  N   UNL     1       2.560   7.016   2.337  1.00  0.00    -0.354 N 
ATOM     38  C   UNL     1       0.189  10.332   0.900  1.00  0.00     0.074 A 
ATOM     39  C   UNL     1      -1.064   9.868   0.346  1.00  0.00     0.031 C 
ATOM     40  C   UNL     1       3.023   4.873   2.770  1.00  0.00     0.029 A 
ATOM     41  C   UNL     1       3.560   6.230   2.854  1.00  0.00     0.049 A 
ATOM     42  H   UNL     1       2.610   7.999   2.305  1.00  0.00     0.167 HD
ATOM     43  C   UNL     1       0.546  11.636   1.000  1.00  0.00     0.037 A 
ATOM     44  C   UNL     1       4.780   6.567   3.316  1.00  0.00     0.037 A 
ATOM     45  C   UNL     1       1.798  12.093   1.548  1.00  0.00     0.049 A 
ATOM     46  C   UNL     1       5.191   8.019   3.326  1.00  0.00     0.074 A 
ATOM     47  C   UNL     1       2.251  13.392   1.698  1.00  0.00     0.029 A 
ATOM     48  N   UNL     1       2.800  11.263   2.029  1.00  0.00    -0.354 N 
ATOM     49  N   UNL     1       4.509   9.080   2.967  1.00  0.00    -0.248 NA
ATOM     50  C   UNL     1       6.546   8.318   3.812  1.00  0.00     0.031 C 
ATOM     51  C   UNL     1       3.553  13.346   2.206  1.00  0.00     0.029 A 
ATOM     52  C   UNL     1       3.881  12.023   2.450  1.00  0.00     0.049 A 
ATOM     53  H   UNL     1       2.752  10.281   2.066  1.00  0.00     0.167 HD
ATOM     54  C   UNL     1       5.331  10.170   3.227  1.00  0.00     0.074 A 
ATOM     55  C   UNL     1       6.558   9.643   3.785  1.00  0.00     0.031 C 
ATOM     56  C   UNL     1       5.090  11.489   3.025  1.00  0.00     0.037 A 
BRANCH  43  57
ATOM     57  C   UNL     1      -0.421  12.666   0.485  1.00  0.00     0.064 A 
ATOM     58  C   UNL     1      -1.649  12.909   1.119  1.00  0.00     0.173 A 
ATOM     59  C   UNL     1      -0.096  13.451  -0.633  1.00  0.00     0.173 A 
ATOM     60  F   UNL     1      -2.014  12.183   2.186  1.00  0.00    -0.203 F 
ATOM     61  C   UNL     1      -2.528  13.875   0.635  1.00  0.00     0.198 A 
ATOM     62  C   UNL     1      -0.961  14.442  -1.091  1.00  0.00     0.198 A 
ATOM     63  F   UNL     1       1.068  13.268  -1.274  1.00  0.00    -0.203 F 
ATOM     64  F   UNL     1      -3.718  14.051   1.225  1.00  0.00    -0.200 F 
ATOM     65  C   UNL     1      -2.180  14.646  -0.464  1.00  0.00     0.200 A 
ATOM     66  F   UNL     1      -0.613  15.199  -2.141  1.00  0.00    -0.200 F 
ATOM     67  F   UNL     1      -3.022  15.583  -0.921  1.00  0.00    -0.200 F 
ENDBRANCH  43  57
BRANCH  44  68
ATOM     68  C   UNL     1       5.716   5.516   3.803  1.00  0.00     0.064 A 
ATOM     69  C   UNL     1       6.119   5.475   5.145  1.00  0.00     0.173 A 
ATOM     70  C   UNL     1       6.264   4.564   2.930  1.00  0.00     0.173 A 
ATOM     71  F   UNL     1       5.643   6.378   6.015  1.00  0.00    -0.203 F 
ATOM     72  C   UNL     1       7.059   4.547   5.588  1.00  0.00     0.198 A 
ATOM     73  C   UNL     1       7.174   3.611   3.382  1.00  0.00     0.198 A 
ATOM     74  F   UNL     1       5.914   4.559   1.635  1.00  0.00    -0.203 F 
ATOM     75  F   UNL     1       7.478   4.577   6.860  1.00  0.00    -0.200 F 
ATOM     76  C   UNL     1       7.582   3.613   4.707  1.00  0.00     0.200 A 
ATOM     77  F   UNL     1       7.667   2.702   2.531  1.00  0.00    -0.200 F 
ATOM     78  F   UNL     1       8.490   2.723   5.132  1.00  0.00    -0.200 F 
ENDBRANCH  44  68
BRANCH  56  79
ATOM     79  C   UNL     1       6.144  12.467   3.473  1.00  0.00     0.064 A 
ATOM     80  C   UNL     1       7.391  12.565   2.838  1.00  0.00     0.173 A 
ATOM     81  C   UNL     1       5.882  13.346   4.536  1.00  0.00     0.173 A 
ATOM     82  F   UNL     1       7.700  11.742   1.824  1.00  0.00    -0.203 F 
ATOM     83  C   UNL     1       8.348  13.479   3.274  1.00  0.00     0.198 A 
ATOM     84  C   UNL     1       6.824  14.287   4.942  1.00  0.00     0.198 A 
ATOM     85  F   UNL     1       4.702  13.305   5.174  1.00  0.00    -0.203 F 
ATOM     86  F   UNL     1       9.555  13.511   2.692  1.00  0.00    -0.200 F 
ATOM     87  C   UNL     1       8.061  14.344   4.319  1.00  0.00     0.200 A 
ATOM     88  F   UNL     1       6.536  15.136   5.938  1.00  0.00    -0.200 F 
ATOM     89  F   UNL     1       8.979  15.229   4.730  1.00  0.00    -0.200 F 
ENDBRANCH  56  79
ENDBRANCH  30  31
ENDBRANCH  23  25
ENDBRANCH  22  23
ENDBRANCH  21  22
ENDBRANCH  20  21
ENDBRANCH  19  20
ENDBRANCH   1  19
TORSDOF 17
