REMARK SMILES CCc1cc(S(F)(F)(F)(F)F)cc2c1O[C@@H](C(F)(F)F)C(C(=O)OCCOCCOC(=O)c1ccc(-c3c4nc(c(-c5c(F)c(F)c(F)c(F)c5F)c5ccc([nH]5)c(-c5c(F)c(F)c(F)c(F)c5F)c5nc(c(-c6c(F)c(F)c(F)c(F)c6F)c6ccc3[nH]6)C=C5)C=C4)cc1)=C2
REMARK SMILES IDX 28 1 27 2 26 3 25 4 24 5 22 6 23 7 21 8 3 9 4 10 14 11 5 12
REMARK SMILES IDX 13 13 15 14 12 15 96 16 16 17 2 18 1 19 6 20 7 21 8 22 9 23
REMARK SMILES IDX 10 24 11 25 17 26 18 27 19 28 20 29 29 30 30 31 31 32 32 33
REMARK SMILES IDX 33 34 34 35 95 36 35 37 94 38 36 39 37 40 38 41 88 42 39 43
REMARK SMILES IDX 93 44 87 45 89 46 40 47 92 48 86 49 85 50 41 52 73 53 53 54
REMARK SMILES IDX 72 55 54 56 57 57 71 58 90 59 55 60 56 61 70 63 91 64 58 65
REMARK SMILES IDX 42 66 43 67 51 68 44 69 45 70 49 71 52 72 46 73 47 74 50 75
REMARK SMILES IDX 48 76 74 77 75 78 83 79 76 80 77 81 81 82 84 83 78 84 79 85
REMARK SMILES IDX 82 86 80 87 59 88 60 89 68 90 61 91 62 92 66 93 69 94 63 95
REMARK SMILES IDX 64 96 67 97 65 98
REMARK H PARENT 89 51 57 62
REMARK Flexibility Score: inf
ROOT
ATOM      1  C   UNL     1       3.805  -0.074  -8.160  1.00  0.00     0.202 C 
ENDROOT
BRANCH   1   2
ATOM      2  O   UNL     1       4.743   0.045  -9.220  1.00  0.00    -0.374 OA
BRANCH   2   3
ATOM      3  C   UNL     1       5.184  -1.248  -9.609  1.00  0.00     0.202 C 
BRANCH   3   4
ATOM      4  C   UNL     1       5.843  -1.936  -8.425  1.00  0.00     0.261 C 
BRANCH   4   5
ATOM      5  O   UNL     1       4.906  -2.055  -7.365  1.00  0.00    -0.460 OA
BRANCH   5   6
ATOM      6  C   UNL     1       4.319  -0.891  -6.802  1.00  0.00     0.338 C 
ATOM      7  O   UNL     1       4.632   0.258  -7.247  1.00  0.00    -0.246 OA
BRANCH   6   8
ATOM      8  C   UNL     1       3.316  -1.018  -5.668  1.00  0.00     0.087 C 
ATOM      9  C   UNL     1       0.947  -1.256  -2.235  1.00  0.00    -0.004 A 
ATOM     10  C   UNL     1       0.426  -2.474  -1.839  1.00  0.00     0.032 A 
ATOM     11  C   UNL     1       1.766  -1.215  -3.337  1.00  0.00     0.131 A 
ATOM     12  C   UNL     1       0.721  -3.623  -2.525  1.00  0.00     0.108 A 
ATOM     13  C   UNL     1       2.071  -2.351  -4.065  1.00  0.00     0.019 A 
ATOM     14  O   UNL     1       2.366  -0.020  -3.650  1.00  0.00    -0.475 OA
ATOM     15  C   UNL     1       1.534  -3.560  -3.638  1.00  0.00     0.036 A 
ATOM     16  C   UNL     1       2.978  -2.210  -5.192  1.00  0.00     0.027 C 
ATOM     17  C   UNL     1       2.676   0.220  -5.052  1.00  0.00     0.316 C 
BRANCH   9  18
ATOM     18  C   UNL     1       0.441  -0.030  -1.492  1.00  0.00     0.036 C 
ATOM     19  C   UNL     1       0.947  -0.061  -0.059  1.00  0.00     0.009 C 
ENDBRANCH   9  18
BRANCH  12  20
ATOM     20  S   UNL     1       0.048  -5.211  -1.976  1.00  0.00     0.310 S 
ATOM     21  F   UNL     1       0.947  -5.132  -0.672  1.00  0.00    -0.094 F 
ATOM     22  F   UNL     1       1.287  -5.850  -2.710  1.00  0.00    -0.094 F 
ATOM     23  F   UNL     1      -0.424  -6.611  -1.493  1.00  0.00    -0.094 F 
ATOM     24  F   UNL     1      -1.106  -4.540  -1.133  1.00  0.00    -0.094 F 
ATOM     25  F   UNL     1       0.579  -3.774  -2.366  1.00  0.00    -0.094 F 
ENDBRANCH  12  20
BRANCH  17  26
ATOM     26  C   UNL     1       3.649   1.383  -5.153  1.00  0.00     0.430 C 
ATOM     27  F   UNL     1       3.936   1.612  -6.431  1.00  0.00    -0.167 F 
ATOM     28  F   UNL     1       3.097   2.470  -4.621  1.00  0.00    -0.167 F 
ATOM     29  F   UNL     1       4.766   1.085  -4.495  1.00  0.00    -0.167 F 
ENDBRANCH  17  26
ENDBRANCH   6   8
ENDBRANCH   5   6
ENDBRANCH   4   5
ENDBRANCH   3   4
ENDBRANCH   2   3
ENDBRANCH   1   2
BRANCH   1  30
ATOM     30  C   UNL     1       2.615  -0.897  -8.626  1.00  0.00     0.261 C 
BRANCH  30  31
ATOM     31  O   UNL     1       3.057  -2.189  -9.015  1.00  0.00    -0.460 OA
BRANCH  31  32
ATOM     32  C   UNL     1       4.003  -2.331 -10.064  1.00  0.00     0.338 C 
ATOM     33  O   UNL     1       4.455  -1.300 -10.655  1.00  0.00    -0.246 OA
BRANCH  32  34
ATOM     34  C   UNL     1       4.475  -3.714 -10.481  1.00  0.00     0.060 A 
ATOM     35  C   UNL     1       5.842  -3.873 -10.643  1.00  0.00     0.016 A 
ATOM     36  C   UNL     1       3.639  -4.731 -10.652  1.00  0.00     0.016 A 
ATOM     37  C   UNL     1       6.207  -5.085 -11.274  1.00  0.00     0.010 A 
ATOM     38  C   UNL     1       4.089  -5.932 -11.145  1.00  0.00     0.010 A 
ATOM     39  C   UNL     1       5.419  -6.139 -11.385  1.00  0.00    -0.014 A 
BRANCH  39  40
ATOM     40  C   UNL     1       5.961  -7.509 -11.758  1.00  0.00     0.031 A 
ATOM     41  C   UNL     1       5.512  -8.162 -12.908  1.00  0.00     0.074 A 
ATOM     42  C   UNL     1       6.870  -8.051 -10.866  1.00  0.00     0.049 A 
ATOM     43  N   UNL     1       5.883  -9.360 -13.360  1.00  0.00    -0.248 NA
ATOM     44  C   UNL     1       4.521  -7.603 -13.838  1.00  0.00     0.031 C 
ATOM     45  C   UNL     1       7.335  -7.396  -9.709  1.00  0.00     0.029 A 
ATOM     46  N   UNL     1       7.479  -9.285 -10.924  1.00  0.00    -0.354 N 
ATOM     47  C   UNL     1       5.250  -9.639 -14.501  1.00  0.00     0.074 A 
ATOM     48  C   UNL     1       4.359  -8.515 -14.822  1.00  0.00     0.031 C 
ATOM     49  C   UNL     1       8.201  -8.227  -9.072  1.00  0.00     0.029 A 
ATOM     50  C   UNL     1       8.293  -9.416  -9.821  1.00  0.00     0.049 A 
ATOM     51  H   UNL     1       7.353  -9.958 -11.631  1.00  0.00     0.167 HD
ATOM     52  C   UNL     1       5.381 -10.784 -15.288  1.00  0.00     0.037 A 
ATOM     53  C   UNL     1       9.079 -10.502  -9.470  1.00  0.00     0.037 A 
ATOM     54  C   UNL     1       6.199 -11.853 -14.959  1.00  0.00     0.049 A 
ATOM     55  C   UNL     1       9.166 -11.673 -10.227  1.00  0.00     0.074 A 
ATOM     56  C   UNL     1       6.349 -13.012 -15.744  1.00  0.00     0.029 A 
ATOM     57  N   UNL     1       6.995 -11.993 -13.843  1.00  0.00    -0.354 N 
ATOM     58  N   UNL     1       8.562 -11.934 -11.387  1.00  0.00    -0.248 NA
ATOM     59  C   UNL     1       9.969 -12.843  -9.848  1.00  0.00     0.031 C 
ATOM     60  C   UNL     1       7.216 -13.844 -15.107  1.00  0.00     0.029 A 
ATOM     61  C   UNL     1       7.621 -13.218 -13.913  1.00  0.00     0.049 A 
ATOM     62  H   UNL     1       7.099 -11.332 -13.121  1.00  0.00     0.167 HD
ATOM     63  C   UNL     1       8.902 -13.151 -11.818  1.00  0.00     0.074 A 
ATOM     64  C   UNL     1       9.806 -13.756 -10.830  1.00  0.00     0.031 C 
ATOM     65  C   UNL     1       8.498 -13.779 -12.997  1.00  0.00     0.037 A 
BRANCH  52  66
ATOM     66  C   UNL     1       4.581 -10.864 -16.578  1.00  0.00     0.064 A 
ATOM     67  C   UNL     1       4.781  -9.911 -17.562  1.00  0.00     0.173 A 
ATOM     68  C   UNL     1       3.704 -11.849 -16.741  1.00  0.00     0.173 A 
ATOM     69  F   UNL     1       5.810  -9.067 -17.556  1.00  0.00    -0.203 F 
ATOM     70  C   UNL     1       3.793  -9.915 -18.575  1.00  0.00     0.198 A 
ATOM     71  C   UNL     1       2.861 -11.862 -17.825  1.00  0.00     0.198 A 
ATOM     72  F   UNL     1       3.643 -12.831 -15.846  1.00  0.00    -0.203 F 
ATOM     73  F   UNL     1       3.691  -8.836 -19.345  1.00  0.00    -0.200 F 
ATOM     74  C   UNL     1       2.964 -10.916 -18.808  1.00  0.00     0.200 A 
ATOM     75  F   UNL     1       1.932 -12.809 -17.921  1.00  0.00    -0.200 F 
ATOM     76  F   UNL     1       2.266 -11.001 -19.937  1.00  0.00    -0.200 F 
ENDBRANCH  52  66
BRANCH  53  77
ATOM     77  C   UNL     1       9.892 -10.415  -8.188  1.00  0.00     0.064 A 
ATOM     78  C   UNL     1      11.271 -10.529  -8.249  1.00  0.00     0.173 A 
ATOM     79  C   UNL     1       9.266 -10.234  -7.031  1.00  0.00     0.173 A 
ATOM     80  F   UNL     1      11.955 -10.456  -9.387  1.00  0.00    -0.203 F 
ATOM     81  C   UNL     1      11.886 -10.729  -6.990  1.00  0.00     0.198 A 
ATOM     82  C   UNL     1       9.954 -10.309  -5.845  1.00  0.00     0.198 A 
ATOM     83  F   UNL     1       7.961  -9.978  -7.021  1.00  0.00    -0.203 F 
ATOM     84  F   UNL     1      13.129 -11.202  -6.977  1.00  0.00    -0.200 F 
ATOM     85  C   UNL     1      11.311 -10.479  -5.828  1.00  0.00     0.200 A 
ATOM     86  F   UNL     1       9.292 -10.214  -4.695  1.00  0.00    -0.200 F 
ATOM     87  F   UNL     1      12.014 -10.398  -4.702  1.00  0.00    -0.200 F 
ENDBRANCH  53  77
BRANCH  65  88
ATOM     88  C   UNL     1       9.053 -15.162 -13.296  1.00  0.00     0.064 A 
ATOM     89  C   UNL     1       8.785 -16.176 -12.391  1.00  0.00     0.173 A 
ATOM     90  C   UNL     1       9.765 -15.389 -14.394  1.00  0.00     0.173 A 
ATOM     91  F   UNL     1       7.879 -16.065 -11.424  1.00  0.00    -0.203 F 
ATOM     92  C   UNL     1       9.562 -17.342 -12.590  1.00  0.00     0.198 A 
ATOM     93  C   UNL     1      10.386 -16.599 -14.587  1.00  0.00     0.198 A 
ATOM     94  F   UNL     1       9.878 -14.435 -15.314  1.00  0.00    -0.203 F 
ATOM     95  F   UNL     1       9.643 -18.211 -11.586  1.00  0.00    -0.200 F 
ATOM     96  C   UNL     1      10.213 -17.628 -13.703  1.00  0.00     0.200 A 
ATOM     97  F   UNL     1      11.167 -16.772 -15.650  1.00  0.00    -0.200 F 
ATOM     98  F   UNL     1      10.676 -18.850 -13.951  1.00  0.00    -0.200 F 
ENDBRANCH  65  88
ENDBRANCH  39  40
ENDBRANCH  32  34
ENDBRANCH  31  32
ENDBRANCH  30  31
ENDBRANCH   1  30
TORSDOF 17
