REMARK SMILES COc1ccc(S(=O)(=O)N[C@H]2C=C[C@@H](C(=O)OCCOCCOC(=O)c3ccc(-c4c5nc(c(-c6c(F)c(F)c(F)c(F)c6F)c6ccc([nH]6)c(-c6c(F)c(F)c(F)c(F)c6F)c6nc(c(-c7c(F)c(F)c(F)c(F)c7F)c7ccc4[nH]7)C=C6)C=C5)cc3)C2)cc1
REMARK SMILES IDX 19 1 18 2 17 3 15 4 16 5 14 6 11 7 12 8 89 9 13 10 10 11
REMARK SMILES IDX 7 13 8 14 9 15 6 16 3 17 4 18 91 19 5 20 90 21 2 22 1 23
REMARK SMILES IDX 20 24 21 25 22 26 23 27 24 28 25 29 26 30 27 31 88 32 28 33
REMARK SMILES IDX 87 34 29 35 30 36 31 37 81 38 32 39 86 40 80 41 82 42 33 43
REMARK SMILES IDX 85 44 79 45 78 46 34 48 66 49 46 50 65 51 47 52 50 53 64 54
REMARK SMILES IDX 83 55 48 56 49 57 63 59 84 60 51 61 35 62 36 63 44 64 37 65
REMARK SMILES IDX 38 66 42 67 45 68 39 69 40 70 43 71 41 72 67 73 68 74 76 75
REMARK SMILES IDX 69 76 70 77 74 78 77 79 71 80 72 81 75 82 73 83 52 84 53 85
REMARK SMILES IDX 61 86 54 87 55 88 59 89 62 90 56 91 57 92 60 93 58 94
REMARK H PARENT 10 12 82 47 50 58
REMARK Flexibility Score: inf
ROOT
ATOM      1  C   UNL     1       4.573  -0.330  11.341  1.00  0.00     0.202 C 
ENDROOT
BRANCH   1   2
ATOM      2  C   UNL     1       4.262   0.527  10.114  1.00  0.00     0.261 C 
BRANCH   2   3
ATOM      3  O   UNL     1       4.459  -0.249   8.923  1.00  0.00    -0.463 OA
BRANCH   3   4
ATOM      4  C   UNL     1       5.189   0.337   7.946  1.00  0.00     0.312 C 
ATOM      5  O   UNL     1       5.519   1.518   7.933  1.00  0.00    -0.252 OA
BRANCH   4   6
ATOM      6  C   UNL     1       5.633  -0.643   6.868  1.00  0.00     0.123 C 
ATOM      7  C   UNL     1       4.928  -2.564   5.551  1.00  0.00     0.093 C 
ATOM      8  C   UNL     1       4.659  -1.292   4.832  1.00  0.00    -0.011 C 
ATOM      9  C   UNL     1       5.219  -2.121   6.986  1.00  0.00     0.043 C 
ATOM     10  C   UNL     1       5.054  -0.235   5.547  1.00  0.00    -0.015 C 
BRANCH   7  11
ATOM     11  N   UNL     1       3.886  -3.566   5.428  1.00  0.00    -0.204 NA
ATOM     12  H   UNL     1       3.928  -3.873   4.456  1.00  0.00     0.142 HD
BRANCH  11  13
ATOM     13  S   UNL     1       2.259  -3.361   5.746  1.00  0.00     0.241 S 
ATOM     14  O   UNL     1       2.111  -2.468   6.871  1.00  0.00    -0.207 OA
ATOM     15  O   UNL     1       1.708  -4.699   5.769  1.00  0.00    -0.207 OA
BRANCH  13  16
ATOM     16  C   UNL     1       1.590  -2.565   4.311  1.00  0.00     0.082 A 
ATOM     17  C   UNL     1       0.649  -1.084   2.139  1.00  0.00     0.118 A 
ATOM     18  C   UNL     1       0.003  -1.011   3.377  1.00  0.00     0.048 A 
ATOM     19  C   UNL     1       1.738  -1.944   1.980  1.00  0.00     0.048 A 
ATOM     20  C   UNL     1       0.477  -1.738   4.469  1.00  0.00     0.025 A 
ATOM     21  C   UNL     1       2.199  -2.702   3.062  1.00  0.00     0.025 A 
BRANCH  17  22
ATOM     22  O   UNL     1       0.121  -0.274   1.171  1.00  0.00    -0.497 OA
ATOM     23  C   UNL     1       0.898  -0.099  -0.007  1.00  0.00     0.278 C 
ENDBRANCH  17  22
ENDBRANCH  13  16
ENDBRANCH  11  13
ENDBRANCH   7  11
ENDBRANCH   4   6
ENDBRANCH   3   4
ENDBRANCH   2   3
ENDBRANCH   1   2
BRANCH   1  24
ATOM     24  O   UNL     1       5.934  -0.751  11.465  1.00  0.00    -0.374 OA
BRANCH  24  25
ATOM     25  C   UNL     1       6.369  -1.824  10.628  1.00  0.00     0.202 C 
BRANCH  25  26
ATOM     26  C   UNL     1       5.933  -3.232  11.052  1.00  0.00     0.261 C 
BRANCH  26  27
ATOM     27  O   UNL     1       4.512  -3.420  10.930  1.00  0.00    -0.460 OA
BRANCH  27  28
ATOM     28  C   UNL     1       3.864  -3.614  12.104  1.00  0.00     0.338 C 
ATOM     29  O   UNL     1       4.362  -3.735  13.211  1.00  0.00    -0.246 OA
BRANCH  28  30
ATOM     30  C   UNL     1       2.406  -3.497  11.915  1.00  0.00     0.060 A 
ATOM     31  C   UNL     1       1.719  -2.617  12.762  1.00  0.00     0.016 A 
ATOM     32  C   UNL     1       1.709  -4.294  11.005  1.00  0.00     0.016 A 
ATOM     33  C   UNL     1       0.327  -2.571  12.742  1.00  0.00     0.010 A 
ATOM     34  C   UNL     1       0.309  -4.256  10.995  1.00  0.00     0.010 A 
ATOM     35  C   UNL     1      -0.386  -3.424  11.890  1.00  0.00    -0.014 A 
BRANCH  35  36
ATOM     36  C   UNL     1      -1.854  -3.547  12.056  1.00  0.00     0.031 A 
ATOM     37  C   UNL     1      -2.401  -4.655  12.912  1.00  0.00     0.074 A 
ATOM     38  C   UNL     1      -2.688  -2.657  11.492  1.00  0.00     0.049 A 
ATOM     39  N   UNL     1      -3.643  -4.938  13.217  1.00  0.00    -0.248 NA
ATOM     40  C   UNL     1      -1.413  -5.567  13.509  1.00  0.00     0.031 C 
ATOM     41  C   UNL     1      -2.279  -1.516  10.678  1.00  0.00     0.029 A 
ATOM     42  N   UNL     1      -4.058  -2.576  11.527  1.00  0.00    -0.354 N 
ATOM     43  C   UNL     1      -3.585  -6.058  14.034  1.00  0.00     0.074 A 
ATOM     44  C   UNL     1      -2.189  -6.421  14.159  1.00  0.00     0.031 C 
ATOM     45  C   UNL     1      -3.376  -0.843  10.292  1.00  0.00     0.029 A 
ATOM     46  C   UNL     1      -4.563  -1.522  10.809  1.00  0.00     0.049 A 
ATOM     47  H   UNL     1      -4.624  -3.213  12.021  1.00  0.00     0.167 HD
ATOM     48  C   UNL     1      -4.603  -6.722  14.633  1.00  0.00     0.037 A 
ATOM     49  C   UNL     1      -5.840  -1.156  10.588  1.00  0.00     0.037 A 
ATOM     50  C   UNL     1      -5.991  -6.361  14.511  1.00  0.00     0.049 A 
ATOM     51  C   UNL     1      -6.959  -1.959  11.198  1.00  0.00     0.074 A 
ATOM     52  C   UNL     1      -7.092  -6.946  15.112  1.00  0.00     0.029 A 
ATOM     53  N   UNL     1      -6.468  -5.326  13.722  1.00  0.00    -0.354 N 
ATOM     54  N   UNL     1      -6.895  -2.992  12.002  1.00  0.00    -0.248 NA
ATOM     55  C   UNL     1      -8.329  -1.544  10.864  1.00  0.00     0.031 C 
ATOM     56  C   UNL     1      -8.240  -6.295  14.646  1.00  0.00     0.029 A 
ATOM     57  C   UNL     1      -7.851  -5.276  13.791  1.00  0.00     0.049 A 
ATOM     58  H   UNL     1      -5.907  -4.716  13.190  1.00  0.00     0.167 HD
ATOM     59  C   UNL     1      -8.210  -3.333  12.293  1.00  0.00     0.074 A 
ATOM     60  C   UNL     1      -9.052  -2.392  11.583  1.00  0.00     0.031 C 
ATOM     61  C   UNL     1      -8.677  -4.332  13.082  1.00  0.00     0.037 A 
BRANCH  48  62
ATOM     62  C   UNL     1      -4.250  -7.929  15.449  1.00  0.00     0.064 A 
ATOM     63  C   UNL     1      -3.618  -7.818  16.697  1.00  0.00     0.173 A 
ATOM     64  C   UNL     1      -4.557  -9.215  14.980  1.00  0.00     0.173 A 
ATOM     65  F   UNL     1      -3.291  -6.611  17.183  1.00  0.00    -0.203 F 
ATOM     66  C   UNL     1      -3.280  -8.952  17.431  1.00  0.00     0.198 A 
ATOM     67  C   UNL     1      -4.241 -10.345  15.728  1.00  0.00     0.198 A 
ATOM     68  F   UNL     1      -5.164  -9.375  13.794  1.00  0.00    -0.203 F 
ATOM     69  F   UNL     1      -2.634  -8.825  18.598  1.00  0.00    -0.200 F 
ATOM     70  C   UNL     1      -3.595 -10.214  16.948  1.00  0.00     0.200 A 
ATOM     71  F   UNL     1      -4.554 -11.563  15.264  1.00  0.00    -0.200 F 
ATOM     72  F   UNL     1      -3.268 -11.304  17.655  1.00  0.00    -0.200 F 
ENDBRANCH  48  62
BRANCH  49  73
ATOM     73  C   UNL     1      -6.132   0.038   9.756  1.00  0.00     0.064 A 
ATOM     74  C   UNL     1      -6.642   1.208  10.333  1.00  0.00     0.173 A 
ATOM     75  C   UNL     1      -5.913   0.032   8.371  1.00  0.00     0.173 A 
ATOM     76  F   UNL     1      -6.894   1.251  11.649  1.00  0.00    -0.203 F 
ATOM     77  C   UNL     1      -6.928   2.328   9.554  1.00  0.00     0.198 A 
ATOM     78  C   UNL     1      -6.179   1.159   7.596  1.00  0.00     0.198 A 
ATOM     79  F   UNL     1      -5.434  -1.068   7.771  1.00  0.00    -0.203 F 
ATOM     80  F   UNL     1      -7.447   3.423  10.124  1.00  0.00    -0.200 F 
ATOM     81  C   UNL     1      -6.690   2.304   8.188  1.00  0.00     0.200 A 
ATOM     82  F   UNL     1      -5.941   1.134   6.278  1.00  0.00    -0.200 F 
ATOM     83  F   UNL     1      -6.962   3.382   7.440  1.00  0.00    -0.200 F 
ENDBRANCH  49  73
BRANCH  61  84
ATOM     84  C   UNL     1     -10.164  -4.443  13.245  1.00  0.00     0.064 A 
ATOM     85  C   UNL     1     -10.982  -4.932  12.217  1.00  0.00     0.173 A 
ATOM     86  C   UNL     1     -10.773  -4.095  14.461  1.00  0.00     0.173 A 
ATOM     87  F   UNL     1     -10.450  -5.263  11.031  1.00  0.00    -0.203 F 
ATOM     88  C   UNL     1     -12.359  -5.048  12.392  1.00  0.00     0.198 A 
ATOM     89  C   UNL     1     -12.146  -4.237  14.642  1.00  0.00     0.198 A 
ATOM     90  F   UNL     1     -10.033  -3.627  15.478  1.00  0.00    -0.203 F 
ATOM     91  F   UNL     1     -13.128  -5.478  11.382  1.00  0.00    -0.200 F 
ATOM     92  C   UNL     1     -12.938  -4.707  13.606  1.00  0.00     0.200 A 
ATOM     93  F   UNL     1     -12.702  -3.918  15.819  1.00  0.00    -0.200 F 
ATOM     94  F   UNL     1     -14.262  -4.826  13.775  1.00  0.00    -0.200 F 
ENDBRANCH  61  84
ENDBRANCH  35  36
ENDBRANCH  28  30
ENDBRANCH  27  28
ENDBRANCH  26  27
ENDBRANCH  25  26
ENDBRANCH  24  25
ENDBRANCH   1  24
TORSDOF 18
