REMARK SMILES CS(=O)(=O)c1ccc(N2N=C(C(=O)OCCOCCOC(=O)c3ccc(-c4c5nc(c(-c6c(F)c(F)c(F)c(F)c6F)c6ccc([nH]6)c(-c6c(F)c(F)c(F)c(F)c6F)c6nc(c(-c7c(F)c(F)c(F)c(F)c7F)c7ccc4[nH]7)C=C6)C=C5)cc3)C[C@H]2c2ccco2)cc1
REMARK SMILES IDX 17 1 16 2 15 3 14 4 12 5 13 6 11 7 9 8 10 9 87 10 86 11 8 12
REMARK SMILES IDX 5 13 6 14 94 15 7 16 93 17 2 18 1 19 3 20 4 21 88 22 89 23
REMARK SMILES IDX 92 24 90 25 91 26 18 27 19 28 20 29 21 30 22 31 23 32 24 33
REMARK SMILES IDX 85 34 25 35 84 36 26 37 27 38 28 39 78 40 29 41 83 42 77 43
REMARK SMILES IDX 79 44 30 45 82 46 76 47 75 48 31 50 63 51 43 52 62 53 44 54
REMARK SMILES IDX 47 55 61 56 80 57 45 58 46 59 60 61 81 62 48 63 32 64 33 65
REMARK SMILES IDX 41 66 34 67 35 68 39 69 42 70 36 71 37 72 40 73 38 74 64 75
REMARK SMILES IDX 65 76 73 77 66 78 67 79 71 80 74 81 68 82 69 83 72 84 70 85
REMARK SMILES IDX 49 86 50 87 58 88 51 89 52 90 56 91 59 92 53 93 54 94 57 95
REMARK SMILES IDX 55 96
REMARK H PARENT 79 49 47 60
REMARK Flexibility Score: inf
ROOT
ATOM      1  O   UNL     1       3.864  -8.365   6.158  1.00  0.00    -0.374 OA
ENDROOT
BRANCH   1   2
ATOM      2  C   UNL     1       4.101  -8.421   7.569  1.00  0.00     0.202 C 
BRANCH   2   3
ATOM      3  C   UNL     1       4.799  -7.157   8.076  1.00  0.00     0.261 C 
BRANCH   3   4
ATOM      4  O   UNL     1       3.824  -6.104   8.103  1.00  0.00    -0.459 OA
BRANCH   4   5
ATOM      5  C   UNL     1       4.295  -4.867   7.847  1.00  0.00     0.354 C 
ATOM      6  O   UNL     1       5.443  -4.481   7.856  1.00  0.00    -0.245 OA
BRANCH   5   7
ATOM      7  C   UNL     1       3.120  -4.040   7.394  1.00  0.00     0.148 C 
ATOM      8  N   UNL     1       1.865  -2.846   6.196  1.00  0.00    -0.254 N 
ATOM      9  N   UNL     1       3.114  -3.379   6.276  1.00  0.00    -0.169 NA
ATOM     10  C   UNL     1       1.116  -2.918   7.454  1.00  0.00     0.180 C 
ATOM     11  C   UNL     1       1.824  -4.090   8.144  1.00  0.00     0.101 C 
BRANCH   8  12
ATOM     12  C   UNL     1       1.516  -2.041   5.128  1.00  0.00     0.060 A 
ATOM     13  C   UNL     1       0.803  -0.446   2.938  1.00  0.00     0.067 A 
ATOM     14  C   UNL     1       0.337  -1.760   3.016  1.00  0.00     0.022 A 
ATOM     15  C   UNL     1       1.607   0.086   3.947  1.00  0.00     0.022 A 
ATOM     16  C   UNL     1       0.697  -2.549   4.110  1.00  0.00     0.029 A 
ATOM     17  C   UNL     1       1.969  -0.720   5.030  1.00  0.00     0.029 A 
BRANCH  13  18
ATOM     18  S   UNL     1       0.332   0.556   1.550  1.00  0.00     0.175 S 
ATOM     19  C   UNL     1       1.364  -0.042   0.237  1.00  0.00     0.163 C 
ATOM     20  O   UNL     1       0.721   1.924   1.837  1.00  0.00    -0.224 OA
ATOM     21  O   UNL     1      -1.045   0.226   1.234  1.00  0.00    -0.224 OA
ENDBRANCH  13  18
ENDBRANCH   8  12
BRANCH  10  22
ATOM     22  C   UNL     1       1.125  -1.675   8.295  1.00  0.00     0.128 A 
ATOM     23  C   UNL     1       0.342  -0.537   8.293  1.00  0.00     0.048 A 
ATOM     24  O   UNL     1       2.074  -1.575   9.275  1.00  0.00    -0.467 OA
ATOM     25  C   UNL     1       0.837   0.295   9.327  1.00  0.00     0.042 A 
ATOM     26  C   UNL     1       1.889  -0.383   9.894  1.00  0.00     0.195 A 
ENDBRANCH  10  22
ENDBRANCH   5   7
ENDBRANCH   4   5
ENDBRANCH   3   4
ENDBRANCH   2   3
ENDBRANCH   1   2
BRANCH   1  27
ATOM     27  C   UNL     1       2.656  -7.710   5.761  1.00  0.00     0.202 C 
BRANCH  27  28
ATOM     28  C   UNL     1       1.520  -8.700   5.504  1.00  0.00     0.261 C 
BRANCH  28  29
ATOM     29  O   UNL     1       1.093  -9.286   6.748  1.00  0.00    -0.460 OA
BRANCH  29  30
ATOM     30  C   UNL     1       1.506 -10.560   6.955  1.00  0.00     0.338 C 
ATOM     31  O   UNL     1       2.089 -11.278   6.161  1.00  0.00    -0.246 OA
BRANCH  30  32
ATOM     32  C   UNL     1       1.227 -10.974   8.353  1.00  0.00     0.060 A 
ATOM     33  C   UNL     1       1.988 -12.028   8.872  1.00  0.00     0.016 A 
ATOM     34  C   UNL     1       0.228 -10.382   9.138  1.00  0.00     0.016 A 
ATOM     35  C   UNL     1       1.723 -12.522  10.147  1.00  0.00     0.010 A 
ATOM     36  C   UNL     1      -0.040 -10.880  10.419  1.00  0.00     0.010 A 
ATOM     37  C   UNL     1       0.686 -11.974  10.913  1.00  0.00    -0.014 A 
BRANCH  37  38
ATOM     38  C   UNL     1       0.286 -12.669  12.157  1.00  0.00     0.031 A 
ATOM     39  C   UNL     1      -0.701 -13.798  12.068  1.00  0.00     0.074 A 
ATOM     40  C   UNL     1       0.842 -12.351  13.338  1.00  0.00     0.049 A 
ATOM     41  N   UNL     1      -1.046 -14.671  12.979  1.00  0.00    -0.248 NA
ATOM     42  C   UNL     1      -1.386 -13.968  10.776  1.00  0.00     0.031 C 
ATOM     43  C   UNL     1       1.790 -11.264  13.565  1.00  0.00     0.029 A 
ATOM     44  N   UNL     1       0.691 -12.934  14.571  1.00  0.00    -0.354 N 
ATOM     45  C   UNL     1      -1.961 -15.511  12.363  1.00  0.00     0.074 A 
ATOM     46  C   UNL     1      -2.151 -15.023  11.014  1.00  0.00     0.031 C 
ATOM     47  C   UNL     1       2.142 -11.258  14.863  1.00  0.00     0.029 A 
ATOM     48  C   UNL     1       1.458 -12.354  15.549  1.00  0.00     0.049 A 
ATOM     49  H   UNL     1       0.090 -13.695  14.738  1.00  0.00     0.167 HD
ATOM     50  C   UNL     1      -2.575 -16.605  12.870  1.00  0.00     0.037 A 
ATOM     51  C   UNL     1       1.609 -12.690  16.843  1.00  0.00     0.037 A 
ATOM     52  C   UNL     1      -2.404 -17.090  14.210  1.00  0.00     0.049 A 
ATOM     53  C   UNL     1       0.915 -13.909  17.386  1.00  0.00     0.074 A 
ATOM     54  C   UNL     1      -2.965 -18.206  14.806  1.00  0.00     0.029 A 
ATOM     55  N   UNL     1      -1.618 -16.473  15.169  1.00  0.00    -0.354 N 
ATOM     56  N   UNL     1       0.124 -14.752  16.771  1.00  0.00    -0.248 NA
ATOM     57  C   UNL     1       1.157 -14.234  18.800  1.00  0.00     0.031 C 
ATOM     58  C   UNL     1      -2.530 -18.254  16.137  1.00  0.00     0.029 A 
ATOM     59  C   UNL     1      -1.690 -17.175  16.360  1.00  0.00     0.049 A 
ATOM     60  H   UNL     1      -1.086 -15.657  15.026  1.00  0.00     0.167 HD
ATOM     61  C   UNL     1      -0.209 -15.717  17.711  1.00  0.00     0.074 A 
ATOM     62  C   UNL     1       0.466 -15.357  18.941  1.00  0.00     0.031 C 
ATOM     63  C   UNL     1      -1.002 -16.805  17.567  1.00  0.00     0.037 A 
BRANCH  50  64
ATOM     64  C   UNL     1      -3.484 -17.356  11.953  1.00  0.00     0.064 A 
ATOM     65  C   UNL     1      -2.972 -18.280  11.031  1.00  0.00     0.173 A 
ATOM     66  C   UNL     1      -4.871 -17.163  12.002  1.00  0.00     0.173 A 
ATOM     67  F   UNL     1      -1.649 -18.481  10.941  1.00  0.00    -0.203 F 
ATOM     68  C   UNL     1      -3.821 -18.981  10.180  1.00  0.00     0.198 A 
ATOM     69  C   UNL     1      -5.717 -17.873  11.155  1.00  0.00     0.198 A 
ATOM     70  F   UNL     1      -5.400 -16.282  12.863  1.00  0.00    -0.203 F 
ATOM     71  F   UNL     1      -3.312 -19.843   9.289  1.00  0.00    -0.200 F 
ATOM     72  C   UNL     1      -5.192 -18.779  10.245  1.00  0.00     0.200 A 
ATOM     73  F   UNL     1      -7.041 -17.673  11.213  1.00  0.00    -0.200 F 
ATOM     74  F   UNL     1      -6.008 -19.450   9.421  1.00  0.00    -0.200 F 
ENDBRANCH  50  64
BRANCH  51  75
ATOM     75  C   UNL     1       2.491 -11.879  17.714  1.00  0.00     0.064 A 
ATOM     76  C   UNL     1       3.784 -12.310  18.034  1.00  0.00     0.173 A 
ATOM     77  C   UNL     1       2.048 -10.663  18.251  1.00  0.00     0.173 A 
ATOM     78  F   UNL     1       4.237 -13.479  17.557  1.00  0.00    -0.203 F 
ATOM     79  C   UNL     1       4.603 -11.557  18.872  1.00  0.00     0.198 A 
ATOM     80  C   UNL     1       2.871  -9.906  19.081  1.00  0.00     0.198 A 
ATOM     81  F   UNL     1       0.814 -10.217  17.974  1.00  0.00    -0.203 F 
ATOM     82  F   UNL     1       5.827 -12.002  19.187  1.00  0.00    -0.200 F 
ATOM     83  C   UNL     1       4.146 -10.355  19.393  1.00  0.00     0.200 A 
ATOM     84  F   UNL     1       2.428  -8.745  19.583  1.00  0.00    -0.200 F 
ATOM     85  F   UNL     1       4.932  -9.633  20.203  1.00  0.00    -0.200 F 
ENDBRANCH  51  75
BRANCH  63  86
ATOM     86  C   UNL     1      -1.172 -17.692  18.760  1.00  0.00     0.064 A 
ATOM     87  C   UNL     1      -2.085 -17.373  19.774  1.00  0.00     0.173 A 
ATOM     88  C   UNL     1      -0.455 -18.892  18.864  1.00  0.00     0.173 A 
ATOM     89  F   UNL     1      -2.782 -16.228  19.719  1.00  0.00    -0.203 F 
ATOM     90  C   UNL     1      -2.269 -18.224  20.860  1.00  0.00     0.198 A 
ATOM     91  C   UNL     1      -0.650 -19.746  19.945  1.00  0.00     0.198 A 
ATOM     92  F   UNL     1       0.429 -19.235  17.916  1.00  0.00    -0.203 F 
ATOM     93  F   UNL     1      -3.132 -17.893  21.830  1.00  0.00    -0.200 F 
ATOM     94  C   UNL     1      -1.555 -19.411  20.942  1.00  0.00     0.200 A 
ATOM     95  F   UNL     1       0.039 -20.893  20.024  1.00  0.00    -0.200 F 
ATOM     96  F   UNL     1      -1.736 -20.231  21.986  1.00  0.00    -0.200 F 
ENDBRANCH  63  86
ENDBRANCH  37  38
ENDBRANCH  30  32
ENDBRANCH  29  30
ENDBRANCH  28  29
ENDBRANCH  27  28
ENDBRANCH   1  27
TORSDOF 17
