REMARK SMILES C[C@H]1[C@H](C(=O)OCCOCCOC(=O)c2ccc(-c3c4nc(c(-c5c(F)c(F)c(F)c(F)c5F)c5ccc([nH]5)c(-c5c(F)c(F)c(F)c(F)c5F)c5nc(c(-c6c(F)c(F)c(F)c(F)c6F)c6ccc3[nH]6)C=C5)C=C4)cc2)CCN1c1ncnc2sccc12
REMARK SMILES IDX 10 1 9 2 8 3 7 4 6 5 4 6 5 7 3 8 1 9 2 10 80 11 78 12 79 13
REMARK SMILES IDX 81 14 82 15 89 16 83 17 85 18 88 19 84 20 86 21 87 22 11 23
REMARK SMILES IDX 12 24 13 25 14 26 15 27 16 28 77 29 17 30 76 31 18 32 19 33
REMARK SMILES IDX 20 34 70 35 21 36 75 37 69 38 71 39 22 40 74 41 68 42 67 43
REMARK SMILES IDX 23 45 55 46 35 47 54 48 36 49 39 50 53 51 72 52 37 53 38 54
REMARK SMILES IDX 52 56 73 57 40 58 24 59 25 60 33 61 26 62 27 63 31 64 34 65
REMARK SMILES IDX 28 66 29 67 32 68 30 69 56 70 57 71 65 72 58 73 59 74 63 75
REMARK SMILES IDX 66 76 60 77 61 78 64 79 62 80 41 81 42 82 50 83 43 84 44 85
REMARK SMILES IDX 48 86 51 87 45 88 46 89 49 90 47 91
REMARK H PARENT 71 44 39 55
REMARK Flexibility Score: inf
ROOT
ATOM      1  C   UNL     1       2.250   3.200   1.776  1.00  0.00     0.202 C 
ENDROOT
BRANCH   1   2
ATOM      2  O   UNL     1       1.545   4.220   2.482  1.00  0.00    -0.374 OA
BRANCH   2   3
ATOM      3  C   UNL     1       0.500   3.808   3.361  1.00  0.00     0.202 C 
BRANCH   3   4
ATOM      4  C   UNL     1      -0.824   3.412   2.702  1.00  0.00     0.261 C 
BRANCH   4   5
ATOM      5  O   UNL     1      -0.695   2.228   1.893  1.00  0.00    -0.463 OA
BRANCH   5   6
ATOM      6  C   UNL     1      -0.802   2.409   0.550  1.00  0.00     0.311 C 
ATOM      7  O   UNL     1      -1.040   3.481   0.006  1.00  0.00    -0.252 OA
BRANCH   6   8
ATOM      8  C   UNL     1      -0.686   1.124  -0.235  1.00  0.00     0.123 C 
ATOM      9  C   UNL     1       1.568   0.029  -0.430  1.00  0.00     0.032 C 
ATOM     10  C   UNL     1       0.241   0.032   0.343  1.00  0.00     0.095 C 
ATOM     11  N   UNL     1      -0.508  -1.221   0.133  1.00  0.00    -0.352 N 
ATOM     12  C   UNL     1      -2.059   0.483  -0.325  1.00  0.00     0.039 C 
ATOM     13  C   UNL     1      -1.781  -0.995  -0.518  1.00  0.00     0.119 C 
BRANCH  11  14
ATOM     14  C   UNL     1      -0.057  -2.440   0.594  1.00  0.00     0.141 A 
ATOM     15  N   UNL     1       1.107  -2.444   1.300  1.00  0.00    -0.219 NA
ATOM     16  C   UNL     1      -0.696  -3.701   0.408  1.00  0.00     0.054 A 
ATOM     17  C   UNL     1       1.614  -3.594   1.765  1.00  0.00     0.225 A 
ATOM     18  C   UNL     1      -0.067  -4.803   0.979  1.00  0.00     0.128 A 
ATOM     19  C   UNL     1      -1.893  -4.142  -0.271  1.00  0.00     0.026 A 
ATOM     20  N   UNL     1       1.089  -4.810   1.659  1.00  0.00    -0.225 NA
ATOM     21  S   UNL     1      -0.915  -6.267   0.753  1.00  0.00    -0.124 S 
ATOM     22  C   UNL     1      -2.140  -5.491  -0.137  1.00  0.00     0.068 A 
ENDBRANCH  11  14
ENDBRANCH   6   8
ENDBRANCH   5   6
ENDBRANCH   4   5
ENDBRANCH   3   4
ENDBRANCH   2   3
ENDBRANCH   1   2
BRANCH   1  23
ATOM     23  C   UNL     1       3.304   2.426   2.573  1.00  0.00     0.261 C 
BRANCH  23  24
ATOM     24  O   UNL     1       2.712   1.649   3.631  1.00  0.00    -0.460 OA
BRANCH  24  25
ATOM     25  C   UNL     1       3.049   2.053   4.875  1.00  0.00     0.338 C 
ATOM     26  O   UNL     1       3.861   2.920   5.177  1.00  0.00    -0.246 OA
BRANCH  25  27
ATOM     27  C   UNL     1       2.190   1.418   5.891  1.00  0.00     0.060 A 
ATOM     28  C   UNL     1       1.625   2.261   6.856  1.00  0.00     0.016 A 
ATOM     29  C   UNL     1       2.034   0.032   5.981  1.00  0.00     0.016 A 
ATOM     30  C   UNL     1       0.983   1.719   7.965  1.00  0.00     0.010 A 
ATOM     31  C   UNL     1       1.389  -0.512   7.100  1.00  0.00     0.010 A 
ATOM     32  C   UNL     1       0.913   0.329   8.122  1.00  0.00    -0.014 A 
BRANCH  32  33
ATOM     33  C   UNL     1       0.520  -0.209   9.449  1.00  0.00     0.031 A 
ATOM     34  C   UNL     1       1.601  -0.595  10.424  1.00  0.00     0.074 A 
ATOM     35  C   UNL     1      -0.771  -0.260   9.819  1.00  0.00     0.049 A 
ATOM     36  N   UNL     1       1.498  -0.996  11.666  1.00  0.00    -0.248 NA
ATOM     37  C   UNL     1       2.986  -0.513   9.933  1.00  0.00     0.031 C 
ATOM     38  C   UNL     1      -1.905   0.117   8.979  1.00  0.00     0.029 A 
ATOM     39  N   UNL     1      -1.341  -0.637  11.010  1.00  0.00    -0.354 N 
ATOM     40  C   UNL     1       2.799  -1.206  12.104  1.00  0.00     0.074 A 
ATOM     41  C   UNL     1       3.674  -0.928  10.986  1.00  0.00     0.031 C 
ATOM     42  C   UNL     1      -3.039  -0.043   9.683  1.00  0.00     0.029 A 
ATOM     43  C   UNL     1      -2.710  -0.547  11.016  1.00  0.00     0.049 A 
ATOM     44  H   UNL     1      -0.817  -0.943  11.785  1.00  0.00     0.167 HD
ATOM     45  C   UNL     1       3.229  -1.582  13.332  1.00  0.00     0.037 A 
ATOM     46  C   UNL     1      -3.594  -0.837  11.990  1.00  0.00     0.037 A 
ATOM     47  C   UNL     1       2.363  -1.857  14.447  1.00  0.00     0.049 A 
ATOM     48  C   UNL     1      -3.093  -1.299  13.334  1.00  0.00     0.074 A 
ATOM     49  C   UNL     1       2.703  -2.234  15.735  1.00  0.00     0.029 A 
ATOM     50  N   UNL     1       0.978  -1.789  14.403  1.00  0.00    -0.354 N 
ATOM     51  N   UNL     1      -1.860  -1.461  13.748  1.00  0.00    -0.248 NA
ATOM     52  C   UNL     1      -4.110  -1.604  14.350  1.00  0.00     0.031 C 
ATOM     53  C   UNL     1       1.522  -2.434  16.459  1.00  0.00     0.029 A 
ATOM     54  C   UNL     1       0.448  -2.135  15.636  1.00  0.00     0.049 A 
ATOM     55  H   UNL     1       0.450  -1.532  13.613  1.00  0.00     0.167 HD
ATOM     56  C   UNL     1      -1.951  -1.859  15.076  1.00  0.00     0.074 A 
ATOM     57  C   UNL     1      -3.361  -1.899  15.403  1.00  0.00     0.031 C 
ATOM     58  C   UNL     1      -0.958  -2.163  15.947  1.00  0.00     0.037 A 
BRANCH  45  59
ATOM     59  C   UNL     1       4.709  -1.734  13.528  1.00  0.00     0.064 A 
ATOM     60  C   UNL     1       5.560  -0.621  13.594  1.00  0.00     0.173 A 
ATOM     61  C   UNL     1       5.279  -3.007  13.677  1.00  0.00     0.173 A 
ATOM     62  F   UNL     1       5.066   0.617  13.442  1.00  0.00    -0.203 F 
ATOM     63  C   UNL     1       6.932  -0.779  13.777  1.00  0.00     0.198 A 
ATOM     64  C   UNL     1       6.646  -3.160  13.886  1.00  0.00     0.198 A 
ATOM     65  F   UNL     1       4.508  -4.104  13.624  1.00  0.00    -0.203 F 
ATOM     66  F   UNL     1       7.732   0.296  13.794  1.00  0.00    -0.200 F 
ATOM     67  C   UNL     1       7.472  -2.047  13.930  1.00  0.00     0.200 A 
ATOM     68  F   UNL     1       7.167  -4.385  14.043  1.00  0.00    -0.200 F 
ATOM     69  F   UNL     1       8.792  -2.197  14.111  1.00  0.00    -0.200 F 
ENDBRANCH  45  59
BRANCH  46  70
ATOM     70  C   UNL     1      -5.050  -0.690  11.735  1.00  0.00     0.064 A 
ATOM     71  C   UNL     1      -5.800   0.311  12.367  1.00  0.00     0.173 A 
ATOM     72  C   UNL     1      -5.724  -1.563  10.868  1.00  0.00     0.173 A 
ATOM     73  F   UNL     1      -5.204   1.153  13.224  1.00  0.00    -0.203 F 
ATOM     74  C   UNL     1      -7.173   0.423  12.155  1.00  0.00     0.198 A 
ATOM     75  C   UNL     1      -7.092  -1.433  10.637  1.00  0.00     0.198 A 
ATOM     76  F   UNL     1      -5.052  -2.539  10.242  1.00  0.00    -0.203 F 
ATOM     77  F   UNL     1      -7.874   1.361  12.806  1.00  0.00    -0.200 F 
ATOM     78  C   UNL     1      -7.816  -0.445  11.287  1.00  0.00     0.200 A 
ATOM     79  F   UNL     1      -7.708  -2.269   9.790  1.00  0.00    -0.200 F 
ATOM     80  F   UNL     1      -9.136  -0.336  11.082  1.00  0.00    -0.200 F 
ENDBRANCH  46  70
BRANCH  58  81
ATOM     81  C   UNL     1      -1.359  -2.533  17.345  1.00  0.00     0.064 A 
ATOM     82  C   UNL     1      -1.969  -3.763  17.635  1.00  0.00     0.173 A 
ATOM     83  C   UNL     1      -1.103  -1.658  18.412  1.00  0.00     0.173 A 
ATOM     84  F   UNL     1      -2.247  -4.628  16.648  1.00  0.00    -0.203 F 
ATOM     85  C   UNL     1      -2.336  -4.089  18.938  1.00  0.00     0.198 A 
ATOM     86  C   UNL     1      -1.446  -2.000  19.717  1.00  0.00     0.198 A 
ATOM     87  F   UNL     1      -0.514  -0.474  18.189  1.00  0.00    -0.203 F 
ATOM     88  F   UNL     1      -2.964  -5.247  19.185  1.00  0.00    -0.200 F 
ATOM     89  C   UNL     1      -2.070  -3.211  19.978  1.00  0.00     0.200 A 
ATOM     90  F   UNL     1      -1.177  -1.156  20.722  1.00  0.00    -0.200 F 
ATOM     91  F   UNL     1      -2.423  -3.527  21.231  1.00  0.00    -0.200 F 
ENDBRANCH  58  81
ENDBRANCH  32  33
ENDBRANCH  25  27
ENDBRANCH  24  25
ENDBRANCH  23  24
ENDBRANCH   1  23
TORSDOF 15
