REMARK SMILES Cc1cccc(O[C@H]2CC[C@@]([NH2+]C(C)C)(C(=O)OCCOCCOC(=O)c3ccc(-c4c5nc(c(-c6c(F)c(F)c(F)c(F)c6F)c6ccc([nH]6)c(-c6c(F)c(F)c(F)c(F)c6F)c6nc(c(-c7c(F)c(F)c(F)c(F)c7F)c7ccc4[nH]7)C=C6)C=C5)cc3)C2)c1
REMARK SMILES IDX 21 1 20 2 19 3 18 4 16 5 17 6 11 7 8 8 9 9 90 10 10 11 7 12
REMARK SMILES IDX 6 13 1 14 2 15 3 16 91 17 4 18 5 19 12 20 13 23 14 24 15 25
REMARK SMILES IDX 22 26 23 27 24 28 25 29 26 30 27 31 28 32 89 33 29 34 88 35
REMARK SMILES IDX 30 36 31 37 32 38 82 39 33 40 87 41 81 42 83 43 34 44 86 45
REMARK SMILES IDX 80 46 79 47 35 49 67 50 47 51 66 52 48 53 51 54 65 55 84 56
REMARK SMILES IDX 49 57 50 58 64 60 85 61 52 62 36 63 37 64 45 65 38 66 39 67
REMARK SMILES IDX 43 68 46 69 40 70 41 71 44 72 42 73 68 74 69 75 77 76 70 77
REMARK SMILES IDX 71 78 75 79 78 80 72 81 73 82 76 83 74 84 53 85 54 86 62 87
REMARK SMILES IDX 55 88 56 89 60 90 63 91 57 92 58 93 61 94 59 95
REMARK H PARENT 12 21 12 22 83 48 51 59
REMARK Flexibility Score: inf
ROOT
ATOM      1  O   UNL     1      -1.028   7.457   0.048  1.00  0.00    -0.374 OA
ENDROOT
BRANCH   1   2
ATOM      2  C   UNL     1       0.147   7.954  -0.549  1.00  0.00     0.202 C 
BRANCH   2   3
ATOM      3  C   UNL     1       1.179   7.691   0.504  1.00  0.00     0.261 C 
BRANCH   3   4
ATOM      4  O   UNL     1       1.484   6.284   0.646  1.00  0.00    -0.459 OA
BRANCH   4   5
ATOM      5  C   UNL     1       0.610   5.420   1.264  1.00  0.00     0.368 C 
ATOM      6  O   UNL     1      -0.209   5.728   2.118  1.00  0.00    -0.245 OA
BRANCH   5   7
ATOM      7  C   UNL     1       0.862   3.959   0.790  1.00  0.00     0.198 C 
ATOM      8  C   UNL     1      -1.101   3.029  -0.449  1.00  0.00     0.180 C 
ATOM      9  C   UNL     1      -0.034   3.419  -1.466  1.00  0.00     0.052 C 
ATOM     10  C   UNL     1      -0.377   3.040   0.899  1.00  0.00     0.126 C 
ATOM     11  C   UNL     1       1.161   3.998  -0.726  1.00  0.00     0.085 C 
BRANCH   8  12
ATOM     12  O   UNL     1      -2.228   3.905  -0.377  1.00  0.00    -0.490 OA
BRANCH  12  13
ATOM     13  C   UNL     1      -3.107   3.959  -1.430  1.00  0.00     0.119 A 
ATOM     14  C   UNL     1      -5.989   6.343  -2.177  1.00  0.00     0.044 C 
ATOM     15  C   UNL     1      -4.969   5.253  -2.335  1.00  0.00    -0.047 A 
ATOM     16  C   UNL     1      -4.750   4.671  -3.585  1.00  0.00     0.003 A 
ATOM     17  C   UNL     1      -4.187   4.834  -1.252  1.00  0.00     0.049 A 
ATOM     18  C   UNL     1      -3.763   3.697  -3.740  1.00  0.00     0.004 A 
ATOM     19  C   UNL     1      -2.943   3.341  -2.666  1.00  0.00     0.046 A 
ENDBRANCH  12  13
ENDBRANCH   8  12
BRANCH   7  20
ATOM     20  N   UNL     1       2.037   3.379   1.509  1.00  0.00    -0.330 N 
ATOM     21  H   UNL     1       2.860   3.912   1.227  1.00  0.00     0.347 HD
ATOM     22  H   UNL     1       2.042   2.394   1.244  1.00  0.00     0.347 HD
BRANCH  20  23
ATOM     23  C   UNL     1       2.002   3.370   2.982  1.00  0.00     0.176 C 
ATOM     24  C   UNL     1       0.999   2.412   3.627  1.00  0.00     0.075 C 
ATOM     25  C   UNL     1       3.406   3.008   3.483  1.00  0.00     0.075 C 
ENDBRANCH  20  23
ENDBRANCH   7  20
ENDBRANCH   5   7
ENDBRANCH   4   5
ENDBRANCH   3   4
ENDBRANCH   2   3
ENDBRANCH   1   2
BRANCH   1  26
ATOM     26  C   UNL     1      -2.080   7.138  -0.819  1.00  0.00     0.202 C 
BRANCH  26  27
ATOM     27  C   UNL     1      -2.734   8.371  -1.427  1.00  0.00     0.261 C 
BRANCH  27  28
ATOM     28  O   UNL     1      -3.415   9.113  -0.392  1.00  0.00    -0.460 OA
BRANCH  28  29
ATOM     29  C   UNL     1      -2.706  10.166   0.109  1.00  0.00     0.338 C 
ATOM     30  O   UNL     1      -2.333  11.119  -0.540  1.00  0.00    -0.246 OA
BRANCH  29  31
ATOM     31  C   UNL     1      -2.257   9.868   1.503  1.00  0.00     0.060 A 
ATOM     32  C   UNL     1      -1.220  10.626   2.074  1.00  0.00     0.016 A 
ATOM     33  C   UNL     1      -2.641   8.670   2.094  1.00  0.00     0.016 A 
ATOM     34  C   UNL     1      -0.452  10.095   3.123  1.00  0.00     0.010 A 
ATOM     35  C   UNL     1      -1.802   8.104   3.033  1.00  0.00     0.010 A 
ATOM     36  C   UNL     1      -0.679   8.785   3.532  1.00  0.00    -0.014 A 
BRANCH  36  37
ATOM     37  C   UNL     1       0.167   8.004   4.449  1.00  0.00     0.031 A 
ATOM     38  C   UNL     1      -0.478   7.493   5.688  1.00  0.00     0.074 A 
ATOM     39  C   UNL     1       1.405   7.545   4.118  1.00  0.00     0.049 A 
ATOM     40  N   UNL     1       0.158   6.897   6.632  1.00  0.00    -0.248 NA
ATOM     41  C   UNL     1      -1.901   7.632   6.000  1.00  0.00     0.031 C 
ATOM     42  C   UNL     1       2.151   6.446   4.740  1.00  0.00     0.029 A 
ATOM     43  N   UNL     1       2.302   7.944   3.109  1.00  0.00    -0.354 N 
ATOM     44  C   UNL     1      -0.752   6.283   7.453  1.00  0.00     0.074 A 
ATOM     45  C   UNL     1      -2.011   6.880   7.100  1.00  0.00     0.031 C 
ATOM     46  C   UNL     1       3.439   6.481   4.354  1.00  0.00     0.029 A 
ATOM     47  C   UNL     1       3.603   7.687   3.572  1.00  0.00     0.049 A 
ATOM     48  H   UNL     1       2.061   8.334   2.237  1.00  0.00     0.167 HD
ATOM     49  C   UNL     1      -0.301   5.262   8.237  1.00  0.00     0.037 A 
ATOM     50  C   UNL     1       4.502   8.683   3.781  1.00  0.00     0.037 A 
ATOM     51  C   UNL     1       1.175   5.204   8.187  1.00  0.00     0.049 A 
ATOM     52  C   UNL     1       4.858   8.660   5.237  1.00  0.00     0.074 A 
ATOM     53  C   UNL     1       2.090   4.312   7.654  1.00  0.00     0.029 A 
ATOM     54  N   UNL     1       1.901   6.365   8.485  1.00  0.00    -0.354 N 
ATOM     55  N   UNL     1       4.012   8.276   6.159  1.00  0.00    -0.248 NA
ATOM     56  C   UNL     1       6.213   8.845   5.740  1.00  0.00     0.031 C 
ATOM     57  C   UNL     1       3.352   4.976   7.570  1.00  0.00     0.029 A 
ATOM     58  C   UNL     1       3.217   6.262   8.077  1.00  0.00     0.049 A 
ATOM     59  H   UNL     1       1.521   7.156   8.931  1.00  0.00     0.167 HD
ATOM     60  C   UNL     1       4.710   7.995   7.294  1.00  0.00     0.074 A 
ATOM     61  C   UNL     1       6.068   8.434   7.012  1.00  0.00     0.031 C 
ATOM     62  C   UNL     1       4.182   7.324   8.358  1.00  0.00     0.037 A 
BRANCH  49  63
ATOM     63  C   UNL     1      -1.163   4.210   8.927  1.00  0.00     0.064 A 
ATOM     64  C   UNL     1      -0.555   3.153   9.645  1.00  0.00     0.173 A 
ATOM     65  C   UNL     1      -2.572   4.122   8.872  1.00  0.00     0.173 A 
ATOM     66  F   UNL     1       0.775   3.082   9.787  1.00  0.00    -0.203 F 
ATOM     67  C   UNL     1      -1.287   2.114  10.238  1.00  0.00     0.198 A 
ATOM     68  C   UNL     1      -3.305   3.103   9.493  1.00  0.00     0.198 A 
ATOM     69  F   UNL     1      -3.322   4.986   8.189  1.00  0.00    -0.203 F 
ATOM     70  F   UNL     1      -0.643   1.123  10.871  1.00  0.00    -0.200 F 
ATOM     71  C   UNL     1      -2.664   2.094  10.170  1.00  0.00     0.200 A 
ATOM     72  F   UNL     1      -4.644   3.107   9.409  1.00  0.00    -0.200 F 
ATOM     73  F   UNL     1      -3.366   1.106  10.740  1.00  0.00    -0.200 F 
ENDBRANCH  49  63
BRANCH  50  74
ATOM     74  C   UNL     1       4.301   9.824   2.845  1.00  0.00     0.064 A 
ATOM     75  C   UNL     1       4.587   9.574   1.482  1.00  0.00     0.173 A 
ATOM     76  C   UNL     1       3.404  10.862   3.126  1.00  0.00     0.173 A 
ATOM     77  F   UNL     1       5.434   8.587   1.147  1.00  0.00    -0.203 F 
ATOM     78  C   UNL     1       3.880  10.208   0.459  1.00  0.00     0.198 A 
ATOM     79  C   UNL     1       2.704  11.501   2.094  1.00  0.00     0.198 A 
ATOM     80  F   UNL     1       3.088  11.158   4.394  1.00  0.00    -0.203 F 
ATOM     81  F   UNL     1       4.046   9.816  -0.814  1.00  0.00    -0.200 F 
ATOM     82  C   UNL     1       2.902  11.135   0.770  1.00  0.00     0.200 A 
ATOM     83  F   UNL     1       1.752  12.399   2.387  1.00  0.00    -0.200 F 
ATOM     84  F   UNL     1       2.107  11.619  -0.196  1.00  0.00    -0.200 F 
ENDBRANCH  50  74
BRANCH  62  85
ATOM     85  C   UNL     1       4.618   7.579   9.777  1.00  0.00     0.064 A 
ATOM     86  C   UNL     1       5.359   8.710  10.164  1.00  0.00     0.173 A 
ATOM     87  C   UNL     1       4.122   6.785  10.837  1.00  0.00     0.173 A 
ATOM     88  F   UNL     1       5.779   9.620   9.276  1.00  0.00    -0.203 F 
ATOM     89  C   UNL     1       5.645   8.984  11.500  1.00  0.00     0.198 A 
ATOM     90  C   UNL     1       4.346   7.105  12.172  1.00  0.00     0.198 A 
ATOM     91  F   UNL     1       3.364   5.701  10.621  1.00  0.00    -0.203 F 
ATOM     92  F   UNL     1       6.400  10.047  11.807  1.00  0.00    -0.200 F 
ATOM     93  C   UNL     1       5.127   8.191  12.504  1.00  0.00     0.200 A 
ATOM     94  F   UNL     1       3.776   6.366  13.135  1.00  0.00    -0.200 F 
ATOM     95  F   UNL     1       5.359   8.488  13.788  1.00  0.00    -0.200 F 
ENDBRANCH  62  85
ENDBRANCH  36  37
ENDBRANCH  29  31
ENDBRANCH  28  29
ENDBRANCH  27  28
ENDBRANCH  26  27
ENDBRANCH   1  26
TORSDOF 18
