REMARK SMILES O=C(C[C@H](c1ccsc1)n1cccc1)OCCOCCOC(=O)c1ccc(-c2c3nc(c(-c4c(F)c(F)c(F)c(F)c4F)c4ccc([nH]4)c(-c4c(F)c(F)c(F)c(F)c4F)c4nc(c(-c5c(F)c(F)c(F)c(F)c5F)c5ccc2[nH]5)C=C4)C=C3)cc1
REMARK SMILES IDX 18 1 17 2 16 3 15 4 2 5 1 6 3 7 4 8 10 9 11 10 14 11 12 12
REMARK SMILES IDX 13 13 5 14 6 15 9 16 7 17 8 18 19 19 20 20 21 21 22 22 23 23
REMARK SMILES IDX 24 24 25 25 86 26 26 27 85 28 27 29 28 30 29 31 79 32 30 33
REMARK SMILES IDX 84 34 78 35 80 36 31 37 83 38 77 39 76 40 32 42 64 43 44 44
REMARK SMILES IDX 63 45 45 46 48 47 62 48 81 49 46 50 47 51 61 53 82 54 49 55
REMARK SMILES IDX 33 56 34 57 42 58 35 59 36 60 40 61 43 62 37 63 38 64 41 65
REMARK SMILES IDX 39 66 65 67 66 68 74 69 67 70 68 71 72 72 75 73 69 74 70 75
REMARK SMILES IDX 73 76 71 77 50 78 51 79 59 80 52 81 53 82 57 83 60 84 54 85
REMARK SMILES IDX 55 86 58 87 56 88
REMARK H PARENT 80 41 48 52
REMARK Flexibility Score: inf
ROOT
ATOM      1  O   UNL     1       5.577   3.013   0.658  1.00  0.00    -0.374 OA
ENDROOT
BRANCH   1   2
ATOM      2  C   UNL     1       4.329   3.486   1.159  1.00  0.00     0.202 C 
BRANCH   2   3
ATOM      3  C   UNL     1       3.090   2.675   0.811  1.00  0.00     0.261 C 
BRANCH   3   4
ATOM      4  O   UNL     1       3.160   1.290   1.176  1.00  0.00    -0.463 OA
BRANCH   4   5
ATOM      5  C   UNL     1       3.608   0.285   0.393  1.00  0.00     0.308 C 
ATOM      6  O   UNL     1       3.465  -0.879   0.763  1.00  0.00    -0.252 OA
BRANCH   5   7
ATOM      7  C   UNL     1       4.376   0.596  -0.861  1.00  0.00     0.153 C 
BRANCH   7   8
ATOM      8  C   UNL     1       3.520   0.986  -2.047  1.00  0.00     0.128 C 
BRANCH   8   9
ATOM      9  N   UNL     1       4.375   1.570  -3.098  1.00  0.00    -0.346 N 
ATOM     10  C   UNL     1       4.519   2.929  -3.289  1.00  0.00     0.086 A 
ATOM     11  C   UNL     1       5.324   0.918  -3.843  1.00  0.00     0.086 A 
ATOM     12  C   UNL     1       5.532   3.132  -4.198  1.00  0.00     0.019 A 
ATOM     13  C   UNL     1       6.039   1.860  -4.550  1.00  0.00     0.019 A 
ENDBRANCH   8   9
BRANCH   8  14
ATOM     14  C   UNL     1       2.612  -0.117  -2.507  1.00  0.00    -0.014 A 
ATOM     15  C   UNL     1       2.990  -1.484  -2.717  1.00  0.00     0.017 A 
ATOM     16  C   UNL     1       1.242   0.036  -2.642  1.00  0.00     0.070 A 
ATOM     17  C   UNL     1       1.911  -2.297  -2.977  1.00  0.00     0.065 A 
ATOM     18  S   UNL     1       0.442  -1.429  -3.002  1.00  0.00    -0.152 S 
ENDBRANCH   8  14
ENDBRANCH   7   8
ENDBRANCH   5   7
ENDBRANCH   4   5
ENDBRANCH   3   4
ENDBRANCH   2   3
ENDBRANCH   1   2
BRANCH   1  19
ATOM     19  C   UNL     1       6.247   1.976   1.389  1.00  0.00     0.202 C 
BRANCH  19  20
ATOM     20  C   UNL     1       7.184   2.444   2.485  1.00  0.00     0.261 C 
BRANCH  20  21
ATOM     21  O   UNL     1       6.411   2.995   3.535  1.00  0.00    -0.460 OA
BRANCH  21  22
ATOM     22  C   UNL     1       6.183   4.305   3.400  1.00  0.00     0.338 C 
ATOM     23  O   UNL     1       6.561   5.054   2.487  1.00  0.00    -0.246 OA
BRANCH  22  24
ATOM     24  C   UNL     1       5.443   4.785   4.553  1.00  0.00     0.060 A 
ATOM     25  C   UNL     1       5.083   6.134   4.505  1.00  0.00     0.016 A 
ATOM     26  C   UNL     1       5.572   4.064   5.746  1.00  0.00     0.016 A 
ATOM     27  C   UNL     1       5.185   6.856   5.662  1.00  0.00     0.010 A 
ATOM     28  C   UNL     1       5.720   4.790   6.894  1.00  0.00     0.010 A 
ATOM     29  C   UNL     1       5.600   6.185   6.815  1.00  0.00    -0.014 A 
BRANCH  29  30
ATOM     30  C   UNL     1       5.813   6.957   8.028  1.00  0.00     0.031 A 
ATOM     31  C   UNL     1       4.548   6.993   8.863  1.00  0.00     0.074 A 
ATOM     32  C   UNL     1       7.082   7.424   8.195  1.00  0.00     0.049 A 
ATOM     33  N   UNL     1       4.303   7.640   9.955  1.00  0.00    -0.248 NA
ATOM     34  C   UNL     1       3.369   6.182   8.429  1.00  0.00     0.031 C 
ATOM     35  C   UNL     1       8.180   7.260   7.215  1.00  0.00     0.029 A 
ATOM     36  N   UNL     1       7.712   8.116   9.203  1.00  0.00    -0.354 N 
ATOM     37  C   UNL     1       3.094   7.133  10.452  1.00  0.00     0.074 A 
ATOM     38  C   UNL     1       2.510   6.318   9.435  1.00  0.00     0.031 C 
ATOM     39  C   UNL     1       9.295   7.891   7.636  1.00  0.00     0.029 A 
ATOM     40  C   UNL     1       9.054   8.483   8.936  1.00  0.00     0.049 A 
ATOM     41  H   UNL     1       7.262   8.341  10.050  1.00  0.00     0.167 HD
ATOM     42  C   UNL     1       2.712   7.288  11.744  1.00  0.00     0.037 A 
ATOM     43  C   UNL     1       9.904   9.223   9.710  1.00  0.00     0.037 A 
ATOM     44  C   UNL     1       3.603   8.148  12.443  1.00  0.00     0.049 A 
ATOM     45  C   UNL     1       9.244   9.306  11.024  1.00  0.00     0.074 A 
ATOM     46  C   UNL     1       3.803   9.501  12.367  1.00  0.00     0.029 A 
ATOM     47  N   UNL     1       4.678   7.573  13.076  1.00  0.00    -0.354 N 
ATOM     48  N   UNL     1       9.113   8.299  11.838  1.00  0.00    -0.248 NA
ATOM     49  C   UNL     1       8.613  10.563  11.437  1.00  0.00     0.031 C 
ATOM     50  C   UNL     1       5.181   9.667  12.618  1.00  0.00     0.029 A 
ATOM     51  C   UNL     1       5.747   8.431  12.949  1.00  0.00     0.049 A 
ATOM     52  H   UNL     1       4.683   6.703  13.537  1.00  0.00     0.167 HD
ATOM     53  C   UNL     1       8.106   8.719  12.675  1.00  0.00     0.074 A 
ATOM     54  C   UNL     1       8.068  10.160  12.582  1.00  0.00     0.031 C 
ATOM     55  C   UNL     1       7.082   7.874  12.963  1.00  0.00     0.037 A 
BRANCH  42  56
ATOM     56  C   UNL     1       1.668   6.553  12.507  1.00  0.00     0.064 A 
ATOM     57  C   UNL     1       1.053   7.207  13.592  1.00  0.00     0.173 A 
ATOM     58  C   UNL     1       1.507   5.162  12.424  1.00  0.00     0.173 A 
ATOM     59  F   UNL     1       1.143   8.540  13.724  1.00  0.00    -0.203 F 
ATOM     60  C   UNL     1       0.404   6.497  14.596  1.00  0.00     0.198 A 
ATOM     61  C   UNL     1       0.819   4.458  13.412  1.00  0.00     0.198 A 
ATOM     62  F   UNL     1       2.093   4.455  11.447  1.00  0.00    -0.203 F 
ATOM     63  F   UNL     1      -0.064   7.143  15.672  1.00  0.00    -0.200 F 
ATOM     64  C   UNL     1       0.301   5.120  14.513  1.00  0.00     0.200 A 
ATOM     65  F   UNL     1       0.724   3.123  13.331  1.00  0.00    -0.200 F 
ATOM     66  F   UNL     1      -0.264   4.428  15.511  1.00  0.00    -0.200 F 
ENDBRANCH  42  56
BRANCH  43  67
ATOM     67  C   UNL     1      11.232   9.929   9.561  1.00  0.00     0.064 A 
ATOM     68  C   UNL     1      12.002  10.001   8.392  1.00  0.00     0.173 A 
ATOM     69  C   UNL     1      11.730  10.724  10.633  1.00  0.00     0.173 A 
ATOM     70  F   UNL     1      11.712   9.264   7.317  1.00  0.00    -0.203 F 
ATOM     71  C   UNL     1      13.110  10.860   8.275  1.00  0.00     0.198 A 
ATOM     72  C   UNL     1      12.797  11.614  10.502  1.00  0.00     0.198 A 
ATOM     73  F   UNL     1      11.178  10.684  11.853  1.00  0.00    -0.203 F 
ATOM     74  F   UNL     1      13.803  10.896   7.128  1.00  0.00    -0.200 F 
ATOM     75  C   UNL     1      13.481  11.694   9.314  1.00  0.00     0.200 A 
ATOM     76  F   UNL     1      13.126  12.412  11.528  1.00  0.00    -0.200 F 
ATOM     77  F   UNL     1      14.488  12.565   9.171  1.00  0.00    -0.200 F 
ENDBRANCH  43  67
BRANCH  55  78
ATOM     78  C   UNL     1       7.452   6.409  12.819  1.00  0.00     0.064 A 
ATOM     79  C   UNL     1       8.458   5.857  13.629  1.00  0.00     0.173 A 
ATOM     80  C   UNL     1       6.943   5.570  11.814  1.00  0.00     0.173 A 
ATOM     81  F   UNL     1       8.984   6.581  14.629  1.00  0.00    -0.203 F 
ATOM     82  C   UNL     1       8.941   4.561  13.422  1.00  0.00     0.198 A 
ATOM     83  C   UNL     1       7.419   4.274  11.607  1.00  0.00     0.198 A 
ATOM     84  F   UNL     1       5.961   5.983  11.015  1.00  0.00    -0.203 F 
ATOM     85  F   UNL     1       9.908   4.074  14.212  1.00  0.00    -0.200 F 
ATOM     86  C   UNL     1       8.425   3.772  12.407  1.00  0.00     0.200 A 
ATOM     87  F   UNL     1       6.893   3.516  10.632  1.00  0.00    -0.200 F 
ATOM     88  F   UNL     1       8.884   2.528  12.211  1.00  0.00    -0.200 F 
ENDBRANCH  55  78
ENDBRANCH  29  30
ENDBRANCH  22  24
ENDBRANCH  21  22
ENDBRANCH  20  21
ENDBRANCH  19  20
ENDBRANCH   1  19
TORSDOF 17
