REMARK SMILES C[C@]12C[C@@H](O)[C@H]3[C@@H](CCC4=CC(=O)C=C[C@]43C)[C@H]1CC[C@@]2(O)C(=O)COC(=O)CCC(=O)OCCOCCOC(=O)c1ccc(-c2c3nc(c(-c4c(F)c(F)c(F)c(F)c4F)c4ccc([nH]4)c(-c4c(F)c(F)c(F)c(F)c4F)c4nc(c(-c5c(F)c(F)c(F)c(F)c5F)c5ccc2[nH]5)C=C4)C=C3)cc1
REMARK SMILES IDX 34 1 33 2 31 3 32 4 30 5 29 6 27 7 28 8 26 9 25 10 23 11
REMARK SMILES IDX 24 12 21 13 17 14 16 15 15 16 10 17 6 18 14 19 11 20 9 21
REMARK SMILES IDX 7 22 4 23 12 24 8 25 18 26 3 27 13 28 2 29 19 30 1 31 20 32
REMARK SMILES IDX 5 33 22 35 35 37 36 38 37 39 38 40 39 41 40 42 41 43 42 44
REMARK SMILES IDX 43 45 104 46 44 47 103 48 45 49 46 50 47 51 97 52 48 53
REMARK SMILES IDX 102 54 96 55 98 56 49 57 101 58 95 59 94 60 50 62 82 63
REMARK SMILES IDX 62 64 81 65 63 66 66 67 80 68 99 69 64 70 65 71 79 73 100 74
REMARK SMILES IDX 67 75 51 76 52 77 60 78 53 79 54 80 58 81 61 82 55 83 56 84
REMARK SMILES IDX 59 85 57 86 83 87 84 88 92 89 85 90 86 91 90 92 93 93 87 94
REMARK SMILES IDX 88 95 91 96 89 97 68 98 69 99 77 100 70 101 71 102 75 103
REMARK SMILES IDX 78 104 72 105 73 106 76 107 74 108
REMARK H PARENT 5 34 22 36 98 61 66 72
REMARK Flexibility Score: inf
ROOT
ATOM      1  C   UNL     1      -4.103  -4.208  -3.827  1.00  0.00     0.261 C 
ENDROOT
BRANCH   1   2
ATOM      2  O   UNL     1      -3.469  -5.185  -2.973  1.00  0.00    -0.463 OA
BRANCH   2   3
ATOM      3  C   UNL     1      -3.202  -4.766  -1.708  1.00  0.00     0.306 C 
ATOM      4  O   UNL     1      -3.410  -3.628  -1.299  1.00  0.00    -0.252 OA
BRANCH   3   5
ATOM      5  C   UNL     1      -2.563  -5.815  -0.823  1.00  0.00     0.134 C 
BRANCH   5   6
ATOM      6  C   UNL     1      -2.614  -7.262  -1.292  1.00  0.00     0.134 C 
BRANCH   6   7
ATOM      7  C   UNL     1      -1.338  -7.769  -1.924  1.00  0.00     0.306 C 
ATOM      8  O   UNL     1      -0.925  -8.909  -1.762  1.00  0.00    -0.252 OA
BRANCH   7   9
ATOM      9  O   UNL     1      -0.795  -6.859  -2.768  1.00  0.00    -0.458 OA
BRANCH   9  10
ATOM     10  C   UNL     1       0.277  -7.301  -3.602  1.00  0.00     0.311 C 
BRANCH  10  11
ATOM     11  C   UNL     1       1.534  -6.440  -3.463  1.00  0.00     0.202 C 
ATOM     12  O   UNL     1       2.481  -6.828  -2.773  1.00  0.00    -0.293 OA
BRANCH  11  13
ATOM     13  C   UNL     1       1.569  -5.066  -4.191  1.00  0.00     0.132 C 
ATOM     14  C   UNL     1       1.362   0.147   0.223  1.00  0.00     0.021 C 
ATOM     15  C   UNL     1       0.442  -0.166  -0.994  1.00  0.00     0.013 C 
ATOM     16  C   UNL     1      -0.960  -0.329  -0.391  1.00  0.00    -0.012 C 
ATOM     17  C   UNL     1       0.426   1.089  -1.897  1.00  0.00    -0.056 C 
ATOM     18  C   UNL     1       1.035  -1.465  -1.710  1.00  0.00     0.035 C 
ATOM     19  C   UNL     1      -1.772   0.709  -0.128  1.00  0.00     0.048 C 
ATOM     20  C   UNL     1      -0.357   2.148  -1.600  1.00  0.00     0.052 C 
ATOM     21  C   UNL     1       1.147   1.140  -3.218  1.00  0.00     0.032 C 
ATOM     22  C   UNL     1       0.950  -1.385  -3.249  1.00  0.00    -0.000 C 
ATOM     23  C   UNL     1       0.504  -2.808  -1.160  1.00  0.00     0.119 C 
ATOM     24  C   UNL     1      -1.360   2.073  -0.517  1.00  0.00     0.178 C 
ATOM     25  C   UNL     1       1.745  -0.165  -3.718  1.00  0.00     0.009 C 
ATOM     26  C   UNL     1       1.431  -2.656  -3.987  1.00  0.00     0.002 C 
ATOM     27  C   UNL     1       0.983  -4.035  -1.930  1.00  0.00     0.042 C 
ATOM     28  O   UNL     1      -1.883   3.072  -0.045  1.00  0.00    -0.290 OA
ATOM     29  C   UNL     1       0.773  -3.947  -3.459  1.00  0.00     0.009 C 
ATOM     30  C   UNL     1       2.922  -2.991  -3.954  1.00  0.00     0.008 C 
ATOM     31  C   UNL     1      -0.706  -3.907  -3.855  1.00  0.00     0.015 C 
ATOM     32  C   UNL     1       3.000  -4.480  -4.335  1.00  0.00     0.044 C 
BRANCH  23  33
ATOM     33  O   UNL     1       0.895  -2.980   0.201  1.00  0.00    -0.393 OA
ATOM     34  H   UNL     1       1.862  -3.032   0.256  1.00  0.00     0.210 HD
ENDBRANCH  23  33
BRANCH  13  35
ATOM     35  O   UNL     1       1.066  -5.237  -5.518  1.00  0.00    -0.381 OA
ATOM     36  H   UNL     1       1.083  -4.385  -5.982  1.00  0.00     0.212 HD
ENDBRANCH  13  35
ENDBRANCH  11  13
ENDBRANCH  10  11
ENDBRANCH   9  10
ENDBRANCH   7   9
ENDBRANCH   6   7
ENDBRANCH   5   6
ENDBRANCH   3   5
ENDBRANCH   2   3
ENDBRANCH   1   2
BRANCH   1  37
ATOM     37  C   UNL     1      -5.129  -4.837  -4.769  1.00  0.00     0.202 C 
BRANCH  37  38
ATOM     38  O   UNL     1      -6.265  -5.421  -4.141  1.00  0.00    -0.374 OA
BRANCH  38  39
ATOM     39  C   UNL     1      -6.047  -6.570  -3.327  1.00  0.00     0.202 C 
BRANCH  39  40
ATOM     40  C   UNL     1      -5.651  -7.860  -4.059  1.00  0.00     0.261 C 
BRANCH  40  41
ATOM     41  O   UNL     1      -4.362  -7.804  -4.712  1.00  0.00    -0.460 OA
BRANCH  41  42
ATOM     42  C   UNL     1      -4.411  -7.962  -6.059  1.00  0.00     0.338 C 
ATOM     43  O   UNL     1      -5.408  -8.102  -6.748  1.00  0.00    -0.246 OA
BRANCH  42  44
ATOM     44  C   UNL     1      -3.077  -7.868  -6.682  1.00  0.00     0.060 A 
ATOM     45  C   UNL     1      -2.879  -6.879  -7.654  1.00  0.00     0.016 A 
ATOM     46  C   UNL     1      -2.130  -8.878  -6.503  1.00  0.00     0.016 A 
ATOM     47  C   UNL     1      -1.768  -6.937  -8.500  1.00  0.00     0.010 A 
ATOM     48  C   UNL     1      -1.013  -8.930  -7.351  1.00  0.00     0.010 A 
ATOM     49  C   UNL     1      -0.850  -7.990  -8.388  1.00  0.00    -0.014 A 
BRANCH  49  50
ATOM     50  C   UNL     1       0.195  -8.190  -9.431  1.00  0.00     0.031 A 
ATOM     51  C   UNL     1       0.026  -9.276 -10.459  1.00  0.00     0.074 A 
ATOM     52  C   UNL     1       1.292  -7.413  -9.477  1.00  0.00     0.049 A 
ATOM     53  N   UNL     1       0.835  -9.639 -11.423  1.00  0.00    -0.248 NA
ATOM     54  C   UNL     1      -1.227 -10.044 -10.404  1.00  0.00     0.031 C 
ATOM     55  C   UNL     1       1.547  -6.274  -8.606  1.00  0.00     0.029 A 
ATOM     56  N   UNL     1       2.408  -7.479 -10.275  1.00  0.00    -0.354 N 
ATOM     57  C   UNL     1       0.188 -10.667 -12.095  1.00  0.00     0.074 A 
ATOM     58  C   UNL     1      -1.061 -10.902 -11.400  1.00  0.00     0.031 C 
ATOM     59  C   UNL     1       2.778  -5.796  -8.851  1.00  0.00     0.029 A 
ATOM     60  C   UNL     1       3.388  -6.586  -9.920  1.00  0.00     0.049 A 
ATOM     61  H   UNL     1       2.496  -8.106 -11.029  1.00  0.00     0.167 HD
ATOM     62  C   UNL     1       0.584 -11.337 -13.204  1.00  0.00     0.037 A 
ATOM     63  C   UNL     1       4.638  -6.423 -10.396  1.00  0.00     0.037 A 
ATOM     64  C   UNL     1       1.818 -11.099 -13.907  1.00  0.00     0.049 A 
ATOM     65  C   UNL     1       5.098  -7.241 -11.573  1.00  0.00     0.074 A 
ATOM     66  C   UNL     1       2.274 -11.689 -15.074  1.00  0.00     0.029 A 
ATOM     67  N   UNL     1       2.800 -10.208 -13.502  1.00  0.00    -0.354 N 
ATOM     68  N   UNL     1       4.450  -8.165 -12.238  1.00  0.00    -0.248 NA
ATOM     69  C   UNL     1       6.448  -6.968 -12.086  1.00  0.00     0.031 C 
ATOM     70  C   UNL     1       3.555 -11.194 -15.345  1.00  0.00     0.029 A 
ATOM     71  C   UNL     1       3.876 -10.259 -14.374  1.00  0.00     0.049 A 
ATOM     72  H   UNL     1       2.742  -9.625 -12.711  1.00  0.00     0.167 HD
ATOM     73  C   UNL     1       5.294  -8.555 -13.270  1.00  0.00     0.074 A 
ATOM     74  C   UNL     1       6.502  -7.767 -13.142  1.00  0.00     0.031 C 
ATOM     75  C   UNL     1       5.077  -9.474 -14.243  1.00  0.00     0.037 A 
BRANCH  62  76
ATOM     76  C   UNL     1      -0.327 -12.409 -13.723  1.00  0.00     0.064 A 
ATOM     77  C   UNL     1      -1.536 -12.100 -14.364  1.00  0.00     0.173 A 
ATOM     78  C   UNL     1       0.029 -13.760 -13.608  1.00  0.00     0.173 A 
ATOM     79  F   UNL     1      -1.926 -10.823 -14.491  1.00  0.00    -0.203 F 
ATOM     80  C   UNL     1      -2.369 -13.107 -14.845  1.00  0.00     0.198 A 
ATOM     81  C   UNL     1      -0.793 -14.764 -14.113  1.00  0.00     0.198 A 
ATOM     82  F   UNL     1       1.179 -14.107 -13.009  1.00  0.00    -0.203 F 
ATOM     83  F   UNL     1      -3.541 -12.792 -15.414  1.00  0.00    -0.200 F 
ATOM     84  C   UNL     1      -1.994 -14.437 -14.724  1.00  0.00     0.200 A 
ATOM     85  F   UNL     1      -0.424 -16.048 -14.005  1.00  0.00    -0.200 F 
ATOM     86  F   UNL     1      -2.795 -15.406 -15.190  1.00  0.00    -0.200 F 
ENDBRANCH  62  76
BRANCH  63  87
ATOM     87  C   UNL     1       5.540  -5.430  -9.761  1.00  0.00     0.064 A 
ATOM     88  C   UNL     1       5.873  -4.232 -10.406  1.00  0.00     0.173 A 
ATOM     89  C   UNL     1       6.083  -5.663  -8.489  1.00  0.00     0.173 A 
ATOM     90  F   UNL     1       5.391  -3.975 -11.630  1.00  0.00    -0.203 F 
ATOM     91  C   UNL     1       6.730  -3.310  -9.808  1.00  0.00     0.198 A 
ATOM     92  C   UNL     1       6.923  -4.731  -7.884  1.00  0.00     0.198 A 
ATOM     93  F   UNL     1       5.786  -6.792  -7.828  1.00  0.00    -0.203 F 
ATOM     94  F   UNL     1       7.058  -2.185 -10.459  1.00  0.00    -0.200 F 
ATOM     95  C   UNL     1       7.250  -3.558  -8.546  1.00  0.00     0.200 A 
ATOM     96  F   UNL     1       7.410  -4.967  -6.658  1.00  0.00    -0.200 F 
ATOM     97  F   UNL     1       8.066  -2.666  -7.969  1.00  0.00    -0.200 F 
ENDBRANCH  63  87
BRANCH  75  98
ATOM     98  C   UNL     1       6.156  -9.661 -15.271  1.00  0.00     0.064 A 
ATOM     99  C   UNL     1       7.361 -10.308 -14.964  1.00  0.00     0.173 A 
ATOM    100  C   UNL     1       5.965  -9.218 -16.589  1.00  0.00     0.173 A 
ATOM    101  F   UNL     1       7.598 -10.734 -13.714  1.00  0.00    -0.203 F 
ATOM    102  C   UNL     1       8.345 -10.487 -15.933  1.00  0.00     0.198 A 
ATOM    103  C   UNL     1       6.940  -9.423 -17.562  1.00  0.00     0.198 A 
ATOM    104  F   UNL     1       4.829  -8.597 -16.937  1.00  0.00    -0.203 F 
ATOM    105  F   UNL     1       9.507 -11.069 -15.606  1.00  0.00    -0.200 F 
ATOM    106  C   UNL     1       8.131 -10.051 -17.232  1.00  0.00     0.200 A 
ATOM    107  F   UNL     1       6.727  -9.011 -18.820  1.00  0.00    -0.200 F 
ATOM    108  F   UNL     1       9.077 -10.229 -18.165  1.00  0.00    -0.200 F 
ENDBRANCH  75  98
ENDBRANCH  49  50
ENDBRANCH  42  44
ENDBRANCH  41  42
ENDBRANCH  40  41
ENDBRANCH  39  40
ENDBRANCH  38  39
ENDBRANCH  37  38
ENDBRANCH   1  37
TORSDOF 22
