REMARK SMILES CCc1nc(N2CC[N@H+](CC=C(C)C)[C@H](C(=O)OCCOCCOC(=O)c3ccc(-c4c5nc(c(-c6c(F)c(F)c(F)c(F)c6F)c6ccc([nH]6)c(-c6c(F)c(F)c(F)c(F)c6F)c6nc(c(-c7c(F)c(F)c(F)c(F)c7F)c7ccc4[nH]7)C=C6)C=C5)cc3)C2)no1
REMARK SMILES IDX 21 1 20 2 19 3 18 4 16 5 17 6 15 7 6 8 7 9 90 10 8 11 9 12
REMARK SMILES IDX 5 14 3 15 4 16 92 17 91 18 2 19 1 20 10 21 11 22 12 23 13 24
REMARK SMILES IDX 14 25 22 26 23 27 24 28 25 29 26 30 27 31 28 32 89 33 29 34
REMARK SMILES IDX 88 35 30 36 31 37 32 38 82 39 33 40 87 41 81 42 83 43 34 44
REMARK SMILES IDX 86 45 80 46 79 47 35 49 67 50 47 51 66 52 48 53 51 54 65 55
REMARK SMILES IDX 84 56 49 57 50 58 64 60 85 61 52 62 36 63 37 64 45 65 38 66
REMARK SMILES IDX 39 67 43 68 46 69 40 70 41 71 44 72 42 73 68 74 69 75 77 76
REMARK SMILES IDX 70 77 71 78 75 79 78 80 72 81 73 82 76 83 74 84 53 85 54 86
REMARK SMILES IDX 62 87 55 88 56 89 60 90 63 91 57 92 58 93 61 94 59 95
REMARK H PARENT 9 13 83 48 51 59
REMARK Flexibility Score: inf
ROOT
ATOM      1  O   UNL     1       1.191  -1.252  -9.998  1.00  0.00    -0.374 OA
ENDROOT
BRANCH   1   2
ATOM      2  C   UNL     1       0.324  -1.581  -8.909  1.00  0.00     0.202 C 
BRANCH   2   3
ATOM      3  C   UNL     1       0.991  -1.933  -7.572  1.00  0.00     0.261 C 
BRANCH   3   4
ATOM      4  O   UNL     1       1.393  -0.760  -6.819  1.00  0.00    -0.459 OA
BRANCH   4   5
ATOM      5  C   UNL     1       2.723  -0.669  -6.520  1.00  0.00     0.366 C 
ATOM      6  O   UNL     1       3.568  -1.451  -6.948  1.00  0.00    -0.245 OA
BRANCH   5   7
ATOM      7  C   UNL     1       3.070   0.496  -5.582  1.00  0.00     0.315 C 
ATOM      8  N   UNL     1       2.341   2.259  -3.990  1.00  0.00    -0.326 N 
ATOM      9  C   UNL     1       3.483   3.099  -4.361  1.00  0.00     0.181 C 
ATOM     10  C   UNL     1       1.879   1.215  -4.919  1.00  0.00     0.197 C 
ATOM     11  C   UNL     1       4.593   2.289  -5.063  1.00  0.00     0.285 C 
ATOM     12  N   UNL     1       4.140   1.385  -6.132  1.00  0.00    -0.317 N 
ATOM     13  H   UNL     1       4.874   0.742  -6.427  1.00  0.00     0.349 HD
BRANCH   8  14
ATOM     14  C   UNL     1       1.684   2.530  -2.843  1.00  0.00     0.266 A 
ATOM     15  C   UNL     1       0.749   2.045  -1.044  1.00  0.00     0.227 A 
ATOM     16  N   UNL     1       1.009   1.521  -2.219  1.00  0.00    -0.176 NA
ATOM     17  O   UNL     1       1.103   3.355  -0.945  1.00  0.00    -0.337 OA
ATOM     18  N   UNL     1       1.729   3.673  -2.143  1.00  0.00    -0.038 NA
BRANCH  15  19
ATOM     19  C   UNL     1       0.263   1.391   0.189  1.00  0.00     0.097 C 
ATOM     20  C   UNL     1       0.860  -0.002   0.330  1.00  0.00     0.014 C 
ENDBRANCH  15  19
ENDBRANCH   8  14
BRANCH  12  21
ATOM     21  C   UNL     1       3.915   2.075  -7.402  1.00  0.00     0.291 C 
BRANCH  21  22
ATOM     22  C   UNL     1       2.877   3.164  -7.437  1.00  0.00     0.032 C 
ATOM     23  C   UNL     1       3.064   4.469  -7.727  1.00  0.00    -0.075 C 
ATOM     24  C   UNL     1       1.934   5.458  -7.606  1.00  0.00     0.039 C 
ATOM     25  C   UNL     1       4.386   5.052  -8.142  1.00  0.00     0.039 C 
ENDBRANCH  21  22
ENDBRANCH  12  21
ENDBRANCH   5   7
ENDBRANCH   4   5
ENDBRANCH   3   4
ENDBRANCH   2   3
ENDBRANCH   1   2
BRANCH   1  26
ATOM     26  C   UNL     1       1.966  -0.066  -9.858  1.00  0.00     0.202 C 
BRANCH  26  27
ATOM     27  C   UNL     1       1.274   1.244 -10.245  1.00  0.00     0.261 C 
BRANCH  27  28
ATOM     28  O   UNL     1      -0.018   1.373  -9.632  1.00  0.00    -0.460 OA
BRANCH  28  29
ATOM     29  C   UNL     1      -1.037   1.181 -10.496  1.00  0.00     0.338 C 
ATOM     30  O   UNL     1      -0.968   1.086 -11.719  1.00  0.00    -0.246 OA
BRANCH  29  31
ATOM     31  C   UNL     1      -2.300   0.939  -9.786  1.00  0.00     0.060 A 
ATOM     32  C   UNL     1      -3.044  -0.170 -10.204  1.00  0.00     0.016 A 
ATOM     33  C   UNL     1      -2.813   1.828  -8.836  1.00  0.00     0.016 A 
ATOM     34  C   UNL     1      -4.349  -0.335  -9.762  1.00  0.00     0.010 A 
ATOM     35  C   UNL     1      -4.129   1.658  -8.388  1.00  0.00     0.010 A 
ATOM     36  C   UNL     1      -4.920   0.615  -8.903  1.00  0.00    -0.014 A 
BRANCH  36  37
ATOM     37  C   UNL     1      -6.394   0.603  -8.751  1.00  0.00     0.031 A 
ATOM     38  C   UNL     1      -7.216   1.532  -9.604  1.00  0.00     0.074 A 
ATOM     39  C   UNL     1      -6.993  -0.312  -7.969  1.00  0.00     0.049 A 
ATOM     40  N   UNL     1      -8.516   1.599  -9.750  1.00  0.00    -0.248 NA
ATOM     41  C   UNL     1      -6.472   2.514 -10.410  1.00  0.00     0.031 C 
ATOM     42  C   UNL     1      -6.299  -1.284  -7.127  1.00  0.00     0.029 A 
ATOM     43  N   UNL     1      -8.323  -0.587  -7.779  1.00  0.00    -0.354 N 
ATOM     44  C   UNL     1      -8.741   2.620 -10.665  1.00  0.00     0.074 A 
ATOM     45  C   UNL     1      -7.451   3.176 -11.008  1.00  0.00     0.031 C 
ATOM     46  C   UNL     1      -7.210  -2.062  -6.519  1.00  0.00     0.029 A 
ATOM     47  C   UNL     1      -8.549  -1.634  -6.921  1.00  0.00     0.049 A 
ATOM     48  H   UNL     1      -9.046  -0.082  -8.216  1.00  0.00     0.167 HD
ATOM     49  C   UNL     1      -9.916   3.044 -11.187  1.00  0.00     0.037 A 
ATOM     50  C   UNL     1      -9.708  -2.187  -6.516  1.00  0.00     0.037 A 
ATOM     51  C   UNL     1     -11.198   2.487 -10.846  1.00  0.00     0.049 A 
ATOM     52  C   UNL     1     -11.005  -1.673  -7.085  1.00  0.00     0.074 A 
ATOM     53  C   UNL     1     -12.450   2.843 -11.316  1.00  0.00     0.029 A 
ATOM     54  N   UNL     1     -11.389   1.450  -9.944  1.00  0.00    -0.354 N 
ATOM     55  N   UNL     1     -11.206  -0.727  -7.970  1.00  0.00    -0.248 NA
ATOM     56  C   UNL     1     -12.236  -2.319  -6.609  1.00  0.00     0.031 C 
ATOM     57  C   UNL     1     -13.402   2.050 -10.665  1.00  0.00     0.029 A 
ATOM     58  C   UNL     1     -12.739   1.165  -9.830  1.00  0.00     0.049 A 
ATOM     59  H   UNL     1     -10.670   0.986  -9.457  1.00  0.00     0.167 HD
ATOM     60  C   UNL     1     -12.578  -0.684  -8.180  1.00  0.00     0.074 A 
ATOM     61  C   UNL     1     -13.159  -1.712  -7.342  1.00  0.00     0.031 C 
ATOM     62  C   UNL     1     -13.295   0.132  -8.994  1.00  0.00     0.037 A 
BRANCH  49  63
ATOM     63  C   UNL     1      -9.866   4.181 -12.166  1.00  0.00     0.064 A 
ATOM     64  C   UNL     1      -9.353   4.017 -13.462  1.00  0.00     0.173 A 
ATOM     65  C   UNL     1     -10.354   5.447 -11.810  1.00  0.00     0.173 A 
ATOM     66  F   UNL     1      -8.859   2.830 -13.847  1.00  0.00    -0.203 F 
ATOM     67  C   UNL     1      -9.306   5.085 -14.355  1.00  0.00     0.198 A 
ATOM     68  C   UNL     1     -10.330   6.506 -12.715  1.00  0.00     0.198 A 
ATOM     69  F   UNL     1     -10.856   5.658 -10.584  1.00  0.00    -0.203 F 
ATOM     70  F   UNL     1      -8.766   4.917 -15.571  1.00  0.00    -0.200 F 
ATOM     71  C   UNL     1      -9.800   6.326 -13.983  1.00  0.00     0.200 A 
ATOM     72  F   UNL     1     -10.817   7.702 -12.357  1.00  0.00    -0.200 F 
ATOM     73  F   UNL     1      -9.756   7.352 -14.844  1.00  0.00    -0.200 F 
ENDBRANCH  49  63
BRANCH  50  74
ATOM     74  C   UNL     1      -9.694  -3.304  -5.535  1.00  0.00     0.064 A 
ATOM     75  C   UNL     1     -10.072  -4.602  -5.905  1.00  0.00     0.173 A 
ATOM     76  C   UNL     1      -9.314  -3.089  -4.202  1.00  0.00     0.173 A 
ATOM     77  F   UNL     1     -10.465  -4.853  -7.162  1.00  0.00    -0.203 F 
ATOM     78  C   UNL     1     -10.089  -5.639  -4.973  1.00  0.00     0.198 A 
ATOM     79  C   UNL     1      -9.305  -4.132  -3.279  1.00  0.00     0.198 A 
ATOM     80  F   UNL     1      -8.943  -1.865  -3.798  1.00  0.00    -0.203 F 
ATOM     81  F   UNL     1     -10.499  -6.860  -5.342  1.00  0.00    -0.200 F 
ATOM     82  C   UNL     1      -9.700  -5.404  -3.663  1.00  0.00     0.200 A 
ATOM     83  F   UNL     1      -8.916  -3.903  -2.017  1.00  0.00    -0.200 F 
ATOM     84  F   UNL     1      -9.714  -6.402  -2.769  1.00  0.00    -0.200 F 
ENDBRANCH  50  74
BRANCH  62  85
ATOM     85  C   UNL     1     -14.780  -0.084  -9.041  1.00  0.00     0.064 A 
ATOM     86  C   UNL     1     -15.610   0.255  -7.962  1.00  0.00     0.173 A 
ATOM     87  C   UNL     1     -15.382  -0.618 -10.191  1.00  0.00     0.173 A 
ATOM     88  F   UNL     1     -15.081   0.757  -6.836  1.00  0.00    -0.203 F 
ATOM     89  C   UNL     1     -16.983   0.031  -8.018  1.00  0.00     0.198 A 
ATOM     90  C   UNL     1     -16.759  -0.811 -10.255  1.00  0.00     0.198 A 
ATOM     91  F   UNL     1     -14.635  -0.949 -11.255  1.00  0.00    -0.203 F 
ATOM     92  F   UNL     1     -17.748   0.307  -6.953  1.00  0.00    -0.200 F 
ATOM     93  C   UNL     1     -17.557  -0.497  -9.165  1.00  0.00     0.200 A 
ATOM     94  F   UNL     1     -17.313  -1.308 -11.369  1.00  0.00    -0.200 F 
ATOM     95  F   UNL     1     -18.878  -0.712  -9.216  1.00  0.00    -0.200 F 
ENDBRANCH  62  85
ENDBRANCH  36  37
ENDBRANCH  29  31
ENDBRANCH  28  29
ENDBRANCH  27  28
ENDBRANCH  26  27
ENDBRANCH   1  26
TORSDOF 18
