REMARK SMILES O=C(OCCOCCOC(=O)C1(Cc2ccncc2)Cc2ccccc2C1)c1ccc(-c2c3nc(c(-c4c(F)c(F)c(F)c(F)c4F)c4ccc([nH]4)c(-c4c(F)c(F)c(F)c(F)c4F)c4nc(c(-c5c(F)c(F)c(F)c(F)c5F)c5ccc2[nH]5)C=C4)C=C3)cc1
REMARK SMILES IDX 6 1 5 2 4 3 3 4 2 5 1 6 28 7 29 8 90 9 30 10 89 11 31 12
REMARK SMILES IDX 32 13 33 14 83 15 34 16 88 17 82 18 84 19 35 20 87 21 81 22
REMARK SMILES IDX 80 23 36 25 68 26 48 27 67 28 49 29 52 30 66 31 85 32 50 33
REMARK SMILES IDX 51 34 65 36 86 37 53 38 37 39 38 40 46 41 39 42 40 43 44 44
REMARK SMILES IDX 47 45 41 46 42 47 45 48 43 49 69 50 70 51 78 52 71 53 72 54
REMARK SMILES IDX 76 55 79 56 73 57 74 58 77 59 75 60 54 61 55 62 63 63 56 64
REMARK SMILES IDX 57 65 61 66 64 67 58 68 59 69 62 70 60 71 7 72 8 73 9 74
REMARK SMILES IDX 10 75 11 76 12 77 20 78 27 79 21 80 26 81 22 82 25 83 23 84
REMARK SMILES IDX 24 85 13 86 14 87 15 88 19 89 16 90 18 91 17 92
REMARK H PARENT 84 24 52 35
REMARK Flexibility Score: inf
ROOT
ATOM      1  O   UNL     1       3.201   1.211   1.245  1.00  0.00    -0.374 OA
ENDROOT
BRANCH   1   2
ATOM      2  C   UNL     1       3.499   0.838  -0.091  1.00  0.00     0.202 C 
BRANCH   2   3
ATOM      3  C   UNL     1       2.729  -0.351  -0.680  1.00  0.00     0.261 C 
BRANCH   3   4
ATOM      4  O   UNL     1       1.376  -0.480  -0.186  1.00  0.00    -0.460 OA
BRANCH   4   5
ATOM      5  C   UNL     1       0.959  -1.589   0.497  1.00  0.00     0.338 C 
ATOM      6  O   UNL     1      -0.198  -1.979   0.469  1.00  0.00    -0.246 OA
BRANCH   5   7
ATOM      7  C   UNL     1       1.976  -2.292   1.313  1.00  0.00     0.060 A 
ATOM      8  C   UNL     1       2.862  -1.527   2.047  1.00  0.00     0.016 A 
ATOM      9  C   UNL     1       2.099  -3.676   1.346  1.00  0.00     0.016 A 
ATOM     10  C   UNL     1       4.037  -2.065   2.519  1.00  0.00     0.010 A 
ATOM     11  C   UNL     1       3.151  -4.250   2.080  1.00  0.00     0.010 A 
ATOM     12  C   UNL     1       4.155  -3.444   2.652  1.00  0.00    -0.014 A 
BRANCH  12  13
ATOM     13  C   UNL     1       5.307  -3.982   3.430  1.00  0.00     0.031 A 
ATOM     14  C   UNL     1       6.144  -5.093   2.869  1.00  0.00     0.074 A 
ATOM     15  C   UNL     1       5.632  -3.435   4.625  1.00  0.00     0.049 A 
ATOM     16  N   UNL     1       7.008  -5.862   3.479  1.00  0.00    -0.248 NA
ATOM     17  C   UNL     1       5.972  -5.400   1.440  1.00  0.00     0.031 C 
ATOM     18  C   UNL     1       4.944  -2.308   5.268  1.00  0.00     0.029 A 
ATOM     19  N   UNL     1       6.647  -3.722   5.505  1.00  0.00    -0.354 N 
ATOM     20  C   UNL     1       7.414  -6.796   2.535  1.00  0.00     0.074 A 
ATOM     21  C   UNL     1       6.715  -6.489   1.306  1.00  0.00     0.031 C 
ATOM     22  C   UNL     1       5.613  -1.933   6.363  1.00  0.00     0.029 A 
ATOM     23  C   UNL     1       6.667  -2.900   6.609  1.00  0.00     0.049 A 
ATOM     24  H   UNL     1       7.298  -4.447   5.361  1.00  0.00     0.167 HD
ATOM     25  C   UNL     1       8.282  -7.822   2.700  1.00  0.00     0.037 A 
ATOM     26  C   UNL     1       7.394  -2.959   7.739  1.00  0.00     0.037 A 
ATOM     27  C   UNL     1       9.004  -8.066   3.922  1.00  0.00     0.049 A 
ATOM     28  C   UNL     1       8.337  -4.113   7.901  1.00  0.00     0.074 A 
ATOM     29  C   UNL     1       9.858  -9.107   4.237  1.00  0.00     0.029 A 
ATOM     30  N   UNL     1       8.976  -7.223   5.027  1.00  0.00    -0.354 N 
ATOM     31  N   UNL     1       8.605  -5.082   7.059  1.00  0.00    -0.248 NA
ATOM     32  C   UNL     1       9.047  -4.209   9.181  1.00  0.00     0.031 C 
ATOM     33  C   UNL     1      10.333  -8.903   5.538  1.00  0.00     0.029 A 
ATOM     34  C   UNL     1       9.807  -7.715   6.020  1.00  0.00     0.049 A 
ATOM     35  H   UNL     1       8.444  -6.398   5.094  1.00  0.00     0.167 HD
ATOM     36  C   UNL     1       9.508  -5.908   7.707  1.00  0.00     0.074 A 
ATOM     37  C   UNL     1       9.776  -5.300   8.996  1.00  0.00     0.031 C 
ATOM     38  C   UNL     1      10.051  -7.077   7.288  1.00  0.00     0.037 A 
BRANCH  25  39
ATOM     39  C   UNL     1       8.444  -8.778   1.554  1.00  0.00     0.064 A 
ATOM     40  C   UNL     1       9.116  -8.422   0.376  1.00  0.00     0.173 A 
ATOM     41  C   UNL     1       7.901 -10.070   1.632  1.00  0.00     0.173 A 
ATOM     42  F   UNL     1       9.634  -7.192   0.240  1.00  0.00    -0.203 F 
ATOM     43  C   UNL     1       9.210  -9.312  -0.693  1.00  0.00     0.198 A 
ATOM     44  C   UNL     1       8.021 -10.967   0.573  1.00  0.00     0.198 A 
ATOM     45  F   UNL     1       7.246 -10.463   2.735  1.00  0.00    -0.203 F 
ATOM     46  F   UNL     1       9.806  -8.929  -1.831  1.00  0.00    -0.200 F 
ATOM     47  C   UNL     1       8.667 -10.584  -0.592  1.00  0.00     0.200 A 
ATOM     48  F   UNL     1       7.500 -12.198   0.676  1.00  0.00    -0.200 F 
ATOM     49  F   UNL     1       8.754 -11.436  -1.623  1.00  0.00    -0.200 F 
ENDBRANCH  25  39
BRANCH  26  50
ATOM     50  C   UNL     1       7.183  -1.965   8.830  1.00  0.00     0.064 A 
ATOM     51  C   UNL     1       8.206  -1.092   9.223  1.00  0.00     0.173 A 
ATOM     52  C   UNL     1       5.955  -1.868   9.506  1.00  0.00     0.173 A 
ATOM     53  F   UNL     1       9.407  -1.157   8.630  1.00  0.00    -0.203 F 
ATOM     54  C   UNL     1       8.016  -0.176  10.258  1.00  0.00     0.198 A 
ATOM     55  C   UNL     1       5.752  -0.924  10.510  1.00  0.00     0.198 A 
ATOM     56  F   UNL     1       4.938  -2.678   9.175  1.00  0.00    -0.203 F 
ATOM     57  F   UNL     1       9.029   0.608  10.650  1.00  0.00    -0.200 F 
ATOM     58  C   UNL     1       6.787  -0.086  10.894  1.00  0.00     0.200 A 
ATOM     59  F   UNL     1       4.555  -0.828  11.104  1.00  0.00    -0.200 F 
ATOM     60  F   UNL     1       6.602   0.800  11.882  1.00  0.00    -0.200 F 
ENDBRANCH  26  50
BRANCH  38  61
ATOM     61  C   UNL     1      11.006  -7.740   8.231  1.00  0.00     0.064 A 
ATOM     62  C   UNL     1      10.557  -8.383   9.394  1.00  0.00     0.173 A 
ATOM     63  C   UNL     1      12.382  -7.733   7.965  1.00  0.00     0.173 A 
ATOM     64  F   UNL     1       9.251  -8.392   9.700  1.00  0.00    -0.203 F 
ATOM     65  C   UNL     1      11.460  -8.970  10.275  1.00  0.00     0.198 A 
ATOM     66  C   UNL     1      13.278  -8.347   8.833  1.00  0.00     0.198 A 
ATOM     67  F   UNL     1      12.855  -7.130   6.864  1.00  0.00    -0.203 F 
ATOM     68  F   UNL     1      11.018  -9.529  11.409  1.00  0.00    -0.200 F 
ATOM     69  C   UNL     1      12.818  -8.956   9.991  1.00  0.00     0.200 A 
ATOM     70  F   UNL     1      14.589  -8.340   8.554  1.00  0.00    -0.200 F 
ATOM     71  F   UNL     1      13.685  -9.522  10.841  1.00  0.00    -0.200 F 
ENDBRANCH  38  61
ENDBRANCH  12  13
ENDBRANCH   5   7
ENDBRANCH   4   5
ENDBRANCH   3   4
ENDBRANCH   2   3
ENDBRANCH   1   2
BRANCH   1  72
ATOM     72  C   UNL     1       2.089   2.087   1.397  1.00  0.00     0.202 C 
BRANCH  72  73
ATOM     73  C   UNL     1       2.590   3.493   1.703  1.00  0.00     0.261 C 
BRANCH  73  74
ATOM     74  O   UNL     1       3.286   4.022   0.562  1.00  0.00    -0.463 OA
BRANCH  74  75
ATOM     75  C   UNL     1       4.646   3.873   0.537  1.00  0.00     0.313 C 
ATOM     76  O   UNL     1       5.311   3.296   1.385  1.00  0.00    -0.252 OA
BRANCH  75  77
ATOM     77  C   UNL     1       5.219   4.545  -0.701  1.00  0.00     0.080 C 
ATOM     78  C   UNL     1       4.562   5.965  -0.762  1.00  0.00     0.055 C 
ATOM     79  C   UNL     1       6.736   4.829  -0.551  1.00  0.00     0.055 C 
ATOM     80  C   UNL     1       5.654   6.799  -1.341  1.00  0.00    -0.044 A 
ATOM     81  C   UNL     1       6.882   6.144  -1.245  1.00  0.00    -0.044 A 
ATOM     82  C   UNL     1       5.554   8.067  -1.880  1.00  0.00     0.004 A 
ATOM     83  C   UNL     1       8.040   6.727  -1.721  1.00  0.00     0.004 A 
ATOM     84  C   UNL     1       6.717   8.666  -2.361  1.00  0.00     0.000 A 
ATOM     85  C   UNL     1       7.950   7.997  -2.291  1.00  0.00     0.000 A 
BRANCH  77  86
ATOM     86  C   UNL     1       4.873   3.758  -1.999  1.00  0.00     0.055 C 
BRANCH  86  87
ATOM     87  C   UNL     1       5.609   2.491  -2.401  1.00  0.00    -0.044 A 
ATOM     88  C   UNL     1       6.362   1.691  -1.539  1.00  0.00     0.024 A 
ATOM     89  C   UNL     1       5.481   2.055  -3.729  1.00  0.00     0.024 A 
ATOM     90  C   UNL     1       6.929   0.516  -2.024  1.00  0.00     0.111 A 
ATOM     91  C   UNL     1       6.091   0.874  -4.125  1.00  0.00     0.111 A 
ATOM     92  N   UNL     1       6.802   0.087  -3.296  1.00  0.00    -0.265 NA
ENDBRANCH  86  87
ENDBRANCH  77  86
ENDBRANCH  75  77
ENDBRANCH  74  75
ENDBRANCH  73  74
ENDBRANCH  72  73
ENDBRANCH   1  72
TORSDOF 16
