REMARK SMILES COc1ccc(-c2cc(C(=O)OCCOCCOC(=O)c3ccc(-c4c5nc(c(-c6c(F)c(F)c(F)c(F)c6F)c6ccc([nH]6)c(-c6c(F)c(F)c(F)c(F)c6F)c6nc(c(-c7c(F)c(F)c(F)c(F)c7F)c7ccc4[nH]7)C=C6)C=C5)cc3)nn2C)cc1
REMARK SMILES IDX 15 1 14 2 13 3 12 4 10 5 11 6 9 7 7 8 8 9 85 10 84 11 86 12
REMARK SMILES IDX 6 13 3 14 4 15 88 16 5 17 87 18 2 19 1 20 16 21 17 22 18 23
REMARK SMILES IDX 19 24 20 25 21 26 22 27 83 28 23 29 82 30 24 31 25 32 26 33
REMARK SMILES IDX 76 34 27 35 81 36 75 37 77 38 28 39 80 40 74 41 73 42 29 44
REMARK SMILES IDX 61 45 41 46 60 47 42 48 45 49 59 50 78 51 43 52 44 53 58 55
REMARK SMILES IDX 79 56 46 57 30 58 31 59 39 60 32 61 33 62 37 63 40 64 34 65
REMARK SMILES IDX 35 66 38 67 36 68 62 69 63 70 71 71 64 72 65 73 69 74 72 75
REMARK SMILES IDX 66 76 67 77 70 78 68 79 47 80 48 81 56 82 49 83 50 84 54 85
REMARK SMILES IDX 57 86 51 87 52 88 55 89 53 90
REMARK H PARENT 77 43 45 54
REMARK Flexibility Score: inf
ROOT
ATOM      1  O   UNL     1       2.477  -5.961  -9.979  1.00  0.00    -0.374 OA
ENDROOT
BRANCH   1   2
ATOM      2  C   UNL     1       1.136  -5.522 -10.199  1.00  0.00     0.202 C 
BRANCH   2   3
ATOM      3  C   UNL     1       0.081  -6.276  -9.382  1.00  0.00     0.261 C 
BRANCH   3   4
ATOM      4  O   UNL     1       0.178  -5.916  -7.993  1.00  0.00    -0.458 OA
BRANCH   4   5
ATOM      5  C   UNL     1       0.701  -6.877  -7.170  1.00  0.00     0.358 C 
ATOM      6  O   UNL     1       0.857  -8.049  -7.495  1.00  0.00    -0.244 OA
BRANCH   5   7
ATOM      7  C   UNL     1       1.139  -6.312  -5.884  1.00  0.00     0.170 A 
ATOM      8  C   UNL     1       1.413  -5.018  -4.070  1.00  0.00     0.069 A 
ATOM      9  C   UNL     1       0.712  -5.111  -5.259  1.00  0.00     0.066 A 
ATOM     10  N   UNL     1       2.241  -6.114  -4.068  1.00  0.00    -0.267 N 
ATOM     11  N   UNL     1       2.097  -6.901  -5.148  1.00  0.00    -0.165 NA
ATOM     12  C   UNL     1       3.205  -6.516  -3.069  1.00  0.00     0.174 C 
BRANCH   8  13
ATOM     13  C   UNL     1       1.267  -4.058  -2.980  1.00  0.00     0.000 A 
ATOM     14  C   UNL     1       0.916  -2.259  -0.855  1.00  0.00     0.118 A 
ATOM     15  C   UNL     1      -0.153  -3.034  -1.297  1.00  0.00     0.047 A 
ATOM     16  C   UNL     1       2.169  -2.394  -1.455  1.00  0.00     0.047 A 
ATOM     17  C   UNL     1       0.018  -3.918  -2.363  1.00  0.00     0.014 A 
ATOM     18  C   UNL     1       2.342  -3.287  -2.520  1.00  0.00     0.014 A 
BRANCH  14  19
ATOM     19  O   UNL     1       0.666  -1.442   0.212  1.00  0.00    -0.497 OA
ATOM     20  C   UNL     1       1.168  -0.119   0.044  1.00  0.00     0.278 C 
ENDBRANCH  14  19
ENDBRANCH   8  13
ENDBRANCH   5   7
ENDBRANCH   4   5
ENDBRANCH   3   4
ENDBRANCH   2   3
ENDBRANCH   1   2
BRANCH   1  21
ATOM     21  C   UNL     1       3.172  -5.353  -8.886  1.00  0.00     0.202 C 
BRANCH  21  22
ATOM     22  C   UNL     1       3.870  -4.035  -9.233  1.00  0.00     0.261 C 
BRANCH  22  23
ATOM     23  O   UNL     1       2.904  -2.992  -9.472  1.00  0.00    -0.460 OA
BRANCH  23  24
ATOM     24  C   UNL     1       2.802  -2.590 -10.761  1.00  0.00     0.338 C 
ATOM     25  O   UNL     1       3.505  -2.921 -11.700  1.00  0.00    -0.246 OA
BRANCH  24  26
ATOM     26  C   UNL     1       1.576  -1.786 -10.934  1.00  0.00     0.060 A 
ATOM     27  C   UNL     1       0.737  -2.115 -12.005  1.00  0.00     0.016 A 
ATOM     28  C   UNL     1       1.271  -0.704 -10.103  1.00  0.00     0.016 A 
ATOM     29  C   UNL     1      -0.388  -1.339 -12.277  1.00  0.00     0.010 A 
ATOM     30  C   UNL     1       0.145   0.079 -10.381  1.00  0.00     0.010 A 
ATOM     31  C   UNL     1      -0.674  -0.218 -11.486  1.00  0.00    -0.014 A 
BRANCH  31  32
ATOM     32  C   UNL     1      -1.765   0.703 -11.886  1.00  0.00     0.031 A 
ATOM     33  C   UNL     1      -1.429   1.961 -12.636  1.00  0.00     0.074 A 
ATOM     34  C   UNL     1      -3.046   0.411 -11.598  1.00  0.00     0.049 A 
ATOM     35  N   UNL     1      -2.222   2.913 -13.058  1.00  0.00    -0.248 NA
ATOM     36  C   UNL     1      -0.009   2.175 -12.953  1.00  0.00     0.031 C 
ATOM     37  C   UNL     1      -3.501  -0.787 -10.896  1.00  0.00     0.029 A 
ATOM     38  N   UNL     1      -4.199   1.111 -11.853  1.00  0.00    -0.354 N 
ATOM     39  C   UNL     1      -1.399   3.840 -13.683  1.00  0.00     0.074 A 
ATOM     40  C   UNL     1      -0.042   3.350 -13.566  1.00  0.00     0.031 C 
ATOM     41  C   UNL     1      -4.837  -0.732 -10.760  1.00  0.00     0.029 A 
ATOM     42  C   UNL     1      -5.326   0.517 -11.343  1.00  0.00     0.049 A 
ATOM     43  H   UNL     1      -4.216   1.958 -12.354  1.00  0.00     0.167 HD
ATOM     44  C   UNL     1      -1.746   4.992 -14.306  1.00  0.00     0.037 A 
ATOM     45  C   UNL     1      -6.604   0.944 -11.329  1.00  0.00     0.037 A 
ATOM     46  C   UNL     1      -3.096   5.474 -14.432  1.00  0.00     0.049 A 
ATOM     47  C   UNL     1      -6.955   2.254 -11.984  1.00  0.00     0.074 A 
ATOM     48  C   UNL     1      -3.550   6.606 -15.086  1.00  0.00     0.029 A 
ATOM     49  N   UNL     1      -4.210   4.855 -13.885  1.00  0.00    -0.354 N 
ATOM     50  N   UNL     1      -6.177   3.101 -12.612  1.00  0.00    -0.248 NA
ATOM     51  C   UNL     1      -8.366   2.666 -11.930  1.00  0.00     0.031 C 
ATOM     52  C   UNL     1      -4.932   6.699 -14.893  1.00  0.00     0.029 A 
ATOM     53  C   UNL     1      -5.346   5.599 -14.159  1.00  0.00     0.049 A 
ATOM     54  H   UNL     1      -4.195   4.012 -13.377  1.00  0.00     0.167 HD
ATOM     55  C   UNL     1      -7.003   4.131 -13.045  1.00  0.00     0.074 A 
ATOM     56  C   UNL     1      -8.346   3.796 -12.622  1.00  0.00     0.031 C 
ATOM     57  C   UNL     1      -6.677   5.253 -13.732  1.00  0.00     0.037 A 
BRANCH  44  58
ATOM     58  C   UNL     1      -0.645   5.828 -14.885  1.00  0.00     0.064 A 
ATOM     59  C   UNL     1       0.026   5.452 -16.058  1.00  0.00     0.173 A 
ATOM     60  C   UNL     1      -0.294   7.048 -14.288  1.00  0.00     0.173 A 
ATOM     61  F   UNL     1      -0.266   4.289 -16.659  1.00  0.00    -0.203 F 
ATOM     62  C   UNL     1       1.020   6.261 -16.603  1.00  0.00     0.198 A 
ATOM     63  C   UNL     1       0.683   7.865 -14.849  1.00  0.00     0.198 A 
ATOM     64  F   UNL     1      -0.909   7.454 -13.167  1.00  0.00    -0.203 F 
ATOM     65  F   UNL     1       1.671   5.868 -17.706  1.00  0.00    -0.200 F 
ATOM     66  C   UNL     1       1.342   7.470 -16.003  1.00  0.00     0.200 A 
ATOM     67  F   UNL     1       0.985   9.037 -14.274  1.00  0.00    -0.200 F 
ATOM     68  F   UNL     1       2.291   8.252 -16.535  1.00  0.00    -0.200 F 
ENDBRANCH  44  58
BRANCH  45  69
ATOM     69  C   UNL     1      -7.648   0.134 -10.651  1.00  0.00     0.064 A 
ATOM     70  C   UNL     1      -8.656  -0.510 -11.381  1.00  0.00     0.173 A 
ATOM     71  C   UNL     1      -7.671   0.008  -9.254  1.00  0.00     0.173 A 
ATOM     72  F   UNL     1      -8.691  -0.396 -12.717  1.00  0.00    -0.203 F 
ATOM     73  C   UNL     1      -9.658  -1.235 -10.739  1.00  0.00     0.198 A 
ATOM     74  C   UNL     1      -8.658  -0.739  -8.614  1.00  0.00     0.198 A 
ATOM     75  F   UNL     1      -6.731   0.608  -8.509  1.00  0.00    -0.203 F 
ATOM     76  F   UNL     1     -10.636  -1.802 -11.457  1.00  0.00    -0.200 F 
ATOM     77  C   UNL     1      -9.655  -1.353  -9.357  1.00  0.00     0.200 A 
ATOM     78  F   UNL     1      -8.645  -0.859  -7.280  1.00  0.00    -0.200 F 
ATOM     79  F   UNL     1     -10.618  -2.051  -8.740  1.00  0.00    -0.200 F 
ENDBRANCH  45  69
BRANCH  57  80
ATOM     80  C   UNL     1      -7.792   6.192 -14.089  1.00  0.00     0.064 A 
ATOM     81  C   UNL     1      -8.407   7.001 -13.122  1.00  0.00     0.173 A 
ATOM     82  C   UNL     1      -8.220   6.316 -15.419  1.00  0.00     0.173 A 
ATOM     83  F   UNL     1      -8.043   6.908 -11.834  1.00  0.00    -0.203 F 
ATOM     84  C   UNL     1      -9.426   7.883 -13.471  1.00  0.00     0.198 A 
ATOM     85  C   UNL     1      -9.220   7.219 -15.769  1.00  0.00     0.198 A 
ATOM     86  F   UNL     1      -7.659   5.570 -16.382  1.00  0.00    -0.203 F 
ATOM     87  F   UNL     1     -10.029   8.616 -12.524  1.00  0.00    -0.200 F 
ATOM     88  C   UNL     1      -9.826   7.997 -14.794  1.00  0.00     0.200 A 
ATOM     89  F   UNL     1      -9.598   7.337 -17.049  1.00  0.00    -0.200 F 
ATOM     90  F   UNL     1     -10.802   8.853 -15.129  1.00  0.00    -0.200 F 
ENDBRANCH  57  80
ENDBRANCH  31  32
ENDBRANCH  24  26
ENDBRANCH  23  24
ENDBRANCH  22  23
ENDBRANCH  21  22
ENDBRANCH   1  21
TORSDOF 16
