REMARK SMILES CNC(=O)[C@H]1CCCCN1C(=O)NCCOCC(=O)OCCOCCOC(=O)c1ccc(-c2c3nc(c(-c4c(F)c(F)c(F)c(F)c4F)c4ccc([nH]4)c(-c4c(F)c(F)c(F)c(F)c4F)c4nc(c(-c5c(F)c(F)c(F)c(F)c5F)c5ccc2[nH]5)C=C4)C=C3)cc1
REMARK SMILES IDX 21 1 20 2 18 3 19 4 17 5 16 6 15 7 14 8 13 9 11 10 12 11
REMARK SMILES IDX 10 13 5 14 6 15 7 16 9 17 8 18 3 19 1 20 2 21 4 23 22 24
REMARK SMILES IDX 23 25 24 26 25 27 26 28 27 29 28 30 29 31 30 32 91 33 31 34
REMARK SMILES IDX 90 35 32 36 33 37 34 38 84 39 35 40 89 41 83 42 85 43 36 44
REMARK SMILES IDX 88 45 82 46 81 47 37 49 69 50 49 51 68 52 50 53 53 54 67 55
REMARK SMILES IDX 86 56 51 57 52 58 66 60 87 61 54 62 38 63 39 64 47 65 40 66
REMARK SMILES IDX 41 67 45 68 48 69 42 70 43 71 46 72 44 73 70 74 71 75 79 76
REMARK SMILES IDX 72 77 73 78 77 79 80 80 74 81 75 82 78 83 76 84 55 85 56 86
REMARK SMILES IDX 64 87 57 88 58 89 62 90 65 91 59 92 60 93 63 94 61 95
REMARK H PARENT 13 12 2 22 85 48 53 59
REMARK Flexibility Score: inf
ROOT
ATOM      1  C   UNL     1       1.126  -6.821   5.398  1.00  0.00     0.261 C 
ENDROOT
BRANCH   1   2
ATOM      2  O   UNL     1       2.071  -5.849   5.899  1.00  0.00    -0.462 OA
BRANCH   2   3
ATOM      3  C   UNL     1       2.972  -5.379   4.995  1.00  0.00     0.332 C 
ATOM      4  O   UNL     1       3.019  -5.700   3.813  1.00  0.00    -0.250 OA
BRANCH   3   5
ATOM      5  C   UNL     1       4.018  -4.459   5.636  1.00  0.00     0.282 C 
BRANCH   5   6
ATOM      6  O   UNL     1       3.754  -3.616   6.739  1.00  0.00    -0.368 OA
BRANCH   6   7
ATOM      7  C   UNL     1       2.772  -2.590   6.574  1.00  0.00     0.182 C 
BRANCH   7   8
ATOM      8  C   UNL     1       3.033  -1.584   5.441  1.00  0.00     0.146 C 
BRANCH   8   9
ATOM      9  N   UNL     1       2.506  -2.027   4.154  1.00  0.00    -0.336 N 
ATOM     10  C   UNL     1       1.446  -1.868   3.356  1.00  0.00     0.318 C 
ATOM     11  O   UNL     1       1.508  -2.565   2.336  1.00  0.00    -0.249 OA
ATOM     12  H   UNL     1       3.143  -2.650   3.734  1.00  0.00     0.165 HD
BRANCH  10  13
ATOM     13  N   UNL     1       0.390  -1.040   3.582  1.00  0.00    -0.313 N 
ATOM     14  C   UNL     1      -0.626  -0.955   2.491  1.00  0.00     0.176 C 
ATOM     15  C   UNL     1      -0.666   0.471   1.918  1.00  0.00     0.035 C 
ATOM     16  C   UNL     1      -0.818   1.537   3.005  1.00  0.00     0.004 C 
ATOM     17  C   UNL     1       0.168  -0.086   4.667  1.00  0.00     0.122 C 
ATOM     18  C   UNL     1       0.199   1.343   4.131  1.00  0.00     0.022 C 
BRANCH  14  19
ATOM     19  C   UNL     1      -2.052  -1.424   2.887  1.00  0.00     0.242 C 
ATOM     20  C   UNL     1      -2.508  -2.679   0.712  1.00  0.00     0.142 C 
ATOM     21  N   UNL     1      -2.830  -2.115   2.002  1.00  0.00    -0.357 N 
ATOM     22  H   UNL     1      -3.761  -2.250   2.291  1.00  0.00     0.163 HD
ATOM     23  O   UNL     1      -2.566  -1.144   3.973  1.00  0.00    -0.273 OA
ENDBRANCH  14  19
ENDBRANCH  10  13
ENDBRANCH   8   9
ENDBRANCH   7   8
ENDBRANCH   6   7
ENDBRANCH   5   6
ENDBRANCH   3   5
ENDBRANCH   2   3
ENDBRANCH   1   2
BRANCH   1  24
ATOM     24  C   UNL     1      -0.300  -6.471   5.825  1.00  0.00     0.202 C 
BRANCH  24  25
ATOM     25  O   UNL     1      -0.959  -5.482   5.031  1.00  0.00    -0.374 OA
BRANCH  25  26
ATOM     26  C   UNL     1      -0.476  -4.146   5.154  1.00  0.00     0.202 C 
BRANCH  26  27
ATOM     27  C   UNL     1      -1.060  -3.349   6.328  1.00  0.00     0.261 C 
BRANCH  27  28
ATOM     28  O   UNL     1      -0.872  -4.034   7.579  1.00  0.00    -0.460 OA
BRANCH  28  29
ATOM     29  C   UNL     1      -2.023  -4.473   8.140  1.00  0.00     0.338 C 
ATOM     30  O   UNL     1      -3.165  -4.179   7.829  1.00  0.00    -0.246 OA
BRANCH  29  31
ATOM     31  C   UNL     1      -1.746  -5.545   9.112  1.00  0.00     0.060 A 
ATOM     32  C   UNL     1      -2.410  -6.759   8.904  1.00  0.00     0.016 A 
ATOM     33  C   UNL     1      -0.954  -5.351  10.247  1.00  0.00     0.016 A 
ATOM     34  C   UNL     1      -2.360  -7.753   9.873  1.00  0.00     0.010 A 
ATOM     35  C   UNL     1      -0.905  -6.354  11.224  1.00  0.00     0.010 A 
ATOM     36  C   UNL     1      -1.655  -7.534  11.065  1.00  0.00    -0.014 A 
BRANCH  36  37
ATOM     37  C   UNL     1      -1.899  -8.467  12.194  1.00  0.00     0.031 A 
ATOM     38  C   UNL     1      -2.914  -8.088  13.239  1.00  0.00     0.074 A 
ATOM     39  C   UNL     1      -1.334  -9.687  12.214  1.00  0.00     0.049 A 
ATOM     40  N   UNL     1      -3.401  -8.800  14.225  1.00  0.00    -0.248 NA
ATOM     41  C   UNL     1      -3.461  -6.725  13.157  1.00  0.00     0.031 C 
ATOM     42  C   UNL     1      -0.372 -10.186  11.235  1.00  0.00     0.029 A 
ATOM     43  N   UNL     1      -1.516 -10.738  13.078  1.00  0.00    -0.354 N 
ATOM     44  C   UNL     1      -4.319  -7.978  14.866  1.00  0.00     0.074 A 
ATOM     45  C   UNL     1      -4.286  -6.698  14.192  1.00  0.00     0.031 C 
ATOM     46  C   UNL     1      -0.063 -11.459  11.539  1.00  0.00     0.029 A 
ATOM     47  C   UNL     1      -0.795 -11.856  12.740  1.00  0.00     0.049 A 
ATOM     48  H   UNL     1      -2.107 -10.694  13.864  1.00  0.00     0.167 HD
ATOM     49  C   UNL     1      -5.135  -8.267  15.908  1.00  0.00     0.037 A 
ATOM     50  C   UNL     1      -0.744 -13.066  13.330  1.00  0.00     0.037 A 
ATOM     51  C   UNL     1      -5.165  -9.536  16.586  1.00  0.00     0.049 A 
ATOM     52  C   UNL     1      -1.612 -13.342  14.530  1.00  0.00     0.074 A 
ATOM     53  C   UNL     1      -5.942  -9.924  17.664  1.00  0.00     0.029 A 
ATOM     54  N   UNL     1      -4.375 -10.626  16.251  1.00  0.00    -0.354 N 
ATOM     55  N   UNL     1      -2.493 -12.566  15.115  1.00  0.00    -0.248 NA
ATOM     56  C   UNL     1      -1.488 -14.673  15.141  1.00  0.00     0.031 C 
ATOM     57  C   UNL     1      -5.592 -11.235  18.007  1.00  0.00     0.029 A 
ATOM     58  C   UNL     1      -4.635 -11.681  17.110  1.00  0.00     0.049 A 
ATOM     59  H   UNL     1      -3.726 -10.646  15.511  1.00  0.00     0.167 HD
ATOM     60  C   UNL     1      -3.052 -13.324  16.137  1.00  0.00     0.074 A 
ATOM     61  C   UNL     1      -2.419 -14.626  16.083  1.00  0.00     0.031 C 
ATOM     62  C   UNL     1      -4.005 -12.975  17.037  1.00  0.00     0.037 A 
BRANCH  49  63
ATOM     63  C   UNL     1      -6.045  -7.175  16.389  1.00  0.00     0.064 A 
ATOM     64  C   UNL     1      -7.150  -6.752  15.633  1.00  0.00     0.173 A 
ATOM     65  C   UNL     1      -5.816  -6.547  17.622  1.00  0.00     0.173 A 
ATOM     66  F   UNL     1      -7.404  -7.309  14.440  1.00  0.00    -0.203 F 
ATOM     67  C   UNL     1      -7.972  -5.720  16.081  1.00  0.00     0.198 A 
ATOM     68  C   UNL     1      -6.657  -5.535  18.079  1.00  0.00     0.198 A 
ATOM     69  F   UNL     1      -4.775  -6.914  18.385  1.00  0.00    -0.203 F 
ATOM     70  F   UNL     1      -8.990  -5.297  15.318  1.00  0.00    -0.200 F 
ATOM     71  C   UNL     1      -7.728  -5.117  17.305  1.00  0.00     0.200 A 
ATOM     72  F   UNL     1      -6.425  -4.960  19.267  1.00  0.00    -0.200 F 
ATOM     73  F   UNL     1      -8.520  -4.124  17.735  1.00  0.00    -0.200 F 
ENDBRANCH  49  63
BRANCH  50  74
ATOM     74  C   UNL     1       0.144 -14.124  12.780  1.00  0.00     0.064 A 
ATOM     75  C   UNL     1      -0.386 -15.271  12.173  1.00  0.00     0.173 A 
ATOM     76  C   UNL     1       1.539 -14.018  12.870  1.00  0.00     0.173 A 
ATOM     77  F   UNL     1      -1.715 -15.430  12.086  1.00  0.00    -0.203 F 
ATOM     78  C   UNL     1       0.446 -16.281  11.694  1.00  0.00     0.198 A 
ATOM     79  C   UNL     1       2.371 -15.016  12.366  1.00  0.00     0.198 A 
ATOM     80  F   UNL     1       2.096 -12.942  13.445  1.00  0.00    -0.203 F 
ATOM     81  F   UNL     1      -0.087 -17.389  11.160  1.00  0.00    -0.200 F 
ATOM     82  C   UNL     1       1.824 -16.150  11.786  1.00  0.00     0.200 A 
ATOM     83  F   UNL     1       3.701 -14.881  12.449  1.00  0.00    -0.200 F 
ATOM     84  F   UNL     1       2.623 -17.121  11.324  1.00  0.00    -0.200 F 
ENDBRANCH  50  74
BRANCH  62  85
ATOM     85  C   UNL     1      -4.454 -14.032  18.005  1.00  0.00     0.064 A 
ATOM     86  C   UNL     1      -3.627 -14.484  19.044  1.00  0.00     0.173 A 
ATOM     87  C   UNL     1      -5.737 -14.590  17.898  1.00  0.00     0.173 A 
ATOM     88  F   UNL     1      -2.386 -13.992  19.182  1.00  0.00    -0.203 F 
ATOM     89  C   UNL     1      -4.053 -15.483  19.915  1.00  0.00     0.198 A 
ATOM     90  C   UNL     1      -6.172 -15.566  18.791  1.00  0.00     0.198 A 
ATOM     91  F   UNL     1      -6.572 -14.187  16.929  1.00  0.00    -0.203 F 
ATOM     92  F   UNL     1      -3.223 -15.942  20.862  1.00  0.00    -0.200 F 
ATOM     93  C   UNL     1      -5.326 -16.020  19.791  1.00  0.00     0.200 A 
ATOM     94  F   UNL     1      -7.407 -16.074  18.678  1.00  0.00    -0.200 F 
ATOM     95  F   UNL     1      -5.733 -16.983  20.629  1.00  0.00    -0.200 F 
ENDBRANCH  62  85
ENDBRANCH  36  37
ENDBRANCH  29  31
ENDBRANCH  28  29
ENDBRANCH  27  28
ENDBRANCH  26  27
ENDBRANCH  25  26
ENDBRANCH  24  25
ENDBRANCH   1  24
TORSDOF 20
