REMARK SMILES O=C(CC[NH+]1CC[NH+](Cc2ccccc2C2CC2)CC1)OCCOCCOC(=O)c1ccc(-c2c3nc(c(-c4c(F)c(F)c(F)c(F)c4F)c4ccc([nH]4)c(-c4c(F)c(F)c(F)c(F)c4F)c4nc(c(-c5c(F)c(F)c(F)c(F)c5F)c5ccc2[nH]5)C=C4)C=C3)cc1
REMARK SMILES IDX 22 1 21 2 2 3 1 4 3 5 4 6 5 7 6 8 20 9 7 11 19 12 8 13 9 15
REMARK SMILES IDX 10 16 11 17 15 18 12 19 14 20 13 21 16 22 17 23 18 24 23 25
REMARK SMILES IDX 24 26 25 27 26 28 27 29 28 30 29 31 30 32 31 33 92 34 32 35
REMARK SMILES IDX 91 36 33 37 34 38 35 39 85 40 36 41 90 42 84 43 86 44 37 45
REMARK SMILES IDX 89 46 83 47 82 48 38 50 70 51 50 52 69 53 51 54 54 55 68 56
REMARK SMILES IDX 87 57 52 58 53 59 67 61 88 62 55 63 39 64 40 65 48 66 41 67
REMARK SMILES IDX 42 68 46 69 49 70 43 71 44 72 47 73 45 74 71 75 72 76 80 77
REMARK SMILES IDX 73 78 74 79 78 80 81 81 75 82 76 83 79 84 77 85 56 86 57 87
REMARK SMILES IDX 65 88 58 89 59 90 63 91 66 92 60 93 61 94 64 95 62 96
REMARK H PARENT 5 10 8 14 86 49 54 60
REMARK Flexibility Score: inf
ROOT
ATOM      1  C   UNL     1       5.052   0.250   0.195  1.00  0.00     0.261 C 
ENDROOT
BRANCH   1   2
ATOM      2  O   UNL     1       3.161   0.746   0.229  1.00  0.00    -0.463 OA
BRANCH   2   3
ATOM      3  C   UNL     1       1.916   1.365  -0.081  1.00  0.00     0.311 C 
ATOM      4  O   UNL     1       0.850   0.896   0.316  1.00  0.00    -0.252 OA
BRANCH   3   5
ATOM      5  C   UNL     1       1.918   2.549  -1.018  1.00  0.00     0.184 C 
BRANCH   5   6
ATOM      6  C   UNL     1       3.259   3.201  -1.032  1.00  0.00     0.274 C 
BRANCH   6   7
ATOM      7  N   UNL     1       4.236   2.209  -0.635  1.00  0.00    -0.325 N 
ATOM      8  C   UNL     1       4.090   2.162   1.222  1.00  0.00     0.324 C 
ATOM      9  C   UNL     1       3.813   0.571  -1.508  1.00  0.00     0.324 C 
ATOM     10  H   UNL     1       5.202   2.407  -0.896  1.00  0.00     0.348 HD
ATOM     11  C   UNL     1       3.389   0.654   2.156  1.00  0.00     0.324 C 
ATOM     12  C   UNL     1       3.272  -1.010  -0.359  1.00  0.00     0.324 C 
ATOM     13  N   UNL     1       3.399  -0.926   1.480  1.00  0.00    -0.322 N 
ATOM     14  H   UNL     1       2.496  -1.376   1.632  1.00  0.00     0.348 HD
BRANCH  13  15
ATOM     15  C   UNL     1       4.307  -1.855   2.261  1.00  0.00     0.299 C 
BRANCH  15  16
ATOM     16  C   UNL     1       5.662  -1.337   2.868  1.00  0.00     0.010 A 
ATOM     17  C   UNL     1       6.852  -1.761   2.221  1.00  0.00     0.010 A 
ATOM     18  C   UNL     1       5.818  -0.380   3.912  1.00  0.00    -0.036 A 
ATOM     19  C   UNL     1       8.069  -1.083   2.347  1.00  0.00     0.001 A 
ATOM     20  C   UNL     1       7.057   0.322   3.975  1.00  0.00     0.004 A 
ATOM     21  C   UNL     1       8.151   0.015   3.174  1.00  0.00     0.000 A 
BRANCH  18  22
ATOM     22  C   UNL     1       4.805   0.085   4.950  1.00  0.00     0.020 C 
ATOM     23  C   UNL     1       3.579  -0.664   5.392  1.00  0.00     0.009 C 
ATOM     24  C   UNL     1       4.773  -0.598   6.293  1.00  0.00     0.009 C 
ENDBRANCH  18  22
ENDBRANCH  15  16
ENDBRANCH  13  15
ENDBRANCH   6   7
ENDBRANCH   5   6
ENDBRANCH   3   5
ENDBRANCH   2   3
ENDBRANCH   1   2
BRANCH   1  25
ATOM     25  C   UNL     1       5.721  -1.139  -0.636  1.00  0.00     0.202 C 
BRANCH  25  26
ATOM     26  O   UNL     1       5.686  -1.479  -2.043  1.00  0.00    -0.374 OA
BRANCH  26  27
ATOM     27  C   UNL     1       4.626  -1.904  -2.918  1.00  0.00     0.202 C 
BRANCH  27  28
ATOM     28  C   UNL     1       3.602  -3.054  -2.690  1.00  0.00     0.261 C 
BRANCH  28  29
ATOM     29  O   UNL     1       3.823  -3.889  -1.563  1.00  0.00    -0.460 OA
BRANCH  29  30
ATOM     30  C   UNL     1       4.888  -4.691  -1.677  1.00  0.00     0.338 C 
ATOM     31  O   UNL     1       5.566  -4.888  -2.679  1.00  0.00    -0.246 OA
BRANCH  30  32
ATOM     32  C   UNL     1       5.252  -5.128  -0.327  1.00  0.00     0.060 A 
ATOM     33  C   UNL     1       6.577  -4.905   0.048  1.00  0.00     0.016 A 
ATOM     34  C   UNL     1       4.343  -5.733   0.551  1.00  0.00     0.016 A 
ATOM     35  C   UNL     1       7.022  -5.349   1.283  1.00  0.00     0.010 A 
ATOM     36  C   UNL     1       4.797  -6.197   1.790  1.00  0.00     0.010 A 
ATOM     37  C   UNL     1       6.150  -6.042   2.133  1.00  0.00    -0.014 A 
BRANCH  37  38
ATOM     38  C   UNL     1       6.770  -6.814   3.230  1.00  0.00     0.031 A 
ATOM     39  C   UNL     1       7.257  -8.199   2.910  1.00  0.00     0.074 A 
ATOM     40  C   UNL     1       7.036  -6.247   4.417  1.00  0.00     0.049 A 
ATOM     41  N   UNL     1       7.976  -9.018   3.632  1.00  0.00    -0.248 NA
ATOM     42  C   UNL     1       6.905  -8.721   1.578  1.00  0.00     0.031 C 
ATOM     43  C   UNL     1       6.664  -4.891   4.812  1.00  0.00     0.029 A 
ATOM     44  N   UNL     1       7.708  -6.746   5.503  1.00  0.00    -0.354 N 
ATOM     45  C   UNL     1       8.193 -10.129   2.830  1.00  0.00     0.074 A 
ATOM     46  C   UNL     1       7.490  -9.907   1.587  1.00  0.00     0.031 C 
ATOM     47  C   UNL     1       7.108  -4.666   6.061  1.00  0.00     0.029 A 
ATOM     48  C   UNL     1       7.781  -5.867   6.554  1.00  0.00     0.049 A 
ATOM     49  H   UNL     1       8.101  -7.648   5.527  1.00  0.00     0.167 HD
ATOM     50  C   UNL     1       8.931 -11.230   3.100  1.00  0.00     0.037 A 
ATOM     51  C   UNL     1       8.322  -6.030   7.777  1.00  0.00     0.037 A 
ATOM     52  C   UNL     1       9.589 -11.469   4.356  1.00  0.00     0.049 A 
ATOM     53  C   UNL     1       9.040  -7.320   8.094  1.00  0.00     0.074 A 
ATOM     54  C   UNL     1      10.322 -12.572   4.752  1.00  0.00     0.029 A 
ATOM     55  N   UNL     1       9.575 -10.589   5.429  1.00  0.00    -0.354 N 
ATOM     56  N   UNL     1       9.263  -8.360   7.326  1.00  0.00    -0.248 NA
ATOM     57  C   UNL     1       9.597  -7.449   9.448  1.00  0.00     0.031 C 
ATOM     58  C   UNL     1      10.704 -12.385   6.085  1.00  0.00     0.029 A 
ATOM     59  C   UNL     1      10.267 -11.136   6.497  1.00  0.00     0.049 A 
ATOM     60  H   UNL     1       9.138  -9.707   5.431  1.00  0.00     0.167 HD
ATOM     61  C   UNL     1      10.006  -9.252   8.091  1.00  0.00     0.074 A 
ATOM     62  C   UNL     1      10.221  -8.615   9.374  1.00  0.00     0.031 C 
ATOM     63  C   UNL     1      10.468 -10.486   7.768  1.00  0.00     0.037 A 
BRANCH  50  64
ATOM     64  C   UNL     1       9.030 -12.269   2.022  1.00  0.00     0.064 A 
ATOM     65  C   UNL     1       9.764 -12.042   0.847  1.00  0.00     0.173 A 
ATOM     66  C   UNL     1       8.391 -13.509   2.168  1.00  0.00     0.173 A 
ATOM     67  F   UNL     1      10.374 -10.864   0.648  1.00  0.00    -0.203 F 
ATOM     68  C   UNL     1       9.836 -13.011  -0.151  1.00  0.00     0.198 A 
ATOM     69  C   UNL     1       8.491 -14.486   1.182  1.00  0.00     0.198 A 
ATOM     70  F   UNL     1       7.673 -13.774   3.269  1.00  0.00    -0.203 F 
ATOM     71  F   UNL     1      10.501 -12.754  -1.286  1.00  0.00    -0.200 F 
ATOM     72  C   UNL     1       9.206 -14.234   0.021  1.00  0.00     0.200 A 
ATOM     73  F   UNL     1       7.889 -15.671   1.353  1.00  0.00    -0.200 F 
ATOM     74  F   UNL     1       9.281 -15.168  -0.938  1.00  0.00    -0.200 F 
ENDBRANCH  50  64
BRANCH  51  75
ATOM     75  C   UNL     1       8.185  -4.963   8.805  1.00  0.00     0.064 A 
ATOM     76  C   UNL     1       9.300  -4.290   9.322  1.00  0.00     0.173 A 
ATOM     77  C   UNL     1       6.927  -4.638   9.336  1.00  0.00     0.173 A 
ATOM     78  F   UNL     1      10.529  -4.581   8.869  1.00  0.00    -0.203 F 
ATOM     79  C   UNL     1       9.168  -3.363  10.355  1.00  0.00     0.198 A 
ATOM     80  C   UNL     1       6.791  -3.685  10.343  1.00  0.00     0.198 A 
ATOM     81  F   UNL     1       5.825  -5.255   8.882  1.00  0.00    -0.203 F 
ATOM     82  F   UNL     1      10.258  -2.788  10.880  1.00  0.00    -0.200 F 
ATOM     83  C   UNL     1       7.913  -3.058  10.861  1.00  0.00     0.200 A 
ATOM     84  F   UNL     1       5.576  -3.388  10.821  1.00  0.00    -0.200 F 
ATOM     85  F   UNL     1       7.787  -2.173  11.860  1.00  0.00    -0.200 F 
ENDBRANCH  51  75
BRANCH  63  86
ATOM     86  C   UNL     1      11.277 -11.212   8.808  1.00  0.00     0.064 A 
ATOM     87  C   UNL     1      10.703 -11.679  10.000  1.00  0.00     0.173 A 
ATOM     88  C   UNL     1      12.644 -11.457   8.601  1.00  0.00     0.173 A 
ATOM     89  F   UNL     1       9.402 -11.465  10.253  1.00  0.00    -0.203 F 
ATOM     90  C   UNL     1      11.476 -12.318  10.967  1.00  0.00     0.198 A 
ATOM     91  C   UNL     1      13.404 -12.132   9.552  1.00  0.00     0.198 A 
ATOM     92  F   UNL     1      13.243 -11.046   7.474  1.00  0.00    -0.203 F 
ATOM     93  F   UNL     1      10.919 -12.689  12.128  1.00  0.00    -0.200 F 
ATOM     94  C   UNL     1      12.824 -12.549  10.739  1.00  0.00     0.200 A 
ATOM     95  F   UNL     1      14.703 -12.373   9.321  1.00  0.00    -0.200 F 
ATOM     96  F   UNL     1      13.566 -13.164  11.671  1.00  0.00    -0.200 F 
ENDBRANCH  63  86
ENDBRANCH  37  38
ENDBRANCH  30  32
ENDBRANCH  29  30
ENDBRANCH  28  29
ENDBRANCH  27  28
ENDBRANCH  26  27
ENDBRANCH  25  26
ENDBRANCH   1  25
TORSDOF 19
