REMARK SMILES CC(C)[C@H](NC(=O)[C@H](C)NC(=O)CNC(=O)OCc1ccccc1)C(=O)OCCOCCOC(=O)c1ccc(-c2c3nc(c(-c4c(F)c(F)c(F)c(F)c4F)c4ccc([nH]4)c(-c4c(F)c(F)c(F)c(F)c4F)c4nc(c(-c5c(F)c(F)c(F)c(F)c5F)c5ccc2[nH]5)C=C4)C=C3)cc1
REMARK SMILES IDX 27 1 25 2 26 3 4 4 2 5 1 6 3 7 5 8 6 9 7 11 8 12 9 13 10 14
REMARK SMILES IDX 11 15 12 17 13 18 14 19 15 20 16 22 17 23 18 24 19 25 20 26
REMARK SMILES IDX 24 27 21 28 23 29 22 30 28 31 29 32 30 33 31 34 32 35 33 36
REMARK SMILES IDX 34 37 35 38 36 39 37 40 98 41 38 42 97 43 39 44 40 45 41 46
REMARK SMILES IDX 91 47 42 48 96 49 90 50 92 51 43 52 95 53 89 54 88 55 44 57
REMARK SMILES IDX 76 58 56 59 75 60 57 61 60 62 74 63 93 64 58 65 59 66 73 68
REMARK SMILES IDX 94 69 61 70 45 71 46 72 54 73 47 74 48 75 52 76 55 77 49 78
REMARK SMILES IDX 50 79 53 80 51 81 77 82 78 83 86 84 79 85 80 86 84 87 87 88
REMARK SMILES IDX 81 89 82 90 85 91 83 92 62 93 63 94 71 95 64 96 65 97 69 98
REMARK SMILES IDX 72 99 66 100 67 101 70 102 68 103
REMARK H PARENT 5 10 10 16 14 21 92 56 60 67
REMARK Flexibility Score: inf
ROOT
ATOM      1  O   UNL     1      -1.436   4.623  -4.183  1.00  0.00    -0.462 OA
ENDROOT
BRANCH   1   2
ATOM      2  C   UNL     1      -1.550   4.885  -2.845  1.00  0.00     0.328 C 
ATOM      3  O   UNL     1      -2.053   5.896  -2.371  1.00  0.00    -0.250 OA
BRANCH   2   4
ATOM      4  C   UNL     1      -0.776   3.857  -2.014  1.00  0.00     0.194 C 
BRANCH   4   5
ATOM      5  C   UNL     1       0.576   4.522  -1.704  1.00  0.00     0.017 C 
ATOM      6  C   UNL     1       1.292   5.128  -2.913  1.00  0.00     0.010 C 
ATOM      7  C   UNL     1       0.432   5.595  -0.617  1.00  0.00     0.010 C 
ENDBRANCH   4   5
BRANCH   4   8
ATOM      8  N   UNL     1      -0.671   2.543  -2.680  1.00  0.00    -0.341 N 
ATOM      9  C   UNL     1      -0.360   1.306  -2.177  1.00  0.00     0.242 C 
ATOM     10  H   UNL     1      -0.855   2.558  -3.648  1.00  0.00     0.164 HD
ATOM     11  O   UNL     1      -0.706   0.326  -2.842  1.00  0.00    -0.273 OA
BRANCH   9  12
ATOM     12  C   UNL     1       0.507   1.158  -0.900  1.00  0.00     0.168 C 
ATOM     13  C   UNL     1       0.971  -0.284  -0.683  1.00  0.00     0.041 C 
BRANCH  12  14
ATOM     14  N   UNL     1      -0.127   1.651   0.313  1.00  0.00    -0.343 N 
ATOM     15  C   UNL     1       0.405   2.334   1.366  1.00  0.00     0.240 C 
ATOM     16  H   UNL     1      -1.091   1.462   0.385  1.00  0.00     0.164 HD
ATOM     17  O   UNL     1      -0.352   2.564   2.315  1.00  0.00    -0.273 OA
BRANCH  15  18
ATOM     18  C   UNL     1       1.816   2.958   1.334  1.00  0.00     0.219 C 
BRANCH  18  19
ATOM     19  N   UNL     1       2.934   2.076   1.062  1.00  0.00    -0.312 N 
ATOM     20  C   UNL     1       3.727   2.014  -0.046  1.00  0.00     0.407 C 
ATOM     21  H   UNL     1       3.151   1.433   1.776  1.00  0.00     0.167 HD
ATOM     22  O   UNL     1       4.612   1.171  -0.133  1.00  0.00    -0.225 OA
BRANCH  20  23
ATOM     23  O   UNL     1       3.389   2.891  -1.021  1.00  0.00    -0.445 OA
BRANCH  23  24
ATOM     24  C   UNL     1       3.982   2.672  -2.316  1.00  0.00     0.270 C 
BRANCH  24  25
ATOM     25  C   UNL     1       5.162   3.586  -2.503  1.00  0.00    -0.011 A 
ATOM     26  C   UNL     1       6.409   3.208  -1.994  1.00  0.00     0.007 A 
ATOM     27  C   UNL     1       5.035   4.840  -3.116  1.00  0.00     0.007 A 
ATOM     28  C   UNL     1       7.490   4.084  -2.048  1.00  0.00     0.000 A 
ATOM     29  C   UNL     1       6.112   5.724  -3.155  1.00  0.00     0.000 A 
ATOM     30  C   UNL     1       7.337   5.349  -2.610  1.00  0.00     0.000 A 
ENDBRANCH  24  25
ENDBRANCH  23  24
ENDBRANCH  20  23
ENDBRANCH  18  19
ENDBRANCH  15  18
ENDBRANCH  12  14
ENDBRANCH   9  12
ENDBRANCH   4   8
ENDBRANCH   2   4
ENDBRANCH   1   2
BRANCH   1  31
ATOM     31  C   UNL     1      -1.814   5.725  -5.010  1.00  0.00     0.261 C 
BRANCH  31  32
ATOM     32  C   UNL     1      -3.257   5.669  -5.513  1.00  0.00     0.202 C 
BRANCH  32  33
ATOM     33  O   UNL     1      -4.281   5.249  -4.626  1.00  0.00    -0.374 OA
BRANCH  33  34
ATOM     34  C   UNL     1      -4.288   3.919  -4.117  1.00  0.00     0.202 C 
BRANCH  34  35
ATOM     35  C   UNL     1      -4.221   2.722  -5.073  1.00  0.00     0.261 C 
BRANCH  35  36
ATOM     36  O   UNL     1      -3.073   2.715  -5.939  1.00  0.00    -0.460 OA
BRANCH  36  37
ATOM     37  C   UNL     1      -3.372   2.827  -7.258  1.00  0.00     0.338 C 
ATOM     38  O   UNL     1      -4.472   2.974  -7.762  1.00  0.00    -0.246 OA
BRANCH  37  39
ATOM     39  C   UNL     1      -2.143   2.890  -8.058  1.00  0.00     0.060 A 
ATOM     40  C   UNL     1      -1.815   4.097  -8.689  1.00  0.00     0.016 A 
ATOM     41  C   UNL     1      -1.416   1.728  -8.313  1.00  0.00     0.016 A 
ATOM     42  C   UNL     1      -0.762   4.141  -9.600  1.00  0.00     0.010 A 
ATOM     43  C   UNL     1      -0.367   1.772  -9.234  1.00  0.00     0.010 A 
ATOM     44  C   UNL     1      -0.052   2.971  -9.899  1.00  0.00    -0.014 A 
BRANCH  44  45
ATOM     45  C   UNL     1       0.962   2.968 -10.979  1.00  0.00     0.031 A 
ATOM     46  C   UNL     1       0.615   2.378 -12.315  1.00  0.00     0.074 A 
ATOM     47  C   UNL     1       2.185   3.478 -10.756  1.00  0.00     0.049 A 
ATOM     48  N   UNL     1       1.381   2.165 -13.353  1.00  0.00    -0.248 NA
ATOM     49  C   UNL     1      -0.786   1.973 -12.504  1.00  0.00     0.031 C 
ATOM     50  C   UNL     1       2.613   4.128  -9.520  1.00  0.00     0.029 A 
ATOM     51  N   UNL     1       3.295   3.512 -11.560  1.00  0.00    -0.354 N 
ATOM     52  C   UNL     1       0.561   1.591 -14.316  1.00  0.00     0.074 A 
ATOM     53  C   UNL     1      -0.756   1.464 -13.727  1.00  0.00     0.031 C 
ATOM     54  C   UNL     1       3.903   4.483  -9.641  1.00  0.00     0.029 A 
ATOM     55  C   UNL     1       4.400   4.040 -10.941  1.00  0.00     0.049 A 
ATOM     56  H   UNL     1       3.299   3.189 -12.490  1.00  0.00     0.167 HD
ATOM     57  C   UNL     1       0.881   1.211 -15.576  1.00  0.00     0.037 A 
ATOM     58  C   UNL     1       5.676   4.119 -11.365  1.00  0.00     0.037 A 
ATOM     59  C   UNL     1       2.199   1.332 -16.145  1.00  0.00     0.049 A 
ATOM     60  C   UNL     1       6.032   3.581 -12.727  1.00  0.00     0.074 A 
ATOM     61  C   UNL     1       2.627   0.988 -17.415  1.00  0.00     0.029 A 
ATOM     62  N   UNL     1       3.307   1.826 -15.471  1.00  0.00    -0.354 N 
ATOM     63  N   UNL     1       5.253   3.054 -13.640  1.00  0.00    -0.248 NA
ATOM     64  C   UNL     1       7.449   3.643 -13.112  1.00  0.00     0.031 C 
ATOM     65  C   UNL     1       4.006   1.213 -17.487  1.00  0.00     0.029 A 
ATOM     66  C   UNL     1       4.426   1.760 -16.285  1.00  0.00     0.049 A 
ATOM     67  H   UNL     1       3.299   2.172 -14.549  1.00  0.00     0.167 HD
ATOM     68  C   UNL     1       6.076   2.750 -14.717  1.00  0.00     0.074 A 
ATOM     69  C   UNL     1       7.414   3.163 -14.348  1.00  0.00     0.031 C 
ATOM     70  C   UNL     1       5.752   2.181 -15.905  1.00  0.00     0.037 A 
BRANCH  57  71
ATOM     71  C   UNL     1      -0.205   0.594 -16.411  1.00  0.00     0.064 A 
ATOM     72  C   UNL     1      -1.296   1.343 -16.879  1.00  0.00     0.173 A 
ATOM     73  C   UNL     1      -0.143  -0.762 -16.768  1.00  0.00     0.173 A 
ATOM     74  F   UNL     1      -1.411   2.641 -16.560  1.00  0.00    -0.203 F 
ATOM     75  C   UNL     1      -2.300   0.749 -17.641  1.00  0.00     0.198 A 
ATOM     76  C   UNL     1      -1.131  -1.344 -17.558  1.00  0.00     0.198 A 
ATOM     77  F   UNL     1       0.881  -1.524 -16.355  1.00  0.00    -0.203 F 
ATOM     78  F   UNL     1      -3.361   1.472 -18.028  1.00  0.00    -0.200 F 
ATOM     79  C   UNL     1      -2.214  -0.591 -17.984  1.00  0.00     0.200 A 
ATOM     80  F   UNL     1      -1.037  -2.636 -17.902  1.00  0.00    -0.200 F 
ATOM     81  F   UNL     1      -3.179  -1.160 -18.720  1.00  0.00    -0.200 F 
ENDBRANCH  57  71
BRANCH  58  82
ATOM     82  C   UNL     1       6.714   4.715 -10.484  1.00  0.00     0.064 A 
ATOM     83  C   UNL     1       7.334   5.924 -10.823  1.00  0.00     0.173 A 
ATOM     84  C   UNL     1       7.111   4.089  -9.293  1.00  0.00     0.173 A 
ATOM     85  F   UNL     1       7.006   6.548 -11.964  1.00  0.00    -0.203 F 
ATOM     86  C   UNL     1       8.323   6.478 -10.012  1.00  0.00     0.198 A 
ATOM     87  C   UNL     1       8.077   4.659  -8.467  1.00  0.00     0.198 A 
ATOM     88  F   UNL     1       6.548   2.929  -8.922  1.00  0.00    -0.203 F 
ATOM     89  F   UNL     1       8.931   7.613 -10.382  1.00  0.00    -0.200 F 
ATOM     90  C   UNL     1       8.688   5.849  -8.831  1.00  0.00     0.200 A 
ATOM     91  F   UNL     1       8.417   4.055  -7.320  1.00  0.00    -0.200 F 
ATOM     92  F   UNL     1       9.633   6.387  -8.048  1.00  0.00    -0.200 F 
ENDBRANCH  58  82
BRANCH  70  93
ATOM     93  C   UNL     1       6.854   2.003 -16.911  1.00  0.00     0.064 A 
ATOM     94  C   UNL     1       7.864   1.045 -16.738  1.00  0.00     0.173 A 
ATOM     95  C   UNL     1       6.866   2.762 -18.092  1.00  0.00     0.173 A 
ATOM     96  F   UNL     1       7.907   0.305 -15.620  1.00  0.00    -0.203 F 
ATOM     97  C   UNL     1       8.855   0.867 -17.700  1.00  0.00     0.198 A 
ATOM     98  C   UNL     1       7.839   2.558 -19.066  1.00  0.00     0.198 A 
ATOM     99  F   UNL     1       5.920   3.688 -18.310  1.00  0.00    -0.203 F 
ATOM    100  F   UNL     1       9.835  -0.023 -17.492  1.00  0.00    -0.200 F 
ATOM    101  C   UNL     1       8.836   1.616 -18.867  1.00  0.00     0.200 A 
ATOM    102  F   UNL     1       7.809   3.272 -20.201  1.00  0.00    -0.200 F 
ATOM    103  F   UNL     1       9.782   1.433 -19.798  1.00  0.00    -0.200 F 
ENDBRANCH  70  93
ENDBRANCH  44  45
ENDBRANCH  37  39
ENDBRANCH  36  37
ENDBRANCH  35  36
ENDBRANCH  34  35
ENDBRANCH  33  34
ENDBRANCH  32  33
ENDBRANCH  31  32
ENDBRANCH   1  31
TORSDOF 23
