REMARK SMILES Nc1c(Nc2ccc(I)cc2)ncnc1Nc1ccc(C(=O)OCCOCCOC(=O)c2ccc(-c3c4nc(c(-c5c(F)c(F)c(F)c(F)c5F)c5ccc([nH]5)c(-c5c(F)c(F)c(F)c(F)c5F)c5nc(c(-c6c(F)c(F)c(F)c(F)c6F)c6ccc3[nH]6)C=C5)C=C4)cc2)cc1
REMARK SMILES IDX 25 1 24 2 23 3 21 4 22 5 20 6 17 7 18 8 96 9 19 10 95 11
REMARK SMILES IDX 16 12 15 14 2 15 3 16 12 17 14 18 13 19 1 20 4 23 5 25 6 26
REMARK SMILES IDX 11 27 7 28 10 29 8 30 9 31 26 32 27 33 28 34 29 35 30 36
REMARK SMILES IDX 31 37 32 38 33 39 94 40 34 41 93 42 35 43 36 44 37 45 87 46
REMARK SMILES IDX 38 47 92 48 86 49 88 50 39 51 91 52 85 53 84 54 40 56 72 57
REMARK SMILES IDX 52 58 71 59 53 60 56 61 70 62 89 63 54 64 55 65 69 67 90 68
REMARK SMILES IDX 57 69 41 70 42 71 50 72 43 73 44 74 48 75 51 76 45 77 46 78
REMARK SMILES IDX 49 79 47 80 73 81 74 82 82 83 75 84 76 85 80 86 83 87 77 88
REMARK SMILES IDX 78 89 81 90 79 91 58 92 59 93 67 94 60 95 61 96 65 97 68 98
REMARK SMILES IDX 62 99 63 100 66 101 64 102
REMARK H PARENT 16 13 1 21 1 22 4 24 88 55 56 66
REMARK Flexibility Score: inf
ROOT
ATOM      1  C   UNL     1       3.736   9.693   5.022  1.00  0.00     0.202 C 
ENDROOT
BRANCH   1   2
ATOM      2  C   UNL     1       2.478   8.969   5.509  1.00  0.00     0.261 C 
BRANCH   2   3
ATOM      3  O   UNL     1       2.447   7.611   5.048  1.00  0.00    -0.460 OA
BRANCH   3   4
ATOM      4  C   UNL     1       1.524   7.371   4.086  1.00  0.00     0.338 C 
ATOM      5  O   UNL     1       0.646   8.133   3.708  1.00  0.00    -0.246 OA
BRANCH   4   6
ATOM      6  C   UNL     1       1.805   6.088   3.410  1.00  0.00     0.060 A 
ATOM      7  C   UNL     1       1.992   3.645   2.063  1.00  0.00     0.040 A 
ATOM      8  C   UNL     1       1.615   4.800   1.370  1.00  0.00     0.027 A 
ATOM      9  C   UNL     1       2.377   3.748   3.410  1.00  0.00     0.027 A 
ATOM     10  C   UNL     1       1.511   6.013   2.043  1.00  0.00     0.018 A 
ATOM     11  C   UNL     1       2.295   4.969   4.086  1.00  0.00     0.018 A 
BRANCH   7  12
ATOM     12  N   UNL     1       1.702   2.386   1.489  1.00  0.00    -0.338 N 
ATOM     13  H   UNL     1       2.248   2.063   0.736  1.00  0.00     0.168 HD
BRANCH  12  14
ATOM     14  C   UNL     1       0.637   1.574   1.975  1.00  0.00     0.159 A 
ATOM     15  C   UNL     1       0.275   0.420   1.270  1.00  0.00     0.118 A 
ATOM     16  C   UNL     1      -0.813  -0.283   1.809  1.00  0.00     0.159 A 
ATOM     17  N   UNL     1      -1.490   0.139   2.894  1.00  0.00    -0.217 NA
ATOM     18  N   UNL     1      -0.007   1.970   3.092  1.00  0.00    -0.217 NA
ATOM     19  C   UNL     1      -1.046   1.242   3.488  1.00  0.00     0.226 A 
BRANCH  15  20
ATOM     20  N   UNL     1       0.953  -0.016   0.127  1.00  0.00    -0.393 N 
ATOM     21  H   UNL     1       0.661  -0.835  -0.336  1.00  0.00     0.156 HD
ATOM     22  H   UNL     1       1.722   0.495  -0.215  1.00  0.00     0.156 HD
ENDBRANCH  15  20
BRANCH  16  23
ATOM     23  N   UNL     1      -1.199  -1.504   1.199  1.00  0.00    -0.338 N 
ATOM     24  H   UNL     1      -0.662  -1.813   0.435  1.00  0.00     0.168 HD
BRANCH  23  25
ATOM     25  C   UNL     1      -2.283  -2.312   1.590  1.00  0.00     0.040 A 
ATOM     26  C   UNL     1      -2.063  -3.664   1.879  1.00  0.00     0.027 A 
ATOM     27  C   UNL     1      -3.557  -1.776   1.823  1.00  0.00     0.027 A 
ATOM     28  C   UNL     1      -3.084  -4.457   2.410  1.00  0.00     0.017 A 
ATOM     29  C   UNL     1      -4.586  -2.566   2.343  1.00  0.00     0.017 A 
ATOM     30  C   UNL     1      -4.341  -3.903   2.645  1.00  0.00     0.013 A 
ATOM     31  I   UNL     1      -5.844  -5.068   3.482  1.00  0.00    -0.044 I 
ENDBRANCH  23  25
ENDBRANCH  16  23
ENDBRANCH  12  14
ENDBRANCH   7  12
ENDBRANCH   4   6
ENDBRANCH   3   4
ENDBRANCH   2   3
ENDBRANCH   1   2
BRANCH   1  32
ATOM     32  O   UNL     1       3.898   9.814   3.610  1.00  0.00    -0.374 OA
BRANCH  32  33
ATOM     33  C   UNL     1       4.419   8.684   2.907  1.00  0.00     0.202 C 
BRANCH  33  34
ATOM     34  C   UNL     1       5.928   8.442   3.021  1.00  0.00     0.261 C 
BRANCH  34  35
ATOM     35  O   UNL     1       6.299   8.014   4.345  1.00  0.00    -0.460 OA
BRANCH  35  36
ATOM     36  C   UNL     1       7.060   8.891   5.038  1.00  0.00     0.338 C 
ATOM     37  O   UNL     1       7.540   9.942   4.636  1.00  0.00    -0.246 OA
BRANCH  36  38
ATOM     38  C   UNL     1       7.091   8.504   6.459  1.00  0.00     0.060 A 
ATOM     39  C   UNL     1       6.670   9.455   7.398  1.00  0.00     0.016 A 
ATOM     40  C   UNL     1       7.585   7.266   6.873  1.00  0.00     0.016 A 
ATOM     41  C   UNL     1       6.783   9.187   8.759  1.00  0.00     0.010 A 
ATOM     42  C   UNL     1       7.711   7.003   8.241  1.00  0.00     0.010 A 
ATOM     43  C   UNL     1       7.342   7.976   9.188  1.00  0.00    -0.014 A 
BRANCH  43  44
ATOM     44  C   UNL     1       7.678   7.802  10.621  1.00  0.00     0.031 A 
ATOM     45  C   UNL     1       9.083   8.079  11.076  1.00  0.00     0.074 A 
ATOM     46  C   UNL     1       6.732   7.459  11.512  1.00  0.00     0.049 A 
ATOM     47  N   UNL     1       9.597   8.004  12.277  1.00  0.00    -0.248 NA
ATOM     48  C   UNL     1      10.037   8.504  10.039  1.00  0.00     0.031 C 
ATOM     49  C   UNL     1       5.327   7.216  11.197  1.00  0.00     0.029 A 
ATOM     50  N   UNL     1       6.814   7.263  12.868  1.00  0.00    -0.354 N 
ATOM     51  C   UNL     1      10.927   8.380  12.142  1.00  0.00     0.074 A 
ATOM     52  C   UNL     1      11.154   8.645  10.738  1.00  0.00     0.031 C 
ATOM     53  C   UNL     1       4.674   6.907  12.330  1.00  0.00     0.029 A 
ATOM     54  C   UNL     1       5.622   6.903  13.444  1.00  0.00     0.049 A 
ATOM     55  H   UNL     1       7.649   7.371  13.379  1.00  0.00     0.167 HD
ATOM     56  C   UNL     1      11.868   8.509  13.105  1.00  0.00     0.037 A 
ATOM     57  C   UNL     1       5.334   6.595  14.724  1.00  0.00     0.037 A 
ATOM     58  C   UNL     1      11.642   8.242  14.501  1.00  0.00     0.049 A 
ATOM     59  C   UNL     1       6.424   6.652  15.762  1.00  0.00     0.074 A 
ATOM     60  C   UNL     1      12.533   8.346  15.553  1.00  0.00     0.029 A 
ATOM     61  N   UNL     1      10.436   7.812  15.036  1.00  0.00    -0.354 N 
ATOM     62  N   UNL     1       7.675   7.019  15.629  1.00  0.00    -0.248 NA
ATOM     63  C   UNL     1       6.062   6.247  17.129  1.00  0.00     0.031 C 
ATOM     64  C   UNL     1      11.881   7.933  16.719  1.00  0.00     0.029 A 
ATOM     65  C   UNL     1      10.569   7.620  16.401  1.00  0.00     0.049 A 
ATOM     66  H   UNL     1       9.609   7.666  14.522  1.00  0.00     0.167 HD
ATOM     67  C   UNL     1       8.243   6.914  16.892  1.00  0.00     0.074 A 
ATOM     68  C   UNL     1       7.196   6.460  17.784  1.00  0.00     0.031 C 
ATOM     69  C   UNL     1       9.517   7.171  17.277  1.00  0.00     0.037 A 
BRANCH  56  70
ATOM     70  C   UNL     1      13.237   8.954  12.685  1.00  0.00     0.064 A 
ATOM     71  C   UNL     1      13.490  10.278  12.299  1.00  0.00     0.173 A 
ATOM     72  C   UNL     1      14.319   8.062  12.726  1.00  0.00     0.173 A 
ATOM     73  F   UNL     1      12.486  11.165  12.231  1.00  0.00    -0.203 F 
ATOM     74  C   UNL     1      14.775  10.690  11.954  1.00  0.00     0.198 A 
ATOM     75  C   UNL     1      15.607   8.483  12.406  1.00  0.00     0.198 A 
ATOM     76  F   UNL     1      14.130   6.785  13.092  1.00  0.00    -0.203 F 
ATOM     77  F   UNL     1      14.988  11.951  11.556  1.00  0.00    -0.200 F 
ATOM     78  C   UNL     1      15.833   9.795  12.017  1.00  0.00     0.200 A 
ATOM     79  F   UNL     1      16.630   7.621  12.478  1.00  0.00    -0.200 F 
ATOM     80  F   UNL     1      17.071  10.196  11.698  1.00  0.00    -0.200 F 
ENDBRANCH  56  70
BRANCH  57  81
ATOM     81  C   UNL     1       3.947   6.213  15.096  1.00  0.00     0.064 A 
ATOM     82  C   UNL     1       3.155   7.056  15.886  1.00  0.00     0.173 A 
ATOM     83  C   UNL     1       3.384   5.003  14.665  1.00  0.00     0.173 A 
ATOM     84  F   UNL     1       3.658   8.212  16.344  1.00  0.00    -0.203 F 
ATOM     85  C   UNL     1       1.853   6.702  16.236  1.00  0.00     0.198 A 
ATOM     86  C   UNL     1       2.074   4.661  14.994  1.00  0.00     0.198 A 
ATOM     87  F   UNL     1       4.102   4.158  13.911  1.00  0.00    -0.203 F 
ATOM     88  F   UNL     1       1.129   7.511  17.020  1.00  0.00    -0.200 F 
ATOM     89  C   UNL     1       1.311   5.509  15.783  1.00  0.00     0.200 A 
ATOM     90  F   UNL     1       1.550   3.512  14.545  1.00  0.00    -0.200 F 
ATOM     91  F   UNL     1       0.056   5.173  16.111  1.00  0.00    -0.200 F 
ENDBRANCH  57  81
BRANCH  69  92
ATOM     92  C   UNL     1       9.861   6.986  18.727  1.00  0.00     0.064 A 
ATOM     93  C   UNL     1       9.999   5.709  19.288  1.00  0.00     0.173 A 
ATOM     94  C   UNL     1      10.141   8.096  19.539  1.00  0.00     0.173 A 
ATOM     95  F   UNL     1       9.731   4.617  18.555  1.00  0.00    -0.203 F 
ATOM     96  C   UNL     1      10.396   5.550  20.613  1.00  0.00     0.198 A 
ATOM     97  C   UNL     1      10.565   7.932  20.855  1.00  0.00     0.198 A 
ATOM     98  F   UNL     1      10.033   9.339  19.046  1.00  0.00    -0.203 F 
ATOM     99  F   UNL     1      10.494   4.320  21.137  1.00  0.00    -0.200 F 
ATOM    100  C   UNL     1      10.689   6.660  21.391  1.00  0.00     0.200 A 
ATOM    101  F   UNL     1      10.864   9.005  21.600  1.00  0.00    -0.200 F 
ATOM    102  F   UNL     1      11.091   6.503  22.660  1.00  0.00    -0.200 F 
ENDBRANCH  69  92
ENDBRANCH  43  44
ENDBRANCH  36  38
ENDBRANCH  35  36
ENDBRANCH  34  35
ENDBRANCH  33  34
ENDBRANCH  32  33
ENDBRANCH   1  32
TORSDOF 19
