REMARK SMILES O=C(C[C@H](C1CCCCC1)N1Cc2ccccc2C1=O)OCCOCCOC(=O)c1ccc(-c2c3nc(c(-c4c(F)c(F)c(F)c(F)c4F)c4ccc([nH]4)c(-c4c(F)c(F)c(F)c(F)c4F)c4nc(c(-c5c(F)c(F)c(F)c(F)c5F)c5ccc2[nH]5)C=C4)C=C3)cc1
REMARK SMILES IDX 24 1 23 2 22 3 21 4 2 5 1 6 3 7 4 8 11 9 12 10 19 11 13 12
REMARK SMILES IDX 18 13 20 14 14 15 17 16 15 17 16 18 5 19 6 20 10 21 7 22
REMARK SMILES IDX 9 23 8 24 25 25 26 26 27 27 28 28 29 29 30 30 31 31 92 32
REMARK SMILES IDX 32 33 91 34 33 35 34 36 35 37 85 38 36 39 90 40 84 41 86 42
REMARK SMILES IDX 37 43 89 44 83 45 82 46 38 48 70 49 50 50 69 51 51 52 54 53
REMARK SMILES IDX 68 54 87 55 52 56 53 57 67 59 88 60 55 61 39 62 40 63 48 64
REMARK SMILES IDX 41 65 42 66 46 67 49 68 43 69 44 70 47 71 45 72 71 73 72 74
REMARK SMILES IDX 80 75 73 76 74 77 78 78 81 79 75 80 76 81 79 82 77 83 56 84
REMARK SMILES IDX 57 85 65 86 58 87 59 88 63 89 66 90 60 91 61 92 64 93 62 94
REMARK H PARENT 86 47 54 58
REMARK Flexibility Score: inf
ROOT
ATOM      1  O   UNL     1       6.342   1.819   2.412  1.00  0.00    -0.374 OA
ENDROOT
BRANCH   1   2
ATOM      2  C   UNL     1       5.388   2.299   3.355  1.00  0.00     0.202 C 
BRANCH   2   3
ATOM      3  C   UNL     1       3.924   1.966   3.108  1.00  0.00     0.261 C 
BRANCH   3   4
ATOM      4  O   UNL     1       3.659   0.563   2.967  1.00  0.00    -0.463 OA
BRANCH   4   5
ATOM      5  C   UNL     1       3.792  -0.162   1.840  1.00  0.00     0.307 C 
ATOM      6  O   UNL     1       3.592  -1.376   1.884  1.00  0.00    -0.252 OA
BRANCH   5   7
ATOM      7  C   UNL     1       4.297   0.473   0.566  1.00  0.00     0.148 C 
BRANCH   7   8
ATOM      8  C   UNL     1       3.426   1.580  -0.035  1.00  0.00     0.100 C 
BRANCH   8   9
ATOM      9  N   UNL     1       4.207   2.793  -0.366  1.00  0.00    -0.330 N 
ATOM     10  C   UNL     1       5.513   2.798  -1.030  1.00  0.00     0.156 C 
ATOM     11  C   UNL     1       3.811   4.082  -0.022  1.00  0.00     0.254 C 
ATOM     12  C   UNL     1       5.798   4.254  -1.199  1.00  0.00    -0.016 A 
ATOM     13  C   UNL     1       4.811   5.007  -0.570  1.00  0.00     0.045 A 
ATOM     14  O   UNL     1       2.832   4.422   0.619  1.00  0.00    -0.269 OA
ATOM     15  C   UNL     1       6.848   4.880  -1.850  1.00  0.00     0.006 A 
ATOM     16  C   UNL     1       4.830   6.389  -0.549  1.00  0.00     0.014 A 
ATOM     17  C   UNL     1       6.878   6.279  -1.861  1.00  0.00     0.000 A 
ATOM     18  C   UNL     1       5.880   7.029  -1.212  1.00  0.00     0.001 A 
ENDBRANCH   8   9
BRANCH   8  19
ATOM     19  C   UNL     1       2.516   1.083  -1.195  1.00  0.00     0.012 C 
ATOM     20  C   UNL     1       3.304   0.646  -2.443  1.00  0.00     0.006 C 
ATOM     21  C   UNL     1       1.573  -0.016  -0.651  1.00  0.00     0.006 C 
ATOM     22  C   UNL     1       2.471  -0.137  -3.450  1.00  0.00     0.000 C 
ATOM     23  C   UNL     1       0.779  -0.738  -1.723  1.00  0.00     0.000 C 
ATOM     24  C   UNL     1       1.715  -1.280  -2.791  1.00  0.00     0.000 C 
ENDBRANCH   8  19
ENDBRANCH   7   8
ENDBRANCH   5   7
ENDBRANCH   4   5
ENDBRANCH   3   4
ENDBRANCH   2   3
ENDBRANCH   1   2
BRANCH   1  25
ATOM     25  C   UNL     1       6.881   0.516   2.679  1.00  0.00     0.202 C 
BRANCH  25  26
ATOM     26  C   UNL     1       8.096   0.487   3.605  1.00  0.00     0.261 C 
BRANCH  26  27
ATOM     27  O   UNL     1       7.726   0.859   4.938  1.00  0.00    -0.460 OA
BRANCH  27  28
ATOM     28  C   UNL     1       7.922   2.166   5.232  1.00  0.00     0.338 C 
ATOM     29  O   UNL     1       8.517   2.995   4.566  1.00  0.00    -0.246 OA
BRANCH  28  30
ATOM     30  C   UNL     1       7.085   2.512   6.398  1.00  0.00     0.060 A 
ATOM     31  C   UNL     1       6.401   3.735   6.359  1.00  0.00     0.016 A 
ATOM     32  C   UNL     1       6.948   1.651   7.489  1.00  0.00     0.016 A 
ATOM     33  C   UNL     1       5.640   4.137   7.448  1.00  0.00     0.010 A 
ATOM     34  C   UNL     1       6.192   2.058   8.586  1.00  0.00     0.010 A 
ATOM     35  C   UNL     1       5.583   3.324   8.586  1.00  0.00    -0.014 A 
BRANCH  35  36
ATOM     36  C   UNL     1       5.066   3.898   9.844  1.00  0.00     0.031 A 
ATOM     37  C   UNL     1       6.061   4.406  10.849  1.00  0.00     0.074 A 
ATOM     38  C   UNL     1       3.744   4.014  10.049  1.00  0.00     0.049 A 
ATOM     39  N   UNL     1       5.857   4.941  12.024  1.00  0.00    -0.248 NA
ATOM     40  C   UNL     1       7.483   4.294  10.480  1.00  0.00     0.031 C 
ATOM     41  C   UNL     1       2.704   3.583   9.116  1.00  0.00     0.029 A 
ATOM     42  N   UNL     1       3.054   4.528  11.114  1.00  0.00    -0.354 N 
ATOM     43  C   UNL     1       7.118   5.229  12.529  1.00  0.00     0.074 A 
ATOM     44  C   UNL     1       8.085   4.771  11.558  1.00  0.00     0.031 C 
ATOM     45  C   UNL     1       1.502   3.844   9.657  1.00  0.00     0.029 A 
ATOM     46  C   UNL     1       1.692   4.428  10.982  1.00  0.00     0.049 A 
ATOM     47  H   UNL     1       3.492   4.930  11.899  1.00  0.00     0.167 HD
ATOM     48  C   UNL     1       7.435   5.838  13.694  1.00  0.00     0.037 A 
ATOM     49  C   UNL     1       0.718   4.755  11.851  1.00  0.00     0.037 A 
ATOM     50  C   UNL     1       6.460   6.285  14.652  1.00  0.00     0.049 A 
ATOM     51  C   UNL     1       1.105   5.369  13.173  1.00  0.00     0.074 A 
ATOM     52  C   UNL     1       6.665   6.912  15.867  1.00  0.00     0.029 A 
ATOM     53  N   UNL     1       5.087   6.144  14.500  1.00  0.00    -0.354 N 
ATOM     54  N   UNL     1       2.298   5.659  13.637  1.00  0.00    -0.248 NA
ATOM     55  C   UNL     1       0.009   5.711  14.086  1.00  0.00     0.031 C 
ATOM     56  C   UNL     1       5.420   7.104  16.474  1.00  0.00     0.029 A 
ATOM     57  C   UNL     1       4.434   6.654  15.609  1.00  0.00     0.049 A 
ATOM     58  H   UNL     1       4.644   5.741  13.719  1.00  0.00     0.167 HD
ATOM     59  C   UNL     1       2.094   6.240  14.882  1.00  0.00     0.074 A 
ATOM     60  C   UNL     1       0.661   6.289  15.084  1.00  0.00     0.031 C 
ATOM     61  C   UNL     1       3.004   6.689  15.782  1.00  0.00     0.037 A 
BRANCH  48  62
ATOM     62  C   UNL     1       8.890   6.043  14.003  1.00  0.00     0.064 A 
ATOM     63  C   UNL     1       9.669   6.972  13.297  1.00  0.00     0.173 A 
ATOM     64  C   UNL     1       9.501   5.338  15.051  1.00  0.00     0.173 A 
ATOM     65  F   UNL     1       9.140   7.658  12.273  1.00  0.00    -0.203 F 
ATOM     66  C   UNL     1      11.009   7.177  13.620  1.00  0.00     0.198 A 
ATOM     67  C   UNL     1      10.831   5.567  15.390  1.00  0.00     0.198 A 
ATOM     68  F   UNL     1       8.802   4.435  15.756  1.00  0.00    -0.203 F 
ATOM     69  F   UNL     1      11.744   8.041  12.906  1.00  0.00    -0.200 F 
ATOM     70  C   UNL     1      11.585   6.483  14.673  1.00  0.00     0.200 A 
ATOM     71  F   UNL     1      11.383   4.903  16.416  1.00  0.00    -0.200 F 
ATOM     72  F   UNL     1      12.869   6.693  14.993  1.00  0.00    -0.200 F 
ENDBRANCH  48  62
BRANCH  49  73
ATOM     73  C   UNL     1      -0.707   4.491  11.517  1.00  0.00     0.064 A 
ATOM     74  C   UNL     1      -1.625   5.539  11.360  1.00  0.00     0.173 A 
ATOM     75  C   UNL     1      -1.190   3.180  11.388  1.00  0.00     0.173 A 
ATOM     76  F   UNL     1      -1.219   6.810  11.495  1.00  0.00    -0.203 F 
ATOM     77  C   UNL     1      -2.975   5.285  11.124  1.00  0.00     0.198 A 
ATOM     78  C   UNL     1      -2.532   2.928  11.115  1.00  0.00     0.198 A 
ATOM     79  F   UNL     1      -0.355   2.139  11.526  1.00  0.00    -0.203 F 
ATOM     80  F   UNL     1      -3.841   6.304  11.047  1.00  0.00    -0.200 F 
ATOM     81  C   UNL     1      -3.427   3.981  10.998  1.00  0.00     0.200 A 
ATOM     82  F   UNL     1      -2.961   1.666  10.979  1.00  0.00    -0.200 F 
ATOM     83  F   UNL     1      -4.726   3.737  10.776  1.00  0.00    -0.200 F 
ENDBRANCH  49  73
BRANCH  61  84
ATOM     84  C   UNL     1       2.466   7.298  17.046  1.00  0.00     0.064 A 
ATOM     85  C   UNL     1       1.814   6.524  18.018  1.00  0.00     0.173 A 
ATOM     86  C   UNL     1       2.614   8.671  17.291  1.00  0.00     0.173 A 
ATOM     87  F   UNL     1       1.638   5.207  17.827  1.00  0.00    -0.203 F 
ATOM     88  C   UNL     1       1.286   7.112  19.164  1.00  0.00     0.198 A 
ATOM     89  C   UNL     1       2.120   9.248  18.457  1.00  0.00     0.198 A 
ATOM     90  F   UNL     1       3.241   9.455  16.401  1.00  0.00    -0.203 F 
ATOM     91  F   UNL     1       0.602   6.365  20.042  1.00  0.00    -0.200 F 
ATOM     92  C   UNL     1       1.444   8.471  19.385  1.00  0.00     0.200 A 
ATOM     93  F   UNL     1       2.290  10.559  18.678  1.00  0.00    -0.200 F 
ATOM     94  F   UNL     1       0.933   9.036  20.488  1.00  0.00    -0.200 F 
ENDBRANCH  61  84
ENDBRANCH  35  36
ENDBRANCH  28  30
ENDBRANCH  27  28
ENDBRANCH  26  27
ENDBRANCH  25  26
ENDBRANCH   1  25
TORSDOF 17
