REMARK SMILES Cc1[nH]c(=O)sc1S(=O)(=O)NC1(CC(=O)OCCOCCOC(=O)c2ccc(-c3c4nc(c(-c5c(F)c(F)c(F)c(F)c5F)c5ccc([nH]5)c(-c5c(F)c(F)c(F)c(F)c5F)c5nc(c(-c6c(F)c(F)c(F)c(F)c6F)c6ccc3[nH]6)C=C5)C=C4)cc2)CCC1
REMARK SMILES IDX 18 1 17 2 16 3 14 4 15 5 13 6 12 7 88 8 90 9 89 10 11 11
REMARK SMILES IDX 8 13 9 14 10 15 7 16 1 17 2 18 3 19 4 20 6 22 5 23 19 24
REMARK SMILES IDX 20 25 21 26 22 27 23 28 24 29 25 30 26 31 87 32 27 33 86 34
REMARK SMILES IDX 28 35 29 36 30 37 80 38 31 39 85 40 79 41 81 42 32 43 84 44
REMARK SMILES IDX 78 45 77 46 33 48 65 49 45 50 64 51 46 52 49 53 63 54 82 55
REMARK SMILES IDX 47 56 48 57 62 59 83 60 50 61 34 62 35 63 43 64 36 65 37 66
REMARK SMILES IDX 41 67 44 68 38 69 39 70 42 71 40 72 66 73 67 74 75 75 68 76
REMARK SMILES IDX 69 77 73 78 76 79 70 80 71 81 74 82 72 83 51 84 52 85 60 86
REMARK SMILES IDX 53 87 54 88 58 89 61 90 55 91 56 92 59 93 57 94
REMARK H PARENT 11 12 3 21 81 47 49 58
REMARK Flexibility Score: inf
ROOT
ATOM      1  C   UNL     1      -1.453  -0.057  -1.453  1.00  0.00     0.202 C 
ENDROOT
BRANCH   1   2
ATOM      2  C   UNL     1      -0.091  -0.766  -1.885  1.00  0.00     0.261 C 
BRANCH   2   3
ATOM      3  O   UNL     1       1.112  -0.385  -1.086  1.00  0.00    -0.463 OA
BRANCH   3   4
ATOM      4  C   UNL     1       2.304  -0.198  -1.740  1.00  0.00     0.307 C 
ATOM      5  O   UNL     1       2.430  -0.509  -2.925  1.00  0.00    -0.252 OA
BRANCH   4   6
ATOM      6  C   UNL     1       3.531   0.427  -0.996  1.00  0.00     0.146 C 
BRANCH   6   7
ATOM      7  C   UNL     1       3.589   1.028   0.449  1.00  0.00     0.044 C 
ATOM      8  C   UNL     1       4.946   0.939   1.253  1.00  0.00     0.024 C 
ATOM      9  C   UNL     1       3.051  -0.008   1.500  1.00  0.00     0.024 C 
ATOM     10  C   UNL     1       4.504  -0.416   1.800  1.00  0.00     0.004 C 
BRANCH   7  11
ATOM     11  N   UNL     1       3.114   2.471   0.622  1.00  0.00    -0.204 NA
ATOM     12  H   UNL     1       2.123   2.359   0.836  1.00  0.00     0.142 HD
BRANCH  11  13
ATOM     13  S   UNL     1       3.134   3.863  -0.355  1.00  0.00     0.252 S 
ATOM     14  O   UNL     1       4.507   4.072  -0.743  1.00  0.00    -0.206 OA
ATOM     15  O   UNL     1       2.434   4.843   0.459  1.00  0.00    -0.206 OA
BRANCH  13  16
ATOM     16  C   UNL     1       2.152   3.505  -1.721  1.00  0.00     0.158 A 
ATOM     17  C   UNL     1       0.681   2.115  -0.223  1.00  0.00     0.067 C 
ATOM     18  C   UNL     1       1.122   2.675  -1.542  1.00  0.00     0.046 A 
ATOM     19  N   UNL     1       0.504   2.372  -2.731  1.00  0.00    -0.315 N 
ATOM     20  C   UNL     1       0.953   2.996  -3.850  1.00  0.00     0.305 A 
ATOM     21  H   UNL     1      -0.238   1.726  -2.770  1.00  0.00     0.170 HD
ATOM     22  S   UNL     1       2.302   4.023  -3.377  1.00  0.00    -0.061 S 
ATOM     23  O   UNL     1       0.492   2.894  -4.989  1.00  0.00    -0.257 OA
ENDBRANCH  13  16
ENDBRANCH  11  13
ENDBRANCH   7  11
ENDBRANCH   6   7
ENDBRANCH   4   6
ENDBRANCH   3   4
ENDBRANCH   2   3
ENDBRANCH   1   2
BRANCH   1  24
ATOM     24  O   UNL     1      -1.511   1.336  -1.811  1.00  0.00    -0.374 OA
BRANCH  24  25
ATOM     25  C   UNL     1      -2.327   2.359  -1.169  1.00  0.00     0.202 C 
BRANCH  25  26
ATOM     26  C   UNL     1      -2.203   2.734   0.337  1.00  0.00     0.261 C 
BRANCH  26  27
ATOM     27  O   UNL     1      -2.038   1.609   1.169  1.00  0.00    -0.460 OA
BRANCH  27  28
ATOM     28  C   UNL     1      -3.049   0.733   1.069  1.00  0.00     0.338 C 
ATOM     29  O   UNL     1      -4.089   0.863   0.435  1.00  0.00    -0.246 OA
BRANCH  28  30
ATOM     30  C   UNL     1      -2.737  -0.372   1.963  1.00  0.00     0.060 A 
ATOM     31  C   UNL     1      -3.876  -0.920   2.528  1.00  0.00     0.016 A 
ATOM     32  C   UNL     1      -1.451  -0.475   2.530  1.00  0.00     0.016 A 
ATOM     33  C   UNL     1      -3.795  -1.227   3.851  1.00  0.00     0.010 A 
ATOM     34  C   UNL     1      -1.370  -0.800   3.856  1.00  0.00     0.010 A 
ATOM     35  C   UNL     1      -2.566  -1.062   4.511  1.00  0.00    -0.014 A 
BRANCH  35  36
ATOM     36  C   UNL     1      -2.573  -1.386   5.908  1.00  0.00     0.031 A 
ATOM     37  C   UNL     1      -2.716  -2.840   6.081  1.00  0.00     0.074 A 
ATOM     38  C   UNL     1      -2.484  -0.470   6.881  1.00  0.00     0.049 A 
ATOM     39  N   UNL     1      -3.792  -3.477   6.395  1.00  0.00    -0.248 NA
ATOM     40  C   UNL     1      -1.635  -3.683   5.548  1.00  0.00     0.031 C 
ATOM     41  C   UNL     1      -2.087   0.933   6.798  1.00  0.00     0.029 A 
ATOM     42  N   UNL     1      -2.667  -0.669   8.208  1.00  0.00    -0.354 N 
ATOM     43  C   UNL     1      -3.450  -4.818   6.302  1.00  0.00     0.074 A 
ATOM     44  C   UNL     1      -2.232  -4.873   5.543  1.00  0.00     0.031 C 
ATOM     45  C   UNL     1      -1.834   1.389   8.048  1.00  0.00     0.029 A 
ATOM     46  C   UNL     1      -2.179   0.350   9.006  1.00  0.00     0.049 A 
ATOM     47  H   UNL     1      -3.110  -1.469   8.573  1.00  0.00     0.167 HD
ATOM     48  C   UNL     1      -4.013  -5.715   7.151  1.00  0.00     0.037 A 
ATOM     49  C   UNL     1      -1.979   0.243  10.342  1.00  0.00     0.037 A 
ATOM     50  C   UNL     1      -5.255  -5.197   7.683  1.00  0.00     0.049 A 
ATOM     51  C   UNL     1      -2.804  -0.902  10.823  1.00  0.00     0.074 A 
ATOM     52  C   UNL     1      -6.458  -4.796   7.133  1.00  0.00     0.029 A 
ATOM     53  N   UNL     1      -5.228  -4.665   8.950  1.00  0.00    -0.354 N 
ATOM     54  N   UNL     1      -4.110  -0.894  10.848  1.00  0.00    -0.248 NA
ATOM     55  C   UNL     1      -2.195  -2.226  10.837  1.00  0.00     0.031 C 
ATOM     56  C   UNL     1      -6.893  -3.695   7.932  1.00  0.00     0.029 A 
ATOM     57  C   UNL     1      -5.960  -3.508   8.952  1.00  0.00     0.049 A 
ATOM     58  H   UNL     1      -4.761  -5.051   9.726  1.00  0.00     0.167 HD
ATOM     59  C   UNL     1      -4.485  -2.174  10.458  1.00  0.00     0.074 A 
ATOM     60  C   UNL     1      -3.268  -2.973  10.556  1.00  0.00     0.031 C 
ATOM     61  C   UNL     1      -5.672  -2.387   9.816  1.00  0.00     0.037 A 
BRANCH  48  62
ATOM     62  C   UNL     1      -3.199  -6.775   7.869  1.00  0.00     0.064 A 
ATOM     63  C   UNL     1      -3.869  -7.594   8.797  1.00  0.00     0.173 A 
ATOM     64  C   UNL     1      -1.786  -6.801   7.956  1.00  0.00     0.173 A 
ATOM     65  F   UNL     1      -5.208  -7.678   8.791  1.00  0.00    -0.203 F 
ATOM     66  C   UNL     1      -3.191  -8.250   9.826  1.00  0.00     0.198 A 
ATOM     67  C   UNL     1      -1.112  -7.490   8.959  1.00  0.00     0.198 A 
ATOM     68  F   UNL     1      -0.985  -6.100   7.151  1.00  0.00    -0.203 F 
ATOM     69  F   UNL     1      -3.888  -8.885  10.777  1.00  0.00    -0.200 F 
ATOM     70  C   UNL     1      -1.815  -8.177   9.920  1.00  0.00     0.200 A 
ATOM     71  F   UNL     1       0.224  -7.402   9.028  1.00  0.00    -0.200 F 
ATOM     72  F   UNL     1      -1.169  -8.729  10.954  1.00  0.00    -0.200 F 
ENDBRANCH  48  62
BRANCH  49  73
ATOM     73  C   UNL     1      -0.860   0.806  11.132  1.00  0.00     0.064 A 
ATOM     74  C   UNL     1      -0.918   0.839  12.534  1.00  0.00     0.173 A 
ATOM     75  C   UNL     1       0.397   1.068  10.550  1.00  0.00     0.173 A 
ATOM     76  F   UNL     1      -2.064   0.550  13.167  1.00  0.00    -0.203 F 
ATOM     77  C   UNL     1       0.218   1.097  13.308  1.00  0.00     0.198 A 
ATOM     78  C   UNL     1       1.527   1.335  11.323  1.00  0.00     0.198 A 
ATOM     79  F   UNL     1       0.579   0.975   9.226  1.00  0.00    -0.203 F 
ATOM     80  F   UNL     1       0.138   1.055  14.646  1.00  0.00    -0.200 F 
ATOM     81  C   UNL     1       1.441   1.336  12.702  1.00  0.00     0.200 A 
ATOM     82  F   UNL     1       2.711   1.526  10.724  1.00  0.00    -0.200 F 
ATOM     83  F   UNL     1       2.541   1.523  13.444  1.00  0.00    -0.200 F 
ENDBRANCH  49  73
BRANCH  61  84
ATOM     84  C   UNL     1      -6.673  -1.268   9.831  1.00  0.00     0.064 A 
ATOM     85  C   UNL     1      -6.469  -0.021   9.217  1.00  0.00     0.173 A 
ATOM     86  C   UNL     1      -7.937  -1.520  10.382  1.00  0.00     0.173 A 
ATOM     87  F   UNL     1      -5.322   0.255   8.582  1.00  0.00    -0.203 F 
ATOM     88  C   UNL     1      -7.473   0.947   9.202  1.00  0.00     0.198 A 
ATOM     89  C   UNL     1      -8.949  -0.567  10.331  1.00  0.00     0.198 A 
ATOM     90  F   UNL     1      -8.203  -2.715  10.932  1.00  0.00    -0.203 F 
ATOM     91  F   UNL     1      -7.250   2.137   8.625  1.00  0.00    -0.200 F 
ATOM     92  C   UNL     1      -8.713   0.670   9.753  1.00  0.00     0.200 A 
ATOM     93  F   UNL     1     -10.162  -0.858  10.821  1.00  0.00    -0.200 F 
ATOM     94  F   UNL     1      -9.692   1.585   9.703  1.00  0.00    -0.200 F 
ENDBRANCH  61  84
ENDBRANCH  35  36
ENDBRANCH  28  30
ENDBRANCH  27  28
ENDBRANCH  26  27
ENDBRANCH  25  26
ENDBRANCH  24  25
ENDBRANCH   1  24
TORSDOF 18
