REMARK SMILES CC[NH2+]C(C)(C)C(=O)N[C@@](C)(C(=O)OCCOCCOC(=O)c1ccc(-c2c3nc(c(-c4c(F)c(F)c(F)c(F)c4F)c4ccc([nH]4)c(-c4c(F)c(F)c(F)c(F)c4F)c4nc(c(-c5c(F)c(F)c(F)c(F)c5F)c5ccc2[nH]5)C=C4)C=C3)cc1)C(F)(F)F
REMARK SMILES IDX 16 1 15 2 14 3 12 4 13 5 10 6 11 7 9 8 7 9 8 10 4 12 5 13
REMARK SMILES IDX 6 14 3 15 2 18 1 19 86 20 87 21 88 22 89 23 17 24 18 25
REMARK SMILES IDX 19 26 20 27 21 28 22 29 23 30 24 31 85 32 25 33 84 34 26 35
REMARK SMILES IDX 27 36 28 37 78 38 29 39 83 40 77 41 79 42 30 43 82 44 76 45
REMARK SMILES IDX 75 46 31 48 63 49 43 50 62 51 44 52 47 53 61 54 80 55 45 56
REMARK SMILES IDX 46 57 60 59 81 60 48 61 32 62 33 63 41 64 34 65 35 66 39 67
REMARK SMILES IDX 42 68 36 69 37 70 40 71 38 72 64 73 65 74 73 75 66 76 67 77
REMARK SMILES IDX 71 78 74 79 68 80 69 81 72 82 70 83 49 84 50 85 58 86 51 87
REMARK SMILES IDX 52 88 56 89 59 90 53 91 54 92 57 93 55 94
REMARK H PARENT 9 11 3 16 3 17 79 47 47 58
REMARK Flexibility Score: inf
ROOT
ATOM      1  C   UNL     1      -2.401   6.590  -4.918  1.00  0.00     0.202 C 
ENDROOT
BRANCH   1   2
ATOM      2  C   UNL     1      -2.595   5.723  -6.169  1.00  0.00     0.261 C 
BRANCH   2   3
ATOM      3  O   UNL     1      -2.229   4.351  -5.957  1.00  0.00    -0.461 OA
BRANCH   3   4
ATOM      4  C   UNL     1      -1.426   3.807  -6.921  1.00  0.00     0.341 C 
ATOM      5  O   UNL     1      -1.249   4.323  -8.018  1.00  0.00    -0.249 OA
BRANCH   4   6
ATOM      6  C   UNL     1      -0.782   2.476  -6.474  1.00  0.00     0.231 C 
ATOM      7  C   UNL     1      -1.320   1.405  -7.431  1.00  0.00     0.058 C 
BRANCH   6   8
ATOM      8  N   UNL     1      -1.271   2.130  -5.069  1.00  0.00    -0.328 N 
ATOM      9  C   UNL     1      -0.954   1.413  -3.955  1.00  0.00     0.281 C 
ATOM     10  O   UNL     1      -1.911   1.303  -3.176  1.00  0.00    -0.268 OA
ATOM     11  H   UNL     1      -2.125   2.594  -4.911  1.00  0.00     0.165 HD
BRANCH   9  12
ATOM     12  C   UNL     1       0.468   0.873  -3.589  1.00  0.00     0.169 C 
ATOM     13  C   UNL     1       1.437   2.054  -3.428  1.00  0.00     0.090 C 
ATOM     14  C   UNL     1       0.935  -0.143  -4.646  1.00  0.00     0.090 C 
BRANCH  12  15
ATOM     15  N   UNL     1       0.513   0.060  -2.332  1.00  0.00    -0.334 N 
ATOM     16  H   UNL     1      -0.066  -0.765  -2.489  1.00  0.00     0.347 HD
ATOM     17  H   UNL     1       1.509  -0.103  -2.182  1.00  0.00     0.347 HD
BRANCH  15  18
ATOM     18  C   UNL     1       0.065   0.665  -1.081  1.00  0.00     0.257 C 
ATOM     19  C   UNL     1       0.565  -0.189   0.084  1.00  0.00     0.071 C 
ENDBRANCH  15  18
ENDBRANCH  12  15
ENDBRANCH   9  12
ENDBRANCH   6   8
BRANCH   6  20
ATOM     20  C   UNL     1       0.707   2.770  -6.739  1.00  0.00     0.422 C 
ATOM     21  F   UNL     1       1.130   3.871  -6.075  1.00  0.00    -0.168 F 
ATOM     22  F   UNL     1       1.507   1.750  -6.362  1.00  0.00    -0.168 F 
ATOM     23  F   UNL     1       0.976   2.964  -8.050  1.00  0.00    -0.168 F 
ENDBRANCH   6  20
ENDBRANCH   4   6
ENDBRANCH   3   4
ENDBRANCH   2   3
ENDBRANCH   1   2
BRANCH   1  24
ATOM     24  O   UNL     1      -1.193   6.435  -4.182  1.00  0.00    -0.374 OA
BRANCH  24  25
ATOM     25  C   UNL     1      -0.997   5.224  -3.451  1.00  0.00     0.202 C 
BRANCH  25  26
ATOM     26  C   UNL     1      -1.961   4.897  -2.300  1.00  0.00     0.261 C 
BRANCH  26  27
ATOM     27  O   UNL     1      -3.333   4.786  -2.719  1.00  0.00    -0.460 OA
BRANCH  27  28
ATOM     28  C   UNL     1      -4.177   5.655  -2.106  1.00  0.00     0.338 C 
ATOM     29  O   UNL     1      -3.910   6.462  -1.233  1.00  0.00    -0.246 OA
BRANCH  28  30
ATOM     30  C   UNL     1      -5.492   5.644  -2.772  1.00  0.00     0.060 A 
ATOM     31  C   UNL     1      -5.936   6.842  -3.347  1.00  0.00     0.016 A 
ATOM     32  C   UNL     1      -6.322   4.524  -2.729  1.00  0.00     0.016 A 
ATOM     33  C   UNL     1      -7.233   6.938  -3.845  1.00  0.00     0.010 A 
ATOM     34  C   UNL     1      -7.629   4.625  -3.217  1.00  0.00     0.010 A 
ATOM     35  C   UNL     1      -8.101   5.842  -3.744  1.00  0.00    -0.014 A 
BRANCH  35  36
ATOM     36  C   UNL     1      -9.539   6.026  -4.051  1.00  0.00     0.031 A 
ATOM     37  C   UNL     1     -10.497   6.295  -2.925  1.00  0.00     0.074 A 
ATOM     38  C   UNL     1      -9.979   5.995  -5.321  1.00  0.00     0.049 A 
ATOM     39  N   UNL     1     -11.792   6.481  -2.960  1.00  0.00    -0.248 NA
ATOM     40  C   UNL     1      -9.915   6.367  -1.575  1.00  0.00     0.031 C 
ATOM     41  C   UNL     1      -9.140   5.786  -6.498  1.00  0.00     0.029 A 
ATOM     42  N   UNL     1     -11.246   6.138  -5.828  1.00  0.00    -0.354 N 
ATOM     43  C   UNL     1     -12.179   6.688  -1.642  1.00  0.00     0.074 A 
ATOM     44  C   UNL     1     -10.988   6.577  -0.828  1.00  0.00     0.031 C 
ATOM     45  C   UNL     1      -9.917   5.804  -7.594  1.00  0.00     0.029 A 
ATOM     46  C   UNL     1     -11.309   6.000  -7.192  1.00  0.00     0.049 A 
ATOM     47  H   UNL     1     -12.034   6.321  -5.268  1.00  0.00     0.167 HD
ATOM     48  C   UNL     1     -13.416   6.955  -1.157  1.00  0.00     0.037 A 
ATOM     49  C   UNL     1     -12.374   6.012  -8.017  1.00  0.00     0.037 A 
ATOM     50  C   UNL     1     -14.599   7.061  -1.969  1.00  0.00     0.049 A 
ATOM     51  C   UNL     1     -13.749   6.238  -7.445  1.00  0.00     0.074 A 
ATOM     52  C   UNL     1     -15.895   7.347  -1.576  1.00  0.00     0.029 A 
ATOM     53  N   UNL     1     -14.630   6.875  -3.344  1.00  0.00    -0.354 N 
ATOM     54  N   UNL     1     -14.103   6.460  -6.203  1.00  0.00    -0.248 NA
ATOM     55  C   UNL     1     -14.872   6.217  -8.393  1.00  0.00     0.031 C 
ATOM     56  C   UNL     1     -16.718   7.286  -2.706  1.00  0.00     0.029 A 
ATOM     57  C   UNL     1     -15.928   7.012  -3.811  1.00  0.00     0.049 A 
ATOM     58  H   UNL     1     -13.846   6.675  -3.905  1.00  0.00     0.167 HD
ATOM     59  C   UNL     1     -15.481   6.631  -6.222  1.00  0.00     0.074 A 
ATOM     60  C   UNL     1     -15.898   6.498  -7.602  1.00  0.00     0.031 C 
ATOM     61  C   UNL     1     -16.325   6.879  -5.189  1.00  0.00     0.037 A 
BRANCH  48  62
ATOM     62  C   UNL     1     -13.552   7.121   0.328  1.00  0.00     0.064 A 
ATOM     63  C   UNL     1     -13.059   8.254   0.992  1.00  0.00     0.173 A 
ATOM     64  C   UNL     1     -14.203   6.142   1.094  1.00  0.00     0.173 A 
ATOM     65  F   UNL     1     -12.416   9.212   0.306  1.00  0.00    -0.203 F 
ATOM     66  C   UNL     1     -13.187   8.387   2.372  1.00  0.00     0.198 A 
ATOM     67  C   UNL     1     -14.353   6.292   2.470  1.00  0.00     0.198 A 
ATOM     68  F   UNL     1     -14.697   5.041   0.507  1.00  0.00    -0.203 F 
ATOM     69  F   UNL     1     -12.666   9.455   2.992  1.00  0.00    -0.200 F 
ATOM     70  C   UNL     1     -13.838   7.409   3.109  1.00  0.00     0.200 A 
ATOM     71  F   UNL     1     -14.992   5.351   3.179  1.00  0.00    -0.200 F 
ATOM     72  F   UNL     1     -13.963   7.540   4.437  1.00  0.00    -0.200 F 
ENDBRANCH  48  62
BRANCH  49  73
ATOM     73  C   UNL     1     -12.181   5.797  -9.474  1.00  0.00     0.064 A 
ATOM     74  C   UNL     1     -12.381   6.837 -10.392  1.00  0.00     0.173 A 
ATOM     75  C   UNL     1     -11.796   4.546  -9.979  1.00  0.00     0.173 A 
ATOM     76  F   UNL     1     -12.774   8.044  -9.959  1.00  0.00    -0.203 F 
ATOM     77  C   UNL     1     -12.215   6.631 -11.760  1.00  0.00     0.198 A 
ATOM     78  C   UNL     1     -11.605   4.348 -11.344  1.00  0.00     0.198 A 
ATOM     79  F   UNL     1     -11.595   3.518  -9.142  1.00  0.00    -0.203 F 
ATOM     80  F   UNL     1     -12.450   7.632 -12.619  1.00  0.00    -0.200 F 
ATOM     81  C   UNL     1     -11.820   5.389 -12.234  1.00  0.00     0.200 A 
ATOM     82  F   UNL     1     -11.213   3.149 -11.797  1.00  0.00    -0.200 F 
ATOM     83  F   UNL     1     -11.655   5.194 -13.549  1.00  0.00    -0.200 F 
ENDBRANCH  49  73
BRANCH  61  84
ATOM     84  C   UNL     1     -17.780   7.052  -5.515  1.00  0.00     0.064 A 
ATOM     85  C   UNL     1     -18.587   5.964  -5.876  1.00  0.00     0.173 A 
ATOM     86  C   UNL     1     -18.382   8.316  -5.423  1.00  0.00     0.173 A 
ATOM     87  F   UNL     1     -18.055   4.738  -5.992  1.00  0.00    -0.203 F 
ATOM     88  C   UNL     1     -19.941   6.139  -6.155  1.00  0.00     0.198 A 
ATOM     89  C   UNL     1     -19.741   8.483  -5.675  1.00  0.00     0.198 A 
ATOM     90  F   UNL     1     -17.654   9.388  -5.076  1.00  0.00    -0.203 F 
ATOM     91  F   UNL     1     -20.684   5.093  -6.540  1.00  0.00    -0.200 F 
ATOM     92  C   UNL     1     -20.517   7.396  -6.047  1.00  0.00     0.200 A 
ATOM     93  F   UNL     1     -20.299   9.696  -5.559  1.00  0.00    -0.200 F 
ATOM     94  F   UNL     1     -21.821   7.561  -6.309  1.00  0.00    -0.200 F 
ENDBRANCH  61  84
ENDBRANCH  35  36
ENDBRANCH  28  30
ENDBRANCH  27  28
ENDBRANCH  26  27
ENDBRANCH  25  26
ENDBRANCH  24  25
ENDBRANCH   1  24
TORSDOF 19
