REMARK SMILES C[NH+]1CC[NH+]([C@]2(C(=O)OCCOCCOC(=O)c3ccc(-c4c5nc(c(-c6c(F)c(F)c(F)c(F)c6F)c6ccc([nH]6)c(-c6c(F)c(F)c(F)c(F)c6F)c6nc(c(-c7c(F)c(F)c(F)c(F)c7F)c7ccc4[nH]7)C=C6)C=C5)cc3)CCCC2(C)C)CC1
REMARK SMILES IDX 13 1 12 2 11 3 10 4 9 5 7 6 8 7 6 8 81 9 84 10 82 11 83 12
REMARK SMILES IDX 85 13 86 14 5 15 1 16 2 17 3 18 88 19 4 21 87 22 14 24 15 25
REMARK SMILES IDX 16 26 17 27 18 28 19 29 80 30 20 31 79 32 21 33 22 34 23 35
REMARK SMILES IDX 73 36 24 37 78 38 72 39 74 40 25 41 77 42 71 43 70 44 26 46
REMARK SMILES IDX 58 47 38 48 57 49 39 50 42 51 56 52 75 53 40 54 41 55 55 57
REMARK SMILES IDX 76 58 43 59 27 60 28 61 36 62 29 63 30 64 34 65 37 66 31 67
REMARK SMILES IDX 32 68 35 69 33 70 59 71 60 72 68 73 61 74 62 75 66 76 69 77
REMARK SMILES IDX 63 78 64 79 67 80 65 81 44 82 45 83 53 84 46 85 47 86 51 87
REMARK SMILES IDX 54 88 48 89 49 90 52 91 50 92
REMARK H PARENT 2 20 5 23 74 45 42 56
REMARK Flexibility Score: inf
ROOT
ATOM      1  C   UNL     1      -2.166  -2.333  -1.392  1.00  0.00     0.202 C 
ENDROOT
BRANCH   1   2
ATOM      2  O   UNL     1      -1.984  -1.504  -2.539  1.00  0.00    -0.374 OA
BRANCH   2   3
ATOM      3  C   UNL     1      -0.844  -0.648  -2.545  1.00  0.00     0.202 C 
BRANCH   3   4
ATOM      4  C   UNL     1      -0.947   0.676  -1.775  1.00  0.00     0.261 C 
BRANCH   4   5
ATOM      5  O   UNL     1      -0.923   0.524  -0.342  1.00  0.00    -0.459 OA
BRANCH   5   6
ATOM      6  C   UNL     1      -2.138   0.452   0.255  1.00  0.00     0.368 C 
ATOM      7  O   UNL     1      -3.168   0.367  -0.414  1.00  0.00    -0.245 OA
BRANCH   6   8
ATOM      8  C   UNL     1      -2.122   0.384   1.866  1.00  0.00     0.201 C 
ATOM      9  C   UNL     1      -2.770  -1.020   2.161  1.00  0.00     0.082 C 
ATOM     10  C   UNL     1      -0.644   0.191   2.481  1.00  0.00     0.031 C 
ATOM     11  C   UNL     1      -1.632  -2.019   2.402  1.00  0.00     0.008 C 
ATOM     12  C   UNL     1      -0.336  -1.278   2.105  1.00  0.00     0.014 C 
ATOM     13  C   UNL     1       0.447   1.144   1.957  1.00  0.00     0.018 C 
ATOM     14  C   UNL     1      -0.538   0.263   4.028  1.00  0.00     0.018 C 
BRANCH   8  15
ATOM     15  N   UNL     1      -2.957   1.573   2.368  1.00  0.00    -0.311 N 
ATOM     16  C   UNL     1      -6.601   3.392   4.051  1.00  0.00     0.333 C 
ATOM     17  N   UNL     1      -5.594   2.452   3.570  1.00  0.00    -0.328 N 
ATOM     18  C   UNL     1      -4.332   2.595   4.301  1.00  0.00     0.324 C 
ATOM     19  C   UNL     1      -5.306   2.689   2.154  1.00  0.00     0.324 C 
ATOM     20  H   UNL     1      -5.975   1.517   3.712  1.00  0.00     0.348 HD
ATOM     21  C   UNL     1      -3.271   1.573   3.818  1.00  0.00     0.325 C 
ATOM     22  C   UNL     1      -4.241   1.713   1.613  1.00  0.00     0.325 C 
ATOM     23  H   UNL     1      -2.341   2.368   2.197  1.00  0.00     0.349 HD
ENDBRANCH   8  15
ENDBRANCH   6   8
ENDBRANCH   5   6
ENDBRANCH   4   5
ENDBRANCH   3   4
ENDBRANCH   2   3
ENDBRANCH   1   2
BRANCH   1  24
ATOM     24  C   UNL     1      -1.381  -3.645  -1.390  1.00  0.00     0.261 C 
BRANCH  24  25
ATOM     25  O   UNL     1       0.028  -3.382  -1.258  1.00  0.00    -0.460 OA
BRANCH  25  26
ATOM     26  C   UNL     1       0.755  -3.667  -2.359  1.00  0.00     0.338 C 
ATOM     27  O   UNL     1       0.385  -4.269  -3.359  1.00  0.00    -0.246 OA
BRANCH  26  28
ATOM     28  C   UNL     1       2.057  -2.980  -2.298  1.00  0.00     0.060 A 
ATOM     29  C   UNL     1       2.442  -2.254  -3.432  1.00  0.00     0.016 A 
ATOM     30  C   UNL     1       2.913  -3.089  -1.198  1.00  0.00     0.016 A 
ATOM     31  C   UNL     1       3.717  -1.706  -3.510  1.00  0.00     0.010 A 
ATOM     32  C   UNL     1       4.199  -2.546  -1.281  1.00  0.00     0.010 A 
ATOM     33  C   UNL     1       4.620  -1.899  -2.458  1.00  0.00    -0.014 A 
BRANCH  33  34
ATOM     34  C   UNL     1       6.053  -1.602  -2.692  1.00  0.00     0.031 A 
ATOM     35  C   UNL     1       6.963  -2.729  -3.098  1.00  0.00     0.074 A 
ATOM     36  C   UNL     1       6.519  -0.344  -2.619  1.00  0.00     0.049 A 
ATOM     37  N   UNL     1       8.241  -2.708  -3.379  1.00  0.00    -0.248 NA
ATOM     38  C   UNL     1       6.345  -4.061  -3.208  1.00  0.00     0.031 C 
ATOM     39  C   UNL     1       5.722   0.833  -2.285  1.00  0.00     0.029 A 
ATOM     40  N   UNL     1       7.782   0.149  -2.830  1.00  0.00    -0.354 N 
ATOM     41  C   UNL     1       8.578  -4.018  -3.695  1.00  0.00     0.074 A 
ATOM     42  C   UNL     1       7.381  -4.816  -3.541  1.00  0.00     0.031 C 
ATOM     43  C   UNL     1       6.517   1.917  -2.307  1.00  0.00     0.029 A 
ATOM     44  C   UNL     1       7.882   1.503  -2.631  1.00  0.00     0.049 A 
ATOM     45  H   UNL     1       8.543  -0.414  -3.098  1.00  0.00     0.167 HD
ATOM     46  C   UNL     1       9.776  -4.509  -4.089  1.00  0.00     0.037 A 
ATOM     47  C   UNL     1       8.959   2.310  -2.689  1.00  0.00     0.037 A 
ATOM     48  C   UNL     1      10.964  -3.713  -4.245  1.00  0.00     0.049 A 
ATOM     49  C   UNL     1      10.298   1.726  -3.062  1.00  0.00     0.074 A 
ATOM     50  C   UNL     1      12.224  -4.111  -4.654  1.00  0.00     0.029 A 
ATOM     51  N   UNL     1      11.036  -2.351  -3.992  1.00  0.00    -0.354 N 
ATOM     52  N   UNL     1      10.604   0.492  -3.381  1.00  0.00    -0.248 NA
ATOM     53  C   UNL     1      11.440   2.652  -3.088  1.00  0.00     0.031 C 
ATOM     54  C   UNL     1      13.072  -3.000  -4.600  1.00  0.00     0.029 A 
ATOM     55  C   UNL     1      12.327  -1.898  -4.209  1.00  0.00     0.049 A 
ATOM     56  H   UNL     1      10.282  -1.789  -3.701  1.00  0.00     0.167 HD
ATOM     57  C   UNL     1      11.963   0.497  -3.670  1.00  0.00     0.074 A 
ATOM     58  C   UNL     1      12.419   1.861  -3.503  1.00  0.00     0.031 C 
ATOM     59  C   UNL     1      12.761  -0.534  -4.043  1.00  0.00     0.037 A 
BRANCH  46  60
ATOM     60  C   UNL     1       9.867  -5.983  -4.353  1.00  0.00     0.064 A 
ATOM     61  C   UNL     1       9.273  -6.570  -5.480  1.00  0.00     0.173 A 
ATOM     62  C   UNL     1      10.584  -6.816  -3.479  1.00  0.00     0.173 A 
ATOM     63  F   UNL     1       8.563  -5.821  -6.337  1.00  0.00    -0.203 F 
ATOM     64  C   UNL     1       9.373  -7.940  -5.710  1.00  0.00     0.198 A 
ATOM     65  C   UNL     1      10.705  -8.180  -3.728  1.00  0.00     0.198 A 
ATOM     66  F   UNL     1      11.172  -6.304  -2.388  1.00  0.00    -0.203 F 
ATOM     67  F   UNL     1       8.760  -8.487  -6.769  1.00  0.00    -0.200 F 
ATOM     68  C   UNL     1      10.094  -8.742  -4.838  1.00  0.00     0.200 A 
ATOM     69  F   UNL     1      11.411  -8.952  -2.889  1.00  0.00    -0.200 F 
ATOM     70  F   UNL     1      10.195 -10.059  -5.065  1.00  0.00    -0.200 F 
ENDBRANCH  46  60
BRANCH  47  71
ATOM     71  C   UNL     1       8.820   3.756  -2.376  1.00  0.00     0.064 A 
ATOM     72  C   UNL     1       8.978   4.732  -3.368  1.00  0.00     0.173 A 
ATOM     73  C   UNL     1       8.541   4.190  -1.072  1.00  0.00     0.173 A 
ATOM     74  F   UNL     1       9.271   4.368  -4.625  1.00  0.00    -0.203 F 
ATOM     75  C   UNL     1       8.879   6.089  -3.065  1.00  0.00     0.198 A 
ATOM     76  C   UNL     1       8.415   5.545  -0.775  1.00  0.00     0.198 A 
ATOM     77  F   UNL     1       8.384   3.295  -0.085  1.00  0.00    -0.203 F 
ATOM     78  F   UNL     1       9.080   7.004  -4.023  1.00  0.00    -0.200 F 
ATOM     79  C   UNL     1       8.591   6.494  -1.770  1.00  0.00     0.200 A 
ATOM     80  F   UNL     1       8.126   5.931   0.476  1.00  0.00    -0.200 F 
ATOM     81  F   UNL     1       8.493   7.798  -1.479  1.00  0.00    -0.200 F 
ENDBRANCH  47  71
BRANCH  59  82
ATOM     82  C   UNL     1      14.202  -0.224  -4.326  1.00  0.00     0.064 A 
ATOM     83  C   UNL     1      15.106   0.078  -3.297  1.00  0.00     0.173 A 
ATOM     84  C   UNL     1      14.693  -0.272  -5.640  1.00  0.00     0.173 A 
ATOM     85  F   UNL     1      14.682   0.150  -2.026  1.00  0.00    -0.203 F 
ATOM     86  C   UNL     1      16.444   0.344  -3.576  1.00  0.00     0.198 A 
ATOM     87  C   UNL     1      16.037  -0.035  -5.912  1.00  0.00     0.198 A 
ATOM     88  F   UNL     1      13.871  -0.565  -6.659  1.00  0.00    -0.203 F 
ATOM     89  F   UNL     1      17.280   0.676  -2.582  1.00  0.00    -0.200 F 
ATOM     90  C   UNL     1      16.910   0.281  -4.881  1.00  0.00     0.200 A 
ATOM     91  F   UNL     1      16.489  -0.111  -7.171  1.00  0.00    -0.200 F 
ATOM     92  F   UNL     1      18.200   0.530  -5.146  1.00  0.00    -0.200 F 
ENDBRANCH  59  82
ENDBRANCH  33  34
ENDBRANCH  26  28
ENDBRANCH  25  26
ENDBRANCH  24  25
ENDBRANCH   1  24
TORSDOF 15
