REMARK SMILES CC(=O)[C@H]1CCC[N@@H+](CC(C)(C)C(=O)OCCOCCOC(=O)c2ccc(-c3c4nc(c(-c5c(F)c(F)c(F)c(F)c5F)c5ccc([nH]5)c(-c5c(F)c(F)c(F)c(F)c5F)c5nc(c(-c6c(F)c(F)c(F)c(F)c6F)c6ccc3[nH]6)C=C5)C=C4)cc2)C1
REMARK SMILES IDX 17 1 16 2 15 3 13 4 14 5 10 6 11 7 12 8 9 9 8 10 4 11 5 12
REMARK SMILES IDX 87 13 6 14 7 15 2 17 1 18 3 19 18 20 19 21 20 22 21 23 22 24
REMARK SMILES IDX 23 25 24 26 25 27 86 28 26 29 85 30 27 31 28 32 29 33 79 34
REMARK SMILES IDX 30 35 84 36 78 37 80 38 31 39 83 40 77 41 76 42 32 44 64 45
REMARK SMILES IDX 44 46 63 47 45 48 48 49 62 50 81 51 46 52 47 53 61 55 82 56
REMARK SMILES IDX 49 57 33 58 34 59 42 60 35 61 36 62 40 63 43 64 37 65 38 66
REMARK SMILES IDX 41 67 39 68 65 69 66 70 74 71 67 72 68 73 72 74 75 75 69 76
REMARK SMILES IDX 70 77 73 78 71 79 50 80 51 81 59 82 52 83 53 84 57 85 60 86
REMARK SMILES IDX 54 87 55 88 58 89 56 90
REMARK H PARENT 8 16 80 43 48 54
REMARK Flexibility Score: inf
ROOT
ATOM      1  C   UNL     1      -0.614   7.364   5.371  1.00  0.00     0.202 C 
ENDROOT
BRANCH   1   2
ATOM      2  C   UNL     1       0.480   6.403   5.861  1.00  0.00     0.261 C 
BRANCH   2   3
ATOM      3  O   UNL     1       1.574   6.273   4.943  1.00  0.00    -0.463 OA
BRANCH   3   4
ATOM      4  C   UNL     1       1.771   5.028   4.431  1.00  0.00     0.317 C 
ATOM      5  O   UNL     1       1.186   4.029   4.838  1.00  0.00    -0.251 OA
BRANCH   4   6
ATOM      6  C   UNL     1       2.814   4.996   3.304  1.00  0.00     0.111 C 
ATOM      7  C   UNL     1       3.868   3.945   3.716  1.00  0.00     0.029 C 
ATOM      8  C   UNL     1       3.600   6.326   3.169  1.00  0.00     0.029 C 
BRANCH   6   9
ATOM      9  C   UNL     1       2.147   4.719   1.903  1.00  0.00     0.280 C 
BRANCH   9  10
ATOM     10  N   UNL     1       1.216   3.610   1.612  1.00  0.00    -0.333 N 
ATOM     11  C   UNL     1       0.738   1.145   1.852  1.00  0.00     0.111 C 
ATOM     12  C   UNL     1      -0.653   1.486   2.380  1.00  0.00     0.023 C 
ATOM     13  C   UNL     1       1.690   2.316   2.093  1.00  0.00     0.273 C 
ATOM     14  C   UNL     1      -1.147   2.752   1.692  1.00  0.00     0.062 C 
ATOM     15  C   UNL     1      -0.184   3.923   1.920  1.00  0.00     0.262 C 
ATOM     16  H   UNL     1       1.216   3.503   0.598  1.00  0.00     0.348 HD
BRANCH  11  17
ATOM     17  C   UNL     1       1.372  -0.081   2.496  1.00  0.00     0.138 C 
ATOM     18  C   UNL     1       1.019  -0.428   3.920  1.00  0.00     0.088 C 
ATOM     19  O   UNL     1       2.224  -0.736   1.890  1.00  0.00    -0.299 OA
ENDBRANCH  11  17
ENDBRANCH   9  10
ENDBRANCH   6   9
ENDBRANCH   4   6
ENDBRANCH   3   4
ENDBRANCH   2   3
ENDBRANCH   1   2
BRANCH   1  20
ATOM     20  O   UNL     1      -0.894   7.431   3.979  1.00  0.00    -0.374 OA
BRANCH  20  21
ATOM     21  C   UNL     1       0.122   7.913   3.102  1.00  0.00     0.202 C 
BRANCH  21  22
ATOM     22  C   UNL     1       0.775   9.277   3.374  1.00  0.00     0.261 C 
BRANCH  22  23
ATOM     23  O   UNL     1       1.462   9.337   4.638  1.00  0.00    -0.460 OA
BRANCH  23  24
ATOM     24  C   UNL     1       1.035  10.327   5.462  1.00  0.00     0.338 C 
ATOM     25  O   UNL     1       0.207  11.187   5.222  1.00  0.00    -0.246 OA
BRANCH  24  26
ATOM     26  C   UNL     1       1.564  10.118   6.820  1.00  0.00     0.060 A 
ATOM     27  C   UNL     1       0.634   9.898   7.845  1.00  0.00     0.016 A 
ATOM     28  C   UNL     1       2.921  10.265   7.107  1.00  0.00     0.016 A 
ATOM     29  C   UNL     1       1.052   9.874   9.171  1.00  0.00     0.010 A 
ATOM     30  C   UNL     1       3.339  10.255   8.442  1.00  0.00     0.010 A 
ATOM     31  C   UNL     1       2.399  10.103   9.479  1.00  0.00    -0.014 A 
BRANCH  31  32
ATOM     32  C   UNL     1       2.766  10.377  10.888  1.00  0.00     0.031 A 
ATOM     33  C   UNL     1       2.912  11.808  11.331  1.00  0.00     0.074 A 
ATOM     34  C   UNL     1       2.891   9.375  11.774  1.00  0.00     0.049 A 
ATOM     35  N   UNL     1       3.211  12.289  12.511  1.00  0.00    -0.248 NA
ATOM     36  C   UNL     1       2.687  12.836  10.302  1.00  0.00     0.031 C 
ATOM     37  C   UNL     1       2.720   7.956  11.469  1.00  0.00     0.029 A 
ATOM     38  N   UNL     1       3.186   9.401  13.113  1.00  0.00    -0.354 N 
ATOM     39  C   UNL     1       3.211  13.670  12.365  1.00  0.00     0.074 A 
ATOM     40  C   UNL     1       2.921  13.951  10.976  1.00  0.00     0.031 C 
ATOM     41  C   UNL     1       2.920   7.244  12.591  1.00  0.00     0.029 A 
ATOM     42  C   UNL     1       3.261   8.155  13.682  1.00  0.00     0.049 A 
ATOM     43  H   UNL     1       3.330  10.234  13.617  1.00  0.00     0.167 HD
ATOM     44  C   UNL     1       3.423  14.618  13.308  1.00  0.00     0.037 A 
ATOM     45  C   UNL     1       3.587   7.795  14.939  1.00  0.00     0.037 A 
ATOM     46  C   UNL     1       3.714  14.331  14.688  1.00  0.00     0.049 A 
ATOM     47  C   UNL     1       3.888   8.868  15.954  1.00  0.00     0.074 A 
ATOM     48  C   UNL     1       3.945  15.217  15.726  1.00  0.00     0.029 A 
ATOM     49  N   UNL     1       3.820  13.054  15.222  1.00  0.00    -0.354 N 
ATOM     50  N   UNL     1       3.874  10.172  15.813  1.00  0.00    -0.248 NA
ATOM     51  C   UNL     1       4.240   8.417  17.307  1.00  0.00     0.031 C 
ATOM     52  C   UNL     1       4.244  14.476  16.875  1.00  0.00     0.029 A 
ATOM     53  C   UNL     1       4.136  13.129  16.569  1.00  0.00     0.049 A 
ATOM     54  H   UNL     1       3.691  12.219  14.717  1.00  0.00     0.167 HD
ATOM     55  C   UNL     1       4.182  10.696  17.062  1.00  0.00     0.074 A 
ATOM     56  C   UNL     1       4.362   9.568  17.952  1.00  0.00     0.031 C 
ATOM     57  C   UNL     1       4.305  11.993  17.441  1.00  0.00     0.037 A 
BRANCH  44  58
ATOM     58  C   UNL     1       3.377  16.054  12.870  1.00  0.00     0.064 A 
ATOM     59  C   UNL     1       2.177  16.675  12.491  1.00  0.00     0.173 A 
ATOM     60  C   UNL     1       4.548  16.827  12.849  1.00  0.00     0.173 A 
ATOM     61  F   UNL     1       1.031  15.978  12.476  1.00  0.00    -0.203 F 
ATOM     62  C   UNL     1       2.156  18.007  12.082  1.00  0.00     0.198 A 
ATOM     63  C   UNL     1       4.518  18.167  12.470  1.00  0.00     0.198 A 
ATOM     64  F   UNL     1       5.723  16.285  13.203  1.00  0.00    -0.203 F 
ATOM     65  F   UNL     1       1.006  18.563  11.675  1.00  0.00    -0.200 F 
ATOM     66  C   UNL     1       3.325  18.753  12.079  1.00  0.00     0.200 A 
ATOM     67  F   UNL     1       5.647  18.889  12.480  1.00  0.00    -0.200 F 
ATOM     68  F   UNL     1       3.302  20.035  11.691  1.00  0.00    -0.200 F 
ENDBRANCH  44  58
BRANCH  45  69
ATOM     69  C   UNL     1       3.655   6.356  15.307  1.00  0.00     0.064 A 
ATOM     70  C   UNL     1       2.746   5.793  16.212  1.00  0.00     0.173 A 
ATOM     71  C   UNL     1       4.646   5.519  14.773  1.00  0.00     0.173 A 
ATOM     72  F   UNL     1       1.794   6.557  16.769  1.00  0.00    -0.203 F 
ATOM     73  C   UNL     1       2.839   4.454  16.588  1.00  0.00     0.198 A 
ATOM     74  C   UNL     1       4.719   4.173  15.125  1.00  0.00     0.198 A 
ATOM     75  F   UNL     1       5.541   6.008  13.902  1.00  0.00    -0.203 F 
ATOM     76  F   UNL     1       1.989   3.954  17.495  1.00  0.00    -0.200 F 
ATOM     77  C   UNL     1       3.822   3.644  16.039  1.00  0.00     0.200 A 
ATOM     78  F   UNL     1       5.662   3.391  14.581  1.00  0.00    -0.200 F 
ATOM     79  F   UNL     1       3.909   2.356  16.398  1.00  0.00    -0.200 F 
ENDBRANCH  45  69
BRANCH  57  80
ATOM     80  C   UNL     1       4.604  12.261  18.889  1.00  0.00     0.064 A 
ATOM     81  C   UNL     1       5.849  11.955  19.458  1.00  0.00     0.173 A 
ATOM     82  C   UNL     1       3.635  12.855  19.714  1.00  0.00     0.173 A 
ATOM     83  F   UNL     1       6.806  11.375  18.717  1.00  0.00    -0.203 F 
ATOM     84  C   UNL     1       6.099  12.197  20.807  1.00  0.00     0.198 A 
ATOM     85  C   UNL     1       3.901  13.129  21.052  1.00  0.00     0.198 A 
ATOM     86  F   UNL     1       2.431  13.179  19.218  1.00  0.00    -0.203 F 
ATOM     87  F   UNL     1       7.274  11.838  21.343  1.00  0.00    -0.200 F 
ATOM     88  C   UNL     1       5.128  12.789  21.601  1.00  0.00     0.200 A 
ATOM     89  F   UNL     1       2.968  13.717  21.813  1.00  0.00    -0.200 F 
ATOM     90  F   UNL     1       5.372  13.023  22.897  1.00  0.00    -0.200 F 
ENDBRANCH  57  80
ENDBRANCH  31  32
ENDBRANCH  24  26
ENDBRANCH  23  24
ENDBRANCH  22  23
ENDBRANCH  21  22
ENDBRANCH  20  21
ENDBRANCH   1  20
TORSDOF 17
