REMARK SMILES [NH3+][C@@]1(C(=O)OCCOCCOC(=O)c2ccc(-c3c4nc(c(-c5c(F)c(F)c(F)c(F)c5F)c5ccc([nH]5)c(-c5c(F)c(F)c(F)c(F)c5F)c5nc(c(-c6c(F)c(F)c(F)c(F)c6F)c6ccc3[nH]6)C=C5)C=C4)cc2)CCC[C@@H](Oc2ccccc2[N+](=O)[O-])C1
REMARK SMILES IDX 7 1 6 2 5 3 3 4 4 5 2 6 77 7 91 8 78 9 80 10 79 11 1 12
REMARK SMILES IDX 81 16 82 17 83 18 87 19 84 20 86 21 85 22 88 23 89 24 90 25
REMARK SMILES IDX 8 26 9 27 10 28 11 29 12 30 13 31 14 32 15 33 76 34 16 35
REMARK SMILES IDX 75 36 17 37 18 38 19 39 69 40 20 41 74 42 68 43 70 44 21 45
REMARK SMILES IDX 73 46 67 47 66 48 22 50 54 51 34 52 53 53 35 54 38 55 52 56
REMARK SMILES IDX 71 57 36 58 37 59 51 61 72 62 39 63 23 64 24 65 32 66 25 67
REMARK SMILES IDX 26 68 30 69 33 70 27 71 28 72 31 73 29 74 55 75 56 76 64 77
REMARK SMILES IDX 57 78 58 79 62 80 65 81 59 82 60 83 63 84 61 85 40 86 41 87
REMARK SMILES IDX 49 88 42 89 43 90 47 91 50 92 44 93 45 94 48 95 46 96
REMARK H PARENT 1 13 1 14 1 15 70 49 38 60
REMARK Flexibility Score: inf
ROOT
ATOM      1  C   UNL     1      -5.120  -0.692   0.796  1.00  0.00     0.202 C 
ENDROOT
BRANCH   1   2
ATOM      2  C   UNL     1      -4.510   0.716   0.778  1.00  0.00     0.261 C 
BRANCH   2   3
ATOM      3  O   UNL     1      -3.209   0.685   0.172  1.00  0.00    -0.459 OA
BRANCH   3   4
ATOM      4  C   UNL     1      -2.127   0.626   1.009  1.00  0.00     0.368 C 
ATOM      5  O   UNL     1      -2.147   0.866   2.208  1.00  0.00    -0.245 OA
BRANCH   4   6
ATOM      6  C   UNL     1      -0.862   0.186   0.208  1.00  0.00     0.196 C 
ATOM      7  C   UNL     1       0.009  -0.772   1.039  1.00  0.00     0.081 C 
ATOM      8  C   UNL     1      -0.077   1.472  -0.099  1.00  0.00     0.126 C 
ATOM      9  C   UNL     1       1.324  -1.113   0.335  1.00  0.00     0.011 C 
ATOM     10  C   UNL     1       1.355   1.299  -0.621  1.00  0.00     0.180 C 
ATOM     11  C   UNL     1       2.142   0.135   0.006  1.00  0.00     0.046 C 
BRANCH   6  12
ATOM     12  N   UNL     1      -1.306  -0.580  -0.979  1.00  0.00    -0.343 N 
ATOM     13  H   UNL     1      -0.491  -0.877  -1.516  1.00  0.00     0.345 HD
ATOM     14  H   UNL     1      -1.901   0.010  -1.561  1.00  0.00     0.345 HD
ATOM     15  H   UNL     1      -1.831  -1.400  -0.677  1.00  0.00     0.345 HD
ENDBRANCH   6  12
BRANCH  10  16
ATOM     16  O   UNL     1       1.528   1.496  -2.042  1.00  0.00    -0.483 OA
BRANCH  16  17
ATOM     17  C   UNL     1       0.956   0.614  -2.902  1.00  0.00     0.197 A 
ATOM     18  C   UNL     1       1.651  -0.555  -3.217  1.00  0.00     0.054 A 
ATOM     19  C   UNL     1      -0.256   0.865  -3.559  1.00  0.00     0.310 A 
ATOM     20  C   UNL     1       1.085  -1.512  -4.066  1.00  0.00     0.004 A 
ATOM     21  C   UNL     1      -0.842  -0.098  -4.396  1.00  0.00     0.090 A 
ATOM     22  C   UNL     1      -0.171  -1.296  -4.634  1.00  0.00     0.007 A 
BRANCH  19  23
ATOM     23  N   UNL     1      -1.005   2.086  -3.316  1.00  0.00     0.066 N 
ATOM     24  O   UNL     1      -2.211   1.951  -3.053  1.00  0.00    -0.258 OA
ATOM     25  O   UNL     1      -0.407   3.166  -3.385  1.00  0.00    -0.258 OA
ENDBRANCH  19  23
ENDBRANCH  16  17
ENDBRANCH  10  16
ENDBRANCH   4   6
ENDBRANCH   3   4
ENDBRANCH   2   3
ENDBRANCH   1   2
BRANCH   1  26
ATOM     26  O   UNL     1      -4.610  -1.539   1.831  1.00  0.00    -0.374 OA
BRANCH  26  27
ATOM     27  C   UNL     1      -3.398  -2.225   1.515  1.00  0.00     0.202 C 
BRANCH  27  28
ATOM     28  C   UNL     1      -3.592  -3.673   1.074  1.00  0.00     0.261 C 
BRANCH  28  29
ATOM     29  O   UNL     1      -4.200  -3.711  -0.230  1.00  0.00    -0.460 OA
BRANCH  29  30
ATOM     30  C   UNL     1      -5.534  -3.909  -0.219  1.00  0.00     0.338 C 
ATOM     31  O   UNL     1      -6.235  -4.204   0.741  1.00  0.00    -0.246 OA
BRANCH  30  32
ATOM     32  C   UNL     1      -6.101  -3.575  -1.536  1.00  0.00     0.060 A 
ATOM     33  C   UNL     1      -7.279  -2.819  -1.548  1.00  0.00     0.016 A 
ATOM     34  C   UNL     1      -5.538  -4.034  -2.731  1.00  0.00     0.016 A 
ATOM     35  C   UNL     1      -7.933  -2.570  -2.750  1.00  0.00     0.010 A 
ATOM     36  C   UNL     1      -6.198  -3.785  -3.938  1.00  0.00     0.010 A 
ATOM     37  C   UNL     1      -7.417  -3.083  -3.947  1.00  0.00    -0.014 A 
BRANCH  37  38
ATOM     38  C   UNL     1      -8.224  -2.984  -5.185  1.00  0.00     0.031 A 
ATOM     39  C   UNL     1      -9.015  -4.176  -5.643  1.00  0.00     0.074 A 
ATOM     40  C   UNL     1      -8.279  -1.827  -5.868  1.00  0.00     0.049 A 
ATOM     41  N   UNL     1      -9.772  -4.314  -6.702  1.00  0.00    -0.248 NA
ATOM     42  C   UNL     1      -8.945  -5.376  -4.793  1.00  0.00     0.031 C 
ATOM     43  C   UNL     1      -7.585  -0.596  -5.497  1.00  0.00     0.029 A 
ATOM     44  N   UNL     1      -8.948  -1.505  -7.021  1.00  0.00    -0.354 N 
ATOM     45  C   UNL     1     -10.263  -5.612  -6.648  1.00  0.00     0.074 A 
ATOM     46  C   UNL     1      -9.697  -6.232  -5.470  1.00  0.00     0.031 C 
ATOM     47  C   UNL     1      -7.856   0.349  -6.412  1.00  0.00     0.029 A 
ATOM     48  C   UNL     1      -8.714  -0.222  -7.449  1.00  0.00     0.049 A 
ATOM     49  H   UNL     1      -9.539  -2.133  -7.496  1.00  0.00     0.167 HD
ATOM     50  C   UNL     1     -11.116  -6.225  -7.502  1.00  0.00     0.037 A 
ATOM     51  C   UNL     1      -9.127   0.409  -8.565  1.00  0.00     0.037 A 
ATOM     52  C   UNL     1     -11.681  -5.600  -8.669  1.00  0.00     0.049 A 
ATOM     53  C   UNL     1     -10.019  -0.320  -9.535  1.00  0.00     0.074 A 
ATOM     54  C   UNL     1     -12.584  -6.124  -9.578  1.00  0.00     0.029 A 
ATOM     55  N   UNL     1     -11.389  -4.312  -9.094  1.00  0.00    -0.354 N 
ATOM     56  N   UNL     1     -10.506  -1.535  -9.461  1.00  0.00    -0.248 NA
ATOM     57  C   UNL     1     -10.420   0.412 -10.745  1.00  0.00     0.031 C 
ATOM     58  C   UNL     1     -12.793  -5.175 -10.584  1.00  0.00     0.029 A 
ATOM     59  C   UNL     1     -12.065  -4.038 -10.273  1.00  0.00     0.049 A 
ATOM     60  H   UNL     1     -10.790  -3.686  -8.628  1.00  0.00     0.167 HD
ATOM     61  C   UNL     1     -11.282  -1.707 -10.600  1.00  0.00     0.074 A 
ATOM     62  C   UNL     1     -11.218  -0.463 -11.339  1.00  0.00     0.031 C 
ATOM     63  C   UNL     1     -11.984  -2.796 -10.999  1.00  0.00     0.037 A 
BRANCH  50  64
ATOM     64  C   UNL     1     -11.473  -7.656  -7.224  1.00  0.00     0.064 A 
ATOM     65  C   UNL     1     -12.311  -8.016  -6.158  1.00  0.00     0.173 A 
ATOM     66  C   UNL     1     -11.006  -8.677  -8.066  1.00  0.00     0.173 A 
ATOM     67  F   UNL     1     -12.773  -7.080  -5.316  1.00  0.00    -0.203 F 
ATOM     68  C   UNL     1     -12.651  -9.348  -5.934  1.00  0.00     0.198 A 
ATOM     69  C   UNL     1     -11.371 -10.004  -7.855  1.00  0.00     0.198 A 
ATOM     70  F   UNL     1     -10.204  -8.386  -9.102  1.00  0.00    -0.203 F 
ATOM     71  F   UNL     1     -13.421  -9.674  -4.886  1.00  0.00    -0.200 F 
ATOM     72  C   UNL     1     -12.188 -10.339  -6.787  1.00  0.00     0.200 A 
ATOM     73  F   UNL     1     -10.932 -10.958  -8.687  1.00  0.00    -0.200 F 
ATOM     74  F   UNL     1     -12.525 -11.619  -6.575  1.00  0.00    -0.200 F 
ENDBRANCH  50  64
BRANCH  51  75
ATOM     75  C   UNL     1      -8.680   1.800  -8.836  1.00  0.00     0.064 A 
ATOM     76  C   UNL     1      -9.583   2.871  -8.819  1.00  0.00     0.173 A 
ATOM     77  C   UNL     1      -7.338   2.083  -9.134  1.00  0.00     0.173 A 
ATOM     78  F   UNL     1     -10.881   2.648  -8.566  1.00  0.00    -0.203 F 
ATOM     79  C   UNL     1      -9.164   4.169  -9.105  1.00  0.00     0.198 A 
ATOM     80  C   UNL     1      -6.915   3.385  -9.391  1.00  0.00     0.198 A 
ATOM     81  F   UNL     1      -6.434   1.092  -9.167  1.00  0.00    -0.203 F 
ATOM     82  F   UNL     1     -10.057   5.168  -9.128  1.00  0.00    -0.200 F 
ATOM     83  C   UNL     1      -7.830   4.426  -9.384  1.00  0.00     0.200 A 
ATOM     84  F   UNL     1      -5.623   3.628  -9.649  1.00  0.00    -0.200 F 
ATOM     85  F   UNL     1      -7.428   5.675  -9.656  1.00  0.00    -0.200 F 
ENDBRANCH  51  75
BRANCH  63  86
ATOM     86  C   UNL     1     -12.750  -2.687 -12.286  1.00  0.00     0.064 A 
ATOM     87  C   UNL     1     -12.099  -2.660 -13.528  1.00  0.00     0.173 A 
ATOM     88  C   UNL     1     -14.153  -2.649 -12.279  1.00  0.00     0.173 A 
ATOM     89  F   UNL     1     -10.758  -2.679 -13.587  1.00  0.00    -0.203 F 
ATOM     90  C   UNL     1     -12.822  -2.573 -14.714  1.00  0.00     0.198 A 
ATOM     91  C   UNL     1     -14.874  -2.594 -13.468  1.00  0.00     0.198 A 
ATOM     92  F   UNL     1     -14.825  -2.680 -11.119  1.00  0.00    -0.203 F 
ATOM     93  F   UNL     1     -12.177  -2.500 -15.886  1.00  0.00    -0.200 F 
ATOM     94  C   UNL     1     -14.209  -2.548 -14.684  1.00  0.00     0.200 A 
ATOM     95  F   UNL     1     -16.214  -2.584 -13.438  1.00  0.00    -0.200 F 
ATOM     96  F   UNL     1     -14.904  -2.472 -15.827  1.00  0.00    -0.200 F 
ENDBRANCH  63  86
ENDBRANCH  37  38
ENDBRANCH  30  32
ENDBRANCH  29  30
ENDBRANCH  28  29
ENDBRANCH  27  28
ENDBRANCH  26  27
ENDBRANCH   1  26
TORSDOF 18
