REMARK SMILES CC(C)(C(=O)OCCOCCOC(=O)c1ccc(-c2c3nc(c(-c4c(F)c(F)c(F)c(F)c4F)c4ccc([nH]4)c(-c4c(F)c(F)c(F)c(F)c4F)c4nc(c(-c5c(F)c(F)c(F)c(F)c5F)c5ccc2[nH]5)C=C4)C=C3)cc1)n1cccc1
REMARK SMILES IDX 10 1 9 2 8 3 7 4 6 5 4 6 5 7 2 8 1 9 3 10 78 11 79 12 82 13
REMARK SMILES IDX 80 14 81 15 11 16 12 17 13 18 14 19 15 20 16 21 77 22 17 23
REMARK SMILES IDX 76 24 18 25 19 26 20 27 70 28 21 29 75 30 69 31 71 32 22 33
REMARK SMILES IDX 74 34 68 35 67 36 23 38 55 39 35 40 54 41 36 42 39 43 53 44
REMARK SMILES IDX 72 45 37 46 38 47 52 49 73 50 40 51 24 52 25 53 33 54 26 55
REMARK SMILES IDX 27 56 31 57 34 58 28 59 29 60 32 61 30 62 56 63 57 64 65 65
REMARK SMILES IDX 58 66 59 67 63 68 66 69 60 70 61 71 64 72 62 73 41 74 42 75
REMARK SMILES IDX 50 76 43 77 44 78 48 79 51 80 45 81 46 82 49 83 47 84
REMARK H PARENT 71 37 39 48
REMARK Flexibility Score: inf
ROOT
ATOM      1  C   UNL     1      -2.325   1.867  -0.785  1.00  0.00     0.202 C 
ENDROOT
BRANCH   1   2
ATOM      2  O   UNL     1      -3.566   1.268  -1.153  1.00  0.00    -0.374 OA
BRANCH   2   3
ATOM      3  C   UNL     1      -3.772  -0.097  -0.784  1.00  0.00     0.202 C 
BRANCH   3   4
ATOM      4  C   UNL     1      -2.957  -1.134  -1.560  1.00  0.00     0.261 C 
BRANCH   4   5
ATOM      5  O   UNL     1      -1.563  -1.049  -1.206  1.00  0.00    -0.461 OA
BRANCH   5   6
ATOM      6  C   UNL     1      -0.691  -1.009  -2.253  1.00  0.00     0.331 C 
ATOM      7  O   UNL     1      -1.020  -1.218  -3.416  1.00  0.00    -0.249 OA
BRANCH   6   8
ATOM      8  C   UNL     1       0.755  -0.710  -1.814  1.00  0.00     0.136 C 
ATOM      9  C   UNL     1       0.905  -0.398  -0.306  1.00  0.00     0.047 C 
ATOM     10  C   UNL     1       1.550  -2.012  -2.060  1.00  0.00     0.047 C 
BRANCH   8  11
ATOM     11  N   UNL     1       1.255   0.416  -2.639  1.00  0.00    -0.338 N 
ATOM     12  C   UNL     1       1.133   1.757  -2.342  1.00  0.00     0.087 A 
ATOM     13  C   UNL     1       1.817   0.310  -3.891  1.00  0.00     0.087 A 
ATOM     14  C   UNL     1       1.586   2.491  -3.415  1.00  0.00     0.019 A 
ATOM     15  C   UNL     1       2.023   1.575  -4.394  1.00  0.00     0.019 A 
ENDBRANCH   8  11
ENDBRANCH   6   8
ENDBRANCH   5   6
ENDBRANCH   4   5
ENDBRANCH   3   4
ENDBRANCH   2   3
ENDBRANCH   1   2
BRANCH   1  16
ATOM     16  C   UNL     1      -2.210   2.343   0.669  1.00  0.00     0.261 C 
BRANCH  16  17
ATOM     17  O   UNL     1      -2.407   1.274   1.612  1.00  0.00    -0.460 OA
BRANCH  17  18
ATOM     18  C   UNL     1      -3.561   1.363   2.312  1.00  0.00     0.338 C 
ATOM     19  O   UNL     1      -4.358   2.295   2.313  1.00  0.00    -0.246 OA
BRANCH  18  20
ATOM     20  C   UNL     1      -3.864   0.096   2.999  1.00  0.00     0.060 A 
ATOM     21  C   UNL     1      -5.151  -0.427   2.818  1.00  0.00     0.016 A 
ATOM     22  C   UNL     1      -2.974  -0.504   3.894  1.00  0.00     0.016 A 
ATOM     23  C   UNL     1      -5.587  -1.491   3.598  1.00  0.00     0.010 A 
ATOM     24  C   UNL     1      -3.416  -1.575   4.682  1.00  0.00     0.010 A 
ATOM     25  C   UNL     1      -4.744  -2.029   4.580  1.00  0.00    -0.014 A 
BRANCH  25  26
ATOM     26  C   UNL     1      -5.351  -2.892   5.623  1.00  0.00     0.031 A 
ATOM     27  C   UNL     1      -5.766  -2.260   6.926  1.00  0.00     0.074 A 
ATOM     28  C   UNL     1      -5.630  -4.184   5.381  1.00  0.00     0.049 A 
ATOM     29  N   UNL     1      -6.409  -2.784   7.940  1.00  0.00    -0.248 NA
ATOM     30  C   UNL     1      -5.413  -0.843   7.109  1.00  0.00     0.031 C 
ATOM     31  C   UNL     1      -5.314  -4.899   4.148  1.00  0.00     0.029 A 
ATOM     32  N   UNL     1      -6.263  -5.119   6.162  1.00  0.00    -0.354 N 
ATOM     33  C   UNL     1      -6.537  -1.764   8.874  1.00  0.00     0.074 A 
ATOM     34  C   UNL     1      -5.874  -0.601   8.327  1.00  0.00     0.031 C 
ATOM     35  C   UNL     1      -5.765  -6.162   4.250  1.00  0.00     0.029 A 
ATOM     36  C   UNL     1      -6.389  -6.345   5.559  1.00  0.00     0.049 A 
ATOM     37  H   UNL     1      -6.596  -4.927   7.069  1.00  0.00     0.167 HD
ATOM     38  C   UNL     1      -7.165  -1.787  10.073  1.00  0.00     0.037 A 
ATOM     39  C   UNL     1      -6.949  -7.483   6.015  1.00  0.00     0.037 A 
ATOM     40  C   UNL     1      -7.835  -2.938  10.615  1.00  0.00     0.049 A 
ATOM     41  C   UNL     1      -7.606  -7.494   7.371  1.00  0.00     0.074 A 
ATOM     42  C   UNL     1      -8.513  -3.058  11.816  1.00  0.00     0.029 A 
ATOM     43  N   UNL     1      -7.909  -4.172   9.988  1.00  0.00    -0.354 N 
ATOM     44  N   UNL     1      -7.752  -6.515   8.231  1.00  0.00    -0.248 NA
ATOM     45  C   UNL     1      -8.189  -8.769   7.813  1.00  0.00     0.031 C 
ATOM     46  C   UNL     1      -8.962  -4.378  11.934  1.00  0.00     0.029 A 
ATOM     47  C   UNL     1      -8.605  -5.066  10.785  1.00  0.00     0.049 A 
ATOM     48  H   UNL     1      -7.524  -4.382   9.106  1.00  0.00     0.167 HD
ATOM     49  C   UNL     1      -8.473  -7.043   9.294  1.00  0.00     0.074 A 
ATOM     50  C   UNL     1      -8.741  -8.428   8.969  1.00  0.00     0.031 C 
ATOM     51  C   UNL     1      -8.879  -6.436  10.437  1.00  0.00     0.037 A 
BRANCH  38  52
ATOM     52  C   UNL     1      -7.135  -0.530  10.891  1.00  0.00     0.064 A 
ATOM     53  C   UNL     1      -7.894   0.597  10.541  1.00  0.00     0.173 A 
ATOM     54  C   UNL     1      -6.352  -0.459  12.053  1.00  0.00     0.173 A 
ATOM     55  F   UNL     1      -8.646   0.585   9.430  1.00  0.00    -0.203 F 
ATOM     56  C   UNL     1      -7.851   1.757  11.310  1.00  0.00     0.198 A 
ATOM     57  C   UNL     1      -6.331   0.693  12.834  1.00  0.00     0.198 A 
ATOM     58  F   UNL     1      -5.608  -1.509  12.432  1.00  0.00    -0.203 F 
ATOM     59  F   UNL     1      -8.549   2.837  10.931  1.00  0.00    -0.200 F 
ATOM     60  C   UNL     1      -7.075   1.802  12.459  1.00  0.00     0.200 A 
ATOM     61  F   UNL     1      -5.588   0.733  13.948  1.00  0.00    -0.200 F 
ATOM     62  F   UNL     1      -7.037   2.918  13.200  1.00  0.00    -0.200 F 
ENDBRANCH  38  52
BRANCH  39  63
ATOM     63  C   UNL     1      -6.935  -8.706   5.172  1.00  0.00     0.064 A 
ATOM     64  C   UNL     1      -8.116  -9.217   4.616  1.00  0.00     0.173 A 
ATOM     65  C   UNL     1      -5.742  -9.402   4.926  1.00  0.00     0.173 A 
ATOM     66  F   UNL     1      -9.285  -8.601   4.845  1.00  0.00    -0.203 F 
ATOM     67  C   UNL     1      -8.107 -10.389   3.861  1.00  0.00     0.198 A 
ATOM     68  C   UNL     1      -5.731 -10.559   4.149  1.00  0.00     0.198 A 
ATOM     69  F   UNL     1      -4.586  -8.955   5.438  1.00  0.00    -0.203 F 
ATOM     70  F   UNL     1      -9.257 -10.881   3.380  1.00  0.00    -0.200 F 
ATOM     71  C   UNL     1      -6.915 -11.056   3.624  1.00  0.00     0.200 A 
ATOM     72  F   UNL     1      -4.575 -11.195   3.915  1.00  0.00    -0.200 F 
ATOM     73  F   UNL     1      -6.907 -12.182   2.898  1.00  0.00    -0.200 F 
ENDBRANCH  39  63
BRANCH  51  74
ATOM     74  C   UNL     1      -9.697  -7.250  11.396  1.00  0.00     0.064 A 
ATOM     75  C   UNL     1      -9.129  -8.274  12.168  1.00  0.00     0.173 A 
ATOM     76  C   UNL     1     -11.063  -6.977  11.569  1.00  0.00     0.173 A 
ATOM     77  F   UNL     1      -7.830  -8.581  12.030  1.00  0.00    -0.203 F 
ATOM     78  C   UNL     1      -9.905  -9.015  13.055  1.00  0.00     0.198 A 
ATOM     79  C   UNL     1     -11.829  -7.702  12.478  1.00  0.00     0.198 A 
ATOM     80  F   UNL     1     -11.653  -6.002  10.861  1.00  0.00    -0.203 F 
ATOM     81  F   UNL     1      -9.352 -10.022  13.746  1.00  0.00    -0.200 F 
ATOM     82  C   UNL     1     -11.252  -8.725  13.213  1.00  0.00     0.200 A 
ATOM     83  F   UNL     1     -13.128  -7.411  12.639  1.00  0.00    -0.200 F 
ATOM     84  F   UNL     1     -11.996  -9.438  14.070  1.00  0.00    -0.200 F 
ENDBRANCH  51  74
ENDBRANCH  25  26
ENDBRANCH  18  20
ENDBRANCH  17  18
ENDBRANCH  16  17
ENDBRANCH   1  16
TORSDOF 15
