REMARK SMILES CCC(C)(C)c1cccc(C(=O)OCCOCCOC(=O)c2ccc(-c3c4nc(c(-c5c(F)c(F)c(F)c(F)c5F)c5ccc([nH]5)c(-c5c(F)c(F)c(F)c(F)c5F)c5nc(c(-c6c(F)c(F)c(F)c(F)c6F)c6ccc3[nH]6)C=C5)C=C4)cc2)c1
REMARK SMILES IDX 16 1 15 2 14 3 13 4 11 5 12 6 10 7 6 8 7 9 85 10 8 11 9 12
REMARK SMILES IDX 3 13 4 14 5 15 2 16 1 17 17 18 18 19 19 20 20 21 21 22 22 23
REMARK SMILES IDX 23 24 84 25 24 26 83 27 25 28 26 29 27 30 77 31 28 32 82 33
REMARK SMILES IDX 76 34 78 35 29 36 81 37 75 38 74 39 30 41 62 42 42 43 61 44
REMARK SMILES IDX 43 45 46 46 60 47 79 48 44 49 45 50 59 52 80 53 47 54 31 55
REMARK SMILES IDX 32 56 40 57 33 58 34 59 38 60 41 61 35 62 36 63 39 64 37 65
REMARK SMILES IDX 63 66 64 67 72 68 65 69 66 70 70 71 73 72 67 73 68 74 71 75
REMARK SMILES IDX 69 76 48 77 49 78 57 79 50 80 51 81 55 82 58 83 52 84 53 85
REMARK SMILES IDX 56 86 54 87
REMARK H PARENT 78 40 46 51
REMARK Flexibility Score: inf
ROOT
ATOM      1  O   UNL     1       6.936   3.802   4.199  1.00  0.00    -0.374 OA
ENDROOT
BRANCH   1   2
ATOM      2  C   UNL     1       6.173   4.765   3.471  1.00  0.00     0.202 C 
BRANCH   2   3
ATOM      3  C   UNL     1       5.859   4.409   2.014  1.00  0.00     0.261 C 
BRANCH   3   4
ATOM      4  O   UNL     1       4.969   3.282   1.950  1.00  0.00    -0.460 OA
BRANCH   4   5
ATOM      5  C   UNL     1       5.502   2.154   1.422  1.00  0.00     0.338 C 
ATOM      6  O   UNL     1       6.572   2.055   0.839  1.00  0.00    -0.246 OA
BRANCH   5   7
ATOM      7  C   UNL     1       4.682   0.981   1.810  1.00  0.00     0.060 A 
ATOM      8  C   UNL     1       2.543  -0.092   2.328  1.00  0.00    -0.042 A 
ATOM      9  C   UNL     1       3.257  -1.287   2.554  1.00  0.00     0.004 A 
ATOM     10  C   UNL     1       3.288   1.049   1.967  1.00  0.00     0.020 A 
ATOM     11  C   UNL     1       4.647  -1.348   2.430  1.00  0.00     0.001 A 
ATOM     12  C   UNL     1       5.358  -0.219   2.048  1.00  0.00     0.016 A 
BRANCH   8  13
ATOM     13  C   UNL     1       1.001  -0.090   2.373  1.00  0.00    -0.011 C 
ATOM     14  C   UNL     1       0.385   1.324   2.497  1.00  0.00     0.016 C 
ATOM     15  C   UNL     1       0.486  -0.875   3.610  1.00  0.00     0.016 C 
BRANCH  13  16
ATOM     16  C   UNL     1       0.452  -0.797   1.097  1.00  0.00     0.008 C 
ATOM     17  C   UNL     1       0.854  -0.163  -0.233  1.00  0.00     0.005 C 
ENDBRANCH  13  16
ENDBRANCH   8  13
ENDBRANCH   5   7
ENDBRANCH   4   5
ENDBRANCH   3   4
ENDBRANCH   2   3
ENDBRANCH   1   2
BRANCH   1  18
ATOM     18  C   UNL     1       6.225   2.686   4.739  1.00  0.00     0.202 C 
BRANCH  18  19
ATOM     19  C   UNL     1       5.497   2.926   6.066  1.00  0.00     0.261 C 
BRANCH  19  20
ATOM     20  O   UNL     1       4.408   3.855   5.921  1.00  0.00    -0.460 OA
BRANCH  20  21
ATOM     21  C   UNL     1       4.629   5.077   6.457  1.00  0.00     0.338 C 
ATOM     22  O   UNL     1       5.597   5.439   7.111  1.00  0.00    -0.246 OA
BRANCH  21  23
ATOM     23  C   UNL     1       3.592   6.020   6.000  1.00  0.00     0.060 A 
ATOM     24  C   UNL     1       4.021   7.229   5.439  1.00  0.00     0.016 A 
ATOM     25  C   UNL     1       2.231   5.761   6.178  1.00  0.00     0.016 A 
ATOM     26  C   UNL     1       3.091   8.209   5.100  1.00  0.00     0.010 A 
ATOM     27  C   UNL     1       1.300   6.750   5.844  1.00  0.00     0.010 A 
ATOM     28  C   UNL     1       1.728   7.990   5.337  1.00  0.00    -0.014 A 
BRANCH  28  29
ATOM     29  C   UNL     1       0.768   9.111   5.186  1.00  0.00     0.031 A 
ATOM     30  C   UNL     1       0.302   9.844   6.413  1.00  0.00     0.074 A 
ATOM     31  C   UNL     1       0.338   9.487   3.970  1.00  0.00     0.049 A 
ATOM     32  N   UNL     1      -0.559  10.825   6.520  1.00  0.00    -0.248 NA
ATOM     33  C   UNL     1       0.883   9.410   7.693  1.00  0.00     0.031 C 
ATOM     34  C   UNL     1       0.746   8.879   2.706  1.00  0.00     0.029 A 
ATOM     35  N   UNL     1      -0.547  10.470   3.602  1.00  0.00    -0.354 N 
ATOM     36  C   UNL     1      -0.627  11.120   7.875  1.00  0.00     0.074 A 
ATOM     37  C   UNL     1       0.252  10.193   8.556  1.00  0.00     0.031 C 
ATOM     38  C   UNL     1       0.103   9.495   1.699  1.00  0.00     0.029 A 
ATOM     39  C   UNL     1      -0.784  10.517   2.251  1.00  0.00     0.049 A 
ATOM     40  H   UNL     1      -0.972  11.082   4.246  1.00  0.00     0.167 HD
ATOM     41  C   UNL     1      -1.350  12.083   8.494  1.00  0.00     0.037 A 
ATOM     42  C   UNL     1      -1.639  11.283   1.546  1.00  0.00     0.037 A 
ATOM     43  C   UNL     1      -2.223  13.004   7.814  1.00  0.00     0.049 A 
ATOM     44  C   UNL     1      -2.485  12.302   2.265  1.00  0.00     0.074 A 
ATOM     45  C   UNL     1      -2.983  14.029   8.349  1.00  0.00     0.029 A 
ATOM     46  N   UNL     1      -2.460  13.003   6.447  1.00  0.00    -0.354 N 
ATOM     47  N   UNL     1      -2.525  12.593   3.542  1.00  0.00    -0.248 NA
ATOM     48  C   UNL     1      -3.402  13.101   1.440  1.00  0.00     0.031 C 
ATOM     49  C   UNL     1      -3.721  14.613   7.314  1.00  0.00     0.029 A 
ATOM     50  C   UNL     1      -3.376  13.991   6.124  1.00  0.00     0.049 A 
ATOM     51  H   UNL     1      -2.039  12.390   5.801  1.00  0.00     0.167 HD
ATOM     52  C   UNL     1      -3.445  13.626   3.672  1.00  0.00     0.074 A 
ATOM     53  C   UNL     1      -3.932  13.918   2.340  1.00  0.00     0.031 C 
ATOM     54  C   UNL     1      -3.848  14.275   4.792  1.00  0.00     0.037 A 
BRANCH  41  55
ATOM     55  C   UNL     1      -1.247  12.172   9.990  1.00  0.00     0.064 A 
ATOM     56  C   UNL     1      -0.080  12.624  10.625  1.00  0.00     0.173 A 
ATOM     57  C   UNL     1      -2.340  11.825  10.798  1.00  0.00     0.173 A 
ATOM     58  F   UNL     1       0.999  12.956   9.899  1.00  0.00    -0.203 F 
ATOM     59  C   UNL     1      -0.002  12.697  12.014  1.00  0.00     0.198 A 
ATOM     60  C   UNL     1      -2.269  11.928  12.185  1.00  0.00     0.198 A 
ATOM     61  F   UNL     1      -3.481  11.391  10.242  1.00  0.00    -0.203 F 
ATOM     62  F   UNL     1       1.140  13.082  12.600  1.00  0.00    -0.200 F 
ATOM     63  C   UNL     1      -1.097  12.355  12.792  1.00  0.00     0.200 A 
ATOM     64  F   UNL     1      -3.333  11.610  12.934  1.00  0.00    -0.200 F 
ATOM     65  F   UNL     1      -1.022  12.430  14.128  1.00  0.00    -0.200 F 
ENDBRANCH  41  55
BRANCH  42  66
ATOM     66  C   UNL     1      -1.744  11.109   0.074  1.00  0.00     0.064 A 
ATOM     67  C   UNL     1      -1.302  12.105  -0.807  1.00  0.00     0.173 A 
ATOM     68  C   UNL     1      -2.297   9.945  -0.482  1.00  0.00     0.173 A 
ATOM     69  F   UNL     1      -0.788  13.246  -0.324  1.00  0.00    -0.203 F 
ATOM     70  C   UNL     1      -1.423  11.951  -2.187  1.00  0.00     0.198 A 
ATOM     71  C   UNL     1      -2.392   9.781  -1.862  1.00  0.00     0.198 A 
ATOM     72  F   UNL     1      -2.737   8.963   0.318  1.00  0.00    -0.203 F 
ATOM     73  F   UNL     1      -1.033  12.938  -3.005  1.00  0.00    -0.200 F 
ATOM     74  C   UNL     1      -1.962  10.787  -2.713  1.00  0.00     0.200 A 
ATOM     75  F   UNL     1      -2.901   8.649  -2.366  1.00  0.00    -0.200 F 
ATOM     76  F   UNL     1      -2.073  10.637  -4.040  1.00  0.00    -0.200 F 
ENDBRANCH  42  66
BRANCH  54  77
ATOM     77  C   UNL     1      -4.838  15.393   4.626  1.00  0.00     0.064 A 
ATOM     78  C   UNL     1      -6.179  15.149   4.296  1.00  0.00     0.173 A 
ATOM     79  C   UNL     1      -4.447  16.724   4.842  1.00  0.00     0.173 A 
ATOM     80  F   UNL     1      -6.600  13.896   4.065  1.00  0.00    -0.203 F 
ATOM     81  C   UNL     1      -7.085  16.198   4.163  1.00  0.00     0.198 A 
ATOM     82  C   UNL     1      -5.363  17.767   4.739  1.00  0.00     0.198 A 
ATOM     83  F   UNL     1      -3.177  17.011   5.167  1.00  0.00    -0.203 F 
ATOM     84  F   UNL     1      -8.351  15.945   3.801  1.00  0.00    -0.200 F 
ATOM     85  C   UNL     1      -6.679  17.504   4.393  1.00  0.00     0.200 A 
ATOM     86  F   UNL     1      -4.971  19.026   4.976  1.00  0.00    -0.200 F 
ATOM     87  F   UNL     1      -7.555  18.511   4.273  1.00  0.00    -0.200 F 
ENDBRANCH  54  77
ENDBRANCH  28  29
ENDBRANCH  21  23
ENDBRANCH  20  21
ENDBRANCH  19  20
ENDBRANCH  18  19
ENDBRANCH   1  18
TORSDOF 16
