REMARK SMILES CCCC[C@@H](C(=O)OCCOCCOC(=O)c1ccc(-c2c3nc(c(-c4c(F)c(F)c(F)c(F)c4F)c4ccc([nH]4)c(-c4c(F)c(F)c(F)c(F)c4F)c4nc(c(-c5c(F)c(F)c(F)c(F)c5F)c5ccc2[nH]5)C=C4)C=C3)cc1)[C@@H](O)c1cccc(C(F)(F)F)c1
REMARK SMILES IDX 10 1 9 2 8 3 6 4 7 5 5 6 4 7 3 8 2 9 1 10 80 11 81 12 82 14
REMARK SMILES IDX 83 15 91 16 84 17 86 18 85 19 87 20 88 21 89 22 90 23 11 24
REMARK SMILES IDX 12 25 13 26 14 27 15 28 16 29 17 30 18 31 79 32 19 33 78 34
REMARK SMILES IDX 20 35 21 36 22 37 72 38 23 39 77 40 71 41 73 42 24 43 76 44
REMARK SMILES IDX 70 45 69 46 25 48 57 49 37 50 56 51 38 52 41 53 55 54 74 55
REMARK SMILES IDX 39 56 40 57 54 59 75 60 42 61 26 62 27 63 35 64 28 65 29 66
REMARK SMILES IDX 33 67 36 68 30 69 31 70 34 71 32 72 58 73 59 74 67 75 60 76
REMARK SMILES IDX 61 77 65 78 68 79 62 80 63 81 66 82 64 83 43 84 44 85 52 86
REMARK SMILES IDX 45 87 46 88 50 89 53 90 47 91 48 92 51 93 49 94
REMARK H PARENT 81 13 73 47 41 58
REMARK Flexibility Score: inf
ROOT
ATOM      1  C   UNL     1      -1.951   6.183   0.415  1.00  0.00     0.202 C 
ENDROOT
BRANCH   1   2
ATOM      2  C   UNL     1      -2.404   4.741   0.655  1.00  0.00     0.261 C 
BRANCH   2   3
ATOM      3  O   UNL     1      -1.513   3.842  -0.015  1.00  0.00    -0.463 OA
BRANCH   3   4
ATOM      4  C   UNL     1      -2.023   2.620  -0.301  1.00  0.00     0.312 C 
ATOM      5  O   UNL     1      -3.054   2.174   0.186  1.00  0.00    -0.252 OA
BRANCH   4   6
ATOM      6  C   UNL     1      -1.196   1.899  -1.357  1.00  0.00     0.132 C 
BRANCH   6   7
ATOM      7  C   UNL     1       0.327   2.161  -1.269  1.00  0.00     0.018 C 
BRANCH   7   8
ATOM      8  C   UNL     1       0.976   2.057   0.117  1.00  0.00     0.001 C 
BRANCH   8   9
ATOM      9  C   UNL     1       0.628   0.807   0.921  1.00  0.00    -0.003 C 
ATOM     10  C   UNL     1       1.051  -0.481   0.236  1.00  0.00     0.004 C 
ENDBRANCH   8   9
ENDBRANCH   7   8
ENDBRANCH   6   7
BRANCH   6  11
ATOM     11  C   UNL     1      -1.704   2.243  -2.780  1.00  0.00     0.158 C 
BRANCH  11  12
ATOM     12  O   UNL     1      -1.178   1.294  -3.717  1.00  0.00    -0.388 OA
ATOM     13  H   UNL     1      -1.515   0.409  -3.505  1.00  0.00     0.211 HD
ENDBRANCH  11  12
BRANCH  11  14
ATOM     14  C   UNL     1      -3.209   2.232  -2.935  1.00  0.00    -0.018 A 
ATOM     15  C   UNL     1      -3.914   3.434  -3.102  1.00  0.00     0.006 A 
ATOM     16  C   UNL     1      -3.930   1.032  -2.839  1.00  0.00     0.019 A 
ATOM     17  C   UNL     1      -5.308   3.438  -3.144  1.00  0.00     0.001 A 
ATOM     18  C   UNL     1      -5.332   1.026  -2.869  1.00  0.00     0.056 A 
ATOM     19  C   UNL     1      -6.014   2.243  -3.019  1.00  0.00     0.013 A 
BRANCH  18  20
ATOM     20  C   UNL     1      -6.103  -0.258  -2.695  1.00  0.00     0.416 C 
ATOM     21  F   UNL     1      -6.770  -0.307  -1.509  1.00  0.00    -0.166 F 
ATOM     22  F   UNL     1      -7.049  -0.437  -3.660  1.00  0.00    -0.166 F 
ATOM     23  F   UNL     1      -5.324  -1.376  -2.730  1.00  0.00    -0.166 F 
ENDBRANCH  18  20
ENDBRANCH  11  14
ENDBRANCH   6  11
ENDBRANCH   4   6
ENDBRANCH   3   4
ENDBRANCH   2   3
ENDBRANCH   1   2
BRANCH   1  24
ATOM     24  O   UNL     1      -1.871   6.600  -0.950  1.00  0.00    -0.374 OA
BRANCH  24  25
ATOM     25  C   UNL     1      -0.854   6.025  -1.770  1.00  0.00     0.202 C 
BRANCH  25  26
ATOM     26  C   UNL     1       0.597   6.448  -1.505  1.00  0.00     0.261 C 
BRANCH  26  27
ATOM     27  O   UNL     1       1.058   6.099  -0.188  1.00  0.00    -0.460 OA
BRANCH  27  28
ATOM     28  C   UNL     1       1.371   7.159   0.594  1.00  0.00     0.338 C 
ATOM     29  O   UNL     1       1.364   8.343   0.276  1.00  0.00    -0.246 OA
BRANCH  28  30
ATOM     30  C   UNL     1       1.582   6.739   1.988  1.00  0.00     0.060 A 
ATOM     31  C   UNL     1       0.779   7.338   2.968  1.00  0.00     0.016 A 
ATOM     32  C   UNL     1       2.619   5.877   2.349  1.00  0.00     0.016 A 
ATOM     33  C   UNL     1       1.043   7.117   4.317  1.00  0.00     0.010 A 
ATOM     34  C   UNL     1       2.888   5.664   3.707  1.00  0.00     0.010 A 
ATOM     35  C   UNL     1       2.126   6.314   4.695  1.00  0.00    -0.014 A 
BRANCH  35  36
ATOM     36  C   UNL     1       2.543   6.285   6.119  1.00  0.00     0.031 A 
ATOM     37  C   UNL     1       3.684   7.159   6.565  1.00  0.00     0.074 A 
ATOM     38  C   UNL     1       1.884   5.529   7.014  1.00  0.00     0.049 A 
ATOM     39  N   UNL     1       4.220   7.286   7.752  1.00  0.00    -0.248 NA
ATOM     40  C   UNL     1       4.304   8.003   5.532  1.00  0.00     0.031 C 
ATOM     41  C   UNL     1       0.737   4.675   6.713  1.00  0.00     0.029 A 
ATOM     42  N   UNL     1       2.089   5.359   8.360  1.00  0.00    -0.354 N 
ATOM     43  C   UNL     1       5.240   8.217   7.608  1.00  0.00     0.074 A 
ATOM     44  C   UNL     1       5.269   8.603   6.214  1.00  0.00     0.031 C 
ATOM     45  C   UNL     1       0.345   4.060   7.842  1.00  0.00     0.029 A 
ATOM     46  C   UNL     1       1.231   4.455   8.936  1.00  0.00     0.049 A 
ATOM     47  H   UNL     1       2.785   5.838   8.864  1.00  0.00     0.167 HD
ATOM     48  C   UNL     1       6.072   8.712   8.556  1.00  0.00     0.037 A 
ATOM     49  C   UNL     1       1.181   3.987  10.198  1.00  0.00     0.037 A 
ATOM     50  C   UNL     1       6.038   8.334   9.944  1.00  0.00     0.049 A 
ATOM     51  C   UNL     1       2.160   4.506  11.220  1.00  0.00     0.074 A 
ATOM     52  C   UNL     1       6.822   8.800  10.985  1.00  0.00     0.029 A 
ATOM     53  N   UNL     1       5.176   7.391  10.484  1.00  0.00    -0.354 N 
ATOM     54  N   UNL     1       3.102   5.407  11.082  1.00  0.00    -0.248 NA
ATOM     55  C   UNL     1       2.064   3.945  12.575  1.00  0.00     0.031 C 
ATOM     56  C   UNL     1       6.469   8.101  12.145  1.00  0.00     0.029 A 
ATOM     57  C   UNL     1       5.428   7.240  11.838  1.00  0.00     0.049 A 
ATOM     58  H   UNL     1       4.486   6.902   9.979  1.00  0.00     0.167 HD
ATOM     59  C   UNL     1       3.691   5.541  12.333  1.00  0.00     0.074 A 
ATOM     60  C   UNL     1       2.992   4.638  13.222  1.00  0.00     0.031 C 
ATOM     61  C   UNL     1       4.719   6.341  12.712  1.00  0.00     0.037 A 
BRANCH  48  62
ATOM     62  C   UNL     1       7.112   9.702   8.119  1.00  0.00     0.064 A 
ATOM     63  C   UNL     1       6.776  11.015   7.755  1.00  0.00     0.173 A 
ATOM     64  C   UNL     1       8.468   9.343   8.101  1.00  0.00     0.173 A 
ATOM     65  F   UNL     1       5.492  11.404   7.742  1.00  0.00    -0.203 F 
ATOM     66  C   UNL     1       7.758  11.924   7.368  1.00  0.00     0.198 A 
ATOM     67  C   UNL     1       9.449  10.262   7.741  1.00  0.00     0.198 A 
ATOM     68  F   UNL     1       8.843   8.101   8.444  1.00  0.00    -0.203 F 
ATOM     69  F   UNL     1       7.410  13.160   6.984  1.00  0.00    -0.200 F 
ATOM     70  C   UNL     1       9.093  11.549   7.368  1.00  0.00     0.200 A 
ATOM     71  F   UNL     1      10.740   9.902   7.753  1.00  0.00    -0.200 F 
ATOM     72  F   UNL     1      10.037  12.428   7.003  1.00  0.00    -0.200 F 
ENDBRANCH  48  62
BRANCH  49  73
ATOM     73  C   UNL     1       0.177   2.955  10.567  1.00  0.00     0.064 A 
ATOM     74  C   UNL     1      -0.878   3.248  11.441  1.00  0.00     0.173 A 
ATOM     75  C   UNL     1       0.267   1.647  10.066  1.00  0.00     0.173 A 
ATOM     76  F   UNL     1      -0.990   4.476  11.967  1.00  0.00    -0.203 F 
ATOM     77  C   UNL     1      -1.796   2.267  11.815  1.00  0.00     0.198 A 
ATOM     78  C   UNL     1      -0.667   0.676  10.418  1.00  0.00     0.198 A 
ATOM     79  F   UNL     1       1.260   1.315   9.229  1.00  0.00    -0.203 F 
ATOM     80  F   UNL     1      -2.767   2.561  12.690  1.00  0.00    -0.200 F 
ATOM     81  C   UNL     1      -1.693   0.984  11.298  1.00  0.00     0.200 A 
ATOM     82  F   UNL     1      -0.570  -0.560   9.909  1.00  0.00    -0.200 F 
ATOM     83  F   UNL     1      -2.576   0.043  11.657  1.00  0.00    -0.200 F 
ENDBRANCH  49  73
BRANCH  61  84
ATOM     84  C   UNL     1       5.128   6.303  14.156  1.00  0.00     0.064 A 
ATOM     85  C   UNL     1       5.808   5.204  14.701  1.00  0.00     0.173 A 
ATOM     86  C   UNL     1       4.876   7.401  14.994  1.00  0.00     0.173 A 
ATOM     87  F   UNL     1       6.061   4.125  13.945  1.00  0.00    -0.203 F 
ATOM     88  C   UNL     1       6.198   5.195  16.038  1.00  0.00     0.198 A 
ATOM     89  C   UNL     1       5.294   7.401  16.322  1.00  0.00     0.198 A 
ATOM     90  F   UNL     1       4.236   8.480  14.520  1.00  0.00    -0.203 F 
ATOM     91  F   UNL     1       6.806   4.116  16.549  1.00  0.00    -0.200 F 
ATOM     92  C   UNL     1       5.948   6.296  16.845  1.00  0.00     0.200 A 
ATOM     93  F   UNL     1       5.064   8.470  17.095  1.00  0.00    -0.200 F 
ATOM     94  F   UNL     1       6.332   6.288  18.128  1.00  0.00    -0.200 F 
ENDBRANCH  61  84
ENDBRANCH  35  36
ENDBRANCH  28  30
ENDBRANCH  27  28
ENDBRANCH  26  27
ENDBRANCH  25  26
ENDBRANCH  24  25
ENDBRANCH   1  24
TORSDOF 21
