REMARK SMILES CCc1cccc(CC)c1N1/C(=[NH+]/C(=O)CCC(=O)OCCOCCOC(=O)c2ccc(-c3c4nc(c(-c5c(F)c(F)c(F)c(F)c5F)c5ccc([nH]5)c(-c5c(F)c(F)c(F)c(F)c5F)c5nc(c(-c6c(F)c(F)c(F)c(F)c6F)c6ccc3[nH]6)C=C5)C=C4)cc2)S[C@@H]2CS(=O)(=O)C[C@H]21
REMARK SMILES IDX 22 1 21 2 20 3 18 4 19 5 17 6 16 7 14 8 11 9 12 10 99 11
REMARK SMILES IDX 13 12 92 13 93 14 98 15 94 17 95 18 15 19 96 20 97 21 10 22
REMARK SMILES IDX 3 23 4 24 5 25 7 26 6 27 2 28 1 29 8 30 9 31 23 32 24 33
REMARK SMILES IDX 25 34 26 35 27 36 28 37 29 38 30 39 91 40 31 41 90 42 32 43
REMARK SMILES IDX 33 44 34 45 84 46 35 47 89 48 83 49 85 50 36 51 88 52 82 53
REMARK SMILES IDX 81 54 37 56 69 57 49 58 68 59 50 60 53 61 67 62 86 63 51 64
REMARK SMILES IDX 52 65 66 67 87 68 54 69 38 70 39 71 47 72 40 73 41 74 45 75
REMARK SMILES IDX 48 76 42 77 43 78 46 79 44 80 70 81 71 82 79 83 72 84 73 85
REMARK SMILES IDX 77 86 80 87 74 88 75 89 78 90 76 91 55 92 56 93 64 94 57 95
REMARK SMILES IDX 58 96 62 97 65 98 59 99 60 100 63 101 61 102
REMARK H PARENT 13 16 85 55 53 66
REMARK Flexibility Score: inf
ROOT
ATOM      1  C   UNL     1      -0.734  -1.206   3.879  1.00  0.00     0.202 C 
ENDROOT
BRANCH   1   2
ATOM      2  C   UNL     1      -0.590  -2.544   3.127  1.00  0.00     0.261 C 
BRANCH   2   3
ATOM      3  O   UNL     1      -1.003  -2.421   1.756  1.00  0.00    -0.463 OA
BRANCH   3   4
ATOM      4  C   UNL     1      -2.026  -3.198   1.334  1.00  0.00     0.306 C 
ATOM      5  O   UNL     1      -2.595  -4.054   1.996  1.00  0.00    -0.252 OA
BRANCH   4   6
ATOM      6  C   UNL     1      -2.436  -2.811  -0.062  1.00  0.00     0.135 C 
BRANCH   6   7
ATOM      7  C   UNL     1      -3.511  -1.748   0.007  1.00  0.00     0.139 C 
BRANCH   7   8
ATOM      8  C   UNL     1      -3.042  -0.320  -0.188  1.00  0.00     0.308 C 
ATOM      9  N   UNL     1       0.066   1.661   0.492  1.00  0.00    -0.216 N 
ATOM     10  C   UNL     1      -1.101   0.967  -0.051  1.00  0.00     0.319 C 
ATOM     11  C   UNL     1       0.733   2.263  -0.796  1.00  0.00     0.212 C 
ATOM     12  N   UNL     1      -1.852   0.041   0.431  1.00  0.00    -0.204 N 
ATOM     13  S   UNL     1      -1.436   1.446  -1.782  1.00  0.00    -0.029 SA
ATOM     14  C   UNL     1      -0.406   2.858  -1.656  1.00  0.00     0.120 C 
ATOM     15  C   UNL     1       1.731   3.360  -0.887  1.00  0.00     0.188 C 
ATOM     16  H   UNL     1      -1.579  -0.421   1.256  1.00  0.00     0.316 HD
ATOM     17  C   UNL     1       0.107   3.379  -2.986  1.00  0.00     0.156 C 
ATOM     18  S   UNL     1       1.740   3.932  -2.588  1.00  0.00     0.155 S 
ATOM     19  O   UNL     1      -3.845   0.477  -0.676  1.00  0.00    -0.247 OA
ATOM     20  O   UNL     1       1.738   5.372  -2.623  1.00  0.00    -0.229 OA
ATOM     21  O   UNL     1       2.704   3.128  -3.323  1.00  0.00    -0.229 OA
BRANCH   9  22
ATOM     22  C   UNL     1       0.828   1.196   1.730  1.00  0.00     0.134 A 
ATOM     23  C   UNL     1       1.675   0.061   1.536  1.00  0.00    -0.001 A 
ATOM     24  C   UNL     1       2.587  -0.364   2.553  1.00  0.00     0.008 A 
ATOM     25  C   UNL     1       2.606   0.134   3.841  1.00  0.00     0.001 A 
ATOM     26  C   UNL     1       0.844   1.745   3.235  1.00  0.00    -0.001 A 
ATOM     27  C   UNL     1       1.723   1.118   4.181  1.00  0.00     0.008 A 
BRANCH  23  28
ATOM     28  C   UNL     1       1.536  -0.957   0.423  1.00  0.00     0.036 C 
ATOM     29  C   UNL     1       2.254  -0.702  -0.878  1.00  0.00     0.009 C 
ENDBRANCH  23  28
BRANCH  26  30
ATOM     30  C   UNL     1       0.371   3.039   4.196  1.00  0.00     0.036 C 
ATOM     31  C   UNL     1      -0.627   4.220   4.425  1.00  0.00     0.009 C 
ENDBRANCH  26  30
ENDBRANCH   9  22
ENDBRANCH   7   8
ENDBRANCH   6   7
ENDBRANCH   4   6
ENDBRANCH   3   4
ENDBRANCH   2   3
ENDBRANCH   1   2
BRANCH   1  32
ATOM     32  O   UNL     1      -2.028  -0.722   4.262  1.00  0.00    -0.374 OA
BRANCH  32  33
ATOM     33  C   UNL     1      -2.770  -0.099   3.203  1.00  0.00     0.202 C 
BRANCH  33  34
ATOM     34  C   UNL     1      -2.884   1.480   3.138  1.00  0.00     0.261 C 
BRANCH  34  35
ATOM     35  O   UNL     1      -1.866   2.288   2.418  1.00  0.00    -0.460 OA
BRANCH  35  36
ATOM     36  C   UNL     1      -2.203   3.567   1.974  1.00  0.00     0.338 C 
ATOM     37  O   UNL     1      -3.328   4.035   2.088  1.00  0.00    -0.246 OA
BRANCH  36  38
ATOM     38  C   UNL     1      -1.059   4.487   1.457  1.00  0.00     0.060 A 
ATOM     39  C   UNL     1       0.272   4.219   1.724  1.00  0.00     0.016 A 
ATOM     40  C   UNL     1      -1.210   5.736   0.887  1.00  0.00     0.016 A 
ATOM     41  C   UNL     1       1.405   5.002   1.647  1.00  0.00     0.010 A 
ATOM     42  C   UNL     1      -0.052   6.517   0.555  1.00  0.00     0.010 A 
ATOM     43  C   UNL     1       1.275   6.116   0.903  1.00  0.00    -0.014 A 
BRANCH  43  44
ATOM     44  C   UNL     1       2.515   6.857   0.624  1.00  0.00     0.031 A 
ATOM     45  C   UNL     1       2.495   8.179   1.245  1.00  0.00     0.074 A 
ATOM     46  C   UNL     1       3.652   6.414   0.036  1.00  0.00     0.049 A 
ATOM     47  N   UNL     1       2.925   9.302   0.791  1.00  0.00    -0.248 NA
ATOM     48  C   UNL     1       1.796   8.231   2.545  1.00  0.00     0.031 C 
ATOM     49  C   UNL     1       4.120   5.041  -0.145  1.00  0.00     0.029 A 
ATOM     50  N   UNL     1       4.561   7.125  -0.708  1.00  0.00    -0.354 N 
ATOM     51  C   UNL     1       2.496  10.217   1.726  1.00  0.00     0.074 A 
ATOM     52  C   UNL     1       1.671   9.535   2.694  1.00  0.00     0.031 C 
ATOM     53  C   UNL     1       4.998   4.975  -1.163  1.00  0.00     0.029 A 
ATOM     54  C   UNL     1       5.212   6.325  -1.639  1.00  0.00     0.049 A 
ATOM     55  H   UNL     1       4.731   8.088  -0.595  1.00  0.00     0.167 HD
ATOM     56  C   UNL     1       2.850  11.512   1.761  1.00  0.00     0.037 A 
ATOM     57  C   UNL     1       5.853   6.692  -2.764  1.00  0.00     0.037 A 
ATOM     58  C   UNL     1       3.747  12.044   0.778  1.00  0.00     0.049 A 
ATOM     59  C   UNL     1       6.033   8.177  -2.912  1.00  0.00     0.074 A 
ATOM     60  C   UNL     1       4.192  13.332   0.601  1.00  0.00     0.029 A 
ATOM     61  N   UNL     1       4.363  11.256  -0.201  1.00  0.00    -0.354 N 
ATOM     62  N   UNL     1       5.532   9.133  -2.162  1.00  0.00    -0.248 NA
ATOM     63  C   UNL     1       6.930   8.639  -3.969  1.00  0.00     0.031 C 
ATOM     64  C   UNL     1       5.058  13.325  -0.501  1.00  0.00     0.029 A 
ATOM     65  C   UNL     1       5.194  12.026  -0.981  1.00  0.00     0.049 A 
ATOM     66  H   UNL     1       4.221  10.289  -0.315  1.00  0.00     0.167 HD
ATOM     67  C   UNL     1       6.138  10.301  -2.574  1.00  0.00     0.074 A 
ATOM     68  C   UNL     1       7.004   9.932  -3.685  1.00  0.00     0.031 C 
ATOM     69  C   UNL     1       6.034  11.552  -2.059  1.00  0.00     0.037 A 
BRANCH  56  70
ATOM     70  C   UNL     1       2.243  12.316   2.858  1.00  0.00     0.064 A 
ATOM     71  C   UNL     1       2.536  12.053   4.208  1.00  0.00     0.173 A 
ATOM     72  C   UNL     1       1.229  13.237   2.573  1.00  0.00     0.173 A 
ATOM     73  F   UNL     1       3.443  11.117   4.534  1.00  0.00    -0.203 F 
ATOM     74  C   UNL     1       1.808  12.654   5.230  1.00  0.00     0.198 A 
ATOM     75  C   UNL     1       0.530  13.867   3.599  1.00  0.00     0.198 A 
ATOM     76  F   UNL     1       0.874  13.481   1.302  1.00  0.00    -0.203 F 
ATOM     77  F   UNL     1       2.031  12.305   6.504  1.00  0.00    -0.200 F 
ATOM     78  C   UNL     1       0.811  13.567   4.924  1.00  0.00     0.200 A 
ATOM     79  F   UNL     1      -0.448  14.735   3.304  1.00  0.00    -0.200 F 
ATOM     80  F   UNL     1       0.100  14.135   5.907  1.00  0.00    -0.200 F 
ENDBRANCH  56  70
BRANCH  57  81
ATOM     81  C   UNL     1       6.406   5.728  -3.759  1.00  0.00     0.064 A 
ATOM     82  C   UNL     1       7.784   5.475  -3.833  1.00  0.00     0.173 A 
ATOM     83  C   UNL     1       5.593   5.105  -4.722  1.00  0.00     0.173 A 
ATOM     84  F   UNL     1       8.616   6.066  -2.963  1.00  0.00    -0.203 F 
ATOM     85  C   UNL     1       8.329   4.669  -4.837  1.00  0.00     0.198 A 
ATOM     86  C   UNL     1       6.136   4.280  -5.715  1.00  0.00     0.198 A 
ATOM     87  F   UNL     1       4.273   5.338  -4.737  1.00  0.00    -0.203 F 
ATOM     88  F   UNL     1       9.657   4.504  -4.913  1.00  0.00    -0.200 F 
ATOM     89  C   UNL     1       7.505   4.072  -5.777  1.00  0.00     0.200 A 
ATOM     90  F   UNL     1       5.340   3.715  -6.634  1.00  0.00    -0.200 F 
ATOM     91  F   UNL     1       8.033   3.320  -6.754  1.00  0.00    -0.200 F 
ENDBRANCH  57  81
BRANCH  69  92
ATOM     92  C   UNL     1       6.954  12.565  -2.647  1.00  0.00     0.064 A 
ATOM     93  C   UNL     1       6.735  13.099  -3.920  1.00  0.00     0.173 A 
ATOM     94  C   UNL     1       8.017  13.056  -1.876  1.00  0.00     0.173 A 
ATOM     95  F   UNL     1       5.743  12.629  -4.690  1.00  0.00    -0.203 F 
ATOM     96  C   UNL     1       7.566  14.095  -4.412  1.00  0.00     0.198 A 
ATOM     97  C   UNL     1       8.816  14.082  -2.354  1.00  0.00     0.198 A 
ATOM     98  F   UNL     1       8.251  12.563  -0.649  1.00  0.00    -0.203 F 
ATOM     99  F   UNL     1       7.375  14.567  -5.651  1.00  0.00    -0.200 F 
ATOM    100  C   UNL     1       8.592  14.597  -3.623  1.00  0.00     0.200 A 
ATOM    101  F   UNL     1       9.791  14.582  -1.584  1.00  0.00    -0.200 F 
ATOM    102  F   UNL     1       9.371  15.581  -4.089  1.00  0.00    -0.200 F 
ENDBRANCH  69  92
ENDBRANCH  43  44
ENDBRANCH  36  38
ENDBRANCH  35  36
ENDBRANCH  34  35
ENDBRANCH  33  34
ENDBRANCH  32  33
ENDBRANCH   1  32
TORSDOF 19
