REMARK SMILES Cc1ccc(NC(=O)c2cnn3c2NC2=C(C(=O)CCC2)[C@H]3c2ccc(C(=O)OCCOCCOC(=O)c3ccc(-c4c5nc(c(-c6c(F)c(F)c(F)c(F)c6F)c6ccc([nH]6)c(-c6c(F)c(F)c(F)c(F)c6F)c6nc(c(-c7c(F)c(F)c(F)c(F)c7F)c7ccc4[nH]7)C=C6)C=C5)cc3)cc2)cc1
REMARK SMILES IDX 31 1 30 2 29 3 27 4 28 5 26 6 23 7 24 8 102 9 25 10 101 11
REMARK SMILES IDX 22 12 9 13 10 14 13 15 11 16 12 17 14 18 15 19 16 21 21 22
REMARK SMILES IDX 17 23 20 24 18 25 19 26 7 27 6 28 8 30 5 31 1 32 2 33 3 34
REMARK SMILES IDX 104 35 4 36 103 37 32 38 33 39 34 40 35 41 36 42 37 43 38 44
REMARK SMILES IDX 39 45 100 46 40 47 99 48 41 49 42 50 43 51 93 52 44 53 98 54
REMARK SMILES IDX 92 55 94 56 45 57 97 58 91 59 90 60 46 62 78 63 58 64 77 65
REMARK SMILES IDX 59 66 62 67 76 68 95 69 60 70 61 71 75 73 96 74 63 75 47 76
REMARK SMILES IDX 48 77 56 78 49 79 50 80 54 81 57 82 51 83 52 84 55 85 53 86
REMARK SMILES IDX 79 87 80 88 88 89 81 90 82 91 86 92 89 93 83 94 84 95 87 96
REMARK SMILES IDX 85 97 64 98 65 99 73 100 66 101 67 102 71 103 74 104 68 105
REMARK SMILES IDX 69 106 72 107 70 108
REMARK H PARENT 14 20 6 29 94 61 62 72
REMARK Flexibility Score: inf
ROOT
ATOM      1  C   UNL     1       1.665  -2.101  -8.038  1.00  0.00     0.202 C 
ENDROOT
BRANCH   1   2
ATOM      2  C   UNL     1      -0.042  -1.676  -7.302  1.00  0.00     0.261 C 
BRANCH   2   3
ATOM      3  O   UNL     1      -1.139  -3.081  -6.283  1.00  0.00    -0.460 OA
BRANCH   3   4
ATOM      4  C   UNL     1      -1.172  -4.509  -5.744  1.00  0.00     0.338 C 
ATOM      5  O   UNL     1      -0.836  -5.482  -6.433  1.00  0.00    -0.246 OA
BRANCH   4   6
ATOM      6  C   UNL     1      -1.484  -4.925  -4.347  1.00  0.00     0.060 A 
ATOM      7  C   UNL     1      -1.760  -6.052  -1.752  1.00  0.00    -0.019 A 
ATOM      8  C   UNL     1      -2.022  -6.834  -2.881  1.00  0.00     0.007 A 
ATOM      9  C   UNL     1      -1.112  -4.828  -1.966  1.00  0.00     0.007 A 
ATOM     10  C   UNL     1      -1.885  -6.270  -4.157  1.00  0.00     0.016 A 
ATOM     11  C   UNL     1      -1.078  -4.228  -3.227  1.00  0.00     0.016 A 
BRANCH   7  12
ATOM     12  C   UNL     1      -2.457  -6.300  -0.366  1.00  0.00     0.175 C 
ATOM     13  C   UNL     1      -3.607  -2.949  -0.106  1.00  0.00     0.102 A 
ATOM     14  C   UNL     1      -2.772  -3.110   1.043  1.00  0.00     0.151 A 
ATOM     15  C   UNL     1      -3.841  -4.250  -0.518  1.00  0.00     0.142 A 
ATOM     16  N   UNL     1      -2.278  -4.344   1.170  1.00  0.00    -0.178 NA
ATOM     17  N   UNL     1      -2.867  -4.984   0.151  1.00  0.00    -0.237 N 
ATOM     18  N   UNL     1      -4.642  -4.942  -1.403  1.00  0.00    -0.343 N 
ATOM     19  C   UNL     1      -4.702  -6.354  -1.335  1.00  0.00     0.026 C 
ATOM     20  H   UNL     1      -5.169  -4.457  -2.078  1.00  0.00     0.168 HD
ATOM     21  C   UNL     1      -3.796  -6.984  -0.545  1.00  0.00     0.044 C 
ATOM     22  C   UNL     1      -5.931  -7.128  -1.716  1.00  0.00     0.055 C 
ATOM     23  C   UNL     1      -4.487  -7.438   0.713  1.00  0.00     0.163 C 
ATOM     24  C   UNL     1      -6.684  -7.584  -0.463  1.00  0.00     0.014 C 
ATOM     25  O   UNL     1      -3.835  -7.873   1.657  1.00  0.00    -0.294 OA
ATOM     26  C   UNL     1      -5.984  -7.135   0.818  1.00  0.00     0.081 C 
BRANCH  13  27
ATOM     27  C   UNL     1      -4.117  -1.710  -0.658  1.00  0.00     0.261 C 
ATOM     28  N   UNL     1      -3.345  -0.556  -0.581  1.00  0.00    -0.322 N 
ATOM     29  H   UNL     1      -3.867   0.278  -0.629  1.00  0.00     0.170 HD
ATOM     30  O   UNL     1      -5.244  -1.644  -1.148  1.00  0.00    -0.269 OA
BRANCH  28  31
ATOM     31  C   UNL     1      -1.949  -0.353  -0.447  1.00  0.00     0.041 A 
ATOM     32  C   UNL     1       2.307   0.344   0.051  1.00  0.00     0.044 C 
ATOM     33  C   UNL     1       0.835   0.130  -0.145  1.00  0.00    -0.051 A 
ATOM     34  C   UNL     1       0.367  -1.128  -0.516  1.00  0.00     0.005 A 
ATOM     35  C   UNL     1      -0.098   1.154   0.050  1.00  0.00     0.005 A 
ATOM     36  C   UNL     1      -1.003  -1.343  -0.691  1.00  0.00     0.026 A 
ATOM     37  C   UNL     1      -1.476   0.916  -0.108  1.00  0.00     0.026 A 
ENDBRANCH  28  31
ENDBRANCH  13  27
ENDBRANCH   7  12
ENDBRANCH   4   6
ENDBRANCH   3   4
ENDBRANCH   2   3
ENDBRANCH   1   2
BRANCH   1  38
ATOM     38  O   UNL     1       2.669  -3.255  -7.923  1.00  0.00    -0.374 OA
BRANCH  38  39
ATOM     39  C   UNL     1       2.574  -4.692  -7.593  1.00  0.00     0.202 C 
BRANCH  39  40
ATOM     40  C   UNL     1       3.549  -5.705  -8.246  1.00  0.00     0.261 C 
BRANCH  40  41
ATOM     41  O   UNL     1       3.255  -6.293  -9.532  1.00  0.00    -0.460 OA
BRANCH  41  42
ATOM     42  C   UNL     1       2.633  -5.560 -10.476  1.00  0.00     0.338 C 
ATOM     43  O   UNL     1       3.178  -4.742 -11.195  1.00  0.00    -0.246 OA
BRANCH  42  44
ATOM     44  C   UNL     1       1.184  -5.907 -10.523  1.00  0.00     0.060 A 
ATOM     45  C   UNL     1       0.321  -5.039 -11.205  1.00  0.00     0.016 A 
ATOM     46  C   UNL     1       0.660  -6.900  -9.679  1.00  0.00     0.016 A 
ATOM     47  C   UNL     1      -1.044  -5.064 -10.909  1.00  0.00     0.010 A 
ATOM     48  C   UNL     1      -0.684  -6.873  -9.337  1.00  0.00     0.010 A 
ATOM     49  C   UNL     1      -1.530  -5.914  -9.899  1.00  0.00    -0.014 A 
BRANCH  49  50
ATOM     50  C   UNL     1      -2.960  -6.023  -9.587  1.00  0.00     0.031 A 
ATOM     51  C   UNL     1      -3.730  -6.731 -10.598  1.00  0.00     0.074 A 
ATOM     52  C   UNL     1      -3.586  -5.605  -8.463  1.00  0.00     0.049 A 
ATOM     53  N   UNL     1      -4.954  -6.477 -10.898  1.00  0.00    -0.248 NA
ATOM     54  C   UNL     1      -3.117  -7.757 -11.443  1.00  0.00     0.031 C 
ATOM     55  C   UNL     1      -4.924  -5.814  -7.931  1.00  0.00     0.029 A 
ATOM     56  N   UNL     1      -3.076  -4.780  -7.488  1.00  0.00    -0.354 N 
ATOM     57  C   UNL     1      -5.385  -7.628 -11.505  1.00  0.00     0.074 A 
ATOM     58  C   UNL     1      -4.195  -8.155 -12.117  1.00  0.00     0.031 C 
ATOM     59  C   UNL     1      -5.202  -4.859  -7.009  1.00  0.00     0.029 A 
ATOM     60  C   UNL     1      -4.074  -3.931  -6.978  1.00  0.00     0.049 A 
ATOM     61  H   UNL     1      -2.139  -4.783  -7.188  1.00  0.00     0.167 HD
ATOM     62  C   UNL     1      -6.569  -8.163 -11.075  1.00  0.00     0.037 A 
ATOM     63  C   UNL     1      -4.043  -2.572  -7.242  1.00  0.00     0.037 A 
ATOM     64  C   UNL     1      -7.322  -7.192 -10.224  1.00  0.00     0.049 A 
ATOM     65  C   UNL     1      -5.216  -2.267  -8.225  1.00  0.00     0.074 A 
ATOM     66  C   UNL     1      -7.897  -7.188  -8.958  1.00  0.00     0.029 A 
ATOM     67  N   UNL     1      -7.325  -5.846 -10.598  1.00  0.00    -0.354 N 
ATOM     68  N   UNL     1      -5.958  -3.223  -8.736  1.00  0.00    -0.248 NA
ATOM     69  C   UNL     1      -5.690  -0.966  -8.705  1.00  0.00     0.031 C 
ATOM     70  C   UNL     1      -8.245  -5.839  -8.606  1.00  0.00     0.029 A 
ATOM     71  C   UNL     1      -7.868  -5.010  -9.646  1.00  0.00     0.049 A 
ATOM     72  H   UNL     1      -6.972  -5.524 -11.459  1.00  0.00     0.167 HD
ATOM     73  C   UNL     1      -7.003  -2.745  -9.466  1.00  0.00     0.074 A 
ATOM     74  C   UNL     1      -6.747  -1.312  -9.480  1.00  0.00     0.031 C 
ATOM     75  C   UNL     1      -7.979  -3.583  -9.955  1.00  0.00     0.037 A 
BRANCH  62  76
ATOM     76  C   UNL     1      -6.904  -9.655 -11.209  1.00  0.00     0.064 A 
ATOM     77  C   UNL     1      -8.034 -10.197 -10.560  1.00  0.00     0.173 A 
ATOM     78  C   UNL     1      -6.150 -10.629 -11.913  1.00  0.00     0.173 A 
ATOM     79  F   UNL     1      -8.903  -9.422  -9.902  1.00  0.00    -0.203 F 
ATOM     80  C   UNL     1      -8.339 -11.566 -10.568  1.00  0.00     0.198 A 
ATOM     81  C   UNL     1      -6.455 -11.993 -11.925  1.00  0.00     0.198 A 
ATOM     82  F   UNL     1      -5.086 -10.337 -12.656  1.00  0.00    -0.203 F 
ATOM     83  F   UNL     1      -9.417 -12.006  -9.905  1.00  0.00    -0.200 F 
ATOM     84  C   UNL     1      -7.548 -12.466 -11.248  1.00  0.00     0.200 A 
ATOM     85  F   UNL     1      -5.669 -12.837 -12.611  1.00  0.00    -0.200 F 
ATOM     86  F   UNL     1      -7.845 -13.771 -11.267  1.00  0.00    -0.200 F 
ENDBRANCH  62  76
BRANCH  63  87
ATOM     87  C   UNL     1      -2.563  -1.951  -7.219  1.00  0.00     0.064 A 
ATOM     88  C   UNL     1      -1.838  -1.362  -5.710  1.00  0.00     0.173 A 
ATOM     89  C   UNL     1      -1.599  -2.974  -8.228  1.00  0.00     0.173 A 
ATOM     90  F   UNL     1      -2.589  -0.605  -4.893  1.00  0.00    -0.203 F 
ATOM     91  C   UNL     1      -0.233  -1.895  -5.104  1.00  0.00     0.198 A 
ATOM     92  C   UNL     1      -0.041  -3.653  -7.708  1.00  0.00     0.198 A 
ATOM     93  F   UNL     1      -1.948  -3.009  -9.522  1.00  0.00    -0.203 F 
ATOM     94  F   UNL     1       0.273  -1.391  -3.972  1.00  0.00    -0.200 F 
ATOM     95  C   UNL     1       0.707  -3.111  -6.056  1.00  0.00     0.200 A 
ATOM     96  F   UNL     1       0.610  -4.148  -8.747  1.00  0.00    -0.200 F 
ATOM     97  F   UNL     1       1.855  -3.498  -5.518  1.00  0.00    -0.200 F 
ENDBRANCH  63  87
BRANCH  75  98
ATOM     98  C   UNL     1      -9.158  -3.174 -10.811  1.00  0.00     0.064 A 
ATOM     99  C   UNL     1      -9.829  -1.954 -10.678  1.00  0.00     0.173 A 
ATOM    100  C   UNL     1      -9.713  -4.068 -11.768  1.00  0.00     0.173 A 
ATOM    101  F   UNL     1      -9.513  -1.096  -9.699  1.00  0.00    -0.203 F 
ATOM    102  C   UNL     1     -10.882  -1.601 -11.530  1.00  0.00     0.198 A 
ATOM    103  C   UNL     1     -10.788  -3.732 -12.582  1.00  0.00     0.198 A 
ATOM    104  F   UNL     1      -9.233  -5.302 -11.965  1.00  0.00    -0.203 F 
ATOM    105  F   UNL     1     -11.448  -0.391 -11.415  1.00  0.00    -0.200 F 
ATOM    106  C   UNL     1     -11.351  -2.483 -12.489  1.00  0.00     0.200 A 
ATOM    107  F   UNL     1     -11.257  -4.628 -13.463  1.00  0.00    -0.200 F 
ATOM    108  F   UNL     1     -12.348  -2.134 -13.312  1.00  0.00    -0.200 F 
ENDBRANCH  75  98
ENDBRANCH  49  50
ENDBRANCH  42  44
ENDBRANCH  41  42
ENDBRANCH  40  41
ENDBRANCH  39  40
ENDBRANCH  38  39
ENDBRANCH   1  38
TORSDOF 17
