REMARK SMILES O=C(N[C@@H](Cc1ccc(O)cc1)C(=O)N[C@@H](Cc1c[nH]c2ccccc12)C(=O)N[C@@H](CO)C(=O)OCCOCCOC(=O)c1ccc(-c2c3nc(c(-c4c(F)c(F)c(F)c(F)c4F)c4ccc([nH]4)c(-c4c(F)c(F)c(F)c(F)c4F)c4nc(c(-c5c(F)c(F)c(F)c(F)c5F)c5ccc2[nH]5)C=C4)C=C3)cc1)c1ccc(F)cc1
REMARK SMILES IDX 36 1 35 2 33 3 34 4 30 5 29 6 27 7 28 8 16 10 15 11 13 12
REMARK SMILES IDX 14 13 4 15 3 16 1 17 2 18 107 20 108 21 113 22 109 23 112 24
REMARK SMILES IDX 110 25 111 26 5 27 6 28 7 29 12 30 8 31 11 32 9 33 10 34
REMARK SMILES IDX 17 36 18 37 19 38 26 39 20 40 21 41 25 42 22 44 24 45 23 46
REMARK SMILES IDX 31 47 32 48 37 50 38 51 39 52 40 53 41 54 42 55 43 56 44 57
REMARK SMILES IDX 45 58 106 59 46 60 105 61 47 62 48 63 49 64 99 65 50 66
REMARK SMILES IDX 104 67 98 68 100 69 51 70 103 71 97 72 96 73 52 75 84 76
REMARK SMILES IDX 64 77 83 78 65 79 68 80 82 81 101 82 66 83 67 84 81 86
REMARK SMILES IDX 102 87 69 88 53 89 54 90 62 91 55 92 56 93 60 94 63 95 57 96
REMARK SMILES IDX 58 97 61 98 59 99 85 100 86 101 94 102 87 103 88 104 92 105
REMARK SMILES IDX 95 106 89 107 90 108 93 109 91 110 70 111 71 112 79 113
REMARK SMILES IDX 72 114 73 115 77 116 80 117 74 118 75 119 78 120 76 121
REMARK H PARENT 29 9 15 14 3 19 10 35 20 43 32 49 100 74 68 85
REMARK Flexibility Score: inf
ROOT
ATOM      1  C   UNL     1       3.693   9.724  -3.515  1.00  0.00     0.261 C 
ENDROOT
BRANCH   1   2
ATOM      2  O   UNL     1       4.256   8.416  -3.331  1.00  0.00    -0.462 OA
BRANCH   2   3
ATOM      3  C   UNL     1       5.029   8.258  -2.214  1.00  0.00     0.331 C 
ATOM      4  O   UNL     1       5.354   9.175  -1.467  1.00  0.00    -0.250 OA
BRANCH   3   5
ATOM      5  C   UNL     1       5.462   6.788  -2.004  1.00  0.00     0.218 C 
BRANCH   5   6
ATOM      6  N   UNL     1       4.898   5.871  -3.009  1.00  0.00    -0.339 N 
ATOM      7  C   UNL     1       3.902   4.945  -2.888  1.00  0.00     0.243 C 
ATOM      8  O   UNL     1       3.120   4.848  -3.844  1.00  0.00    -0.273 OA
ATOM      9  H   UNL     1       5.300   5.936  -3.905  1.00  0.00     0.164 HD
BRANCH   7  10
ATOM     10  C   UNL     1       3.667   4.057  -1.643  1.00  0.00     0.175 C 
BRANCH  10  11
ATOM     11  N   UNL     1       4.878   3.673  -0.923  1.00  0.00    -0.342 N 
ATOM     12  C   UNL     1       5.433   2.452  -0.686  1.00  0.00     0.243 C 
ATOM     13  O   UNL     1       6.563   2.468  -0.181  1.00  0.00    -0.273 OA
ATOM     14  H   UNL     1       5.381   4.428  -0.543  1.00  0.00     0.164 HD
BRANCH  12  15
ATOM     15  C   UNL     1       4.812   1.095  -1.119  1.00  0.00     0.176 C 
BRANCH  15  16
ATOM     16  N   UNL     1       3.361   0.954  -0.939  1.00  0.00    -0.340 N 
ATOM     17  O   UNL     1       1.420   0.127  -0.174  1.00  0.00    -0.269 OA
ATOM     18  C   UNL     1       2.647   0.111  -0.123  1.00  0.00     0.251 C 
ATOM     19  H   UNL     1       2.814   1.558  -1.491  1.00  0.00     0.164 HD
BRANCH  18  20
ATOM     20  C   UNL     1       3.325  -0.883   0.738  1.00  0.00     0.040 A 
ATOM     21  C   UNL     1       4.317  -0.524   1.659  1.00  0.00     0.017 A 
ATOM     22  C   UNL     1       2.938  -2.224   0.610  1.00  0.00     0.017 A 
ATOM     23  C   UNL     1       4.982  -1.519   2.380  1.00  0.00     0.040 A 
ATOM     24  C   UNL     1       3.593  -3.213   1.345  1.00  0.00     0.040 A 
ATOM     25  C   UNL     1       4.621  -2.852   2.209  1.00  0.00     0.123 A 
ATOM     26  F   UNL     1       5.273  -3.803   2.890  1.00  0.00    -0.207 F 
ENDBRANCH  18  20
ENDBRANCH  15  16
BRANCH  15  27
ATOM     27  C   UNL     1       5.313   0.587  -2.486  1.00  0.00     0.070 C 
BRANCH  27  28
ATOM     28  C   UNL     1       5.116   1.488  -3.676  1.00  0.00    -0.045 A 
ATOM     29  C   UNL     1       6.103   2.432  -4.007  1.00  0.00     0.007 A 
ATOM     30  C   UNL     1       3.973   1.382  -4.482  1.00  0.00     0.007 A 
ATOM     31  C   UNL     1       5.935   3.279  -5.101  1.00  0.00     0.046 A 
ATOM     32  C   UNL     1       3.798   2.241  -5.569  1.00  0.00     0.046 A 
ATOM     33  C   UNL     1       4.769   3.199  -5.847  1.00  0.00     0.115 A 
BRANCH  33  34
ATOM     34  O   UNL     1       4.554   4.146  -6.805  1.00  0.00    -0.508 OA
ATOM     35  H   UNL     1       5.213   4.787  -6.985  1.00  0.00     0.293 HD
ENDBRANCH  33  34
ENDBRANCH  27  28
ENDBRANCH  15  27
ENDBRANCH  12  15
ENDBRANCH  10  11
BRANCH  10  36
ATOM     36  C   UNL     1       2.491   4.478  -0.731  1.00  0.00     0.072 C 
BRANCH  36  37
ATOM     37  C   UNL     1       2.575   5.841  -0.114  1.00  0.00    -0.020 A 
ATOM     38  C   UNL     1       1.732   6.899  -0.393  1.00  0.00     0.087 A 
ATOM     39  C   UNL     1       3.518   6.325   0.851  1.00  0.00     0.003 A 
ATOM     40  N   UNL     1       2.232   8.026   0.200  1.00  0.00    -0.361 N 
ATOM     41  C   UNL     1       3.364   7.712   0.910  1.00  0.00     0.046 A 
ATOM     42  C   UNL     1       4.568   5.739   1.587  1.00  0.00     0.010 A 
ATOM     43  H   UNL     1       1.839   8.925   0.128  1.00  0.00     0.166 HD
ATOM     44  C   UNL     1       4.271   8.548   1.570  1.00  0.00     0.026 A 
ATOM     45  C   UNL     1       5.493   6.561   2.240  1.00  0.00     0.001 A 
ATOM     46  C   UNL     1       5.359   7.946   2.206  1.00  0.00     0.002 A 
ENDBRANCH  36  37
ENDBRANCH  10  36
ENDBRANCH   7  10
ENDBRANCH   5   6
BRANCH   5  47
ATOM     47  C   UNL     1       6.990   6.740  -1.950  1.00  0.00     0.193 C 
BRANCH  47  48
ATOM     48  O   UNL     1       7.564   6.969  -3.235  1.00  0.00    -0.394 OA
ATOM     49  H   UNL     1       7.269   6.278  -3.849  1.00  0.00     0.210 HD
ENDBRANCH  47  48
ENDBRANCH   5  47
ENDBRANCH   3   5
ENDBRANCH   2   3
ENDBRANCH   1   2
BRANCH   1  50
ATOM     50  C   UNL     1       2.224   9.713  -3.973  1.00  0.00     0.202 C 
BRANCH  50  51
ATOM     51  O   UNL     1       1.349   8.758  -3.383  1.00  0.00    -0.374 OA
BRANCH  51  52
ATOM     52  C   UNL     1       1.526   7.394  -3.780  1.00  0.00     0.202 C 
BRANCH  52  53
ATOM     53  C   UNL     1       1.362   7.056  -5.265  1.00  0.00     0.261 C 
BRANCH  53  54
ATOM     54  O   UNL     1       2.482   7.530  -6.036  1.00  0.00    -0.460 OA
BRANCH  54  55
ATOM     55  C   UNL     1       2.145   8.232  -7.136  1.00  0.00     0.338 C 
ATOM     56  O   UNL     1       1.020   8.406  -7.601  1.00  0.00    -0.246 OA
BRANCH  55  57
ATOM     57  C   UNL     1       3.313   8.967  -7.631  1.00  0.00     0.060 A 
ATOM     58  C   UNL     1       3.238  10.367  -7.648  1.00  0.00     0.016 A 
ATOM     59  C   UNL     1       4.410   8.298  -8.173  1.00  0.00     0.016 A 
ATOM     60  C   UNL     1       4.239  11.107  -8.268  1.00  0.00     0.010 A 
ATOM     61  C   UNL     1       5.406   9.041  -8.810  1.00  0.00     0.010 A 
ATOM     62  C   UNL     1       5.298  10.442  -8.898  1.00  0.00    -0.014 A 
BRANCH  62  63
ATOM     63  C   UNL     1       6.170  11.190  -9.829  1.00  0.00     0.031 A 
ATOM     64  C   UNL     1       5.833  11.165 -11.294  1.00  0.00     0.074 A 
ATOM     65  C   UNL     1       7.227  11.884  -9.377  1.00  0.00     0.049 A 
ATOM     66  N   UNL     1       6.490  11.663 -12.308  1.00  0.00    -0.248 NA
ATOM     67  C   UNL     1       4.582  10.481 -11.665  1.00  0.00     0.031 C 
ATOM     68  C   UNL     1       7.611  12.018  -7.974  1.00  0.00     0.029 A 
ATOM     69  N   UNL     1       8.180  12.596 -10.060  1.00  0.00    -0.354 N 
ATOM     70  C   UNL     1       5.744  11.340 -13.434  1.00  0.00     0.074 A 
ATOM     71  C   UNL     1       4.591  10.592 -12.985  1.00  0.00     0.031 C 
ATOM     72  C   UNL     1       8.738  12.748  -7.901  1.00  0.00     0.029 A 
ATOM     73  C   UNL     1       9.169  13.098  -9.253  1.00  0.00     0.049 A 
ATOM     74  H   UNL     1       8.156  12.733 -11.035  1.00  0.00     0.167 HD
ATOM     75  C   UNL     1       6.000  11.645 -14.727  1.00  0.00     0.037 A 
ATOM     76  C   UNL     1      10.308  13.738  -9.579  1.00  0.00     0.037 A 
ATOM     77  C   UNL     1       7.148  12.392 -15.162  1.00  0.00     0.049 A 
ATOM     78  C   UNL     1      10.603  14.011 -11.032  1.00  0.00     0.074 A 
ATOM     79  C   UNL     1       7.502  12.765 -16.447  1.00  0.00     0.029 A 
ATOM     80  N   UNL     1       8.135  12.877 -14.316  1.00  0.00    -0.354 N 
ATOM     81  N   UNL     1       9.889  13.715 -12.092  1.00  0.00    -0.248 NA
ATOM     82  C   UNL     1      11.862  14.706 -11.336  1.00  0.00     0.031 C 
ATOM     83  C   UNL     1       8.724  13.441 -16.381  1.00  0.00     0.029 A 
ATOM     84  C   UNL     1       9.108  13.530 -15.052  1.00  0.00     0.049 A 
ATOM     85  H   UNL     1       8.141  12.773 -13.337  1.00  0.00     0.167 HD
ATOM     86  C   UNL     1      10.593  14.211 -13.181  1.00  0.00     0.074 A 
ATOM     87  C   UNL     1      11.790  14.834 -12.654  1.00  0.00     0.031 C 
ATOM     88  C   UNL     1      10.279  14.159 -14.498  1.00  0.00     0.037 A 
BRANCH  75  89
ATOM     89  C   UNL     1       5.040  11.142 -15.764  1.00  0.00     0.064 A 
ATOM     90  C   UNL     1       3.764  11.702 -15.920  1.00  0.00     0.173 A 
ATOM     91  C   UNL     1       5.415  10.107 -16.634  1.00  0.00     0.173 A 
ATOM     92  F   UNL     1       3.352  12.682 -15.102  1.00  0.00    -0.203 F 
ATOM     93  C   UNL     1       2.891  11.231 -16.898  1.00  0.00     0.198 A 
ATOM     94  C   UNL     1       4.550   9.656 -17.626  1.00  0.00     0.198 A 
ATOM     95  F   UNL     1       6.625   9.538 -16.526  1.00  0.00    -0.203 F 
ATOM     96  F   UNL     1       1.661  11.754 -17.004  1.00  0.00    -0.200 F 
ATOM     97  C   UNL     1       3.287  10.214 -17.754  1.00  0.00     0.200 A 
ATOM     98  F   UNL     1       4.937   8.680 -18.459  1.00  0.00    -0.200 F 
ATOM     99  F   UNL     1       2.448   9.767 -18.699  1.00  0.00    -0.200 F 
ENDBRANCH  75  89
BRANCH  76 100
ATOM    100  C   UNL     1      11.265  14.141  -8.517  1.00  0.00     0.064 A 
ATOM    101  C   UNL     1      11.484  15.491  -8.211  1.00  0.00     0.173 A 
ATOM    102  C   UNL     1      11.992  13.183  -7.794  1.00  0.00     0.173 A 
ATOM    103  F   UNL     1      10.832  16.445  -8.892  1.00  0.00    -0.203 F 
ATOM    104  C   UNL     1      12.405  15.868  -7.236  1.00  0.00     0.198 A 
ATOM    105  C   UNL     1      12.893  13.560  -6.801  1.00  0.00     0.198 A 
ATOM    106  F   UNL     1      11.822  11.878  -8.050  1.00  0.00    -0.203 F 
ATOM    107  F   UNL     1      12.629  17.168  -6.995  1.00  0.00    -0.200 F 
ATOM    108  C   UNL     1      13.105  14.903  -6.528  1.00  0.00     0.200 A 
ATOM    109  F   UNL     1      13.560  12.623  -6.112  1.00  0.00    -0.200 F 
ATOM    110  F   UNL     1      13.990  15.266  -5.589  1.00  0.00    -0.200 F 
ENDBRANCH  76 100
BRANCH  88 111
ATOM    111  C   UNL     1      11.214  14.830 -15.459  1.00  0.00     0.064 A 
ATOM    112  C   UNL     1      12.450  14.262 -15.800  1.00  0.00     0.173 A 
ATOM    113  C   UNL     1      10.835  16.021 -16.097  1.00  0.00     0.173 A 
ATOM    114  F   UNL     1      12.860  13.132 -15.205  1.00  0.00    -0.203 F 
ATOM    115  C   UNL     1      13.280  14.872 -16.736  1.00  0.00     0.198 A 
ATOM    116  C   UNL     1      11.656  16.613 -17.052  1.00  0.00     0.198 A 
ATOM    117  F   UNL     1       9.658  16.597 -15.809  1.00  0.00    -0.203 F 
ATOM    118  F   UNL     1      14.472  14.331 -17.025  1.00  0.00    -0.200 F 
ATOM    119  C   UNL     1      12.879  16.040 -17.368  1.00  0.00     0.200 A 
ATOM    120  F   UNL     1      11.261  17.734 -17.671  1.00  0.00    -0.200 F 
ATOM    121  F   UNL     1      13.673  16.617 -18.280  1.00  0.00    -0.200 F 
ENDBRANCH  88 111
ENDBRANCH  62  63
ENDBRANCH  55  57
ENDBRANCH  54  55
ENDBRANCH  53  54
ENDBRANCH  52  53
ENDBRANCH  51  52
ENDBRANCH  50  51
ENDBRANCH   1  50
TORSDOF 27
