REMARK SMILES O=C(OCCOCCOC(=O)c1ccc(-n2[nH]c(=O)[nH]c2=O)cc1)c1ccc(-c2c3nc(c(-c4c(F)c(F)c(F)c(F)c4F)c4ccc([nH]4)c(-c4c(F)c(F)c(F)c(F)c4F)c4nc(c(-c5c(F)c(F)c(F)c(F)c5F)c5ccc2[nH]5)C=C4)C=C3)cc1
REMARK SMILES IDX 5 1 4 2 3 3 2 4 1 5 25 6 26 7 87 8 27 9 86 10 28 11 29 12
REMARK SMILES IDX 30 13 80 14 31 15 85 16 79 17 81 18 32 19 84 20 78 21 77 22
REMARK SMILES IDX 33 24 65 25 45 26 64 27 46 28 49 29 63 30 82 31 47 32 48 33
REMARK SMILES IDX 62 35 83 36 50 37 34 38 35 39 43 40 36 41 37 42 41 43 44 44
REMARK SMILES IDX 38 45 39 46 42 47 40 48 66 49 67 50 75 51 68 52 69 53 73 54
REMARK SMILES IDX 76 55 70 56 71 57 74 58 72 59 51 60 52 61 60 62 53 63 54 64
REMARK SMILES IDX 58 65 61 66 55 67 56 68 59 69 57 70 6 71 7 72 8 73 9 74
REMARK SMILES IDX 10 75 11 76 12 77 13 78 24 79 14 80 23 81 15 82 16 83 17 84
REMARK SMILES IDX 21 85 18 86 20 88 22 89 19 90
REMARK H PARENT 81 23 49 34 17 87 20 91
REMARK Flexibility Score: inf
ROOT
ATOM      1  C   UNL     1       4.794  -0.689   0.575  1.00  0.00     0.202 C 
ENDROOT
BRANCH   1   2
ATOM      2  C   UNL     1       4.540   0.803   0.756  1.00  0.00     0.261 C 
BRANCH   2   3
ATOM      3  O   UNL     1       3.166   1.162   0.988  1.00  0.00    -0.460 OA
BRANCH   3   4
ATOM      4  C   UNL     1       2.132   0.883   0.164  1.00  0.00     0.338 C 
ATOM      5  O   UNL     1       1.099   0.386   0.605  1.00  0.00    -0.246 OA
BRANCH   4   6
ATOM      6  C   UNL     1       2.125   1.474  -1.199  1.00  0.00     0.060 A 
ATOM      7  C   UNL     1       3.246   1.973  -1.853  1.00  0.00     0.016 A 
ATOM      8  C   UNL     1       0.858   1.651  -1.783  1.00  0.00     0.016 A 
ATOM      9  C   UNL     1       3.089   2.847  -2.910  1.00  0.00     0.010 A 
ATOM     10  C   UNL     1       0.696   2.482  -2.880  1.00  0.00     0.010 A 
ATOM     11  C   UNL     1       1.806   3.147  -3.375  1.00  0.00    -0.014 A 
BRANCH  11  12
ATOM     12  C   UNL     1       1.715   4.056  -4.503  1.00  0.00     0.031 A 
ATOM     13  C   UNL     1       2.449   3.554  -5.691  1.00  0.00     0.074 A 
ATOM     14  C   UNL     1       1.032   5.217  -4.483  1.00  0.00     0.049 A 
ATOM     15  N   UNL     1       3.540   4.034  -6.187  1.00  0.00    -0.248 NA
ATOM     16  C   UNL     1       2.045   2.262  -6.266  1.00  0.00     0.031 C 
ATOM     17  C   UNL     1       0.099   5.711  -3.471  1.00  0.00     0.029 A 
ATOM     18  N   UNL     1       0.990   6.193  -5.433  1.00  0.00    -0.354 N 
ATOM     19  C   UNL     1       3.858   3.218  -7.266  1.00  0.00     0.074 A 
ATOM     20  C   UNL     1       3.010   2.060  -7.164  1.00  0.00     0.031 C 
ATOM     21  C   UNL     1      -0.588   6.766  -3.970  1.00  0.00     0.029 A 
ATOM     22  C   UNL     1      -0.041   7.113  -5.271  1.00  0.00     0.049 A 
ATOM     23  H   UNL     1       1.637   6.243  -6.173  1.00  0.00     0.167 HD
ATOM     24  C   UNL     1       4.612   3.706  -8.288  1.00  0.00     0.037 A 
ATOM     25  C   UNL     1      -0.432   8.048  -6.177  1.00  0.00     0.037 A 
ATOM     26  C   UNL     1       5.371   4.856  -7.856  1.00  0.00     0.049 A 
ATOM     27  C   UNL     1       0.700   8.261  -7.116  1.00  0.00     0.074 A 
ATOM     28  C   UNL     1       6.334   5.075  -6.889  1.00  0.00     0.029 A 
ATOM     29  N   UNL     1       4.891   6.098  -8.190  1.00  0.00    -0.354 N 
ATOM     30  N   UNL     1       1.816   8.841  -6.776  1.00  0.00    -0.248 NA
ATOM     31  C   UNL     1       0.772   7.399  -8.286  1.00  0.00     0.031 C 
ATOM     32  C   UNL     1       6.033   6.363  -6.352  1.00  0.00     0.029 A 
ATOM     33  C   UNL     1       4.965   6.891  -7.076  1.00  0.00     0.049 A 
ATOM     34  H   UNL     1       4.554   6.371  -9.074  1.00  0.00     0.167 HD
ATOM     35  C   UNL     1       2.801   8.071  -7.374  1.00  0.00     0.074 A 
ATOM     36  C   UNL     1       2.097   7.242  -8.352  1.00  0.00     0.031 C 
ATOM     37  C   UNL     1       4.041   7.967  -6.815  1.00  0.00     0.037 A 
BRANCH  24  38
ATOM     38  C   UNL     1       4.311   3.441  -9.746  1.00  0.00     0.064 A 
ATOM     39  C   UNL     1       5.146   4.024 -10.723  1.00  0.00     0.173 A 
ATOM     40  C   UNL     1       3.078   2.944 -10.225  1.00  0.00     0.173 A 
ATOM     41  F   UNL     1       6.341   4.531 -10.386  1.00  0.00    -0.203 F 
ATOM     42  C   UNL     1       4.725   4.203 -12.043  1.00  0.00     0.198 A 
ATOM     43  C   UNL     1       2.683   3.082 -11.553  1.00  0.00     0.198 A 
ATOM     44  F   UNL     1       2.155   2.409  -9.421  1.00  0.00    -0.203 F 
ATOM     45  F   UNL     1       5.492   4.896 -12.895  1.00  0.00    -0.200 F 
ATOM     46  C   UNL     1       3.488   3.745 -12.453  1.00  0.00     0.200 A 
ATOM     47  F   UNL     1       1.472   2.645 -11.926  1.00  0.00    -0.200 F 
ATOM     48  F   UNL     1       3.050   3.982 -13.696  1.00  0.00    -0.200 F 
ENDBRANCH  24  38
BRANCH  25  49
ATOM     49  C   UNL     1      -1.803   8.514  -6.503  1.00  0.00     0.064 A 
ATOM     50  C   UNL     1      -2.012   9.660  -7.292  1.00  0.00     0.173 A 
ATOM     51  C   UNL     1      -2.920   7.677  -6.315  1.00  0.00     0.173 A 
ATOM     52  F   UNL     1      -0.992  10.488  -7.562  1.00  0.00    -0.203 F 
ATOM     53  C   UNL     1      -3.251   9.933  -7.883  1.00  0.00     0.198 A 
ATOM     54  C   UNL     1      -4.157   7.952  -6.902  1.00  0.00     0.198 A 
ATOM     55  F   UNL     1      -2.806   6.522  -5.644  1.00  0.00    -0.203 F 
ATOM     56  F   UNL     1      -3.391  10.998  -8.684  1.00  0.00    -0.200 F 
ATOM     57  C   UNL     1      -4.319   9.071  -7.698  1.00  0.00     0.200 A 
ATOM     58  F   UNL     1      -5.170   7.088  -6.750  1.00  0.00    -0.200 F 
ATOM     59  F   UNL     1      -5.485   9.292  -8.319  1.00  0.00    -0.200 F 
ENDBRANCH  25  49
BRANCH  37  60
ATOM     60  C   UNL     1       4.397   8.926  -5.714  1.00  0.00     0.064 A 
ATOM     61  C   UNL     1       3.717   9.026  -4.487  1.00  0.00     0.173 A 
ATOM     62  C   UNL     1       5.554   9.700  -5.874  1.00  0.00     0.173 A 
ATOM     63  F   UNL     1       2.664   8.244  -4.213  1.00  0.00    -0.203 F 
ATOM     64  C   UNL     1       4.149   9.905  -3.494  1.00  0.00     0.198 A 
ATOM     65  C   UNL     1       6.006  10.544  -4.866  1.00  0.00     0.198 A 
ATOM     66  F   UNL     1       6.275   9.605  -7.003  1.00  0.00    -0.203 F 
ATOM     67  F   UNL     1       3.471  10.003  -2.340  1.00  0.00    -0.200 F 
ATOM     68  C   UNL     1       5.295  10.659  -3.683  1.00  0.00     0.200 A 
ATOM     69  F   UNL     1       7.144  11.231  -5.035  1.00  0.00    -0.200 F 
ATOM     70  F   UNL     1       5.731  11.479  -2.716  1.00  0.00    -0.200 F 
ENDBRANCH  37  60
ENDBRANCH  11  12
ENDBRANCH   4   6
ENDBRANCH   3   4
ENDBRANCH   2   3
ENDBRANCH   1   2
BRANCH   1  71
ATOM     71  O   UNL     1       4.259  -1.304  -0.591  1.00  0.00    -0.374 OA
BRANCH  71  72
ATOM     72  C   UNL     1       3.072  -2.085  -0.406  1.00  0.00     0.202 C 
BRANCH  72  73
ATOM     73  C   UNL     1       3.145  -3.406   0.378  1.00  0.00     0.261 C 
BRANCH  73  74
ATOM     74  O   UNL     1       3.497  -3.234   1.763  1.00  0.00    -0.460 OA
BRANCH  74  75
ATOM     75  C   UNL     1       4.797  -3.496   2.055  1.00  0.00     0.338 C 
ATOM     76  O   UNL     1       5.655  -3.901   1.301  1.00  0.00    -0.246 OA
BRANCH  75  77
ATOM     77  C   UNL     1       5.095  -3.016   3.421  1.00  0.00     0.060 A 
ATOM     78  C   UNL     1       6.079  -2.031   3.582  1.00  0.00     0.018 A 
ATOM     79  C   UNL     1       4.466  -3.574   4.530  1.00  0.00     0.018 A 
ATOM     80  C   UNL     1       6.435  -1.596   4.859  1.00  0.00     0.029 A 
ATOM     81  C   UNL     1       4.893  -3.203   5.808  1.00  0.00     0.029 A 
ATOM     82  C   UNL     1       5.882  -2.220   5.978  1.00  0.00     0.068 A 
BRANCH  82  83
ATOM     83  N   UNL     1       6.353  -1.931   7.262  1.00  0.00    -0.201 N 
ATOM     84  N   UNL     1       6.583  -2.911   8.215  1.00  0.00    -0.240 N 
ATOM     85  C   UNL     1       6.809  -0.707   7.784  1.00  0.00     0.349 A 
ATOM     86  C   UNL     1       7.207  -2.315   9.299  1.00  0.00     0.342 A 
ATOM     87  H   UNL     1       6.345  -3.863   8.136  1.00  0.00     0.194 HD
ATOM     88  N   UNL     1       7.262  -0.971   9.056  1.00  0.00    -0.256 N 
ATOM     89  O   UNL     1       6.810   0.396   7.260  1.00  0.00    -0.246 OA
ATOM     90  O   UNL     1       7.683  -2.897  10.258  1.00  0.00    -0.246 OA
ATOM     91  H   UNL     1       7.578  -0.293   9.697  1.00  0.00     0.176 HD
ENDBRANCH  82  83
ENDBRANCH  75  77
ENDBRANCH  74  75
ENDBRANCH  73  74
ENDBRANCH  72  73
ENDBRANCH  71  72
ENDBRANCH   1  71
TORSDOF 15
