REMARK SMILES CC[C@@](C)(NC(=O)Nc1cccc(C[NH2+]C)c1)C(=O)OCCOCCOC(=O)c1ccc(-c2c3nc(c(-c4c(F)c(F)c(F)c(F)c4F)c4ccc([nH]4)c(-c4c(F)c(F)c(F)c(F)c4F)c4nc(c(-c5c(F)c(F)c(F)c(F)c5F)c5ccc2[nH]5)C=C4)C=C3)cc1
REMARK SMILES IDX 22 1 21 2 20 3 18 4 19 5 3 6 4 7 2 8 1 9 5 10 6 11 7 13 8 14
REMARK SMILES IDX 9 16 10 17 17 18 11 19 13 20 12 21 14 22 15 23 16 24 23 27
REMARK SMILES IDX 24 28 25 29 26 30 27 31 28 32 29 33 30 34 91 35 31 36 90 37
REMARK SMILES IDX 32 38 33 39 34 40 84 41 35 42 89 43 83 44 85 45 36 46 88 47
REMARK SMILES IDX 82 48 81 49 37 51 69 52 49 53 68 54 50 55 53 56 67 57 86 58
REMARK SMILES IDX 51 59 52 60 66 62 87 63 54 64 38 65 39 66 47 67 40 68 41 69
REMARK SMILES IDX 45 70 48 71 42 72 43 73 46 74 44 75 70 76 71 77 79 78 72 79
REMARK SMILES IDX 73 80 77 81 80 82 74 83 75 84 78 85 76 86 55 87 56 88 64 89
REMARK SMILES IDX 57 90 58 91 62 92 65 93 59 94 60 95 63 96 61 97
REMARK H PARENT 5 12 8 15 15 25 15 26 85 50 53 61
REMARK Flexibility Score: inf
ROOT
ATOM      1  C   UNL     1       4.829   3.126   2.569  1.00  0.00     0.202 C 
ENDROOT
BRANCH   1   2
ATOM      2  C   UNL     1       3.880   4.156   1.860  1.00  0.00     0.261 C 
BRANCH   2   3
ATOM      3  O   UNL     1       2.486   3.746   1.879  1.00  0.00    -0.462 OA
BRANCH   3   4
ATOM      4  C   UNL     1       1.633   3.770   0.797  1.00  0.00     0.331 C 
ATOM      5  O   UNL     1       1.854   4.429  -0.215  1.00  0.00    -0.249 OA
BRANCH   4   6
ATOM      6  C   UNL     1       0.352   2.746   0.984  1.00  0.00     0.136 C 
ATOM      7  C   UNL     1      -0.867   3.623   0.627  1.00  0.00     0.047 C 
BRANCH   6   8
ATOM      8  C   UNL     1      -0.050   1.298   0.445  1.00  0.00     0.037 C 
ATOM      9  C   UNL     1       0.206   0.709  -0.925  1.00  0.00     0.007 C 
ENDBRANCH   6   8
BRANCH   6  10
ATOM     10  N   UNL     1       0.492   2.459   2.396  1.00  0.00    -0.322 N 
ATOM     11  C   UNL     1       1.389   1.602   2.929  1.00  0.00     0.320 C 
ATOM     12  H   UNL     1      -0.113   2.926   3.016  1.00  0.00     0.166 HD
ATOM     13  O   UNL     1       1.286   1.402   4.145  1.00  0.00    -0.248 OA
ATOM     14  N   UNL     1       2.349   0.905   2.250  1.00  0.00    -0.308 N 
ATOM     15  H   UNL     1       2.658   0.194   2.856  1.00  0.00     0.171 HD
BRANCH  14  16
ATOM     16  C   UNL     1       3.105   0.759   1.031  1.00  0.00     0.043 A 
ATOM     17  C   UNL     1       4.065  -0.258   1.038  1.00  0.00     0.026 A 
ATOM     18  C   UNL     1       3.071   1.486  -0.165  1.00  0.00     0.035 A 
ATOM     19  C   UNL     1       4.901  -0.515  -0.067  1.00  0.00     0.003 A 
ATOM     20  C   UNL     1       3.863   1.244  -1.314  1.00  0.00     0.008 A 
ATOM     21  C   UNL     1       4.805   0.234  -1.241  1.00  0.00     0.010 A 
BRANCH  20  22
ATOM     22  C   UNL     1       3.538   1.982  -2.608  1.00  0.00     0.297 C 
BRANCH  22  23
ATOM     23  N   UNL     1       4.416   3.114  -2.909  1.00  0.00    -0.345 N 
ATOM     24  C   UNL     1       3.817   3.937  -3.967  1.00  0.00     0.331 C 
ATOM     25  H   UNL     1       5.323   2.766  -3.221  1.00  0.00     0.346 HD
ATOM     26  H   UNL     1       4.538   3.680  -2.069  1.00  0.00     0.346 HD
ENDBRANCH  22  23
ENDBRANCH  20  22
ENDBRANCH  14  16
ENDBRANCH   6  10
ENDBRANCH   4   6
ENDBRANCH   3   4
ENDBRANCH   2   3
ENDBRANCH   1   2
BRANCH   1  27
ATOM     27  O   UNL     1       4.120   2.317   3.496  1.00  0.00    -0.374 OA
BRANCH  27  28
ATOM     28  C   UNL     1       4.838   1.395   4.319  1.00  0.00     0.202 C 
BRANCH  28  29
ATOM     29  C   UNL     1       4.253   1.568   5.732  1.00  0.00     0.261 C 
BRANCH  29  30
ATOM     30  O   UNL     1       4.350   2.950   6.111  1.00  0.00    -0.460 OA
BRANCH  30  31
ATOM     31  C   UNL     1       5.629   3.364   6.180  1.00  0.00     0.338 C 
ATOM     32  O   UNL     1       6.607   2.662   6.408  1.00  0.00    -0.246 OA
BRANCH  31  33
ATOM     33  C   UNL     1       5.727   4.738   5.659  1.00  0.00     0.060 A 
ATOM     34  C   UNL     1       6.904   5.065   4.971  1.00  0.00     0.016 A 
ATOM     35  C   UNL     1       4.703   5.678   5.816  1.00  0.00     0.016 A 
ATOM     36  C   UNL     1       7.111   6.363   4.535  1.00  0.00     0.010 A 
ATOM     37  C   UNL     1       4.918   6.990   5.399  1.00  0.00     0.010 A 
ATOM     38  C   UNL     1       6.154   7.340   4.829  1.00  0.00    -0.014 A 
BRANCH  38  39
ATOM     39  C   UNL     1       6.609   8.741   4.867  1.00  0.00     0.031 A 
ATOM     40  C   UNL     1       7.147   9.248   6.177  1.00  0.00     0.074 A 
ATOM     41  C   UNL     1       6.632   9.498   3.761  1.00  0.00     0.049 A 
ATOM     42  N   UNL     1       7.650  10.415   6.476  1.00  0.00    -0.248 NA
ATOM     43  C   UNL     1       7.120   8.299   7.305  1.00  0.00     0.031 C 
ATOM     44  C   UNL     1       6.196   9.073   2.435  1.00  0.00     0.029 A 
ATOM     45  N   UNL     1       7.054  10.789   3.588  1.00  0.00    -0.354 N 
ATOM     46  C   UNL     1       7.999  10.336   7.818  1.00  0.00     0.074 A 
ATOM     47  C   UNL     1       7.617   9.027   8.289  1.00  0.00     0.031 C 
ATOM     48  C   UNL     1       6.367  10.094   1.577  1.00  0.00     0.029 A 
ATOM     49  C   UNL     1       6.897  11.245   2.305  1.00  0.00     0.049 A 
ATOM     50  H   UNL     1       7.432  11.336   4.314  1.00  0.00     0.167 HD
ATOM     51  C   UNL     1       8.598  11.273   8.587  1.00  0.00     0.037 A 
ATOM     52  C   UNL     1       7.144  12.467   1.796  1.00  0.00     0.037 A 
ATOM     53  C   UNL     1       8.957  12.579   8.110  1.00  0.00     0.049 A 
ATOM     54  C   UNL     1       7.716  13.530   2.700  1.00  0.00     0.074 A 
ATOM     55  C   UNL     1       9.562  13.613   8.796  1.00  0.00     0.029 A 
ATOM     56  N   UNL     1       8.723  13.032   6.818  1.00  0.00    -0.354 N 
ATOM     57  N   UNL     1       8.065  13.449   3.962  1.00  0.00    -0.248 NA
ATOM     58  C   UNL     1       7.932  14.855   2.103  1.00  0.00     0.031 C 
ATOM     59  C   UNL     1       9.637  14.715   7.939  1.00  0.00     0.029 A 
ATOM     60  C   UNL     1       9.143  14.345   6.697  1.00  0.00     0.049 A 
ATOM     61  H   UNL     1       8.320  12.498   6.096  1.00  0.00     0.167 HD
ATOM     62  C   UNL     1       8.571  14.698   4.302  1.00  0.00     0.074 A 
ATOM     63  C   UNL     1       8.494  15.514   3.107  1.00  0.00     0.031 C 
ATOM     64  C   UNL     1       9.059  15.132   5.492  1.00  0.00     0.037 A 
BRANCH  51  65
ATOM     65  C   UNL     1       8.846  10.926  10.025  1.00  0.00     0.064 A 
ATOM     66  C   UNL     1       9.794   9.961  10.403  1.00  0.00     0.173 A 
ATOM     67  C   UNL     1       8.114  11.559  11.040  1.00  0.00     0.173 A 
ATOM     68  F   UNL     1      10.502   9.307   9.470  1.00  0.00    -0.203 F 
ATOM     69  C   UNL     1       9.975   9.622  11.742  1.00  0.00     0.198 A 
ATOM     70  C   UNL     1       8.323  11.242  12.379  1.00  0.00     0.198 A 
ATOM     71  F   UNL     1       7.191  12.483  10.733  1.00  0.00    -0.203 F 
ATOM     72  F   UNL     1      10.841   8.654  12.075  1.00  0.00    -0.200 F 
ATOM     73  C   UNL     1       9.245  10.267  12.728  1.00  0.00     0.200 A 
ATOM     74  F   UNL     1       7.622  11.873  13.331  1.00  0.00    -0.200 F 
ATOM     75  F   UNL     1       9.422   9.942  14.016  1.00  0.00    -0.200 F 
ENDBRANCH  51  65
BRANCH  52  76
ATOM     76  C   UNL     1       6.843  12.749   0.370  1.00  0.00     0.064 A 
ATOM     77  C   UNL     1       7.867  13.011  -0.549  1.00  0.00     0.173 A 
ATOM     78  C   UNL     1       5.522  12.773  -0.102  1.00  0.00     0.173 A 
ATOM     79  F   UNL     1       9.146  13.021  -0.143  1.00  0.00    -0.203 F 
ATOM     80  C   UNL     1       7.581  13.307  -1.881  1.00  0.00     0.198 A 
ATOM     81  C   UNL     1       5.238  13.039  -1.439  1.00  0.00     0.198 A 
ATOM     82  F   UNL     1       4.504  12.529   0.737  1.00  0.00    -0.203 F 
ATOM     83  F   UNL     1       8.577  13.601  -2.728  1.00  0.00    -0.200 F 
ATOM     84  C   UNL     1       6.268  13.315  -2.326  1.00  0.00     0.200 A 
ATOM     85  F   UNL     1       3.969  13.033  -1.867  1.00  0.00    -0.200 F 
ATOM     86  F   UNL     1       5.994  13.596  -3.607  1.00  0.00    -0.200 F 
ENDBRANCH  52  76
BRANCH  64  87
ATOM     87  C   UNL     1       9.585  16.538   5.551  1.00  0.00     0.064 A 
ATOM     88  C   UNL     1       8.732  17.650   5.488  1.00  0.00     0.173 A 
ATOM     89  C   UNL     1      10.957  16.772   5.728  1.00  0.00     0.173 A 
ATOM     90  F   UNL     1       7.414  17.481   5.308  1.00  0.00    -0.203 F 
ATOM     91  C   UNL     1       9.239  18.944   5.571  1.00  0.00     0.198 A 
ATOM     92  C   UNL     1      11.455  18.065   5.848  1.00  0.00     0.198 A 
ATOM     93  F   UNL     1      11.815  15.742   5.807  1.00  0.00    -0.203 F 
ATOM     94  F   UNL     1       8.412  19.993   5.456  1.00  0.00    -0.200 F 
ATOM     95  C   UNL     1      10.597  19.150   5.761  1.00  0.00     0.200 A 
ATOM     96  F   UNL     1      12.765  18.261   6.052  1.00  0.00    -0.200 F 
ATOM     97  F   UNL     1      11.080  20.397   5.853  1.00  0.00    -0.200 F 
ENDBRANCH  64  87
ENDBRANCH  38  39
ENDBRANCH  31  33
ENDBRANCH  30  31
ENDBRANCH  29  30
ENDBRANCH  28  29
ENDBRANCH  27  28
ENDBRANCH   1  27
TORSDOF 19
