REMARK SMILES Cc1noc(C[N@H+]2CCC[C@@H](c3ccc(C(=O)OCCOCCOC(=O)c4ccc(-c5c6nc(c(-c7c(F)c(F)c(F)c(F)c7F)c7ccc([nH]7)c(-c7c(F)c(F)c(F)c(F)c7F)c7nc(c(-c8c(F)c(F)c(F)c(F)c8F)c8ccc5[nH]8)C=C7)C=C6)cc4)cc3)C2)n1
REMARK SMILES IDX 20 1 19 2 18 3 16 4 17 5 15 6 12 7 13 8 91 9 14 10 90 11
REMARK SMILES IDX 11 12 7 13 8 14 92 15 9 17 10 18 6 19 5 20 1 21 2 22 3 23
REMARK SMILES IDX 93 24 4 25 21 26 22 27 23 28 24 29 25 30 26 31 27 32 28 33
REMARK SMILES IDX 89 34 29 35 88 36 30 37 31 38 32 39 82 40 33 41 87 42 81 43
REMARK SMILES IDX 83 44 34 45 86 46 80 47 79 48 35 50 67 51 47 52 66 53 48 54
REMARK SMILES IDX 51 55 65 56 84 57 49 58 50 59 64 61 85 62 52 63 36 64 37 65
REMARK SMILES IDX 45 66 38 67 39 68 43 69 46 70 40 71 41 72 44 73 42 74 68 75
REMARK SMILES IDX 69 76 77 77 70 78 71 79 75 80 78 81 72 82 73 83 76 84 74 85
REMARK SMILES IDX 53 86 54 87 62 88 55 89 56 90 60 91 63 92 57 93 58 94 61 95
REMARK SMILES IDX 59 96
REMARK H PARENT 7 16 83 49 51 60
REMARK Flexibility Score: inf
ROOT
ATOM      1  C   UNL     1      -6.166   8.489  -3.071  1.00  0.00     0.202 C 
ENDROOT
BRANCH   1   2
ATOM      2  C   UNL     1      -5.449   8.432  -1.719  1.00  0.00     0.261 C 
BRANCH   2   3
ATOM      3  O   UNL     1      -4.103   7.953  -1.867  1.00  0.00    -0.460 OA
BRANCH   3   4
ATOM      4  C   UNL     1      -3.889   6.725  -1.337  1.00  0.00     0.338 C 
ATOM      5  O   UNL     1      -4.654   6.090  -0.627  1.00  0.00    -0.246 OA
BRANCH   4   6
ATOM      6  C   UNL     1      -2.636   6.146  -1.867  1.00  0.00     0.060 A 
ATOM      7  C   UNL     1      -0.272   4.849  -2.639  1.00  0.00    -0.039 A 
ATOM      8  C   UNL     1      -1.478   4.136  -2.530  1.00  0.00     0.005 A 
ATOM      9  C   UNL     1      -0.291   6.241  -2.455  1.00  0.00     0.005 A 
ATOM     10  C   UNL     1      -2.645   4.774  -2.127  1.00  0.00     0.016 A 
ATOM     11  C   UNL     1      -1.474   6.893  -2.079  1.00  0.00     0.016 A 
BRANCH   7  12
ATOM     12  C   UNL     1       1.052   4.098  -2.760  1.00  0.00     0.074 C 
ATOM     13  N   UNL     1       2.378   2.338  -1.467  1.00  0.00    -0.327 N 
ATOM     14  C   UNL     1       2.375   1.475  -2.655  1.00  0.00     0.262 C 
ATOM     15  C   UNL     1       1.237   3.267  -1.465  1.00  0.00     0.270 C 
ATOM     16  H   UNL     1       3.234   2.890  -1.506  1.00  0.00     0.348 HD
ATOM     17  C   UNL     1       2.361   2.301  -3.942  1.00  0.00     0.062 C 
ATOM     18  C   UNL     1       1.129   3.203  -4.005  1.00  0.00     0.020 C 
BRANCH  13  19
ATOM     19  C   UNL     1       2.397   1.535  -0.207  1.00  0.00     0.364 C 
BRANCH  19  20
ATOM     20  C   UNL     1       1.199   0.663   0.028  1.00  0.00     0.281 A 
ATOM     21  C   UNL     1      -2.177  -0.270   0.243  1.00  0.00     0.093 C 
ATOM     22  C   UNL     1      -0.705  -0.187   0.181  1.00  0.00     0.169 A 
ATOM     23  N   UNL     1       0.074  -1.240  -0.097  1.00  0.00    -0.063 NA
ATOM     24  N   UNL     1      -0.042   1.002   0.311  1.00  0.00    -0.191 NA
ATOM     25  O   UNL     1       1.351  -0.676  -0.197  1.00  0.00    -0.333 OA
ENDBRANCH  19  20
ENDBRANCH  13  19
ENDBRANCH   7  12
ENDBRANCH   4   6
ENDBRANCH   3   4
ENDBRANCH   2   3
ENDBRANCH   1   2
BRANCH   1  26
ATOM     26  O   UNL     1      -6.335   7.245  -3.748  1.00  0.00    -0.374 OA
BRANCH  26  27
ATOM     27  C   UNL     1      -5.224   6.757  -4.504  1.00  0.00     0.202 C 
BRANCH  27  28
ATOM     28  C   UNL     1      -4.997   7.410  -5.873  1.00  0.00     0.261 C 
BRANCH  28  29
ATOM     29  O   UNL     1      -4.535   8.767  -5.741  1.00  0.00    -0.460 OA
BRANCH  29  30
ATOM     30  C   UNL     1      -5.404   9.714  -6.162  1.00  0.00     0.338 C 
ATOM     31  O   UNL     1      -6.477   9.545  -6.723  1.00  0.00    -0.246 OA
BRANCH  30  32
ATOM     32  C   UNL     1      -4.968  11.035  -5.675  1.00  0.00     0.060 A 
ATOM     33  C   UNL     1      -5.891  11.795  -4.943  1.00  0.00     0.016 A 
ATOM     34  C   UNL     1      -3.702  11.546  -5.970  1.00  0.00     0.016 A 
ATOM     35  C   UNL     1      -5.565  13.087  -4.537  1.00  0.00     0.010 A 
ATOM     36  C   UNL     1      -3.381  12.847  -5.572  1.00  0.00     0.010 A 
ATOM     37  C   UNL     1      -4.322  13.633  -4.881  1.00  0.00    -0.014 A 
BRANCH  37  38
ATOM     38  C   UNL     1      -4.059  15.072  -4.639  1.00  0.00     0.031 A 
ATOM     39  C   UNL     1      -4.237  16.044  -5.770  1.00  0.00     0.074 A 
ATOM     40  C   UNL     1      -3.687  15.508  -3.424  1.00  0.00     0.049 A 
ATOM     41  N   UNL     1      -4.031  17.337  -5.797  1.00  0.00    -0.248 NA
ATOM     42  C   UNL     1      -4.711  15.482  -7.044  1.00  0.00     0.031 C 
ATOM     43  C   UNL     1      -3.532  14.670  -2.238  1.00  0.00     0.029 A 
ATOM     44  N   UNL     1      -3.372  16.771  -2.991  1.00  0.00    -0.354 N 
ATOM     45  C   UNL     1      -4.348  17.741  -7.087  1.00  0.00     0.074 A 
ATOM     46  C   UNL     1      -4.727  16.552  -7.823  1.00  0.00     0.031 C 
ATOM     47  C   UNL     1      -3.149  15.443  -1.207  1.00  0.00     0.029 A 
ATOM     48  C   UNL     1      -2.999  16.821  -1.671  1.00  0.00     0.049 A 
ATOM     49  H   UNL     1      -3.409  17.566  -3.571  1.00  0.00     0.167 HD
ATOM     50  C   UNL     1      -4.333  18.991  -7.609  1.00  0.00     0.037 A 
ATOM     51  C   UNL     1      -2.568  17.861  -0.931  1.00  0.00     0.037 A 
ATOM     52  C   UNL     1      -3.949  20.169  -6.877  1.00  0.00     0.049 A 
ATOM     53  C   UNL     1      -2.454  19.223  -1.565  1.00  0.00     0.074 A 
ATOM     54  C   UNL     1      -3.925  21.484  -7.306  1.00  0.00     0.029 A 
ATOM     55  N   UNL     1      -3.507  20.170  -5.562  1.00  0.00    -0.354 N 
ATOM     56  N   UNL     1      -2.780  19.604  -2.776  1.00  0.00    -0.248 NA
ATOM     57  C   UNL     1      -1.903  20.297  -0.727  1.00  0.00     0.031 C 
ATOM     58  C   UNL     1      -3.415  22.273  -6.269  1.00  0.00     0.029 A 
ATOM     59  C   UNL     1      -3.171  21.457  -5.175  1.00  0.00     0.049 A 
ATOM     60  H   UNL     1      -3.442  19.373  -4.988  1.00  0.00     0.167 HD
ATOM     61  C   UNL     1      -2.501  20.963  -2.838  1.00  0.00     0.074 A 
ATOM     62  C   UNL     1      -1.987  21.343  -1.538  1.00  0.00     0.031 C 
ATOM     63  C   UNL     1      -2.659  21.820  -3.877  1.00  0.00     0.037 A 
BRANCH  50  64
ATOM     64  C   UNL     1      -4.714  19.135  -9.054  1.00  0.00     0.064 A 
ATOM     65  C   UNL     1      -6.035  18.951  -9.492  1.00  0.00     0.173 A 
ATOM     66  C   UNL     1      -3.744  19.462 -10.013  1.00  0.00     0.173 A 
ATOM     67  F   UNL     1      -6.997  18.623  -8.616  1.00  0.00    -0.203 F 
ATOM     68  C   UNL     1      -6.362  19.051 -10.841  1.00  0.00     0.198 A 
ATOM     69  C   UNL     1      -4.081  19.591 -11.358  1.00  0.00     0.198 A 
ATOM     70  F   UNL     1      -2.468  19.653  -9.648  1.00  0.00    -0.203 F 
ATOM     71  F   UNL     1      -7.618  18.813 -11.244  1.00  0.00    -0.200 F 
ATOM     72  C   UNL     1      -5.387  19.375 -11.773  1.00  0.00     0.200 A 
ATOM     73  F   UNL     1      -3.139  19.913 -12.255  1.00  0.00    -0.200 F 
ATOM     74  F   UNL     1      -5.703  19.467 -13.072  1.00  0.00    -0.200 F 
ENDBRANCH  50  64
BRANCH  51  75
ATOM     75  C   UNL     1      -2.210  17.656   0.495  1.00  0.00     0.064 A 
ATOM     76  C   UNL     1      -2.998  18.201   1.518  1.00  0.00     0.173 A 
ATOM     77  C   UNL     1      -1.075  16.920   0.867  1.00  0.00     0.173 A 
ATOM     78  F   UNL     1      -4.077  18.936   1.211  1.00  0.00    -0.203 F 
ATOM     79  C   UNL     1      -2.661  18.025   2.858  1.00  0.00     0.198 A 
ATOM     80  C   UNL     1      -0.752  16.723   2.208  1.00  0.00     0.198 A 
ATOM     81  F   UNL     1      -0.285  16.383  -0.074  1.00  0.00    -0.203 F 
ATOM     82  F   UNL     1      -3.411  18.587   3.815  1.00  0.00    -0.200 F 
ATOM     83  C   UNL     1      -1.542  17.280   3.202  1.00  0.00     0.200 A 
ATOM     84  F   UNL     1       0.324  15.996   2.536  1.00  0.00    -0.200 F 
ATOM     85  F   UNL     1      -1.222  17.106   4.491  1.00  0.00    -0.200 F 
ENDBRANCH  51  75
BRANCH  63  86
ATOM     86  C   UNL     1      -2.296  23.259  -3.646  1.00  0.00     0.064 A 
ATOM     87  C   UNL     1      -0.960  23.672  -3.540  1.00  0.00     0.173 A 
ATOM     88  C   UNL     1      -3.295  24.241  -3.571  1.00  0.00     0.173 A 
ATOM     89  F   UNL     1       0.032  22.769  -3.588  1.00  0.00    -0.203 F 
ATOM     90  C   UNL     1      -0.639  25.013  -3.348  1.00  0.00     0.198 A 
ATOM     91  C   UNL     1      -2.969  25.584  -3.408  1.00  0.00     0.198 A 
ATOM     92  F   UNL     1      -4.588  23.899  -3.672  1.00  0.00    -0.203 F 
ATOM     93  F   UNL     1       0.643  25.380  -3.206  1.00  0.00    -0.200 F 
ATOM     94  C   UNL     1      -1.642  25.969  -3.290  1.00  0.00     0.200 A 
ATOM     95  F   UNL     1      -3.940  26.508  -3.365  1.00  0.00    -0.200 F 
ATOM     96  F   UNL     1      -1.331  27.260  -3.113  1.00  0.00    -0.200 F 
ENDBRANCH  63  86
ENDBRANCH  37  38
ENDBRANCH  30  32
ENDBRANCH  29  30
ENDBRANCH  28  29
ENDBRANCH  27  28
ENDBRANCH  26  27
ENDBRANCH   1  26
TORSDOF 17
