REMARK SMILES [NH3+][C@H](Cc1ccc2nsnc2c1)C(=O)OCCOCCOC(=O)c1ccc(-c2c3nc(c(-c4c(F)c(F)c(F)c(F)c4F)c4ccc([nH]4)c(-c4c(F)c(F)c(F)c(F)c4F)c4nc(c(-c5c(F)c(F)c(F)c(F)c5F)c5ccc2[nH]5)C=C4)C=C3)cc1
REMARK SMILES IDX 18 1 17 2 16 3 15 4 13 5 14 6 2 7 1 8 3 12 4 13 5 14 12 15
REMARK SMILES IDX 6 16 11 17 7 18 10 19 8 20 9 21 19 22 20 23 21 24 22 25
REMARK SMILES IDX 23 26 24 27 25 28 86 29 26 30 85 31 27 32 28 33 29 34 79 35
REMARK SMILES IDX 30 36 84 37 78 38 80 39 31 40 83 41 77 42 76 43 32 45 64 46
REMARK SMILES IDX 44 47 63 48 45 49 48 50 62 51 81 52 46 53 47 54 61 56 82 57
REMARK SMILES IDX 49 58 33 59 34 60 42 61 35 62 36 63 40 64 43 65 37 66 38 67
REMARK SMILES IDX 41 68 39 69 65 70 66 71 74 72 67 73 68 74 72 75 75 76 69 77
REMARK SMILES IDX 70 78 73 79 71 80 50 81 51 82 59 83 52 84 53 85 57 86 60 87
REMARK SMILES IDX 54 88 55 89 58 90 56 91
REMARK H PARENT 1 9 1 10 1 11 80 44 48 55
REMARK Flexibility Score: inf
ROOT
ATOM      1  O   UNL     1      -3.309  -1.312  -1.258  1.00  0.00    -0.374 OA
ENDROOT
BRANCH   1   2
ATOM      2  C   UNL     1      -3.753  -0.809  -0.002  1.00  0.00     0.202 C 
BRANCH   2   3
ATOM      3  C   UNL     1      -3.078  -1.351   1.262  1.00  0.00     0.261 C 
BRANCH   3   4
ATOM      4  O   UNL     1      -1.661  -1.116   1.318  1.00  0.00    -0.459 OA
BRANCH   4   5
ATOM      5  C   UNL     1      -0.905  -2.218   1.042  1.00  0.00     0.365 C 
ATOM      6  O   UNL     1      -1.354  -3.299   0.673  1.00  0.00    -0.245 OA
BRANCH   5   7
ATOM      7  C   UNL     1       0.589  -1.991   1.291  1.00  0.00     0.296 C 
BRANCH   7   8
ATOM      8  N   UNL     1       0.865  -2.157   2.736  1.00  0.00    -0.346 N 
ATOM      9  H   UNL     1       0.474  -3.043   3.057  1.00  0.00     0.345 HD
ATOM     10  H   UNL     1       0.437  -1.389   3.254  1.00  0.00     0.345 HD
ATOM     11  H   UNL     1       1.873  -2.153   2.892  1.00  0.00     0.345 HD
ENDBRANCH   7   8
BRANCH   7  12
ATOM     12  C   UNL     1       1.147  -0.667   0.712  1.00  0.00     0.113 C 
BRANCH  12  13
ATOM     13  C   UNL     1       2.585  -0.860   0.241  1.00  0.00    -0.039 A 
ATOM     14  C   UNL     1       2.857  -0.924  -1.156  1.00  0.00     0.006 A 
ATOM     15  C   UNL     1       3.588  -1.105   1.207  1.00  0.00     0.035 A 
ATOM     16  C   UNL     1       4.102  -1.313  -1.691  1.00  0.00     0.032 A 
ATOM     17  C   UNL     1       4.834  -1.567   0.724  1.00  0.00     0.105 A 
ATOM     18  C   UNL     1       5.093  -1.682  -0.752  1.00  0.00     0.104 A 
ATOM     19  N   UNL     1       5.867  -1.965   1.480  1.00  0.00    -0.173 NA
ATOM     20  N   UNL     1       6.312  -2.166  -1.036  1.00  0.00    -0.173 NA
ATOM     21  S   UNL     1       7.044  -2.478   0.424  1.00  0.00     0.069 S 
ENDBRANCH  12  13
ENDBRANCH   7  12
ENDBRANCH   5   7
ENDBRANCH   4   5
ENDBRANCH   3   4
ENDBRANCH   2   3
ENDBRANCH   1   2
BRANCH   1  22
ATOM     22  C   UNL     1      -2.076  -0.816  -1.773  1.00  0.00     0.202 C 
BRANCH  22  23
ATOM     23  C   UNL     1      -2.084   0.615  -2.323  1.00  0.00     0.261 C 
BRANCH  23  24
ATOM     24  O   UNL     1      -2.350   1.591  -1.296  1.00  0.00    -0.460 OA
BRANCH  24  25
ATOM     25  C   UNL     1      -3.462   2.333  -1.506  1.00  0.00     0.338 C 
ATOM     26  O   UNL     1      -4.171   2.341  -2.503  1.00  0.00    -0.246 OA
BRANCH  25  27
ATOM     27  C   UNL     1      -3.852   3.051  -0.279  1.00  0.00     0.060 A 
ATOM     28  C   UNL     1      -5.144   2.820   0.209  1.00  0.00     0.016 A 
ATOM     29  C   UNL     1      -3.031   4.013   0.313  1.00  0.00     0.016 A 
ATOM     30  C   UNL     1      -5.644   3.596   1.250  1.00  0.00     0.010 A 
ATOM     31  C   UNL     1      -3.539   4.798   1.358  1.00  0.00     0.010 A 
ATOM     32  C   UNL     1      -4.862   4.622   1.801  1.00  0.00    -0.014 A 
BRANCH  32  33
ATOM     33  C   UNL     1      -5.508   5.579   2.734  1.00  0.00     0.031 A 
ATOM     34  C   UNL     1      -6.003   6.901   2.210  1.00  0.00     0.074 A 
ATOM     35  C   UNL     1      -5.739   5.234   4.013  1.00  0.00     0.049 A 
ATOM     36  N   UNL     1      -6.676   7.840   2.826  1.00  0.00    -0.248 NA
ATOM     37  C   UNL     1      -5.703   7.203   0.802  1.00  0.00     0.031 C 
ATOM     38  C   UNL     1      -5.330   3.976   4.633  1.00  0.00     0.029 A 
ATOM     39  N   UNL     1      -6.388   5.910   5.016  1.00  0.00    -0.354 N 
ATOM     40  C   UNL     1      -6.895   8.832   1.880  1.00  0.00     0.074 A 
ATOM     41  C   UNL     1      -6.243   8.405   0.660  1.00  0.00     0.031 C 
ATOM     42  C   UNL     1      -5.739   3.968   5.913  1.00  0.00     0.029 A 
ATOM     43  C   UNL     1      -6.426   5.225   6.205  1.00  0.00     0.049 A 
ATOM     44  H   UNL     1      -6.788   6.802   4.894  1.00  0.00     0.167 HD
ATOM     45  C   UNL     1      -7.594   9.986   2.008  1.00  0.00     0.037 A 
ATOM     46  C   UNL     1      -6.954   5.575   7.394  1.00  0.00     0.037 A 
ATOM     47  C   UNL     1      -8.236  10.419   3.222  1.00  0.00     0.049 A 
ATOM     48  C   UNL     1      -7.686   6.885   7.522  1.00  0.00     0.074 A 
ATOM     49  C   UNL     1      -8.962  11.575   3.451  1.00  0.00     0.029 A 
ATOM     50  N   UNL     1      -8.226   9.712   4.415  1.00  0.00    -0.354 N 
ATOM     51  N   UNL     1      -7.910   7.803   6.613  1.00  0.00    -0.248 NA
ATOM     52  C   UNL     1      -8.252   7.200   8.842  1.00  0.00     0.031 C 
ATOM     53  C   UNL     1      -9.357  11.586   4.794  1.00  0.00     0.029 A 
ATOM     54  C   UNL     1      -8.918  10.415   5.388  1.00  0.00     0.049 A 
ATOM     55  H   UNL     1      -7.791   8.839   4.550  1.00  0.00     0.167 HD
ATOM     56  C   UNL     1      -8.655   8.792   7.242  1.00  0.00     0.074 A 
ATOM     57  C   UNL     1      -8.869   8.349   8.604  1.00  0.00     0.031 C 
ATOM     58  C   UNL     1      -9.116   9.964   6.741  1.00  0.00     0.037 A 
BRANCH  45  59
ATOM     59  C   UNL     1      -7.696  10.871   0.800  1.00  0.00     0.064 A 
ATOM     60  C   UNL     1      -8.508  10.527  -0.291  1.00  0.00     0.173 A 
ATOM     61  C   UNL     1      -7.013  12.095   0.751  1.00  0.00     0.173 A 
ATOM     62  F   UNL     1      -9.171   9.361  -0.299  1.00  0.00    -0.203 F 
ATOM     63  C   UNL     1      -8.617  11.369  -1.395  1.00  0.00     0.198 A 
ATOM     64  C   UNL     1      -7.144  12.945  -0.343  1.00  0.00     0.198 A 
ATOM     65  F   UNL     1      -6.226  12.471   1.770  1.00  0.00    -0.203 F 
ATOM     66  F   UNL     1      -9.370  11.003  -2.443  1.00  0.00    -0.200 F 
ATOM     67  C   UNL     1      -7.942  12.580  -1.417  1.00  0.00     0.200 A 
ATOM     68  F   UNL     1      -6.499  14.120  -0.359  1.00  0.00    -0.200 F 
ATOM     69  F   UNL     1      -8.056  13.393  -2.477  1.00  0.00    -0.200 F 
ENDBRANCH  45  59
BRANCH  46  70
ATOM     70  C   UNL     1      -6.807   4.671   8.564  1.00  0.00     0.064 A 
ATOM     71  C   UNL     1      -7.912   4.013   9.121  1.00  0.00     0.173 A 
ATOM     72  C   UNL     1      -5.556   4.470   9.165  1.00  0.00     0.173 A 
ATOM     73  F   UNL     1      -9.133   4.195   8.598  1.00  0.00    -0.203 F 
ATOM     74  C   UNL     1      -7.775   3.206  10.249  1.00  0.00     0.198 A 
ATOM     75  C   UNL     1      -5.415   3.640  10.274  1.00  0.00     0.198 A 
ATOM     76  F   UNL     1      -4.468   5.078   8.670  1.00  0.00    -0.203 F 
ATOM     77  F   UNL     1      -8.855   2.630  10.793  1.00  0.00    -0.200 F 
ATOM     78  C   UNL     1      -6.526   3.016  10.822  1.00  0.00     0.200 A 
ATOM     79  F   UNL     1      -4.204   3.450  10.817  1.00  0.00    -0.200 F 
ATOM     80  F   UNL     1      -6.394   2.240  11.906  1.00  0.00    -0.200 F 
ENDBRANCH  46  70
BRANCH  58  81
ATOM     81  C   UNL     1      -9.906  10.841   7.670  1.00  0.00     0.064 A 
ATOM     82  C   UNL     1      -9.295  11.523   8.733  1.00  0.00     0.173 A 
ATOM     83  C   UNL     1     -11.288  11.009   7.490  1.00  0.00     0.173 A 
ATOM     84  F   UNL     1      -7.979  11.384   8.956  1.00  0.00    -0.203 F 
ATOM     85  C   UNL     1     -10.043  12.311   9.603  1.00  0.00     0.198 A 
ATOM     86  C   UNL     1     -12.028  11.822   8.344  1.00  0.00     0.198 A 
ATOM     87  F   UNL     1     -11.920  10.386   6.485  1.00  0.00    -0.203 F 
ATOM     88  F   UNL     1      -9.447  12.906  10.646  1.00  0.00    -0.200 F 
ATOM     89  C   UNL     1     -11.408  12.463   9.406  1.00  0.00     0.200 A 
ATOM     90  F   UNL     1     -13.344  11.978   8.146  1.00  0.00    -0.200 F 
ATOM     91  F   UNL     1     -12.127  13.220  10.246  1.00  0.00    -0.200 F 
ENDBRANCH  58  81
ENDBRANCH  32  33
ENDBRANCH  25  27
ENDBRANCH  24  25
ENDBRANCH  23  24
ENDBRANCH  22  23
ENDBRANCH   1  22
TORSDOF 17
