REMARK SMILES Cc1cc(C[N@@H+]2CC[C@@H](C(=O)OCCOCCOC(=O)c3ccc(-c4c5nc(c(-c6c(F)c(F)c(F)c(F)c6F)c6ccc([nH]6)c(-c6c(F)c(F)c(F)c(F)c6F)c6nc(c(-c7c(F)c(F)c(F)c(F)c7F)c7ccc4[nH]7)C=C6)C=C5)cc3)C2)ccc1Br
REMARK SMILES IDX 15 1 14 2 13 3 12 4 10 5 11 6 9 7 6 8 7 9 84 10 8 12 5 13
REMARK SMILES IDX 4 14 1 15 2 16 3 17 87 18 86 19 88 20 85 21 16 22 17 23
REMARK SMILES IDX 18 24 19 25 20 26 21 27 22 28 83 29 23 30 82 31 24 32 25 33
REMARK SMILES IDX 26 34 76 35 27 36 81 37 75 38 77 39 28 40 80 41 74 42 73 43
REMARK SMILES IDX 29 45 61 46 41 47 60 48 42 49 45 50 59 51 78 52 43 53 44 54
REMARK SMILES IDX 58 56 79 57 46 58 30 59 31 60 39 61 32 62 33 63 37 64 40 65
REMARK SMILES IDX 34 66 35 67 38 68 36 69 62 70 63 71 71 72 64 73 65 74 69 75
REMARK SMILES IDX 72 76 66 77 67 78 70 79 68 80 47 81 48 82 56 83 49 84 50 85
REMARK SMILES IDX 54 86 57 87 51 88 52 89 55 90 53 91
REMARK H PARENT 6 11 77 44 45 55
REMARK Flexibility Score: inf
ROOT
ATOM      1  O   UNL     1       4.863   1.788  -7.026  1.00  0.00    -0.374 OA
ENDROOT
BRANCH   1   2
ATOM      2  C   UNL     1       4.854   3.141  -6.570  1.00  0.00     0.202 C 
BRANCH   2   3
ATOM      3  C   UNL     1       3.639   3.546  -5.736  1.00  0.00     0.261 C 
BRANCH   3   4
ATOM      4  O   UNL     1       3.757   3.080  -4.377  1.00  0.00    -0.463 OA
BRANCH   4   5
ATOM      5  C   UNL     1       2.814   2.197  -3.950  1.00  0.00     0.314 C 
ATOM      6  O   UNL     1       1.940   1.709  -4.653  1.00  0.00    -0.252 OA
BRANCH   5   7
ATOM      7  C   UNL     1       2.990   1.842  -2.492  1.00  0.00     0.159 C 
ATOM      8  N   UNL     1       4.747   1.292  -0.963  1.00  0.00    -0.330 N 
ATOM      9  C   UNL     1       4.517   2.730  -0.835  1.00  0.00     0.263 C 
ATOM     10  C   UNL     1       4.174   0.911  -2.256  1.00  0.00     0.278 C 
ATOM     11  H   UNL     1       5.747   1.091  -0.949  1.00  0.00     0.348 HD
ATOM     12  C   UNL     1       3.235   3.049  -1.592  1.00  0.00     0.082 C 
BRANCH   8  13
ATOM     13  C   UNL     1       4.347   0.473   0.188  1.00  0.00     0.299 C 
BRANCH  13  14
ATOM     14  C   UNL     1       2.866   0.249   0.411  1.00  0.00     0.007 A 
ATOM     15  C   UNL     1       0.303  -2.501  -0.236  1.00  0.00     0.045 C 
ATOM     16  C   UNL     1       0.883  -1.176   0.171  1.00  0.00    -0.036 A 
ATOM     17  C   UNL     1       2.267  -0.965   0.035  1.00  0.00     0.014 A 
ATOM     18  C   UNL     1       0.093  -0.123   0.652  1.00  0.00     0.020 A 
ATOM     19  C   UNL     1       0.682   1.073   1.068  1.00  0.00     0.016 A 
ATOM     20  Br  UNL     1      -1.800  -0.245   0.750  1.00  0.00    -0.051 Br
ATOM     21  C   UNL     1       2.063   1.244   0.977  1.00  0.00     0.011 A 
ENDBRANCH  13  14
ENDBRANCH   8  13
ENDBRANCH   5   7
ENDBRANCH   4   5
ENDBRANCH   3   4
ENDBRANCH   2   3
ENDBRANCH   1   2
BRANCH   1  22
ATOM     22  C   UNL     1       5.203   0.788  -6.068  1.00  0.00     0.202 C 
BRANCH  22  23
ATOM     23  C   UNL     1       6.705   0.574  -5.848  1.00  0.00     0.261 C 
BRANCH  23  24
ATOM     24  O   UNL     1       7.344   1.743  -5.302  1.00  0.00    -0.460 OA
BRANCH  24  25
ATOM     25  C   UNL     1       8.154   2.391  -6.169  1.00  0.00     0.338 C 
ATOM     26  O   UNL     1       8.459   2.040  -7.303  1.00  0.00    -0.246 OA
BRANCH  25  27
ATOM     27  C   UNL     1       8.552   3.708  -5.641  1.00  0.00     0.060 A 
ATOM     28  C   UNL     1       8.424   4.801  -6.507  1.00  0.00     0.016 A 
ATOM     29  C   UNL     1       9.158   3.862  -4.391  1.00  0.00     0.016 A 
ATOM     30  C   UNL     1       8.985   6.029  -6.169  1.00  0.00     0.010 A 
ATOM     31  C   UNL     1       9.725   5.099  -4.052  1.00  0.00     0.010 A 
ATOM     32  C   UNL     1       9.692   6.168  -4.968  1.00  0.00    -0.014 A 
BRANCH  32  33
ATOM     33  C   UNL     1      10.564   7.358  -4.801  1.00  0.00     0.031 A 
ATOM     34  C   UNL     1      12.028   7.234  -5.135  1.00  0.00     0.074 A 
ATOM     35  C   UNL     1      10.051   8.554  -4.463  1.00  0.00     0.049 A 
ATOM     36  N   UNL     1      12.959   8.154  -5.157  1.00  0.00    -0.248 NA
ATOM     37  C   UNL     1      12.505   5.890  -5.500  1.00  0.00     0.031 C 
ATOM     38  C   UNL     1       8.647   8.813  -4.154  1.00  0.00     0.029 A 
ATOM     39  N   UNL     1      10.656   9.780  -4.342  1.00  0.00    -0.354 N 
ATOM     40  C   UNL     1      14.125   7.503  -5.540  1.00  0.00     0.074 A 
ATOM     41  C   UNL     1      13.796   6.104  -5.702  1.00  0.00     0.031 C 
ATOM     42  C   UNL     1       8.496  10.121  -3.884  1.00  0.00     0.029 A 
ATOM     43  C   UNL     1       9.794  10.787  -3.988  1.00  0.00     0.049 A 
ATOM     44  H   UNL     1      11.618   9.923  -4.494  1.00  0.00     0.167 HD
ATOM     45  C   UNL     1      15.356   8.025  -5.755  1.00  0.00     0.037 A 
ATOM     46  C   UNL     1      10.028  12.096  -3.774  1.00  0.00     0.037 A 
ATOM     47  C   UNL     1      15.687   9.416  -5.601  1.00  0.00     0.049 A 
ATOM     48  C   UNL     1      11.417  12.645  -3.977  1.00  0.00     0.074 A 
ATOM     49  C   UNL     1      16.906  10.042  -5.797  1.00  0.00     0.029 A 
ATOM     50  N   UNL     1      14.791  10.399  -5.210  1.00  0.00    -0.354 N 
ATOM     51  N   UNL     1      12.505  12.026  -4.365  1.00  0.00    -0.248 NA
ATOM     52  C   UNL     1      11.604  14.081  -3.725  1.00  0.00     0.031 C 
ATOM     53  C   UNL     1      16.756  11.398  -5.487  1.00  0.00     0.029 A 
ATOM     54  C   UNL     1      15.433  11.625  -5.144  1.00  0.00     0.049 A 
ATOM     55  H   UNL     1      13.839  10.248  -5.009  1.00  0.00     0.167 HD
ATOM     56  C   UNL     1      13.494  12.998  -4.437  1.00  0.00     0.074 A 
ATOM     57  C   UNL     1      12.875  14.252  -4.062  1.00  0.00     0.031 C 
ATOM     58  C   UNL     1      14.798  12.866  -4.785  1.00  0.00     0.037 A 
BRANCH  45  59
ATOM     59  C   UNL     1      16.444   7.076  -6.165  1.00  0.00     0.064 A 
ATOM     60  C   UNL     1      16.481   6.510  -7.448  1.00  0.00     0.173 A 
ATOM     61  C   UNL     1      17.475   6.749  -5.272  1.00  0.00     0.173 A 
ATOM     62  F   UNL     1      15.510   6.779  -8.334  1.00  0.00    -0.203 F 
ATOM     63  C   UNL     1      17.498   5.631  -7.814  1.00  0.00     0.198 A 
ATOM     64  C   UNL     1      18.504   5.891  -5.649  1.00  0.00     0.198 A 
ATOM     65  F   UNL     1      17.486   7.266  -4.034  1.00  0.00    -0.203 F 
ATOM     66  F   UNL     1      17.489   5.066  -9.029  1.00  0.00    -0.200 F 
ATOM     67  C   UNL     1      18.511   5.327  -6.917  1.00  0.00     0.200 A 
ATOM     68  F   UNL     1      19.488   5.606  -4.785  1.00  0.00    -0.200 F 
ATOM     69  F   UNL     1      19.491   4.484  -7.271  1.00  0.00    -0.200 F 
ENDBRANCH  45  59
BRANCH  46  70
ATOM     70  C   UNL     1       8.916  12.989  -3.357  1.00  0.00     0.064 A 
ATOM     71  C   UNL     1       8.416  13.977  -4.217  1.00  0.00     0.173 A 
ATOM     72  C   UNL     1       8.348  12.887  -2.079  1.00  0.00     0.173 A 
ATOM     73  F   UNL     1       8.945  14.130  -5.440  1.00  0.00    -0.203 F 
ATOM     74  C   UNL     1       7.402  14.840  -3.808  1.00  0.00     0.198 A 
ATOM     75  C   UNL     1       7.316  13.734  -1.681  1.00  0.00     0.198 A 
ATOM     76  F   UNL     1       8.793  11.960  -1.218  1.00  0.00    -0.203 F 
ATOM     77  F   UNL     1       6.974  15.806  -4.633  1.00  0.00    -0.200 F 
ATOM     78  C   UNL     1       6.849  14.715  -2.542  1.00  0.00     0.200 A 
ATOM     79  F   UNL     1       6.778  13.603  -0.460  1.00  0.00    -0.200 F 
ATOM     80  F   UNL     1       5.873  15.545  -2.149  1.00  0.00    -0.200 F 
ENDBRANCH  46  70
BRANCH  58  81
ATOM     81  C   UNL     1      15.632  14.114  -4.822  1.00  0.00     0.064 A 
ATOM     82  C   UNL     1      16.032  14.771  -3.649  1.00  0.00     0.173 A 
ATOM     83  C   UNL     1      16.063  14.641  -6.050  1.00  0.00     0.173 A 
ATOM     84  F   UNL     1      15.636  14.314  -2.452  1.00  0.00    -0.203 F 
ATOM     85  C   UNL     1      16.808  15.926  -3.705  1.00  0.00     0.198 A 
ATOM     86  C   UNL     1      16.862  15.780  -6.101  1.00  0.00     0.198 A 
ATOM     87  F   UNL     1      15.715  14.045  -7.201  1.00  0.00    -0.203 F 
ATOM     88  F   UNL     1      17.136  16.565  -2.574  1.00  0.00    -0.200 F 
ATOM     89  C   UNL     1      17.226  16.426  -4.930  1.00  0.00     0.200 A 
ATOM     90  F   UNL     1      17.276  16.254  -7.284  1.00  0.00    -0.200 F 
ATOM     91  F   UNL     1      17.974  17.537  -4.981  1.00  0.00    -0.200 F 
ENDBRANCH  58  81
ENDBRANCH  32  33
ENDBRANCH  25  27
ENDBRANCH  24  25
ENDBRANCH  23  24
ENDBRANCH  22  23
ENDBRANCH   1  22
TORSDOF 16
