REMARK SMILES Cc1cc2c(c(C)c1Br)C=C(C(=O)OCCOCCOC(=O)c1ccc(-c3c4nc(c(-c5c(F)c(F)c(F)c(F)c5F)c5ccc([nH]5)c(-c5c(F)c(F)c(F)c(F)c5F)c5nc(c(-c6c(F)c(F)c(F)c(F)c6F)c6ccc3[nH]6)C=C5)C=C4)cc1)[C@@H](C(F)(F)F)O2
REMARK SMILES IDX 18 1 17 2 16 3 15 4 14 5 12 6 13 7 11 8 1 9 2 10 3 11 8 12
REMARK SMILES IDX 4 13 6 14 9 15 5 16 91 17 7 18 10 19 86 20 87 21 88 22 89 23
REMARK SMILES IDX 90 24 19 25 20 26 21 27 22 28 23 29 24 30 85 31 25 32 84 33
REMARK SMILES IDX 26 34 27 35 28 36 78 37 29 38 83 39 77 40 79 41 30 42 82 43
REMARK SMILES IDX 76 44 75 45 31 47 63 48 43 49 62 50 44 51 47 52 61 53 80 54
REMARK SMILES IDX 45 55 46 56 60 58 81 59 48 60 32 61 33 62 41 63 34 64 35 65
REMARK SMILES IDX 39 66 42 67 36 68 37 69 40 70 38 71 64 72 65 73 73 74 66 75
REMARK SMILES IDX 67 76 71 77 74 78 68 79 69 80 72 81 70 82 49 83 50 84 58 85
REMARK SMILES IDX 51 86 52 87 56 88 59 89 53 90 54 91 57 92 55 93
REMARK H PARENT 79 46 47 57
REMARK Flexibility Score: inf
ROOT
ATOM      1  C   UNL     1       0.642   6.509   6.062  1.00  0.00     0.202 C 
ENDROOT
BRANCH   1   2
ATOM      2  O   UNL     1      -0.179   7.652   6.305  1.00  0.00    -0.374 OA
BRANCH   2   3
ATOM      3  C   UNL     1      -1.375   7.467   7.059  1.00  0.00     0.202 C 
BRANCH   3   4
ATOM      4  C   UNL     1      -2.572   6.872   6.312  1.00  0.00     0.261 C 
BRANCH   4   5
ATOM      5  O   UNL     1      -2.247   5.611   5.706  1.00  0.00    -0.460 OA
BRANCH   5   6
ATOM      6  C   UNL     1      -2.265   5.621   4.353  1.00  0.00     0.338 C 
ATOM      7  O   UNL     1      -2.658   6.525   3.631  1.00  0.00    -0.246 OA
BRANCH   6   8
ATOM      8  C   UNL     1      -1.613   4.405   3.834  1.00  0.00     0.087 C 
ATOM      9  C   UNL     1       1.038  -0.149   0.081  1.00  0.00     0.046 C 
ATOM     10  C   UNL     1       0.690   1.122   0.811  1.00  0.00    -0.033 A 
ATOM     11  C   UNL     1      -0.085   1.029   1.975  1.00  0.00     0.051 A 
ATOM     12  C   UNL     1       1.094   2.396   0.359  1.00  0.00     0.024 A 
ATOM     13  C   UNL     1      -0.511   2.173   2.645  1.00  0.00     0.128 A 
ATOM     14  C   UNL     1       0.694   3.569   1.042  1.00  0.00    -0.026 A 
ATOM     15  Br  UNL     1       2.174   2.501  -1.220  1.00  0.00    -0.050 Br
ATOM     16  C   UNL     1      -0.159   3.441   2.169  1.00  0.00     0.021 A 
ATOM     17  O   UNL     1      -1.272   1.946   3.758  1.00  0.00    -0.475 OA
ATOM     18  C   UNL     1       1.133   4.950   0.607  1.00  0.00     0.046 C 
ATOM     19  C   UNL     1      -0.753   4.600   2.827  1.00  0.00     0.027 C 
ATOM     20  C   UNL     1      -1.943   3.060   4.405  1.00  0.00     0.316 C 
BRANCH  20  21
ATOM     21  C   UNL     1      -3.451   2.772   4.419  1.00  0.00     0.430 C 
ATOM     22  F   UNL     1      -3.708   1.532   4.904  1.00  0.00    -0.167 F 
ATOM     23  F   UNL     1      -4.120   3.640   5.214  1.00  0.00    -0.167 F 
ATOM     24  F   UNL     1      -3.997   2.847   3.185  1.00  0.00    -0.167 F 
ENDBRANCH  20  21
ENDBRANCH   6   8
ENDBRANCH   5   6
ENDBRANCH   4   5
ENDBRANCH   3   4
ENDBRANCH   2   3
ENDBRANCH   1   2
BRANCH   1  25
ATOM     25  C   UNL     1       1.409   5.933   7.259  1.00  0.00     0.261 C 
BRANCH  25  26
ATOM     26  O   UNL     1       0.528   5.303   8.209  1.00  0.00    -0.460 OA
BRANCH  26  27
ATOM     27  C   UNL     1       0.535   5.853   9.445  1.00  0.00     0.338 C 
ATOM     28  O   UNL     1       1.250   6.759   9.855  1.00  0.00    -0.246 OA
BRANCH  27  29
ATOM     29  C   UNL     1      -0.597   5.335  10.230  1.00  0.00     0.060 A 
ATOM     30  C   UNL     1      -1.548   6.257  10.688  1.00  0.00     0.016 A 
ATOM     31  C   UNL     1      -0.677   3.990  10.592  1.00  0.00     0.016 A 
ATOM     32  C   UNL     1      -2.563   5.841  11.544  1.00  0.00     0.010 A 
ATOM     33  C   UNL     1      -1.690   3.577  11.464  1.00  0.00     0.010 A 
ATOM     34  C   UNL     1      -2.616   4.507  11.969  1.00  0.00    -0.014 A 
BRANCH  34  35
ATOM     35  C   UNL     1      -3.549   4.134  13.059  1.00  0.00     0.031 A 
ATOM     36  C   UNL     1      -3.037   4.090  14.472  1.00  0.00     0.074 A 
ATOM     37  C   UNL     1      -4.846   3.897  12.801  1.00  0.00     0.049 A 
ATOM     38  N   UNL     1      -3.677   3.812  15.578  1.00  0.00    -0.248 NA
ATOM     39  C   UNL     1      -1.612   4.408  14.664  1.00  0.00     0.031 C 
ATOM     40  C   UNL     1      -5.467   3.959  11.480  1.00  0.00     0.029 A 
ATOM     41  N   UNL     1      -5.877   3.566  13.645  1.00  0.00    -0.354 N 
ATOM     42  C   UNL     1      -2.740   3.932  16.596  1.00  0.00     0.074 A 
ATOM     43  C   UNL     1      -1.478   4.269  15.975  1.00  0.00     0.031 C 
ATOM     44  C   UNL     1      -6.776   3.679  11.601  1.00  0.00     0.029 A 
ATOM     45  C   UNL     1      -7.078   3.393  13.003  1.00  0.00     0.049 A 
ATOM     46  H   UNL     1      -5.766   3.462  14.617  1.00  0.00     0.167 HD
ATOM     47  C   UNL     1      -2.922   3.791  17.930  1.00  0.00     0.037 A 
ATOM     48  C   UNL     1      -8.281   3.035  13.493  1.00  0.00     0.037 A 
ATOM     49  C   UNL     1      -4.177   3.453  18.546  1.00  0.00     0.049 A 
ATOM     50  C   UNL     1      -8.434   2.788  14.972  1.00  0.00     0.074 A 
ATOM     51  C   UNL     1      -4.462   3.294  19.890  1.00  0.00     0.029 A 
ATOM     52  N   UNL     1      -5.356   3.216  17.855  1.00  0.00    -0.354 N 
ATOM     53  N   UNL     1      -7.548   2.921  15.929  1.00  0.00    -0.248 NA
ATOM     54  C   UNL     1      -9.755   2.338  15.438  1.00  0.00     0.031 C 
ATOM     55  C   UNL     1      -5.802   2.915  20.011  1.00  0.00     0.029 A 
ATOM     56  C   UNL     1      -6.365   2.884  18.744  1.00  0.00     0.049 A 
ATOM     57  H   UNL     1      -5.461   3.276  16.878  1.00  0.00     0.167 HD
ATOM     58  C   UNL     1      -8.205   2.594  17.108  1.00  0.00     0.074 A 
ATOM     59  C   UNL     1      -9.570   2.268  16.750  1.00  0.00     0.031 C 
ATOM     60  C   UNL     1      -7.720   2.565  18.373  1.00  0.00     0.037 A 
BRANCH  47  61
ATOM     61  C   UNL     1      -1.734   3.997  18.820  1.00  0.00     0.064 A 
ATOM     62  C   UNL     1      -1.214   5.277  19.061  1.00  0.00     0.173 A 
ATOM     63  C   UNL     1      -1.146   2.911  19.486  1.00  0.00     0.173 A 
ATOM     64  F   UNL     1      -1.733   6.345  18.437  1.00  0.00    -0.203 F 
ATOM     65  C   UNL     1      -0.140   5.461  19.928  1.00  0.00     0.198 A 
ATOM     66  C   UNL     1      -0.089   3.102  20.371  1.00  0.00     0.198 A 
ATOM     67  F   UNL     1      -1.609   1.667  19.292  1.00  0.00    -0.203 F 
ATOM     68  F   UNL     1       0.361   6.689  20.120  1.00  0.00    -0.200 F 
ATOM     69  C   UNL     1       0.416   4.375  20.589  1.00  0.00     0.200 A 
ATOM     70  F   UNL     1       0.439   2.053  21.018  1.00  0.00    -0.200 F 
ATOM     71  F   UNL     1       1.440   4.556  21.433  1.00  0.00    -0.200 F 
ENDBRANCH  47  61
BRANCH  48  72
ATOM     72  C   UNL     1      -9.440   2.894  12.575  1.00  0.00     0.064 A 
ATOM     73  C   UNL     1     -10.508   3.801  12.617  1.00  0.00     0.173 A 
ATOM     74  C   UNL     1      -9.503   1.855  11.635  1.00  0.00     0.173 A 
ATOM     75  F   UNL     1     -10.505   4.796  13.517  1.00  0.00    -0.203 F 
ATOM     76  C   UNL     1     -11.597   3.670  11.759  1.00  0.00     0.198 A 
ATOM     77  C   UNL     1     -10.581   1.739  10.760  1.00  0.00     0.198 A 
ATOM     78  F   UNL     1      -8.509   0.958  11.558  1.00  0.00    -0.203 F 
ATOM     79  F   UNL     1     -12.621   4.530  11.843  1.00  0.00    -0.200 F 
ATOM     80  C   UNL     1     -11.630   2.644  10.826  1.00  0.00     0.200 A 
ATOM     81  F   UNL     1     -10.604   0.752   9.855  1.00  0.00    -0.200 F 
ATOM     82  F   UNL     1     -12.674   2.523   9.995  1.00  0.00    -0.200 F 
ENDBRANCH  48  72
BRANCH  60  83
ATOM     83  C   UNL     1      -8.662   2.180  19.476  1.00  0.00     0.064 A 
ATOM     84  C   UNL     1      -9.066   0.850  19.659  1.00  0.00     0.173 A 
ATOM     85  C   UNL     1      -9.090   3.134  20.412  1.00  0.00     0.173 A 
ATOM     86  F   UNL     1      -8.692  -0.095  18.783  1.00  0.00    -0.203 F 
ATOM     87  C   UNL     1      -9.872   0.490  20.735  1.00  0.00     0.198 A 
ATOM     88  C   UNL     1      -9.873   2.765  21.502  1.00  0.00     0.198 A 
ATOM     89  F   UNL     1      -8.723   4.418  20.286  1.00  0.00    -0.203 F 
ATOM     90  F   UNL     1     -10.268  -0.782  20.877  1.00  0.00    -0.200 F 
ATOM     91  C   UNL     1     -10.265   1.445  21.662  1.00  0.00     0.200 A 
ATOM     92  F   UNL     1     -10.239   3.686  22.405  1.00  0.00    -0.200 F 
ATOM     93  F   UNL     1     -11.023   1.091  22.709  1.00  0.00    -0.200 F 
ENDBRANCH  60  83
ENDBRANCH  34  35
ENDBRANCH  27  29
ENDBRANCH  26  27
ENDBRANCH  25  26
ENDBRANCH   1  25
TORSDOF 15
