REMARK SMILES NC(=O)C[C@H](NC(=O)C1(c2ccccc2)CCN(C(=O)[C@@H]2CCC[NH2+]2)CC1)C(=O)OCCOCCOC(=O)c1ccc(-c2c3nc(c(-c4c(F)c(F)c(F)c(F)c4F)c4ccc([nH]4)c(-c4c(F)c(F)c(F)c(F)c4F)c4nc(c(-c5c(F)c(F)c(F)c(F)c5F)c5ccc2[nH]5)C=C4)C=C3)cc1
REMARK SMILES IDX 32 1 31 2 30 3 28 4 29 5 5 6 4 7 2 8 1 9 3 12 6 13 7 14 8 16
REMARK SMILES IDX 9 17 16 18 27 19 17 20 26 21 18 22 19 23 20 24 10 25 11 26
REMARK SMILES IDX 15 27 12 28 14 29 13 30 21 31 22 32 25 33 23 34 24 35 33 38
REMARK SMILES IDX 34 39 35 40 36 41 37 42 38 43 39 44 40 45 101 46 41 47
REMARK SMILES IDX 100 48 42 49 43 50 44 51 94 52 45 53 99 54 93 55 95 56 46 57
REMARK SMILES IDX 98 58 92 59 91 60 47 62 79 63 59 64 78 65 60 66 63 67 77 68
REMARK SMILES IDX 96 69 61 70 62 71 76 73 97 74 64 75 48 76 49 77 57 78 50 79
REMARK SMILES IDX 51 80 55 81 58 82 52 83 53 84 56 85 54 86 80 87 81 88 89 89
REMARK SMILES IDX 82 90 83 91 87 92 90 93 84 94 85 95 88 96 86 97 65 98 66 99
REMARK SMILES IDX 74 100 67 101 68 102 72 103 75 104 69 105 70 106 73 107
REMARK SMILES IDX 71 108
REMARK H PARENT 1 10 1 11 6 15 25 36 25 37 95 61 63 72
REMARK Flexibility Score: inf
ROOT
ATOM      1  C   UNL     1       3.233  -6.097  -3.687  1.00  0.00     0.202 C 
ENDROOT
BRANCH   1   2
ATOM      2  C   UNL     1       4.134  -4.873  -3.522  1.00  0.00     0.261 C 
BRANCH   2   3
ATOM      3  O   UNL     1       3.490  -3.821  -2.787  1.00  0.00    -0.462 OA
BRANCH   3   4
ATOM      4  C   UNL     1       3.505  -2.600  -3.395  1.00  0.00     0.329 C 
ATOM      5  O   UNL     1       4.028  -2.347  -4.473  1.00  0.00    -0.250 OA
BRANCH   4   6
ATOM      6  C   UNL     1       2.913  -1.505  -2.497  1.00  0.00     0.201 C 
BRANCH   6   7
ATOM      7  C   UNL     1       4.051  -0.838  -1.711  1.00  0.00     0.136 C 
BRANCH   7   8
ATOM      8  C   UNL     1       5.117  -1.804  -1.248  1.00  0.00     0.220 C 
ATOM      9  N   UNL     1       4.839  -2.505  -0.116  1.00  0.00    -0.370 N 
ATOM     10  H   UNL     1       5.494  -3.150   0.236  1.00  0.00     0.159 HD
ATOM     11  H   UNL     1       3.984  -2.368   0.351  1.00  0.00     0.159 HD
ATOM     12  O   UNL     1       6.164  -1.987  -1.856  1.00  0.00    -0.275 OA
ENDBRANCH   7   8
ENDBRANCH   6   7
BRANCH   6  13
ATOM     13  N   UNL     1       1.861  -1.970  -1.581  1.00  0.00    -0.342 N 
ATOM     14  C   UNL     1       0.704  -1.455  -1.100  1.00  0.00     0.231 C 
ATOM     15  H   UNL     1       2.041  -2.874  -1.233  1.00  0.00     0.164 HD
ATOM     16  O   UNL     1       0.227  -2.128  -0.171  1.00  0.00    -0.274 OA
BRANCH  14  17
ATOM     17  C   UNL     1      -0.078  -0.176  -1.592  1.00  0.00     0.077 C 
ATOM     18  C   UNL     1       0.495   0.764  -2.671  1.00  0.00     0.043 C 
ATOM     19  C   UNL     1      -0.289   0.704  -0.323  1.00  0.00     0.043 C 
ATOM     20  C   UNL     1       1.635   1.681  -2.253  1.00  0.00     0.121 C 
ATOM     21  C   UNL     1       1.005   1.377   0.121  1.00  0.00     0.121 C 
ATOM     22  N   UNL     1       1.527   2.257  -0.920  1.00  0.00    -0.337 N 
ATOM     23  C   UNL     1       2.220   3.455  -0.729  1.00  0.00     0.280 C 
ATOM     24  O   UNL     1       2.864   3.953  -1.662  1.00  0.00    -0.268 OA
BRANCH  17  25
ATOM     25  C   UNL     1      -1.429  -0.671  -2.207  1.00  0.00    -0.032 A 
ATOM     26  C   UNL     1      -2.687  -0.203  -1.783  1.00  0.00     0.005 A 
ATOM     27  C   UNL     1      -1.401  -1.540  -3.318  1.00  0.00     0.005 A 
ATOM     28  C   UNL     1      -3.857  -0.550  -2.467  1.00  0.00     0.000 A 
ATOM     29  C   UNL     1      -2.573  -1.888  -3.997  1.00  0.00     0.000 A 
ATOM     30  C   UNL     1      -3.799  -1.383  -3.579  1.00  0.00     0.000 A 
ENDBRANCH  17  25
BRANCH  23  31
ATOM     31  C   UNL     1       2.251   4.177   0.626  1.00  0.00     0.272 C 
ATOM     32  C   UNL     1       3.048   3.493   1.720  1.00  0.00     0.081 C 
ATOM     33  N   UNL     1       0.917   4.490   1.184  1.00  0.00    -0.336 N 
ATOM     34  C   UNL     1       2.452   4.101   2.973  1.00  0.00     0.068 C 
ATOM     35  C   UNL     1       0.980   4.257   2.629  1.00  0.00     0.261 C 
ATOM     36  H   UNL     1       0.213   3.883   0.763  1.00  0.00     0.346 HD
ATOM     37  H   UNL     1       0.662   5.457   0.986  1.00  0.00     0.346 HD
ENDBRANCH  23  31
ENDBRANCH  14  17
ENDBRANCH   6  13
ENDBRANCH   4   6
ENDBRANCH   3   4
ENDBRANCH   2   3
ENDBRANCH   1   2
BRANCH   1  38
ATOM     38  O   UNL     1       1.953  -5.858  -4.263  1.00  0.00    -0.374 OA
BRANCH  38  39
ATOM     39  C   UNL     1       0.963  -5.220  -3.453  1.00  0.00     0.202 C 
BRANCH  39  40
ATOM     40  C   UNL     1       0.426  -6.024  -2.262  1.00  0.00     0.261 C 
BRANCH  40  41
ATOM     41  O   UNL     1       1.415  -6.225  -1.230  1.00  0.00    -0.460 OA
BRANCH  41  42
ATOM     42  C   UNL     1       1.643  -7.520  -0.913  1.00  0.00     0.338 C 
ATOM     43  O   UNL     1       1.094  -8.512  -1.389  1.00  0.00    -0.246 OA
BRANCH  42  44
ATOM     44  C   UNL     1       2.772  -7.651   0.019  1.00  0.00     0.060 A 
ATOM     45  C   UNL     1       3.889  -8.381  -0.406  1.00  0.00     0.016 A 
ATOM     46  C   UNL     1       2.669  -7.218   1.343  1.00  0.00     0.016 A 
ATOM     47  C   UNL     1       4.885  -8.726   0.507  1.00  0.00     0.010 A 
ATOM     48  C   UNL     1       3.668  -7.571   2.260  1.00  0.00     0.010 A 
ATOM     49  C   UNL     1       4.760  -8.361   1.855  1.00  0.00    -0.014 A 
BRANCH  49  50
ATOM     50  C   UNL     1       5.709  -8.924   2.849  1.00  0.00     0.031 A 
ATOM     51  C   UNL     1       5.314 -10.137   3.648  1.00  0.00     0.074 A 
ATOM     52  C   UNL     1       6.933  -8.389   3.004  1.00  0.00     0.049 A 
ATOM     53  N   UNL     1       6.007 -10.810   4.532  1.00  0.00    -0.248 NA
ATOM     54  C   UNL     1       3.959 -10.662   3.419  1.00  0.00     0.031 C 
ATOM     55  C   UNL     1       7.444  -7.230   2.276  1.00  0.00     0.029 A 
ATOM     56  N   UNL     1       7.969  -8.757   3.825  1.00  0.00    -0.354 N 
ATOM     57  C   UNL     1       5.177 -11.838   4.961  1.00  0.00     0.074 A 
ATOM     58  C   UNL     1       3.917 -11.681   4.266  1.00  0.00     0.031 C 
ATOM     59  C   UNL     1       8.698  -6.977   2.687  1.00  0.00     0.029 A 
ATOM     60  C   UNL     1       9.071  -7.947   3.715  1.00  0.00     0.049 A 
ATOM     61  H   UNL     1       7.926  -9.529   4.435  1.00  0.00     0.167 HD
ATOM     62  C   UNL     1       5.444 -12.830   5.844  1.00  0.00     0.037 A 
ATOM     63  C   UNL     1      10.246  -7.982   4.374  1.00  0.00     0.037 A 
ATOM     64  C   UNL     1       6.696 -12.994   6.535  1.00  0.00     0.049 A 
ATOM     65  C   UNL     1      10.502  -9.070   5.382  1.00  0.00     0.074 A 
ATOM     66  C   UNL     1       7.069 -13.988   7.424  1.00  0.00     0.029 A 
ATOM     67  N   UNL     1       7.778 -12.136   6.420  1.00  0.00    -0.354 N 
ATOM     68  N   UNL     1       9.726 -10.060   5.748  1.00  0.00    -0.248 NA
ATOM     69  C   UNL     1      11.806  -9.049   6.062  1.00  0.00     0.031 C 
ATOM     70  C   UNL     1       8.363 -13.707   7.878  1.00  0.00     0.029 A 
ATOM     71  C   UNL     1       8.811 -12.562   7.240  1.00  0.00     0.049 A 
ATOM     72  H   UNL     1       7.809 -11.340   5.840  1.00  0.00     0.167 HD
ATOM     73  C   UNL     1      10.450 -10.790   6.682  1.00  0.00     0.074 A 
ATOM     74  C   UNL     1      11.736 -10.137   6.815  1.00  0.00     0.031 C 
ATOM     75  C   UNL     1      10.084 -11.900   7.367  1.00  0.00     0.037 A 
BRANCH  62  76
ATOM     76  C   UNL     1       4.349 -13.817   6.126  1.00  0.00     0.064 A 
ATOM     77  C   UNL     1       3.989 -14.800   5.194  1.00  0.00     0.173 A 
ATOM     78  C   UNL     1       3.680 -13.802   7.359  1.00  0.00     0.173 A 
ATOM     79  F   UNL     1       4.592 -14.848   3.996  1.00  0.00    -0.203 F 
ATOM     80  C   UNL     1       2.983 -15.721   5.477  1.00  0.00     0.198 A 
ATOM     81  C   UNL     1       2.691 -14.739   7.648  1.00  0.00     0.198 A 
ATOM     82  F   UNL     1       3.991 -12.884   8.287  1.00  0.00    -0.203 F 
ATOM     83  F   UNL     1       2.629 -16.629   4.557  1.00  0.00    -0.200 F 
ATOM     84  C   UNL     1       2.340 -15.693   6.706  1.00  0.00     0.200 A 
ATOM     85  F   UNL     1       2.077 -14.716   8.839  1.00  0.00    -0.200 F 
ATOM     86  F   UNL     1       1.376 -16.583   6.979  1.00  0.00    -0.200 F 
ENDBRANCH  62  76
BRANCH  63  87
ATOM     87  C   UNL     1      11.276  -6.949   4.096  1.00  0.00     0.064 A 
ATOM     88  C   UNL     1      12.460  -7.270   3.420  1.00  0.00     0.173 A 
ATOM     89  C   UNL     1      11.098  -5.622   4.514  1.00  0.00     0.173 A 
ATOM     90  F   UNL     1      12.684  -8.532   3.025  1.00  0.00    -0.203 F 
ATOM     91  C   UNL     1      13.436  -6.304   3.184  1.00  0.00     0.198 A 
ATOM     92  C   UNL     1      12.064  -4.653   4.256  1.00  0.00     0.198 A 
ATOM     93  F   UNL     1       9.982  -5.267   5.167  1.00  0.00    -0.203 F 
ATOM     94  F   UNL     1      14.578  -6.645   2.571  1.00  0.00    -0.200 F 
ATOM     95  C   UNL     1      13.235  -4.996   3.597  1.00  0.00     0.200 A 
ATOM     96  F   UNL     1      11.862  -3.388   4.650  1.00  0.00    -0.200 F 
ATOM     97  F   UNL     1      14.173  -4.067   3.368  1.00  0.00    -0.200 F 
ENDBRANCH  63  87
BRANCH  75  98
ATOM     98  C   UNL     1      11.092 -12.488   8.311  1.00  0.00     0.064 A 
ATOM     99  C   UNL     1      11.400 -11.870   9.531  1.00  0.00     0.173 A 
ATOM    100  C   UNL     1      11.737 -13.696   8.004  1.00  0.00     0.173 A 
ATOM    101  F   UNL     1      10.821 -10.706   9.864  1.00  0.00    -0.203 F 
ATOM    102  C   UNL     1      12.338 -12.425  10.398  1.00  0.00     0.198 A 
ATOM    103  C   UNL     1      12.655 -14.261   8.884  1.00  0.00     0.198 A 
ATOM    104  F   UNL     1      11.472 -14.330   6.851  1.00  0.00    -0.203 F 
ATOM    105  F   UNL     1      12.652 -11.793  11.537  1.00  0.00    -0.200 F 
ATOM    106  C   UNL     1      12.960 -13.623  10.076  1.00  0.00     0.200 A 
ATOM    107  F   UNL     1      13.248 -15.423   8.576  1.00  0.00    -0.200 F 
ATOM    108  F   UNL     1      13.862 -14.156  10.912  1.00  0.00    -0.200 F 
ENDBRANCH  75  98
ENDBRANCH  49  50
ENDBRANCH  42  44
ENDBRANCH  41  42
ENDBRANCH  40  41
ENDBRANCH  39  40
ENDBRANCH  38  39
ENDBRANCH   1  38
TORSDOF 20
