REMARK SMILES Cc1ccc(C)c(N2C(=O)S[C@H](CC(=O)Nc3ccc(C(=O)OCCOCCOC(=O)c4ccc(-c5c6nc(c(-c7c(F)c(F)c(F)c(F)c7F)c7ccc([nH]7)c(-c7c(F)c(F)c(F)c(F)c7F)c7nc(c(-c8c(F)c(F)c(F)c(F)c8F)c8ccc5[nH]8)C=C7)C=C6)cc4)c(O)c3)C2=O)c1
REMARK SMILES IDX 25 1 24 2 23 3 21 4 22 5 20 6 17 7 18 8 97 9 19 10 95 11
REMARK SMILES IDX 16 12 14 13 15 14 13 16 12 17 8 18 9 19 98 20 10 21 11 22
REMARK SMILES IDX 99 23 7 24 1 25 2 26 3 27 100 28 4 29 5 30 6 31 96 32 26 34
REMARK SMILES IDX 27 35 28 36 29 37 30 38 31 39 32 40 33 41 94 42 34 43 93 44
REMARK SMILES IDX 35 45 36 46 37 47 87 48 38 49 92 50 86 51 88 52 39 53 91 54
REMARK SMILES IDX 85 55 84 56 40 58 72 59 52 60 71 61 53 62 56 63 70 64 89 65
REMARK SMILES IDX 54 66 55 67 69 69 90 70 57 71 41 72 42 73 50 74 43 75 44 76
REMARK SMILES IDX 48 77 51 78 45 79 46 80 49 81 47 82 73 83 74 84 82 85 75 86
REMARK SMILES IDX 76 87 80 88 83 89 77 90 78 91 81 92 79 93 58 94 59 95 67 96
REMARK SMILES IDX 60 97 61 98 65 99 68 100 62 101 63 102 66 103 64 104
REMARK H PARENT 16 15 96 33 88 57 56 68
REMARK Flexibility Score: inf
ROOT
ATOM      1  C   UNL     1       3.625   6.369  -2.790  1.00  0.00     0.202 C 
ENDROOT
BRANCH   1   2
ATOM      2  C   UNL     1       2.920   7.339  -3.753  1.00  0.00     0.261 C 
BRANCH   2   3
ATOM      3  O   UNL     1       1.844   7.943  -3.003  1.00  0.00    -0.460 OA
BRANCH   3   4
ATOM      4  C   UNL     1       0.838   7.043  -2.875  1.00  0.00     0.341 C 
ATOM      5  O   UNL     1       0.651   6.130  -3.629  1.00  0.00    -0.246 OA
BRANCH   4   6
ATOM      6  C   UNL     1       0.035   7.213  -1.656  1.00  0.00     0.101 A 
ATOM      7  C   UNL     1      -1.821   7.381   0.422  1.00  0.00     0.044 A 
ATOM      8  C   UNL     1      -1.812   6.330  -0.465  1.00  0.00     0.027 A 
ATOM      9  C   UNL     1      -0.940   8.438   0.201  1.00  0.00     0.073 A 
ATOM     10  C   UNL     1      -0.805   6.148  -1.374  1.00  0.00     0.022 A 
ATOM     11  C   UNL     1      -0.026   8.358  -0.866  1.00  0.00     0.132 A 
BRANCH   7  12
ATOM     12  N   UNL     1      -2.771   7.321   1.455  1.00  0.00    -0.326 N 
ATOM     13  C   UNL     1      -3.363   6.151   1.932  1.00  0.00     0.226 C 
ATOM     14  O   UNL     1      -4.480   6.193   2.447  1.00  0.00    -0.275 OA
ATOM     15  H   UNL     1      -3.041   8.170   1.874  1.00  0.00     0.169 HD
BRANCH  13  16
ATOM     16  C   UNL     1      -2.505   4.860   1.984  1.00  0.00     0.125 C 
BRANCH  16  17
ATOM     17  C   UNL     1      -3.094   3.530   1.475  1.00  0.00     0.156 C 
ATOM     18  N   UNL     1      -1.402   1.992   0.688  1.00  0.00    -0.240 N 
ATOM     19  C   UNL     1      -1.760   2.530  -0.512  1.00  0.00     0.293 C 
ATOM     20  C   UNL     1      -2.135   2.380   1.805  1.00  0.00     0.248 C 
ATOM     21  O   UNL     1      -1.201   2.443  -1.591  1.00  0.00    -0.261 OA
ATOM     22  S   UNL     1      -3.292   3.294  -0.317  1.00  0.00    -0.050 SA
ATOM     23  O   UNL     1      -2.046   1.899   2.929  1.00  0.00    -0.273 OA
BRANCH  18  24
ATOM     24  C   UNL     1      -0.649   0.803   0.632  1.00  0.00     0.056 A 
ATOM     25  C   UNL     1       3.000  -0.160   0.091  1.00  0.00     0.044 C 
ATOM     26  C   UNL     1       1.510  -0.241   0.240  1.00  0.00    -0.049 A 
ATOM     27  C   UNL     1       0.864  -1.470   0.072  1.00  0.00     0.004 A 
ATOM     28  C   UNL     1       0.747   0.895   0.536  1.00  0.00     0.030 A 
ATOM     29  C   UNL     1      -0.526  -1.559   0.141  1.00  0.00     0.006 A 
ATOM     30  C   UNL     1      -1.304  -0.422   0.384  1.00  0.00    -0.027 A 
ATOM     31  C   UNL     1      -2.801  -0.573   0.295  1.00  0.00     0.046 C 
ENDBRANCH  18  24
ENDBRANCH  16  17
ENDBRANCH  13  16
ENDBRANCH   7  12
BRANCH  11  32
ATOM     32  O   UNL     1       0.786   9.434  -1.090  1.00  0.00    -0.507 OA
ATOM     33  H   UNL     1       1.407   9.415  -1.792  1.00  0.00     0.293 HD
ENDBRANCH  11  32
ENDBRANCH   4   6
ENDBRANCH   3   4
ENDBRANCH   2   3
ENDBRANCH   1   2
BRANCH   1  34
ATOM     34  O   UNL     1       2.803   5.217  -2.658  1.00  0.00    -0.374 OA
BRANCH  34  35
ATOM     35  C   UNL     1       2.855   4.451  -1.475  1.00  0.00     0.202 C 
BRANCH  35  36
ATOM     36  C   UNL     1       4.194   3.738  -1.304  1.00  0.00     0.261 C 
BRANCH  36  37
ATOM     37  O   UNL     1       4.538   2.789  -2.351  1.00  0.00    -0.460 OA
BRANCH  37  38
ATOM     38  C   UNL     1       4.659   3.254  -3.632  1.00  0.00     0.338 C 
ATOM     39  O   UNL     1       5.673   3.761  -4.082  1.00  0.00    -0.246 OA
BRANCH  38  40
ATOM     40  C   UNL     1       3.359   3.133  -4.364  1.00  0.00     0.060 A 
ATOM     41  C   UNL     1       3.044   4.013  -5.411  1.00  0.00     0.016 A 
ATOM     42  C   UNL     1       2.343   2.394  -3.767  1.00  0.00     0.016 A 
ATOM     43  C   UNL     1       1.689   4.298  -5.697  1.00  0.00     0.010 A 
ATOM     44  C   UNL     1       1.023   2.787  -3.958  1.00  0.00     0.010 A 
ATOM     45  C   UNL     1       0.658   3.781  -4.884  1.00  0.00    -0.014 A 
BRANCH  45  46
ATOM     46  C   UNL     1      -0.806   3.817  -5.230  1.00  0.00     0.031 A 
ATOM     47  C   UNL     1      -0.939   2.802  -6.288  1.00  0.00     0.074 A 
ATOM     48  C   UNL     1      -1.917   4.502  -4.800  1.00  0.00     0.049 A 
ATOM     49  N   UNL     1      -0.967   3.125  -7.542  1.00  0.00    -0.248 NA
ATOM     50  C   UNL     1      -0.640   1.380  -6.049  1.00  0.00     0.031 C 
ATOM     51  C   UNL     1      -2.016   5.726  -4.026  1.00  0.00     0.029 A 
ATOM     52  N   UNL     1      -3.285   4.223  -4.941  1.00  0.00    -0.354 N 
ATOM     53  C   UNL     1      -1.062   1.917  -8.194  1.00  0.00     0.074 A 
ATOM     54  C   UNL     1      -0.515   0.933  -7.302  1.00  0.00     0.031 C 
ATOM     55  C   UNL     1      -3.230   5.902  -3.459  1.00  0.00     0.029 A 
ATOM     56  C   UNL     1      -4.126   4.902  -3.998  1.00  0.00     0.049 A 
ATOM     57  H   UNL     1      -3.638   3.613  -5.629  1.00  0.00     0.167 HD
ATOM     58  C   UNL     1      -2.051   1.793  -9.115  1.00  0.00     0.037 A 
ATOM     59  C   UNL     1      -5.489   5.060  -3.933  1.00  0.00     0.037 A 
ATOM     60  C   UNL     1      -2.507   3.095  -9.552  1.00  0.00     0.049 A 
ATOM     61  C   UNL     1      -5.970   4.934  -5.311  1.00  0.00     0.074 A 
ATOM     62  C   UNL     1      -1.971   4.133 -10.287  1.00  0.00     0.029 A 
ATOM     63  N   UNL     1      -3.494   3.635  -8.767  1.00  0.00    -0.354 N 
ATOM     64  N   UNL     1      -5.834   5.894  -6.177  1.00  0.00    -0.248 NA
ATOM     65  C   UNL     1      -6.201   3.602  -5.848  1.00  0.00     0.031 C 
ATOM     66  C   UNL     1      -2.651   5.319  -9.886  1.00  0.00     0.029 A 
ATOM     67  C   UNL     1      -3.641   4.981  -8.972  1.00  0.00     0.049 A 
ATOM     68  H   UNL     1      -4.034   3.115  -8.129  1.00  0.00     0.167 HD
ATOM     69  C   UNL     1      -5.458   5.222  -7.318  1.00  0.00     0.074 A 
ATOM     70  C   UNL     1      -5.873   3.836  -7.121  1.00  0.00     0.031 C 
ATOM     71  C   UNL     1      -4.523   5.764  -8.145  1.00  0.00     0.037 A 
BRANCH  58  72
ATOM     72  C   UNL     1      -2.941   0.579  -9.177  1.00  0.00     0.064 A 
ATOM     73  C   UNL     1      -3.761   0.408 -10.301  1.00  0.00     0.173 A 
ATOM     74  C   UNL     1      -3.222  -0.276  -8.083  1.00  0.00     0.173 A 
ATOM     75  F   UNL     1      -3.621   1.207 -11.369  1.00  0.00    -0.203 F 
ATOM     76  C   UNL     1      -4.790  -0.537 -10.320  1.00  0.00     0.198 A 
ATOM     77  C   UNL     1      -4.203  -1.257  -8.127  1.00  0.00     0.198 A 
ATOM     78  F   UNL     1      -2.655  -0.129  -6.882  1.00  0.00    -0.203 F 
ATOM     79  F   UNL     1      -5.613  -0.599 -11.373  1.00  0.00    -0.200 F 
ATOM     80  C   UNL     1      -5.004  -1.374  -9.238  1.00  0.00     0.200 A 
ATOM     81  F   UNL     1      -4.412  -2.027  -7.049  1.00  0.00    -0.200 F 
ATOM     82  F   UNL     1      -6.012  -2.254  -9.241  1.00  0.00    -0.200 F 
ENDBRANCH  58  72
BRANCH  59  83
ATOM     83  C   UNL     1      -6.461   5.141  -2.788  1.00  0.00     0.064 A 
ATOM     84  C   UNL     1      -7.855   5.185  -2.970  1.00  0.00     0.173 A 
ATOM     85  C   UNL     1      -6.063   4.868  -1.482  1.00  0.00     0.173 A 
ATOM     86  F   UNL     1      -8.371   5.594  -4.138  1.00  0.00    -0.203 F 
ATOM     87  C   UNL     1      -8.754   4.781  -1.967  1.00  0.00     0.198 A 
ATOM     88  C   UNL     1      -6.930   4.338  -0.516  1.00  0.00     0.198 A 
ATOM     89  F   UNL     1      -4.834   5.218  -1.113  1.00  0.00    -0.203 F 
ATOM     90  F   UNL     1     -10.076   4.839  -2.184  1.00  0.00    -0.200 F 
ATOM     91  C   UNL     1      -8.283   4.272  -0.771  1.00  0.00     0.200 A 
ATOM     92  F   UNL     1      -6.446   3.873   0.646  1.00  0.00    -0.200 F 
ATOM     93  F   UNL     1      -9.125   3.753   0.135  1.00  0.00    -0.200 F 
ENDBRANCH  59  83
BRANCH  71  94
ATOM     94  C   UNL     1      -4.373   7.254  -8.126  1.00  0.00     0.064 A 
ATOM     95  C   UNL     1      -3.820   8.000  -7.075  1.00  0.00     0.173 A 
ATOM     96  C   UNL     1      -4.771   7.951  -9.273  1.00  0.00     0.173 A 
ATOM     97  F   UNL     1      -3.374   7.403  -5.965  1.00  0.00    -0.203 F 
ATOM     98  C   UNL     1      -3.687   9.387  -7.166  1.00  0.00     0.198 A 
ATOM     99  C   UNL     1      -4.613   9.328  -9.375  1.00  0.00     0.198 A 
ATOM    100  F   UNL     1      -5.290   7.283 -10.315  1.00  0.00    -0.203 F 
ATOM    101  F   UNL     1      -3.161  10.082  -6.146  1.00  0.00    -0.200 F 
ATOM    102  C   UNL     1      -4.078  10.047  -8.320  1.00  0.00     0.200 A 
ATOM    103  F   UNL     1      -4.964   9.954 -10.506  1.00  0.00    -0.200 F 
ATOM    104  F   UNL     1      -3.924  11.375  -8.422  1.00  0.00    -0.200 F 
ENDBRANCH  71  94
ENDBRANCH  45  46
ENDBRANCH  38  40
ENDBRANCH  37  38
ENDBRANCH  36  37
ENDBRANCH  35  36
ENDBRANCH  34  35
ENDBRANCH   1  34
TORSDOF 19
