REMARK SMILES O=C(OCCOCCOC(=O)[C@@H](Cc1ccccc1)Nc1ccc(Cl)c(Br)c1)c1ccc(-c2c3nc(c(-c4c(F)c(F)c(F)c(F)c4F)c4ccc([nH]4)c(-c4c(F)c(F)c(F)c(F)c4F)c4nc(c(-c5c(F)c(F)c(F)c(F)c5F)c5ccc2[nH]5)C=C4)C=C3)cc1
REMARK SMILES IDX 6 1 5 2 4 3 3 4 2 5 1 6 29 7 30 8 91 9 31 10 90 11 32 12
REMARK SMILES IDX 33 13 34 14 84 15 35 16 89 17 83 18 85 19 36 20 88 21 82 22
REMARK SMILES IDX 81 23 37 25 69 26 49 27 68 28 50 29 53 30 67 31 86 32 51 33
REMARK SMILES IDX 52 34 66 36 87 37 54 38 38 39 39 40 47 41 40 42 41 43 45 44
REMARK SMILES IDX 48 45 42 46 43 47 46 48 44 49 70 50 71 51 79 52 72 53 73 54
REMARK SMILES IDX 77 55 80 56 74 57 75 58 78 59 76 60 55 61 56 62 64 63 57 64
REMARK SMILES IDX 58 65 62 66 65 67 59 68 60 69 63 70 61 71 7 72 8 73 9 74
REMARK SMILES IDX 10 75 11 76 12 77 13 78 14 79 15 80 19 81 16 82 18 83 17 84
REMARK SMILES IDX 20 85 21 87 22 88 28 89 23 90 26 91 24 92 27 93 25 94
REMARK H PARENT 85 24 53 35 20 86
REMARK Flexibility Score: inf
ROOT
ATOM      1  O   UNL     1       4.172   1.507   0.863  1.00  0.00    -0.374 OA
ENDROOT
BRANCH   1   2
ATOM      2  C   UNL     1       4.629   1.122  -0.435  1.00  0.00     0.202 C 
BRANCH   2   3
ATOM      3  C   UNL     1       4.228  -0.268  -0.962  1.00  0.00     0.261 C 
BRANCH   3   4
ATOM      4  O   UNL     1       2.810  -0.509  -0.840  1.00  0.00    -0.460 OA
BRANCH   4   5
ATOM      5  C   UNL     1       2.170  -1.254   0.101  1.00  0.00     0.338 C 
ATOM      6  O   UNL     1       0.963  -1.440   0.019  1.00  0.00    -0.246 OA
BRANCH   5   7
ATOM      7  C   UNL     1       2.916  -1.869   1.233  1.00  0.00     0.060 A 
ATOM      8  C   UNL     1       4.067  -1.297   1.747  1.00  0.00     0.016 A 
ATOM      9  C   UNL     1       2.443  -3.038   1.840  1.00  0.00     0.016 A 
ATOM     10  C   UNL     1       4.836  -1.900   2.698  1.00  0.00     0.010 A 
ATOM     11  C   UNL     1       3.158  -3.615   2.902  1.00  0.00     0.010 A 
ATOM     12  C   UNL     1       4.369  -3.045   3.313  1.00  0.00    -0.014 A 
BRANCH  12  13
ATOM     13  C   UNL     1       5.305  -3.609   4.291  1.00  0.00     0.031 A 
ATOM     14  C   UNL     1       6.093  -4.807   3.883  1.00  0.00     0.074 A 
ATOM     15  C   UNL     1       5.638  -2.849   5.354  1.00  0.00     0.049 A 
ATOM     16  N   UNL     1       7.010  -5.452   4.546  1.00  0.00    -0.248 NA
ATOM     17  C   UNL     1       5.837  -5.339   2.532  1.00  0.00     0.031 C 
ATOM     18  C   UNL     1       5.040  -1.543   5.678  1.00  0.00     0.029 A 
ATOM     19  N   UNL     1       6.610  -3.005   6.300  1.00  0.00    -0.354 N 
ATOM     20  C   UNL     1       7.408  -6.488   3.715  1.00  0.00     0.074 A 
ATOM     21  C   UNL     1       6.643  -6.387   2.494  1.00  0.00     0.031 C 
ATOM     22  C   UNL     1       5.697  -1.000   6.712  1.00  0.00     0.029 A 
ATOM     23  C   UNL     1       6.674  -1.964   7.195  1.00  0.00     0.049 A 
ATOM     24  H   UNL     1       7.207  -3.787   6.337  1.00  0.00     0.167 HD
ATOM     25  C   UNL     1       8.328  -7.441   3.977  1.00  0.00     0.037 A 
ATOM     26  C   UNL     1       7.407  -1.844   8.315  1.00  0.00     0.037 A 
ATOM     27  C   UNL     1       9.063  -7.486   5.211  1.00  0.00     0.049 A 
ATOM     28  C   UNL     1       8.329  -2.985   8.643  1.00  0.00     0.074 A 
ATOM     29  C   UNL     1       9.925  -8.457   5.677  1.00  0.00     0.029 A 
ATOM     30  N   UNL     1       9.017  -6.485   6.178  1.00  0.00    -0.354 N 
ATOM     31  N   UNL     1       8.597  -4.057   7.932  1.00  0.00    -0.248 NA
ATOM     32  C   UNL     1       9.028  -2.921   9.927  1.00  0.00     0.031 C 
ATOM     33  C   UNL     1      10.370  -8.063   6.945  1.00  0.00     0.029 A 
ATOM     34  C   UNL     1       9.829  -6.819   7.245  1.00  0.00     0.049 A 
ATOM     35  H   UNL     1       8.483  -5.661   6.112  1.00  0.00     0.167 HD
ATOM     36  C   UNL     1       9.498  -4.796   8.680  1.00  0.00     0.074 A 
ATOM     37  C   UNL     1       9.760  -4.025   9.882  1.00  0.00     0.031 C 
ATOM     38  C   UNL     1      10.051  -6.006   8.415  1.00  0.00     0.037 A 
BRANCH  25  39
ATOM     39  C   UNL     1       8.491  -8.527   2.959  1.00  0.00     0.064 A 
ATOM     40  C   UNL     1       9.104  -8.303   1.717  1.00  0.00     0.173 A 
ATOM     41  C   UNL     1       7.971  -9.806   3.211  1.00  0.00     0.173 A 
ATOM     42  F   UNL     1       9.579  -7.087   1.409  1.00  0.00    -0.203 F 
ATOM     43  C   UNL     1       9.167  -9.311   0.756  1.00  0.00     0.198 A 
ATOM     44  C   UNL     1       8.059 -10.818   2.259  1.00  0.00     0.198 A 
ATOM     45  F   UNL     1       7.356 -10.068   4.374  1.00  0.00    -0.203 F 
ATOM     46  F   UNL     1       9.699  -9.055  -0.447  1.00  0.00    -0.200 F 
ATOM     47  C   UNL     1       8.649 -10.568   1.030  1.00  0.00     0.200 A 
ATOM     48  F   UNL     1       7.554 -12.031   2.525  1.00  0.00    -0.200 F 
ATOM     49  F   UNL     1       8.701 -11.533   0.102  1.00  0.00    -0.200 F 
ENDBRANCH  25  39
BRANCH  26  50
ATOM     50  C   UNL     1       7.210  -0.689   9.235  1.00  0.00     0.064 A 
ATOM     51  C   UNL     1       8.257   0.183   9.562  1.00  0.00     0.173 A 
ATOM     52  C   UNL     1       5.963  -0.452   9.840  1.00  0.00     0.173 A 
ATOM     53  F   UNL     1       9.475  -0.003   9.032  1.00  0.00    -0.203 F 
ATOM     54  C   UNL     1       8.073   1.223  10.475  1.00  0.00     0.198 A 
ATOM     55  C   UNL     1       5.769   0.611  10.719  1.00  0.00     0.198 A 
ATOM     56  F   UNL     1       4.921  -1.254   9.573  1.00  0.00    -0.203 F 
ATOM     57  F   UNL     1       9.108   2.002  10.816  1.00  0.00    -0.200 F 
ATOM     58  C   UNL     1       6.829   1.440  11.047  1.00  0.00     0.200 A 
ATOM     59  F   UNL     1       4.559   0.823  11.254  1.00  0.00    -0.200 F 
ATOM     60  F   UNL     1       6.654   2.437  11.925  1.00  0.00    -0.200 F 
ENDBRANCH  26  50
BRANCH  38  61
ATOM     61  C   UNL     1      11.007  -6.533   9.440  1.00  0.00     0.064 A 
ATOM     62  C   UNL     1      10.564  -6.992  10.688  1.00  0.00     0.173 A 
ATOM     63  C   UNL     1      12.378  -6.596   9.155  1.00  0.00     0.173 A 
ATOM     64  F   UNL     1       9.262  -6.932  11.008  1.00  0.00    -0.203 F 
ATOM     65  C   UNL     1      11.469  -7.466  11.632  1.00  0.00     0.198 A 
ATOM     66  C   UNL     1      13.275  -7.104  10.088  1.00  0.00     0.198 A 
ATOM     67  F   UNL     1      12.844  -6.173   7.971  1.00  0.00    -0.203 F 
ATOM     68  F   UNL     1      11.034  -7.843  12.842  1.00  0.00    -0.200 F 
ATOM     69  C   UNL     1      12.821  -7.528  11.328  1.00  0.00     0.200 A 
ATOM     70  F   UNL     1      14.578  -7.179   9.787  1.00  0.00    -0.200 F 
ATOM     71  F   UNL     1      13.691  -7.990  12.237  1.00  0.00    -0.200 F 
ENDBRANCH  38  61
ENDBRANCH  12  13
ENDBRANCH   5   7
ENDBRANCH   4   5
ENDBRANCH   3   4
ENDBRANCH   2   3
ENDBRANCH   1   2
BRANCH   1  72
ATOM     72  C   UNL     1       2.799   1.882   1.000  1.00  0.00     0.202 C 
BRANCH  72  73
ATOM     73  C   UNL     1       2.692   3.344   1.428  1.00  0.00     0.261 C 
BRANCH  73  74
ATOM     74  O   UNL     1       3.072   4.179   0.325  1.00  0.00    -0.462 OA
BRANCH  74  75
ATOM     75  C   UNL     1       4.409   4.270   0.092  1.00  0.00     0.328 C 
ATOM     76  O   UNL     1       5.283   4.041   0.922  1.00  0.00    -0.250 OA
BRANCH  75  77
ATOM     77  C   UNL     1       4.700   4.790  -1.324  1.00  0.00     0.194 C 
BRANCH  77  78
ATOM     78  C   UNL     1       4.052   4.054  -2.529  1.00  0.00     0.072 C 
BRANCH  78  79
ATOM     79  C   UNL     1       2.570   3.744  -2.494  1.00  0.00    -0.045 A 
ATOM     80  C   UNL     1       1.627   4.768  -2.369  1.00  0.00     0.004 A 
ATOM     81  C   UNL     1       2.102   2.422  -2.581  1.00  0.00     0.004 A 
ATOM     82  C   UNL     1       0.270   4.475  -2.223  1.00  0.00     0.000 A 
ATOM     83  C   UNL     1       0.747   2.125  -2.418  1.00  0.00     0.000 A 
ATOM     84  C   UNL     1      -0.168   3.153  -2.224  1.00  0.00     0.000 A 
ENDBRANCH  78  79
ENDBRANCH  77  78
BRANCH  77  85
ATOM     85  N   UNL     1       4.392   6.228  -1.358  1.00  0.00    -0.372 N 
ATOM     86  H   UNL     1       3.477   6.547  -1.530  1.00  0.00     0.161 HD
BRANCH  85  87
ATOM     87  C   UNL     1       5.432   7.121  -1.140  1.00  0.00     0.036 A 
ATOM     88  C   UNL     1       5.316   8.076  -0.129  1.00  0.00     0.027 A 
ATOM     89  C   UNL     1       6.622   7.057  -1.875  1.00  0.00     0.043 A 
ATOM     90  C   UNL     1       6.357   8.970   0.127  1.00  0.00     0.024 A 
ATOM     91  C   UNL     1       7.668   7.950  -1.626  1.00  0.00     0.038 A 
ATOM     92  C   UNL     1       7.531   8.916  -0.627  1.00  0.00     0.055 A 
ATOM     93  Br  UNL     1       9.230   7.781  -2.693  1.00  0.00    -0.049 Br
ATOM     94  Cl  UNL     1       8.760  10.076  -0.275  1.00  0.00    -0.083 Cl
ENDBRANCH  85  87
ENDBRANCH  77  85
ENDBRANCH  75  77
ENDBRANCH  74  75
ENDBRANCH  73  74
ENDBRANCH  72  73
ENDBRANCH   1  72
TORSDOF 18
