REMARK SMILES O=C(OCCOCCOC(=O)c1cc(-c2ccc(Cl)cc2)nc2c3c(C4CC4)cc(C(F)(F)F)nc3nn12)c1ccc(-c2c3nc(c(-c4c(F)c(F)c(F)c(F)c4F)c4ccc([nH]4)c(-c4c(F)c(F)c(F)c(F)c4F)c4nc(c(-c5c(F)c(F)c(F)c(F)c5F)c5ccc2[nH]5)C=C4)C=C3)cc1
REMARK SMILES IDX 5 1 4 2 3 3 2 4 1 5 39 6 40 7 101 8 41 9 100 10 42 11 43 12
REMARK SMILES IDX 44 13 94 14 45 15 99 16 93 17 95 18 46 19 98 20 92 21 91 22
REMARK SMILES IDX 47 24 79 25 59 26 78 27 60 28 63 29 77 30 96 31 61 32 62 33
REMARK SMILES IDX 76 35 97 36 64 37 48 38 49 39 57 40 50 41 51 42 55 43 58 44
REMARK SMILES IDX 52 45 53 46 56 47 54 48 80 49 81 50 89 51 82 52 83 53 87 54
REMARK SMILES IDX 90 55 84 56 85 57 88 58 86 59 65 60 66 61 74 62 67 63 68 64
REMARK SMILES IDX 72 65 75 66 69 67 70 68 73 69 71 70 6 71 7 72 8 73 9 74
REMARK SMILES IDX 10 75 11 76 12 77 13 78 38 79 14 80 23 81 37 82 22 83 24 84
REMARK SMILES IDX 36 85 25 86 35 87 29 88 30 89 15 90 16 91 21 92 17 93 20 94
REMARK SMILES IDX 18 95 19 96 26 97 27 98 28 99 31 100 32 101 33 102 34 103
REMARK H PARENT 95 23 63 34
REMARK Flexibility Score: inf
ROOT
ATOM      1  C   UNL     1       4.165  -1.327   0.364  1.00  0.00     0.202 C 
ENDROOT
BRANCH   1   2
ATOM      2  C   UNL     1       3.942  -0.087   1.219  1.00  0.00     0.261 C 
BRANCH   2   3
ATOM      3  O   UNL     1       2.703   0.550   0.858  1.00  0.00    -0.460 OA
BRANCH   3   4
ATOM      4  C   UNL     1       2.618   1.468  -0.144  1.00  0.00     0.338 C 
ATOM      5  O   UNL     1       1.555   1.779  -0.662  1.00  0.00    -0.246 OA
BRANCH   4   6
ATOM      6  C   UNL     1       3.854   2.194  -0.474  1.00  0.00     0.060 A 
ATOM      7  C   UNL     1       4.874   1.593  -1.217  1.00  0.00     0.016 A 
ATOM      8  C   UNL     1       4.013   3.477   0.041  1.00  0.00     0.016 A 
ATOM      9  C   UNL     1       6.120   2.165  -1.285  1.00  0.00     0.010 A 
ATOM     10  C   UNL     1       5.238   4.109  -0.116  1.00  0.00     0.010 A 
ATOM     11  C   UNL     1       6.292   3.431  -0.752  1.00  0.00    -0.014 A 
BRANCH  11  12
ATOM     12  C   UNL     1       7.549   4.064  -1.132  1.00  0.00     0.031 A 
ATOM     13  C   UNL     1       7.318   5.257  -1.980  1.00  0.00     0.074 A 
ATOM     14  C   UNL     1       8.677   3.814  -0.445  1.00  0.00     0.049 A 
ATOM     15  N   UNL     1       6.982   6.366  -1.396  1.00  0.00    -0.248 NA
ATOM     16  C   UNL     1       6.971   5.217  -3.401  1.00  0.00     0.031 C 
ATOM     17  C   UNL     1       8.699   3.371   0.954  1.00  0.00     0.029 A 
ATOM     18  N   UNL     1       9.989   4.081  -0.746  1.00  0.00    -0.354 N 
ATOM     19  C   UNL     1       6.247   7.099  -2.297  1.00  0.00     0.074 A 
ATOM     20  C   UNL     1       6.338   6.395  -3.557  1.00  0.00     0.031 C 
ATOM     21  C   UNL     1       9.930   3.587   1.453  1.00  0.00     0.029 A 
ATOM     22  C   UNL     1      10.814   4.049   0.384  1.00  0.00     0.049 A 
ATOM     23  H   UNL     1      10.313   4.273  -1.655  1.00  0.00     0.167 HD
ATOM     24  C   UNL     1       5.561   8.197  -1.890  1.00  0.00     0.037 A 
ATOM     25  C   UNL     1      11.780   4.992   0.570  1.00  0.00     0.037 A 
ATOM     26  C   UNL     1       5.573   8.435  -0.470  1.00  0.00     0.049 A 
ATOM     27  C   UNL     1      10.945   6.258   0.694  1.00  0.00     0.074 A 
ATOM     28  C   UNL     1       4.693   8.387   0.589  1.00  0.00     0.029 A 
ATOM     29  N   UNL     1       6.784   8.758   0.092  1.00  0.00    -0.354 N 
ATOM     30  N   UNL     1      10.240   6.623   1.737  1.00  0.00    -0.248 NA
ATOM     31  C   UNL     1      10.622   6.992  -0.529  1.00  0.00     0.031 C 
ATOM     32  C   UNL     1       5.511   8.268   1.762  1.00  0.00     0.029 A 
ATOM     33  C   UNL     1       6.845   8.226   1.353  1.00  0.00     0.049 A 
ATOM     34  H   UNL     1       7.493   9.286  -0.341  1.00  0.00     0.167 HD
ATOM     35  C   UNL     1       9.220   7.446   1.238  1.00  0.00     0.074 A 
ATOM     36  C   UNL     1       9.562   7.689  -0.144  1.00  0.00     0.031 C 
ATOM     37  C   UNL     1       8.079   7.733   1.936  1.00  0.00     0.037 A 
BRANCH  24  38
ATOM     38  C   UNL     1       5.082   9.252  -2.792  1.00  0.00     0.064 A 
ATOM     39  C   UNL     1       5.922  10.373  -2.901  1.00  0.00     0.173 A 
ATOM     40  C   UNL     1       3.808   9.318  -3.353  1.00  0.00     0.173 A 
ATOM     41  F   UNL     1       7.157  10.336  -2.371  1.00  0.00    -0.203 F 
ATOM     42  C   UNL     1       5.486  11.545  -3.494  1.00  0.00     0.198 A 
ATOM     43  C   UNL     1       3.377  10.495  -3.969  1.00  0.00     0.198 A 
ATOM     44  F   UNL     1       2.970   8.274  -3.271  1.00  0.00    -0.203 F 
ATOM     45  F   UNL     1       6.292  12.615  -3.519  1.00  0.00    -0.200 F 
ATOM     46  C   UNL     1       4.208  11.611  -4.020  1.00  0.00     0.200 A 
ATOM     47  F   UNL     1       2.143  10.569  -4.487  1.00  0.00    -0.200 F 
ATOM     48  F   UNL     1       3.772  12.755  -4.564  1.00  0.00    -0.200 F 
ENDBRANCH  24  38
BRANCH  25  49
ATOM     49  C   UNL     1      12.938   4.823  -0.377  1.00  0.00     0.064 A 
ATOM     50  C   UNL     1      13.474   3.527  -0.562  1.00  0.00     0.173 A 
ATOM     51  C   UNL     1      13.515   5.837  -1.153  1.00  0.00     0.173 A 
ATOM     52  F   UNL     1      13.076   2.512   0.221  1.00  0.00    -0.203 F 
ATOM     53  C   UNL     1      14.393   3.241  -1.571  1.00  0.00     0.198 A 
ATOM     54  C   UNL     1      14.413   5.546  -2.186  1.00  0.00     0.198 A 
ATOM     55  F   UNL     1      13.212   7.124  -0.949  1.00  0.00    -0.203 F 
ATOM     56  F   UNL     1      14.819   1.983  -1.749  1.00  0.00    -0.200 F 
ATOM     57  C   UNL     1      14.831   4.246  -2.411  1.00  0.00     0.200 A 
ATOM     58  F   UNL     1      14.844   6.531  -2.986  1.00  0.00    -0.200 F 
ATOM     59  F   UNL     1      15.653   3.965  -3.431  1.00  0.00    -0.200 F 
ENDBRANCH  25  49
BRANCH  37  60
ATOM     60  C   UNL     1       8.103   7.337   3.375  1.00  0.00     0.064 A 
ATOM     61  C   UNL     1       8.969   8.000   4.256  1.00  0.00     0.173 A 
ATOM     62  C   UNL     1       7.245   6.362   3.904  1.00  0.00     0.173 A 
ATOM     63  F   UNL     1       9.795   8.956   3.802  1.00  0.00    -0.203 F 
ATOM     64  C   UNL     1       8.968   7.710   5.615  1.00  0.00     0.198 A 
ATOM     65  C   UNL     1       7.226   6.095   5.272  1.00  0.00     0.198 A 
ATOM     66  F   UNL     1       6.402   5.680   3.111  1.00  0.00    -0.203 F 
ATOM     67  F   UNL     1       9.804   8.360   6.437  1.00  0.00    -0.200 F 
ATOM     68  C   UNL     1       8.087   6.769   6.125  1.00  0.00     0.200 A 
ATOM     69  F   UNL     1       6.360   5.200   5.769  1.00  0.00    -0.200 F 
ATOM     70  F   UNL     1       8.057   6.523   7.442  1.00  0.00    -0.200 F 
ENDBRANCH  37  60
ENDBRANCH  11  12
ENDBRANCH   4   6
ENDBRANCH   3   4
ENDBRANCH   2   3
ENDBRANCH   1   2
BRANCH   1  71
ATOM     71  O   UNL     1       4.029  -1.099  -1.032  1.00  0.00    -0.374 OA
BRANCH  71  72
ATOM     72  C   UNL     1       2.764  -1.430  -1.610  1.00  0.00     0.202 C 
BRANCH  72  73
ATOM     73  C   UNL     1       2.873  -2.767  -2.332  1.00  0.00     0.261 C 
BRANCH  73  74
ATOM     74  O   UNL     1       3.406  -3.732  -1.421  1.00  0.00    -0.459 OA
BRANCH  74  75
ATOM     75  C   UNL     1       4.753  -3.872  -1.340  1.00  0.00     0.357 C 
ATOM     76  O   UNL     1       5.606  -3.355  -2.053  1.00  0.00    -0.244 OA
BRANCH  75  77
ATOM     77  C   UNL     1       5.040  -4.601  -0.090  1.00  0.00     0.154 A 
ATOM     78  C   UNL     1       6.000  -4.161   0.740  1.00  0.00     0.065 A 
ATOM     79  N   UNL     1       4.264  -5.696   0.252  1.00  0.00    -0.205 N 
ATOM     80  C   UNL     1       6.047  -4.844   2.069  1.00  0.00     0.075 A 
ATOM     81  C   UNL     1       4.472  -6.383   1.459  1.00  0.00     0.166 A 
ATOM     82  N   UNL     1       3.296  -6.245  -0.507  1.00  0.00    -0.145 NA
ATOM     83  N   UNL     1       5.352  -5.896   2.402  1.00  0.00    -0.228 NA
ATOM     84  C   UNL     1       3.664  -7.504   1.355  1.00  0.00     0.069 A 
ATOM     85  C   UNL     1       2.953  -7.341   0.133  1.00  0.00     0.184 A 
ATOM     86  C   UNL     1       3.558  -8.600   2.220  1.00  0.00    -0.028 A 
ATOM     87  N   UNL     1       2.064  -8.231  -0.342  1.00  0.00    -0.222 NA
ATOM     88  C   UNL     1       2.641  -9.533   1.674  1.00  0.00     0.038 A 
ATOM     89  C   UNL     1       1.943  -9.334   0.445  1.00  0.00     0.147 A 
BRANCH  80  90
ATOM     90  C   UNL     1       6.965  -4.202   3.040  1.00  0.00     0.000 A 
ATOM     91  C   UNL     1       8.265  -4.692   3.172  1.00  0.00     0.012 A 
ATOM     92  C   UNL     1       6.550  -3.081   3.775  1.00  0.00     0.012 A 
ATOM     93  C   UNL     1       9.163  -4.052   4.033  1.00  0.00     0.021 A 
ATOM     94  C   UNL     1       7.452  -2.446   4.638  1.00  0.00     0.021 A 
ATOM     95  C   UNL     1       8.755  -2.932   4.760  1.00  0.00     0.041 A 
ATOM     96  Cl  UNL     1       9.869  -2.143   5.808  1.00  0.00    -0.084 Cl
ENDBRANCH  80  90
BRANCH  86  97
ATOM     97  C   UNL     1       4.370  -8.733   3.465  1.00  0.00     0.020 C 
ATOM     98  C   UNL     1       4.279  -9.946   4.360  1.00  0.00     0.009 C 
ATOM     99  C   UNL     1       5.486  -9.753   3.493  1.00  0.00     0.009 C 
ENDBRANCH  86  97
BRANCH  89 100
ATOM    100  C   UNL     1       1.012 -10.415  -0.087  1.00  0.00     0.433 C 
ATOM    101  F   UNL     1      -0.285 -10.004  -0.171  1.00  0.00    -0.165 F 
ATOM    102  F   UNL     1       1.356 -10.837  -1.338  1.00  0.00    -0.165 F 
ATOM    103  F   UNL     1       0.992 -11.541   0.683  1.00  0.00    -0.165 F 
ENDBRANCH  89 100
ENDBRANCH  75  77
ENDBRANCH  74  75
ENDBRANCH  73  74
ENDBRANCH  72  73
ENDBRANCH  71  72
ENDBRANCH   1  71
TORSDOF 17
