REMARK SMILES COc1cc([C@H]2c3c(-c4ccccc4)n[nH]c3C(=O)N2c2ccc(C(=O)OCCOCCOC(=O)c3ccc(-c4c5nc(c(-c6c(F)c(F)c(F)c(F)c6F)c6ccc([nH]6)c(-c6c(F)c(F)c(F)c(F)c6F)c6nc(c(-c7c(F)c(F)c(F)c(F)c7F)c7ccc4[nH]7)C=C6)C=C5)cc3)cc2)ccc1O
REMARK SMILES IDX 29 1 28 2 27 3 25 4 26 5 24 6 21 7 22 8 100 9 23 10 99 11
REMARK SMILES IDX 20 12 6 13 7 14 8 15 17 16 18 17 15 18 16 19 19 20 5 22 3 23
REMARK SMILES IDX 4 24 103 25 102 26 101 27 2 28 1 29 104 30 9 32 10 33 14 34
REMARK SMILES IDX 11 35 13 36 12 37 30 38 31 39 32 40 33 41 34 42 35 43 36 44
REMARK SMILES IDX 37 45 98 46 38 47 97 48 39 49 40 50 41 51 91 52 42 53 96 54
REMARK SMILES IDX 90 55 92 56 43 57 95 58 89 59 88 60 44 62 76 63 56 64 75 65
REMARK SMILES IDX 57 66 60 67 74 68 93 69 58 70 59 71 73 73 94 74 61 75 45 76
REMARK SMILES IDX 46 77 54 78 47 79 48 80 52 81 55 82 49 83 50 84 53 85 51 86
REMARK SMILES IDX 77 87 78 88 86 89 79 90 80 91 84 92 87 93 81 94 82 95 85 96
REMARK SMILES IDX 83 97 62 98 63 99 71 100 64 101 65 102 69 103 72 104 66 105
REMARK SMILES IDX 67 106 70 107 68 108
REMARK H PARENT 16 21 104 31 92 61 60 72
REMARK Flexibility Score: inf
ROOT
ATOM      1  C   UNL     1       6.216  -6.302   8.676  1.00  0.00     0.202 C 
ENDROOT
BRANCH   1   2
ATOM      2  C   UNL     1       5.512  -5.125   7.995  1.00  0.00     0.261 C 
BRANCH   2   3
ATOM      3  O   UNL     1       4.595  -5.523   6.962  1.00  0.00    -0.460 OA
BRANCH   3   4
ATOM      4  C   UNL     1       5.035  -5.254   5.708  1.00  0.00     0.338 C 
ATOM      5  O   UNL     1       6.086  -4.717   5.399  1.00  0.00    -0.246 OA
BRANCH   4   6
ATOM      6  C   UNL     1       4.137  -5.846   4.697  1.00  0.00     0.060 A 
ATOM      7  C   UNL     1       2.571  -6.707   2.548  1.00  0.00     0.045 A 
ATOM      8  C   UNL     1       3.942  -6.973   2.561  1.00  0.00     0.027 A 
ATOM      9  C   UNL     1       1.978  -6.084   3.658  1.00  0.00     0.027 A 
ATOM     10  C   UNL     1       4.728  -6.510   3.615  1.00  0.00     0.018 A 
ATOM     11  C   UNL     1       2.754  -5.683   4.751  1.00  0.00     0.018 A 
BRANCH   7  12
ATOM     12  N   UNL     1       1.811  -6.995   1.398  1.00  0.00    -0.295 N 
ATOM     13  C   UNL     1       0.842  -6.009   0.833  1.00  0.00     0.156 C 
ATOM     14  C   UNL     1       0.352  -6.773  -0.337  1.00  0.00     0.038 A 
ATOM     15  C   UNL     1      -0.504  -6.731  -1.450  1.00  0.00     0.099 A 
ATOM     16  C   UNL     1       0.960  -7.994  -0.390  1.00  0.00     0.129 A 
ATOM     17  C   UNL     1       1.914  -8.174   0.638  1.00  0.00     0.277 C 
ATOM     18  N   UNL     1      -0.482  -7.923  -2.090  1.00  0.00    -0.174 NA
ATOM     19  N   UNL     1       0.439  -8.666  -1.428  1.00  0.00    -0.272 N 
ATOM     20  O   UNL     1       2.624  -9.159   0.813  1.00  0.00    -0.267 OA
ATOM     21  H   UNL     1       0.693  -9.584  -1.677  1.00  0.00     0.190 HD
BRANCH  13  22
ATOM     22  C   UNL     1       1.469  -4.734   0.302  1.00  0.00    -0.016 A 
ATOM     23  C   UNL     1       1.330  -2.280   0.098  1.00  0.00     0.160 A 
ATOM     24  C   UNL     1       0.885  -3.498   0.640  1.00  0.00     0.056 A 
ATOM     25  C   UNL     1       2.396  -2.308  -0.801  1.00  0.00     0.157 A 
ATOM     26  C   UNL     1       3.028  -3.515  -1.111  1.00  0.00     0.050 A 
ATOM     27  C   UNL     1       2.574  -4.719  -0.564  1.00  0.00     0.010 A 
BRANCH  23  28
ATOM     28  O   UNL     1       0.588  -1.220   0.534  1.00  0.00    -0.493 OA
ATOM     29  C   UNL     1       1.026   0.107   0.299  1.00  0.00     0.278 C 
ENDBRANCH  23  28
BRANCH  25  30
ATOM     30  O   UNL     1       2.877  -1.221  -1.472  1.00  0.00    -0.504 OA
ATOM     31  H   UNL     1       2.505  -0.374  -1.319  1.00  0.00     0.293 HD
ENDBRANCH  25  30
ENDBRANCH  13  22
BRANCH  15  32
ATOM     32  C   UNL     1      -1.311  -5.622  -1.936  1.00  0.00     0.002 A 
ATOM     33  C   UNL     1      -2.704  -5.724  -1.993  1.00  0.00     0.010 A 
ATOM     34  C   UNL     1      -0.695  -4.445  -2.380  1.00  0.00     0.010 A 
ATOM     35  C   UNL     1      -3.469  -4.649  -2.455  1.00  0.00     0.001 A 
ATOM     36  C   UNL     1      -1.458  -3.367  -2.830  1.00  0.00     0.001 A 
ATOM     37  C   UNL     1      -2.846  -3.469  -2.865  1.00  0.00     0.000 A 
ENDBRANCH  15  32
ENDBRANCH   7  12
ENDBRANCH   4   6
ENDBRANCH   3   4
ENDBRANCH   2   3
ENDBRANCH   1   2
BRANCH   1  38
ATOM     38  O   UNL     1       7.039  -7.169   7.899  1.00  0.00    -0.374 OA
BRANCH  38  39
ATOM     39  C   UNL     1       6.470  -7.994   6.889  1.00  0.00     0.202 C 
BRANCH  39  40
ATOM     40  C   UNL     1       5.587  -9.159   7.306  1.00  0.00     0.261 C 
BRANCH  40  41
ATOM     41  O   UNL     1       4.506  -8.743   8.122  1.00  0.00    -0.460 OA
BRANCH  41  42
ATOM     42  C   UNL     1       4.707  -8.957   9.441  1.00  0.00     0.338 C 
ATOM     43  O   UNL     1       5.754  -9.238   9.999  1.00  0.00    -0.246 OA
BRANCH  42  44
ATOM     44  C   UNL     1       3.401  -8.977  10.104  1.00  0.00     0.060 A 
ATOM     45  C   UNL     1       3.417  -9.369  11.443  1.00  0.00     0.016 A 
ATOM     46  C   UNL     1       2.243  -9.028   9.316  1.00  0.00     0.016 A 
ATOM     47  C   UNL     1       2.353 -10.105  11.901  1.00  0.00     0.010 A 
ATOM     48  C   UNL     1       1.192  -9.780   9.768  1.00  0.00     0.010 A 
ATOM     49  C   UNL     1       1.315 -10.395  11.010  1.00  0.00    -0.014 A 
BRANCH  49  50
ATOM     50  C   UNL     1       0.257 -11.266  11.458  1.00  0.00     0.031 A 
ATOM     51  C   UNL     1      -0.626 -10.574  12.415  1.00  0.00     0.074 A 
ATOM     52  C   UNL     1       0.086 -12.506  10.965  1.00  0.00     0.049 A 
ATOM     53  N   UNL     1      -0.724 -10.797  13.682  1.00  0.00    -0.248 NA
ATOM     54  C   UNL     1      -1.292  -9.338  11.967  1.00  0.00     0.031 C 
ATOM     55  C   UNL     1       0.790 -13.161   9.861  1.00  0.00     0.029 A 
ATOM     56  N   UNL     1      -0.852 -13.428  11.318  1.00  0.00    -0.354 N 
ATOM     57  C   UNL     1      -1.643  -9.866  14.144  1.00  0.00     0.074 A 
ATOM     58  C   UNL     1      -1.765  -8.867  13.120  1.00  0.00     0.031 C 
ATOM     59  C   UNL     1       0.106 -14.269   9.488  1.00  0.00     0.029 A 
ATOM     60  C   UNL     1      -1.004 -14.467  10.402  1.00  0.00     0.049 A 
ATOM     61  H   UNL     1      -1.377 -13.366  12.148  1.00  0.00     0.167 HD
ATOM     62  C   UNL     1      -2.461 -10.178  15.184  1.00  0.00     0.037 A 
ATOM     63  C   UNL     1      -2.041 -15.345  10.387  1.00  0.00     0.037 A 
ATOM     64  C   UNL     1      -1.919 -11.274  15.950  1.00  0.00     0.049 A 
ATOM     65  C   UNL     1      -2.655 -15.317  11.745  1.00  0.00     0.074 A 
ATOM     66  C   UNL     1      -0.745 -11.471  16.653  1.00  0.00     0.029 A 
ATOM     67  N   UNL     1      -2.434 -12.528  15.725  1.00  0.00    -0.354 N 
ATOM     68  N   UNL     1      -2.049 -15.764  12.811  1.00  0.00    -0.248 NA
ATOM     69  C   UNL     1      -3.696 -14.326  11.987  1.00  0.00     0.031 C 
ATOM     70  C   UNL     1      -0.378 -12.824  16.393  1.00  0.00     0.029 A 
ATOM     71  C   UNL     1      -1.384 -13.403  15.620  1.00  0.00     0.049 A 
ATOM     72  H   UNL     1      -3.389 -12.757  15.652  1.00  0.00     0.167 HD
ATOM     73  C   UNL     1      -2.306 -14.810  13.787  1.00  0.00     0.074 A 
ATOM     74  C   UNL     1      -3.371 -13.974  13.235  1.00  0.00     0.031 C 
ATOM     75  C   UNL     1      -1.427 -14.598  14.810  1.00  0.00     0.037 A 
BRANCH  62  76
ATOM     76  C   UNL     1      -3.921  -9.798  15.224  1.00  0.00     0.064 A 
ATOM     77  C   UNL     1      -4.660 -10.104  16.381  1.00  0.00     0.173 A 
ATOM     78  C   UNL     1      -4.689  -9.439  14.091  1.00  0.00     0.173 A 
ATOM     79  F   UNL     1      -4.037 -10.468  17.512  1.00  0.00    -0.203 F 
ATOM     80  C   UNL     1      -6.056 -10.144  16.374  1.00  0.00     0.198 A 
ATOM     81  C   UNL     1      -6.080  -9.427  14.104  1.00  0.00     0.198 A 
ATOM     82  F   UNL     1      -4.146  -9.197  12.894  1.00  0.00    -0.203 F 
ATOM     83  F   UNL     1      -6.713 -10.575  17.459  1.00  0.00    -0.200 F 
ATOM     84  C   UNL     1      -6.764  -9.815  15.233  1.00  0.00     0.200 A 
ATOM     85  F   UNL     1      -6.743  -9.120  12.980  1.00  0.00    -0.200 F 
ATOM     86  F   UNL     1      -8.099  -9.917  15.203  1.00  0.00    -0.200 F 
ENDBRANCH  62  76
BRANCH  63  87
ATOM     87  C   UNL     1      -2.749 -15.911   9.211  1.00  0.00     0.064 A 
ATOM     88  C   UNL     1      -3.640 -16.991   9.344  1.00  0.00     0.173 A 
ATOM     89  C   UNL     1      -2.787 -15.224   7.981  1.00  0.00     0.173 A 
ATOM     90  F   UNL     1      -3.710 -17.668  10.499  1.00  0.00    -0.203 F 
ATOM     91  C   UNL     1      -4.525 -17.346   8.318  1.00  0.00     0.198 A 
ATOM     92  C   UNL     1      -3.667 -15.582   6.958  1.00  0.00     0.198 A 
ATOM     93  F   UNL     1      -2.041 -14.128   7.782  1.00  0.00    -0.203 F 
ATOM     94  F   UNL     1      -5.402 -18.344   8.505  1.00  0.00    -0.200 F 
ATOM     95  C   UNL     1      -4.545 -16.635   7.130  1.00  0.00     0.200 A 
ATOM     96  F   UNL     1      -3.703 -14.857   5.830  1.00  0.00    -0.200 F 
ATOM     97  F   UNL     1      -5.434 -16.933   6.173  1.00  0.00    -0.200 F 
ENDBRANCH  63  87
BRANCH  75  98
ATOM     98  C   UNL     1      -0.297 -15.577  14.976  1.00  0.00     0.064 A 
ATOM     99  C   UNL     1       0.710 -15.792  14.018  1.00  0.00     0.173 A 
ATOM    100  C   UNL     1      -0.156 -16.222  16.211  1.00  0.00     0.173 A 
ATOM    101  F   UNL     1       0.706 -15.131  12.854  1.00  0.00    -0.203 F 
ATOM    102  C   UNL     1       1.777 -16.655  14.270  1.00  0.00     0.198 A 
ATOM    103  C   UNL     1       0.929 -17.052  16.474  1.00  0.00     0.198 A 
ATOM    104  F   UNL     1      -1.054 -16.009  17.186  1.00  0.00    -0.203 F 
ATOM    105  F   UNL     1       2.716 -16.856  13.332  1.00  0.00    -0.200 F 
ATOM    106  C   UNL     1       1.888 -17.280  15.500  1.00  0.00     0.200 A 
ATOM    107  F   UNL     1       1.059 -17.612  17.685  1.00  0.00    -0.200 F 
ATOM    108  F   UNL     1       2.932 -18.080  15.758  1.00  0.00    -0.200 F 
ENDBRANCH  75  98
ENDBRANCH  49  50
ENDBRANCH  42  44
ENDBRANCH  41  42
ENDBRANCH  40  41
ENDBRANCH  39  40
ENDBRANCH  38  39
ENDBRANCH   1  38
TORSDOF 19
