REMARK SMILES CC[NH2+][C@@]1(C(=O)OCCOCCOC(=O)c2ccc(-c3c4nc(c(-c5c(F)c(F)c(F)c(F)c5F)c5ccc([nH]5)c(-c5c(F)c(F)c(F)c(F)c5F)c5nc(c(-c6c(F)c(F)c(F)c(F)c6F)c6ccc3[nH]6)C=C5)C=C4)cc2)CCC[C@H]1CCSc1cnn(C)c1
REMARK SMILES IDX 9 1 8 2 7 3 5 4 6 5 4 6 79 7 82 8 80 9 81 10 3 11 2 14 1 15
REMARK SMILES IDX 83 16 84 17 85 18 86 19 87 20 91 21 88 22 89 23 90 24 10 25
REMARK SMILES IDX 11 26 12 27 13 28 14 29 15 30 16 31 17 32 78 33 18 34 77 35
REMARK SMILES IDX 19 36 20 37 21 38 71 39 22 40 76 41 70 42 72 43 23 44 75 45
REMARK SMILES IDX 69 46 68 47 24 49 56 50 36 51 55 52 37 53 40 54 54 55 73 56
REMARK SMILES IDX 38 57 39 58 53 60 74 61 41 62 25 63 26 64 34 65 27 66 28 67
REMARK SMILES IDX 32 68 35 69 29 70 30 71 33 72 31 73 57 74 58 75 66 76 59 77
REMARK SMILES IDX 60 78 64 79 67 80 61 81 62 82 65 83 63 84 42 85 43 86 51 87
REMARK SMILES IDX 44 88 45 89 49 90 52 91 46 92 47 93 50 94 48 95
REMARK H PARENT 3 12 3 13 72 48 40 59
REMARK Flexibility Score: inf
ROOT
ATOM      1  C   UNL     1      -0.899   3.279   3.175  1.00  0.00     0.202 C 
ENDROOT
BRANCH   1   2
ATOM      2  C   UNL     1       0.097   4.393   2.803  1.00  0.00     0.261 C 
BRANCH   2   3
ATOM      3  O   UNL     1       0.289   4.532   1.379  1.00  0.00    -0.459 OA
BRANCH   3   4
ATOM      4  C   UNL     1       1.466   4.058   0.903  1.00  0.00     0.368 C 
ATOM      5  O   UNL     1       2.429   3.800   1.624  1.00  0.00    -0.245 OA
BRANCH   4   6
ATOM      6  C   UNL     1       1.532   3.857  -0.681  1.00  0.00     0.197 C 
ATOM      7  C   UNL     1       2.335   5.101  -1.121  1.00  0.00     0.081 C 
ATOM      8  C   UNL     1       0.244   4.011  -1.564  1.00  0.00     0.063 C 
ATOM      9  C   UNL     1       1.270   6.201  -1.191  1.00  0.00     0.008 C 
ATOM     10  C   UNL     1       0.102   5.522  -1.874  1.00  0.00     0.011 C 
BRANCH   6  11
ATOM     11  N   UNL     1       2.199   2.532  -0.896  1.00  0.00    -0.332 N 
ATOM     12  H   UNL     1       2.200   2.314  -1.892  1.00  0.00     0.347 HD
ATOM     13  H   UNL     1       3.155   2.583  -0.546  1.00  0.00     0.347 HD
BRANCH  11  14
ATOM     14  C   UNL     1       1.475   1.464  -0.163  1.00  0.00     0.257 C 
ATOM     15  C   UNL     1       1.918   0.042  -0.456  1.00  0.00     0.071 C 
ENDBRANCH  11  14
ENDBRANCH   6  11
BRANCH   8  16
ATOM     16  C   UNL     1      -0.011   3.193  -2.866  1.00  0.00     0.022 C 
BRANCH  16  17
ATOM     17  C   UNL     1      -0.469   1.701  -2.849  1.00  0.00     0.075 C 
BRANCH  17  18
ATOM     18  S   UNL     1      -2.091   0.921  -2.285  1.00  0.00    -0.123 SA
BRANCH  18  19
ATOM     19  C   UNL     1      -2.661   1.703  -0.816  1.00  0.00     0.045 A 
ATOM     20  C   UNL     1      -3.021   0.951   0.936  1.00  0.00     0.150 A 
ATOM     21  C   UNL     1      -2.701   3.379  -0.692  1.00  0.00     0.123 A 
ATOM     22  N   UNL     1      -3.194   2.301   2.077  1.00  0.00    -0.181 NA
ATOM     23  N   UNL     1      -2.905   3.867   1.049  1.00  0.00    -0.275 N 
ATOM     24  C   UNL     1      -2.664   5.251   1.391  1.00  0.00     0.173 C 
ENDBRANCH  18  19
ENDBRANCH  17  18
ENDBRANCH  16  17
ENDBRANCH   8  16
ENDBRANCH   4   6
ENDBRANCH   3   4
ENDBRANCH   2   3
ENDBRANCH   1   2
BRANCH   1  25
ATOM     25  O   UNL     1      -1.000   2.187   2.258  1.00  0.00    -0.374 OA
BRANCH  25  26
ATOM     26  C   UNL     1      -1.812   2.393   0.875  1.00  0.00     0.202 C 
BRANCH  26  27
ATOM     27  C   UNL     1      -4.045   2.491   0.487  1.00  0.00     0.261 C 
BRANCH  27  28
ATOM     28  O   UNL     1      -5.014   3.731   1.026  1.00  0.00    -0.460 OA
BRANCH  28  29
ATOM     29  C   UNL     1      -5.478   3.795   2.312  1.00  0.00     0.338 C 
ATOM     30  O   UNL     1      -5.741   2.886   3.076  1.00  0.00    -0.246 OA
BRANCH  29  31
ATOM     31  C   UNL     1      -5.409   5.227   2.735  1.00  0.00     0.060 A 
ATOM     32  C   UNL     1      -4.861   5.563   3.986  1.00  0.00     0.016 A 
ATOM     33  C   UNL     1      -5.757   6.249   1.843  1.00  0.00     0.016 A 
ATOM     34  C   UNL     1      -4.766   6.907   4.379  1.00  0.00     0.010 A 
ATOM     35  C   UNL     1      -5.617   7.589   2.217  1.00  0.00     0.010 A 
ATOM     36  C   UNL     1      -5.209   7.924   3.521  1.00  0.00    -0.014 A 
BRANCH  36  37
ATOM     37  C   UNL     1      -5.541   9.273   4.061  1.00  0.00     0.031 A 
ATOM     38  C   UNL     1      -7.005   9.607   4.246  1.00  0.00     0.074 A 
ATOM     39  C   UNL     1      -4.602  10.169   4.419  1.00  0.00     0.049 A 
ATOM     40  N   UNL     1      -7.568  10.704   4.687  1.00  0.00    -0.248 NA
ATOM     41  C   UNL     1      -7.967   8.559   3.865  1.00  0.00     0.031 C 
ATOM     42  C   UNL     1      -3.159   9.976   4.313  1.00  0.00     0.029 A 
ATOM     43  N   UNL     1      -4.733  11.432   4.949  1.00  0.00    -0.354 N 
ATOM     44  C   UNL     1      -8.938  10.474   4.624  1.00  0.00     0.074 A 
ATOM     45  C   UNL     1      -9.127   9.168   4.040  1.00  0.00     0.031 C 
ATOM     46  C   UNL     1      -2.536  11.075   4.775  1.00  0.00     0.029 A 
ATOM     47  C   UNL     1      -3.535  12.064   5.178  1.00  0.00     0.049 A 
ATOM     48  H   UNL     1      -5.605  11.844   5.146  1.00  0.00     0.167 HD
ATOM     49  C   UNL     1      -9.955  11.265   5.039  1.00  0.00     0.037 A 
ATOM     50  C   UNL     1      -3.279  13.302   5.650  1.00  0.00     0.037 A 
ATOM     51  C   UNL     1      -9.772  12.564   5.629  1.00  0.00     0.049 A 
ATOM     52  C   UNL     1      -4.431  14.195   6.046  1.00  0.00     0.074 A 
ATOM     53  C   UNL     1     -10.732  13.437   6.106  1.00  0.00     0.029 A 
ATOM     54  N   UNL     1      -8.543  13.180   5.811  1.00  0.00    -0.354 N 
ATOM     55  N   UNL     1      -5.720  13.951   6.022  1.00  0.00    -0.248 NA
ATOM     56  C   UNL     1      -4.088  15.533   6.549  1.00  0.00     0.031 C 
ATOM     57  C   UNL     1     -10.090  14.614   6.503  1.00  0.00     0.029 A 
ATOM     58  C   UNL     1      -8.723  14.440   6.357  1.00  0.00     0.049 A 
ATOM     59  H   UNL     1      -7.671  12.781   5.585  1.00  0.00     0.167 HD
ATOM     60  C   UNL     1      -6.336  15.088   6.534  1.00  0.00     0.074 A 
ATOM     61  C   UNL     1      -5.276  16.009   6.887  1.00  0.00     0.031 C 
ATOM     62  C   UNL     1      -7.658  15.350   6.698  1.00  0.00     0.037 A 
BRANCH  49  63
ATOM     63  C   UNL     1     -11.358  10.757   4.845  1.00  0.00     0.064 A 
ATOM     64  C   UNL     1     -11.854   9.646   5.546  1.00  0.00     0.173 A 
ATOM     65  C   UNL     1     -12.228  11.407   3.955  1.00  0.00     0.173 A 
ATOM     66  F   UNL     1     -11.062   8.975   6.396  1.00  0.00    -0.203 F 
ATOM     67  C   UNL     1     -13.152   9.186   5.338  1.00  0.00     0.198 A 
ATOM     68  C   UNL     1     -13.538  10.970   3.781  1.00  0.00     0.198 A 
ATOM     69  F   UNL     1     -11.809  12.474   3.258  1.00  0.00    -0.203 F 
ATOM     70  F   UNL     1     -13.581   8.085   5.971  1.00  0.00    -0.200 F 
ATOM     71  C   UNL     1     -13.996   9.854   4.464  1.00  0.00     0.200 A 
ATOM     72  F   UNL     1     -14.356  11.628   2.949  1.00  0.00    -0.200 F 
ATOM     73  F   UNL     1     -15.248   9.417   4.273  1.00  0.00    -0.200 F 
ENDBRANCH  49  63
BRANCH  50  74
ATOM     74  C   UNL     1      -1.873  13.783   5.776  1.00  0.00     0.064 A 
ATOM     75  C   UNL     1      -1.311  14.078   7.027  1.00  0.00     0.173 A 
ATOM     76  C   UNL     1      -1.073  13.991   4.643  1.00  0.00     0.173 A 
ATOM     77  F   UNL     1      -2.040  13.924   8.142  1.00  0.00    -0.203 F 
ATOM     78  C   UNL     1      -0.017  14.587   7.137  1.00  0.00     0.198 A 
ATOM     79  C   UNL     1       0.234  14.462   4.756  1.00  0.00     0.198 A 
ATOM     80  F   UNL     1      -1.558  13.729   3.420  1.00  0.00    -0.203 F 
ATOM     81  F   UNL     1       0.471  14.918   8.340  1.00  0.00    -0.200 F 
ATOM     82  C   UNL     1       0.757  14.771   6.002  1.00  0.00     0.200 A 
ATOM     83  F   UNL     1       0.983  14.621   3.656  1.00  0.00    -0.200 F 
ATOM     84  F   UNL     1       2.003  15.253   6.107  1.00  0.00    -0.200 F 
ENDBRANCH  50  74
BRANCH  62  85
ATOM     85  C   UNL     1      -8.029  16.669   7.322  1.00  0.00     0.064 A 
ATOM     86  C   UNL     1      -7.783  17.892   6.679  1.00  0.00     0.173 A 
ATOM     87  C   UNL     1      -8.644  16.709   8.584  1.00  0.00     0.173 A 
ATOM     88  F   UNL     1      -7.195  17.915   5.473  1.00  0.00    -0.203 F 
ATOM     89  C   UNL     1      -8.079  19.103   7.301  1.00  0.00     0.198 A 
ATOM     90  C   UNL     1      -8.983  17.920   9.182  1.00  0.00     0.198 A 
ATOM     91  F   UNL     1      -8.921  15.572   9.240  1.00  0.00    -0.203 F 
ATOM     92  F   UNL     1      -7.753  20.257   6.703  1.00  0.00    -0.200 F 
ATOM     93  C   UNL     1      -8.683  19.116   8.549  1.00  0.00     0.200 A 
ATOM     94  F   UNL     1      -9.590  17.928  10.377  1.00  0.00    -0.200 F 
ATOM     95  F   UNL     1      -8.964  20.281   9.147  1.00  0.00    -0.200 F 
ENDBRANCH  62  85
ENDBRANCH  36  37
ENDBRANCH  29  31
ENDBRANCH  28  29
ENDBRANCH  27  28
ENDBRANCH  26  27
ENDBRANCH  25  26
ENDBRANCH   1  25
TORSDOF 20
