REMARK SMILES O=C(CCN/C(=[NH+]\S(=O)(=O)c1ccccc1)c1ccccc1)OCCOCCOC(=O)c1ccc(-c2c3nc(c(-c4c(F)c(F)c(F)c(F)c4F)c4ccc([nH]4)c(-c4c(F)c(F)c(F)c(F)c4F)c4nc(c(-c5c(F)c(F)c(F)c(F)c5F)c5ccc2[nH]5)C=C4)C=C3)cc1
REMARK SMILES IDX 25 1 24 2 23 3 2 4 1 5 3 6 4 7 5 8 6 9 7 11 17 13 18 14
REMARK SMILES IDX 22 15 19 16 21 17 20 18 8 19 9 20 10 21 11 22 12 23 16 24
REMARK SMILES IDX 13 25 15 26 14 27 26 28 27 29 28 30 29 31 30 32 31 33 32 34
REMARK SMILES IDX 33 35 94 36 34 37 93 38 35 39 36 40 37 41 87 42 38 43 92 44
REMARK SMILES IDX 86 45 88 46 39 47 91 48 85 49 84 50 40 52 72 53 52 54 71 55
REMARK SMILES IDX 53 56 56 57 70 58 89 59 54 60 55 61 69 63 90 64 57 65 41 66
REMARK SMILES IDX 42 67 50 68 43 69 44 70 48 71 51 72 45 73 46 74 49 75 47 76
REMARK SMILES IDX 73 77 74 78 82 79 75 80 76 81 80 82 83 83 77 84 78 85 81 86
REMARK SMILES IDX 79 87 58 88 59 89 67 90 60 91 61 92 65 93 68 94 62 95 63 96
REMARK SMILES IDX 66 97 64 98
REMARK H PARENT 5 10 7 12 88 51 56 62
REMARK Flexibility Score: inf
ROOT
ATOM      1  C   UNL     1       4.233  -1.057  -0.314  1.00  0.00     0.202 C 
ENDROOT
BRANCH   1   2
ATOM      2  C   UNL     1       3.300  -0.631   0.825  1.00  0.00     0.261 C 
BRANCH   2   3
ATOM      3  O   UNL     1       2.091   0.047   0.442  1.00  0.00    -0.463 OA
BRANCH   3   4
ATOM      4  C   UNL     1       2.049   1.360   0.150  1.00  0.00     0.309 C 
ATOM      5  O   UNL     1       1.083   2.040   0.491  1.00  0.00    -0.252 OA
BRANCH   4   6
ATOM      6  C   UNL     1       3.136   1.941  -0.704  1.00  0.00     0.168 C 
BRANCH   6   7
ATOM      7  C   UNL     1       3.939   2.981   0.050  1.00  0.00     0.245 C 
BRANCH   7   8
ATOM      8  N   UNL     1       5.037   2.418   0.825  1.00  0.00    -0.273 N 
ATOM      9  C   UNL     1       6.331   2.077   0.454  1.00  0.00     0.290 C 
ATOM     10  H   UNL     1       4.826   2.252   1.772  1.00  0.00     0.305 HD
ATOM     11  N   UNL     1       7.159   1.376   1.177  1.00  0.00    -0.162 N 
ATOM     12  H   UNL     1       8.084   1.250   0.865  1.00  0.00     0.327 HD
BRANCH   9  13
ATOM     13  C   UNL     1       6.876   2.518  -0.878  1.00  0.00     0.064 A 
ATOM     14  C   UNL     1       7.569   1.599  -1.675  1.00  0.00     0.016 A 
ATOM     15  C   UNL     1       6.723   3.836  -1.323  1.00  0.00     0.016 A 
ATOM     16  C   UNL     1       8.053   1.983  -2.928  1.00  0.00     0.001 A 
ATOM     17  C   UNL     1       7.182   4.209  -2.588  1.00  0.00     0.001 A 
ATOM     18  C   UNL     1       7.843   3.282  -3.391  1.00  0.00     0.000 A 
ENDBRANCH   9  13
BRANCH  11  19
ATOM     19  S   UNL     1       6.697   0.710   2.577  1.00  0.00     0.328 S 
ATOM     20  O   UNL     1       6.020   1.706   3.390  1.00  0.00    -0.179 OA
ATOM     21  O   UNL     1       6.010  -0.535   2.276  1.00  0.00    -0.179 OA
BRANCH  19  22
ATOM     22  C   UNL     1       8.172   0.243   3.462  1.00  0.00     0.109 A 
ATOM     23  C   UNL     1       8.481  -1.117   3.595  1.00  0.00     0.024 A 
ATOM     24  C   UNL     1       8.892   1.203   4.178  1.00  0.00     0.024 A 
ATOM     25  C   UNL     1       9.503  -1.521   4.452  1.00  0.00     0.001 A 
ATOM     26  C   UNL     1       9.922   0.792   5.028  1.00  0.00     0.001 A 
ATOM     27  C   UNL     1      10.220  -0.566   5.172  1.00  0.00     0.000 A 
ENDBRANCH  19  22
ENDBRANCH  11  19
ENDBRANCH   7   8
ENDBRANCH   6   7
ENDBRANCH   4   6
ENDBRANCH   3   4
ENDBRANCH   2   3
ENDBRANCH   1   2
BRANCH   1  28
ATOM     28  O   UNL     1       3.655  -1.264  -1.601  1.00  0.00    -0.374 OA
BRANCH  28  29
ATOM     29  C   UNL     1       2.449  -2.015  -1.697  1.00  0.00     0.202 C 
BRANCH  29  30
ATOM     30  C   UNL     1       2.593  -3.529  -1.584  1.00  0.00     0.261 C 
BRANCH  30  31
ATOM     31  O   UNL     1       3.096  -3.918  -0.297  1.00  0.00    -0.460 OA
BRANCH  31  32
ATOM     32  C   UNL     1       4.368  -4.383  -0.309  1.00  0.00     0.338 C 
ATOM     33  O   UNL     1       5.091  -4.530  -1.279  1.00  0.00    -0.246 OA
BRANCH  32  34
ATOM     34  C   UNL     1       4.845  -4.591   1.072  1.00  0.00     0.060 A 
ATOM     35  C   UNL     1       6.186  -4.291   1.336  1.00  0.00     0.016 A 
ATOM     36  C   UNL     1       4.029  -5.134   2.070  1.00  0.00     0.016 A 
ATOM     37  C   UNL     1       6.733  -4.594   2.578  1.00  0.00     0.010 A 
ATOM     38  C   UNL     1       4.579  -5.437   3.318  1.00  0.00     0.010 A 
ATOM     39  C   UNL     1       5.942  -5.202   3.561  1.00  0.00    -0.014 A 
BRANCH  39  40
ATOM     40  C   UNL     1       6.606  -5.735   4.768  1.00  0.00     0.031 A 
ATOM     41  C   UNL     1       7.092  -7.156   4.753  1.00  0.00     0.074 A 
ATOM     42  C   UNL     1       6.842  -4.941   5.826  1.00  0.00     0.049 A 
ATOM     43  N   UNL     1       7.779  -7.809   5.654  1.00  0.00    -0.248 NA
ATOM     44  C   UNL     1       6.770  -7.944   3.552  1.00  0.00     0.031 C 
ATOM     45  C   UNL     1       6.440  -3.541   5.937  1.00  0.00     0.029 A 
ATOM     46  N   UNL     1       7.485  -5.206   7.007  1.00  0.00    -0.354 N 
ATOM     47  C   UNL     1       7.998  -9.070   5.117  1.00  0.00     0.074 A 
ATOM     48  C   UNL     1       7.331  -9.110   3.834  1.00  0.00     0.031 C 
ATOM     49  C   UNL     1       6.837  -3.070   7.132  1.00  0.00     0.029 A 
ATOM     50  C   UNL     1       7.507  -4.139   7.870  1.00  0.00     0.049 A 
ATOM     51  H   UNL     1       7.891  -6.078   7.217  1.00  0.00     0.167 HD
ATOM     52  C   UNL     1       8.707 -10.098   5.641  1.00  0.00     0.037 A 
ATOM     53  C   UNL     1       8.007  -4.049   9.117  1.00  0.00     0.037 A 
ATOM     54  C   UNL     1       9.332 -10.072   6.936  1.00  0.00     0.049 A 
ATOM     55  C   UNL     1       8.719  -5.237   9.712  1.00  0.00     0.074 A 
ATOM     56  C   UNL     1      10.044 -11.071   7.574  1.00  0.00     0.029 A 
ATOM     57  N   UNL     1       9.304  -8.985   7.798  1.00  0.00    -0.354 N 
ATOM     58  N   UNL     1       8.955  -6.414   9.184  1.00  0.00    -0.248 NA
ATOM     59  C   UNL     1       9.250  -5.075  11.073  1.00  0.00     0.031 C 
ATOM     60  C   UNL     1      10.412 -10.603   8.841  1.00  0.00     0.029 A 
ATOM     61  C   UNL     1       9.972  -9.296   8.971  1.00  0.00     0.049 A 
ATOM     62  H   UNL     1       8.873  -8.122   7.605  1.00  0.00     0.167 HD
ATOM     63  C   UNL     1       9.678  -7.123  10.134  1.00  0.00     0.074 A 
ATOM     64  C   UNL     1       9.863  -6.235  11.264  1.00  0.00     0.031 C 
ATOM     65  C   UNL     1      10.147  -8.395  10.082  1.00  0.00     0.037 A 
BRANCH  52  66
ATOM     66  C   UNL     1       8.827 -11.339   4.809  1.00  0.00     0.064 A 
ATOM     67  C   UNL     1       9.641 -11.375   3.666  1.00  0.00     0.173 A 
ATOM     68  C   UNL     1       8.139 -12.508   5.162  1.00  0.00     0.173 A 
ATOM     69  F   UNL     1      10.306 -10.276   3.277  1.00  0.00    -0.203 F 
ATOM     70  C   UNL     1       9.745 -12.530   2.896  1.00  0.00     0.198 A 
ATOM     71  C   UNL     1       8.263 -13.669   4.403  1.00  0.00     0.198 A 
ATOM     72  F   UNL     1       7.346 -12.526   6.244  1.00  0.00    -0.203 F 
ATOM     73  F   UNL     1      10.495 -12.528   1.785  1.00  0.00    -0.200 F 
ATOM     74  C   UNL     1       9.060 -13.677   3.268  1.00  0.00     0.200 A 
ATOM     75  F   UNL     1       7.607 -14.779   4.767  1.00  0.00    -0.200 F 
ATOM     76  F   UNL     1       9.163 -14.789   2.527  1.00  0.00    -0.200 F 
ENDBRANCH  52  66
BRANCH  53  77
ATOM     77  C   UNL     1       7.847  -2.792   9.892  1.00  0.00     0.064 A 
ATOM     78  C   UNL     1       8.949  -1.987  10.208  1.00  0.00     0.173 A 
ATOM     79  C   UNL     1       6.588  -2.393  10.365  1.00  0.00     0.173 A 
ATOM     80  F   UNL     1      10.176  -2.341   9.799  1.00  0.00    -0.203 F 
ATOM     81  C   UNL     1       8.803  -0.844  10.992  1.00  0.00     0.198 A 
ATOM     82  C   UNL     1       6.439  -1.235  11.125  1.00  0.00     0.198 A 
ATOM     83  F   UNL     1       5.503  -3.132  10.093  1.00  0.00    -0.203 F 
ATOM     84  F   UNL     1       9.881  -0.122  11.327  1.00  0.00    -0.200 F 
ATOM     85  C   UNL     1       7.548  -0.467  11.446  1.00  0.00     0.200 A 
ATOM     86  F   UNL     1       5.224  -0.871  11.556  1.00  0.00    -0.200 F 
ATOM     87  F   UNL     1       7.409   0.628  12.206  1.00  0.00    -0.200 F 
ENDBRANCH  53  77
BRANCH  65  88
ATOM     88  C   UNL     1      10.926  -8.888  11.267  1.00  0.00     0.064 A 
ATOM     89  C   UNL     1      10.302  -9.171  12.491  1.00  0.00     0.173 A 
ATOM     90  C   UNL     1      12.308  -9.107  11.167  1.00  0.00     0.173 A 
ATOM     91  F   UNL     1       8.985  -8.965  12.641  1.00  0.00    -0.203 F 
ATOM     92  C   UNL     1      11.040  -9.623  13.582  1.00  0.00     0.198 A 
ATOM     93  C   UNL     1      13.037  -9.588  12.250  1.00  0.00     0.198 A 
ATOM     94  F   UNL     1      12.951  -8.860  10.015  1.00  0.00    -0.203 F 
ATOM     95  F   UNL     1      10.433  -9.835  14.757  1.00  0.00    -0.200 F 
ATOM     96  C   UNL     1      12.405  -9.837  13.459  1.00  0.00     0.200 A 
ATOM     97  F   UNL     1      14.354  -9.807  12.126  1.00  0.00    -0.200 F 
ATOM     98  F   UNL     1      13.113 -10.274  14.509  1.00  0.00    -0.200 F 
ENDBRANCH  65  88
ENDBRANCH  39  40
ENDBRANCH  32  34
ENDBRANCH  31  32
ENDBRANCH  30  31
ENDBRANCH  29  30
ENDBRANCH  28  29
ENDBRANCH   1  28
TORSDOF 19
