REMARK SMILES Cc1cc(OC(F)(F)F)cc2c1O[C@@H](C(F)(F)F)C(C(=O)OCCOCCOC(=O)c1ccc(-c3c4nc(c(-c5c(F)c(F)c(F)c(F)c5F)c5ccc([nH]5)c(-c5c(F)c(F)c(F)c(F)c5F)c5nc(c(-c6c(F)c(F)c(F)c(F)c6F)c6ccc3[nH]6)C=C5)C=C4)cc1)=C2
REMARK SMILES IDX 25 1 24 2 23 3 22 4 20 5 21 6 19 7 1 8 2 9 3 10 12 11 4 12
REMARK SMILES IDX 11 13 13 14 10 15 94 16 14 17 5 18 6 19 7 20 8 21 9 22 15 23
REMARK SMILES IDX 16 24 17 25 18 26 26 27 27 28 28 29 29 30 30 31 31 32 32 33
REMARK SMILES IDX 93 34 33 35 92 36 34 37 35 38 36 39 86 40 37 41 91 42 85 43
REMARK SMILES IDX 87 44 38 45 90 46 84 47 83 48 39 50 71 51 51 52 70 53 52 54
REMARK SMILES IDX 55 55 69 56 88 57 53 58 54 59 68 61 89 62 56 63 40 64 41 65
REMARK SMILES IDX 49 66 42 67 43 68 47 69 50 70 44 71 45 72 48 73 46 74 72 75
REMARK SMILES IDX 73 76 81 77 74 78 75 79 79 80 82 81 76 82 77 83 80 84 78 85
REMARK SMILES IDX 57 86 58 87 66 88 59 89 60 90 64 91 67 92 61 93 62 94 65 95
REMARK SMILES IDX 63 96
REMARK H PARENT 87 49 55 60
REMARK Flexibility Score: inf
ROOT
ATOM      1  O   UNL     1      -4.663   3.363   6.120  1.00  0.00    -0.374 OA
ENDROOT
BRANCH   1   2
ATOM      2  C   UNL     1      -5.543   2.248   5.990  1.00  0.00     0.202 C 
BRANCH   2   3
ATOM      3  C   UNL     1      -6.037   1.951   4.574  1.00  0.00     0.261 C 
BRANCH   3   4
ATOM      4  O   UNL     1      -4.942   1.515   3.749  1.00  0.00    -0.460 OA
BRANCH   4   5
ATOM      5  C   UNL     1      -4.456   2.465   2.926  1.00  0.00     0.338 C 
ATOM      6  O   UNL     1      -5.001   3.524   2.655  1.00  0.00    -0.246 OA
BRANCH   5   7
ATOM      7  C   UNL     1      -3.103   2.105   2.454  1.00  0.00     0.087 C 
ATOM      8  C   UNL     1       0.851  -0.056  -0.021  1.00  0.00     0.048 C 
ATOM      9  C   UNL     1       0.448   1.333   0.390  1.00  0.00    -0.005 A 
ATOM     10  C   UNL     1       1.256   2.424   0.006  1.00  0.00     0.054 A 
ATOM     11  C   UNL     1      -0.745   1.573   1.085  1.00  0.00     0.131 A 
ATOM     12  C   UNL     1       0.901   3.731   0.341  1.00  0.00     0.130 A 
ATOM     13  C   UNL     1      -1.084   2.880   1.441  1.00  0.00     0.021 A 
ATOM     14  O   UNL     1      -1.584   0.510   1.317  1.00  0.00    -0.475 OA
ATOM     15  C   UNL     1      -0.257   3.948   1.086  1.00  0.00     0.058 A 
ATOM     16  C   UNL     1      -2.357   3.150   2.075  1.00  0.00     0.027 C 
ATOM     17  C   UNL     1      -2.638   0.679   2.317  1.00  0.00     0.316 C 
BRANCH  12  18
ATOM     18  O   UNL     1       1.569   4.873   0.007  1.00  0.00    -0.406 OA
BRANCH  18  19
ATOM     19  C   UNL     1       2.582   4.780  -0.979  1.00  0.00     0.573 C 
ATOM     20  F   UNL     1       3.637   4.077  -0.517  1.00  0.00    -0.132 F 
ATOM     21  F   UNL     1       2.117   4.207  -2.110  1.00  0.00    -0.132 F 
ATOM     22  F   UNL     1       3.005   6.027  -1.283  1.00  0.00    -0.132 F 
ENDBRANCH  18  19
ENDBRANCH  12  18
BRANCH  17  23
ATOM     23  C   UNL     1      -2.175  -0.007   3.619  1.00  0.00     0.430 C 
ATOM     24  F   UNL     1      -3.048   0.135   4.640  1.00  0.00    -0.167 F 
ATOM     25  F   UNL     1      -2.035  -1.345   3.429  1.00  0.00    -0.167 F 
ATOM     26  F   UNL     1      -0.982   0.463   4.053  1.00  0.00    -0.167 F 
ENDBRANCH  17  23
ENDBRANCH   5   7
ENDBRANCH   4   5
ENDBRANCH   3   4
ENDBRANCH   2   3
ENDBRANCH   1   2
BRANCH   1  27
ATOM     27  C   UNL     1      -3.261   3.091   6.023  1.00  0.00     0.202 C 
BRANCH  27  28
ATOM     28  C   UNL     1      -2.594   2.476   7.263  1.00  0.00     0.261 C 
BRANCH  28  29
ATOM     29  O   UNL     1      -2.970   1.097   7.439  1.00  0.00    -0.460 OA
BRANCH  29  30
ATOM     30  C   UNL     1      -3.842   0.856   8.445  1.00  0.00     0.338 C 
ATOM     31  O   UNL     1      -4.249   1.651   9.280  1.00  0.00    -0.246 OA
BRANCH  30  32
ATOM     32  C   UNL     1      -4.436  -0.483   8.269  1.00  0.00     0.060 A 
ATOM     33  C   UNL     1      -5.835  -0.569   8.220  1.00  0.00     0.016 A 
ATOM     34  C   UNL     1      -3.652  -1.636   8.205  1.00  0.00     0.016 A 
ATOM     35  C   UNL     1      -6.458  -1.812   8.153  1.00  0.00     0.010 A 
ATOM     36  C   UNL     1      -4.280  -2.887   8.165  1.00  0.00     0.010 A 
ATOM     37  C   UNL     1      -5.684  -2.979   8.179  1.00  0.00    -0.014 A 
BRANCH  37  38
ATOM     38  C   UNL     1      -6.350  -4.275   8.450  1.00  0.00     0.031 A 
ATOM     39  C   UNL     1      -6.426  -4.749   9.876  1.00  0.00     0.074 A 
ATOM     40  C   UNL     1      -6.927  -4.989   7.468  1.00  0.00     0.049 A 
ATOM     41  N   UNL     1      -6.955  -5.843  10.361  1.00  0.00    -0.248 NA
ATOM     42  C   UNL     1      -5.828  -3.868  10.892  1.00  0.00     0.031 C 
ATOM     43  C   UNL     1      -6.971  -4.607   6.059  1.00  0.00     0.029 A 
ATOM     44  N   UNL     1      -7.591  -6.190   7.514  1.00  0.00    -0.354 N 
ATOM     45  C   UNL     1      -6.764  -5.773  11.735  1.00  0.00     0.074 A 
ATOM     46  C   UNL     1      -6.034  -4.555  12.005  1.00  0.00     0.031 C 
ATOM     47  C   UNL     1      -7.625  -5.560   5.371  1.00  0.00     0.029 A 
ATOM     48  C   UNL     1      -8.020  -6.631   6.286  1.00  0.00     0.049 A 
ATOM     49  H   UNL     1      -7.745  -6.689   8.349  1.00  0.00     0.167 HD
ATOM     50  C   UNL     1      -7.178  -6.639  12.688  1.00  0.00     0.037 A 
ATOM     51  C   UNL     1      -8.645  -7.775   5.944  1.00  0.00     0.037 A 
ATOM     52  C   UNL     1      -7.901  -7.853  12.421  1.00  0.00     0.049 A 
ATOM     53  C   UNL     1      -8.994  -8.779   7.016  1.00  0.00     0.074 A 
ATOM     54  C   UNL     1      -8.368  -8.792  13.323  1.00  0.00     0.029 A 
ATOM     55  N   UNL     1      -8.255  -8.299  11.157  1.00  0.00    -0.354 N 
ATOM     56  N   UNL     1      -8.835  -8.695   8.315  1.00  0.00    -0.248 NA
ATOM     57  C   UNL     1      -9.608 -10.041   6.572  1.00  0.00     0.031 C 
ATOM     58  C   UNL     1      -8.956  -9.834  12.602  1.00  0.00     0.029 A 
ATOM     59  C   UNL     1      -8.905  -9.518  11.254  1.00  0.00     0.049 A 
ATOM     60  H   UNL     1      -8.071  -7.821  10.316  1.00  0.00     0.167 HD
ATOM     61  C   UNL     1      -9.348  -9.874   8.842  1.00  0.00     0.074 A 
ATOM     62  C   UNL     1      -9.843 -10.651   7.726  1.00  0.00     0.031 C 
ATOM     63  C   UNL     1      -9.400 -10.278  10.135  1.00  0.00     0.037 A 
BRANCH  50  64
ATOM     64  C   UNL     1      -6.861  -6.313  14.116  1.00  0.00     0.064 A 
ATOM     65  C   UNL     1      -7.530  -5.285  14.796  1.00  0.00     0.173 A 
ATOM     66  C   UNL     1      -5.937  -7.087  14.835  1.00  0.00     0.173 A 
ATOM     67  F   UNL     1      -8.411  -4.508  14.148  1.00  0.00    -0.203 F 
ATOM     68  C   UNL     1      -7.282  -5.041  16.144  1.00  0.00     0.198 A 
ATOM     69  C   UNL     1      -5.713  -6.857  16.189  1.00  0.00     0.198 A 
ATOM     70  F   UNL     1      -5.273  -8.083  14.230  1.00  0.00    -0.203 F 
ATOM     71  F   UNL     1      -7.914  -4.037  16.768  1.00  0.00    -0.200 F 
ATOM     72  C   UNL     1      -6.383  -5.834  16.842  1.00  0.00     0.200 A 
ATOM     73  F   UNL     1      -4.855  -7.634  16.866  1.00  0.00    -0.200 F 
ATOM     74  F   UNL     1      -6.164  -5.612  18.145  1.00  0.00    -0.200 F 
ENDBRANCH  50  64
BRANCH  51  75
ATOM     75  C   UNL     1      -8.984  -8.043   4.521  1.00  0.00     0.064 A 
ATOM     76  C   UNL     1     -10.319  -8.104   4.096  1.00  0.00     0.173 A 
ATOM     77  C   UNL     1      -7.985  -8.268   3.562  1.00  0.00     0.173 A 
ATOM     78  F   UNL     1     -11.311  -7.926   4.981  1.00  0.00    -0.203 F 
ATOM     79  C   UNL     1     -10.642  -8.392   2.772  1.00  0.00     0.198 A 
ATOM     80  C   UNL     1      -8.309  -8.526   2.231  1.00  0.00     0.198 A 
ATOM     81  F   UNL     1      -6.692  -8.229   3.915  1.00  0.00    -0.203 F 
ATOM     82  F   UNL     1     -11.926  -8.490   2.404  1.00  0.00    -0.200 F 
ATOM     83  C   UNL     1      -9.636  -8.596   1.839  1.00  0.00     0.200 A 
ATOM     84  F   UNL     1      -7.334  -8.712   1.331  1.00  0.00    -0.200 F 
ATOM     85  F   UNL     1      -9.947  -8.868   0.564  1.00  0.00    -0.200 F 
ENDBRANCH  51  75
BRANCH  63  86
ATOM     86  C   UNL     1     -10.017 -11.616  10.431  1.00  0.00     0.064 A 
ATOM     87  C   UNL     1      -9.360 -12.811  10.106  1.00  0.00     0.173 A 
ATOM     88  C   UNL     1     -11.229 -11.703  11.134  1.00  0.00     0.173 A 
ATOM     89  F   UNL     1      -8.204 -12.783   9.426  1.00  0.00    -0.203 F 
ATOM     90  C   UNL     1      -9.899 -14.044  10.464  1.00  0.00     0.198 A 
ATOM     91  C   UNL     1     -11.749 -12.936  11.518  1.00  0.00     0.198 A 
ATOM     92  F   UNL     1     -11.893 -10.589  11.479  1.00  0.00    -0.203 F 
ATOM     93  F   UNL     1      -9.269 -15.175  10.116  1.00  0.00    -0.200 F 
ATOM     94  C   UNL     1     -11.085 -14.105  11.180  1.00  0.00     0.200 A 
ATOM     95  F   UNL     1     -12.885 -12.992  12.227  1.00  0.00    -0.200 F 
ATOM     96  F   UNL     1     -11.590 -15.293  11.544  1.00  0.00    -0.200 F 
ENDBRANCH  63  86
ENDBRANCH  37  38
ENDBRANCH  30  32
ENDBRANCH  29  30
ENDBRANCH  28  29
ENDBRANCH  27  28
ENDBRANCH   1  27
TORSDOF 17
