REMARK SMILES CCCc1cc(OC(F)(F)F)cc2c1O[C@@H](C(F)(F)F)C(C(=O)OCCOCCOC(=O)c1ccc(-c3c4nc(c(-c5c(F)c(F)c(F)c(F)c5F)c5ccc([nH]5)c(-c5c(F)c(F)c(F)c(F)c5F)c5nc(c(-c6c(F)c(F)c(F)c(F)c6F)c6ccc3[nH]6)C=C5)C=C4)cc1)=C2
REMARK SMILES IDX 27 1 26 2 25 3 24 4 22 5 23 6 21 7 4 8 5 9 14 10 6 11 13 12
REMARK SMILES IDX 15 13 12 14 96 15 16 16 3 17 2 18 1 19 7 20 8 21 9 22 10 23
REMARK SMILES IDX 11 24 17 25 18 26 19 27 20 28 28 29 29 30 30 31 31 32 32 33
REMARK SMILES IDX 33 34 34 35 95 36 35 37 94 38 36 39 37 40 38 41 88 42 39 43
REMARK SMILES IDX 93 44 87 45 89 46 40 47 92 48 86 49 85 50 41 52 73 53 53 54
REMARK SMILES IDX 72 55 54 56 57 57 71 58 90 59 55 60 56 61 70 63 91 64 58 65
REMARK SMILES IDX 42 66 43 67 51 68 44 69 45 70 49 71 52 72 46 73 47 74 50 75
REMARK SMILES IDX 48 76 74 77 75 78 83 79 76 80 77 81 81 82 84 83 78 84 79 85
REMARK SMILES IDX 82 86 80 87 59 88 60 89 68 90 61 91 62 92 66 93 69 94 63 95
REMARK SMILES IDX 64 96 67 97 65 98
REMARK H PARENT 89 51 57 62
REMARK Flexibility Score: inf
ROOT
ATOM      1  O   UNL     1      -3.533  -5.017   8.502  1.00  0.00    -0.374 OA
ENDROOT
BRANCH   1   2
ATOM      2  C   UNL     1      -2.922  -4.407   9.633  1.00  0.00     0.202 C 
BRANCH   2   3
ATOM      3  C   UNL     1      -1.452  -3.991   9.532  1.00  0.00     0.261 C 
BRANCH   3   4
ATOM      4  O   UNL     1      -1.210  -3.135   8.407  1.00  0.00    -0.460 OA
BRANCH   4   5
ATOM      5  C   UNL     1      -0.446  -3.689   7.436  1.00  0.00     0.338 C 
ATOM      6  O   UNL     1       0.147  -4.754   7.502  1.00  0.00    -0.246 OA
BRANCH   5   7
ATOM      7  C   UNL     1      -0.493  -2.883   6.206  1.00  0.00     0.087 C 
ATOM      8  C   UNL     1       0.666  -0.980   2.679  1.00  0.00    -0.002 A 
ATOM      9  C   UNL     1       0.850   0.411   2.711  1.00  0.00     0.054 A 
ATOM     10  C   UNL     1       0.195  -1.604   3.844  1.00  0.00     0.131 A 
ATOM     11  C   UNL     1       0.490   1.178   3.822  1.00  0.00     0.130 A 
ATOM     12  C   UNL     1      -0.095  -0.856   5.000  1.00  0.00     0.021 A 
ATOM     13  O   UNL     1       0.141  -2.977   3.849  1.00  0.00    -0.475 OA
ATOM     14  C   UNL     1       0.013   0.536   4.967  1.00  0.00     0.058 A 
ATOM     15  C   UNL     1      -0.310  -1.555   6.268  1.00  0.00     0.027 C 
ATOM     16  C   UNL     1      -0.702  -3.561   4.872  1.00  0.00     0.316 C 
BRANCH   8  17
ATOM     17  C   UNL     1       1.088  -1.778   1.461  1.00  0.00     0.039 C 
BRANCH  17  18
ATOM     18  C   UNL     1       0.394  -1.431   0.135  1.00  0.00     0.001 C 
ATOM     19  C   UNL     1       0.832  -0.119  -0.503  1.00  0.00     0.004 C 
ENDBRANCH  17  18
ENDBRANCH   8  17
BRANCH  11  20
ATOM     20  O   UNL     1       0.605   2.536   3.929  1.00  0.00    -0.406 OA
BRANCH  20  21
ATOM     21  C   UNL     1       1.070   3.247   2.791  1.00  0.00     0.573 C 
ATOM     22  F   UNL     1       2.335   2.892   2.482  1.00  0.00    -0.132 F 
ATOM     23  F   UNL     1       0.269   3.039   1.723  1.00  0.00    -0.132 F 
ATOM     24  F   UNL     1       1.060   4.569   3.071  1.00  0.00    -0.132 F 
ENDBRANCH  20  21
ENDBRANCH  11  20
BRANCH  16  25
ATOM     25  C   UNL     1      -0.584  -5.092   4.788  1.00  0.00     0.430 C 
ATOM     26  F   UNL     1      -1.477  -5.698   5.606  1.00  0.00    -0.167 F 
ATOM     27  F   UNL     1      -0.890  -5.512   3.531  1.00  0.00    -0.167 F 
ATOM     28  F   UNL     1       0.652  -5.551   5.064  1.00  0.00    -0.167 F 
ENDBRANCH  16  25
ENDBRANCH   5   7
ENDBRANCH   4   5
ENDBRANCH   3   4
ENDBRANCH   2   3
ENDBRANCH   1   2
BRANCH   1  29
ATOM     29  C   UNL     1      -3.818  -4.217   7.357  1.00  0.00     0.202 C 
BRANCH  29  30
ATOM     30  C   UNL     1      -4.911  -3.144   7.452  1.00  0.00     0.261 C 
BRANCH  30  31
ATOM     31  O   UNL     1      -4.663  -2.159   8.468  1.00  0.00    -0.460 OA
BRANCH  31  32
ATOM     32  C   UNL     1      -5.507  -2.228   9.527  1.00  0.00     0.338 C 
ATOM     33  O   UNL     1      -6.452  -2.987   9.677  1.00  0.00    -0.246 OA
BRANCH  32  34
ATOM     34  C   UNL     1      -5.025  -1.359  10.613  1.00  0.00     0.060 A 
ATOM     35  C   UNL     1      -4.734  -1.961  11.844  1.00  0.00     0.016 A 
ATOM     36  C   UNL     1      -4.952   0.026  10.461  1.00  0.00     0.016 A 
ATOM     37  C   UNL     1      -4.409  -1.174  12.944  1.00  0.00     0.010 A 
ATOM     38  C   UNL     1      -4.635   0.816  11.570  1.00  0.00     0.010 A 
ATOM     39  C   UNL     1      -4.397   0.222  12.824  1.00  0.00    -0.014 A 
BRANCH  39  40
ATOM     40  C   UNL     1      -4.272   1.052  14.046  1.00  0.00     0.031 A 
ATOM     41  C   UNL     1      -5.505   1.682  14.632  1.00  0.00     0.074 A 
ATOM     42  C   UNL     1      -3.081   1.204  14.649  1.00  0.00     0.049 A 
ATOM     43  N   UNL     1      -5.626   2.451  15.684  1.00  0.00    -0.248 NA
ATOM     44  C   UNL     1      -6.773   1.409  13.938  1.00  0.00     0.031 C 
ATOM     45  C   UNL     1      -1.825   0.610  14.195  1.00  0.00     0.029 A 
ATOM     46  N   UNL     1      -2.735   1.907  15.775  1.00  0.00    -0.354 N 
ATOM     47  C   UNL     1      -6.978   2.759  15.774  1.00  0.00     0.074 A 
ATOM     48  C   UNL     1      -7.631   2.125  14.649  1.00  0.00     0.031 C 
ATOM     49  C   UNL     1      -0.842   0.978  15.034  1.00  0.00     0.029 A 
ATOM     50  C   UNL     1      -1.394   1.860  16.061  1.00  0.00     0.049 A 
ATOM     51  H   UNL     1      -3.387   2.399  16.325  1.00  0.00     0.167 HD
ATOM     52  C   UNL     1      -7.615   3.494  16.716  1.00  0.00     0.037 A 
ATOM     53  C   UNL     1      -0.690   2.476  17.031  1.00  0.00     0.037 A 
ATOM     54  C   UNL     1      -6.959   4.120  17.834  1.00  0.00     0.049 A 
ATOM     55  C   UNL     1      -1.415   3.348  18.024  1.00  0.00     0.074 A 
ATOM     56  C   UNL     1      -7.519   4.865  18.857  1.00  0.00     0.029 A 
ATOM     57  N   UNL     1      -5.592   4.083  18.070  1.00  0.00    -0.354 N 
ATOM     58  N   UNL     1      -2.696   3.607  18.122  1.00  0.00    -0.248 NA
ATOM     59  C   UNL     1      -0.592   4.008  19.047  1.00  0.00     0.031 C 
ATOM     60  C   UNL     1      -6.485   5.332  19.675  1.00  0.00     0.029 A 
ATOM     61  C   UNL     1      -5.287   4.821  19.203  1.00  0.00     0.049 A 
ATOM     62  H   UNL     1      -4.936   3.603  17.515  1.00  0.00     0.167 HD
ATOM     63  C   UNL     1      -2.837   4.434  19.230  1.00  0.00     0.074 A 
ATOM     64  C   UNL     1      -1.511   4.617  19.782  1.00  0.00     0.031 C 
ATOM     65  C   UNL     1      -3.961   4.993  19.743  1.00  0.00     0.037 A 
BRANCH  52  66
ATOM     66  C   UNL     1      -9.098   3.686  16.563  1.00  0.00     0.064 A 
ATOM     67  C   UNL     1     -10.005   2.631  16.743  1.00  0.00     0.173 A 
ATOM     68  C   UNL     1      -9.620   4.954  16.265  1.00  0.00     0.173 A 
ATOM     69  F   UNL     1      -9.558   1.396  17.016  1.00  0.00    -0.203 F 
ATOM     70  C   UNL     1     -11.376   2.832  16.603  1.00  0.00     0.198 A 
ATOM     71  C   UNL     1     -10.993   5.159  16.159  1.00  0.00     0.198 A 
ATOM     72  F   UNL     1      -8.799   6.000  16.086  1.00  0.00    -0.203 F 
ATOM     73  F   UNL     1     -12.220   1.798  16.730  1.00  0.00    -0.200 F 
ATOM     74  C   UNL     1     -11.869   4.097  16.319  1.00  0.00     0.200 A 
ATOM     75  F   UNL     1     -11.468   6.385  15.899  1.00  0.00    -0.200 F 
ATOM     76  F   UNL     1     -13.189   4.290  16.193  1.00  0.00    -0.200 F 
ENDBRANCH  52  66
BRANCH  53  77
ATOM     77  C   UNL     1       0.784   2.302  17.105  1.00  0.00     0.064 A 
ATOM     78  C   UNL     1       1.383   1.633  18.182  1.00  0.00     0.173 A 
ATOM     79  C   UNL     1       1.628   2.820  16.111  1.00  0.00     0.173 A 
ATOM     80  F   UNL     1       0.622   1.141  19.170  1.00  0.00    -0.203 F 
ATOM     81  C   UNL     1       2.768   1.510  18.273  1.00  0.00     0.198 A 
ATOM     82  C   UNL     1       3.010   2.668  16.186  1.00  0.00     0.198 A 
ATOM     83  F   UNL     1       1.107   3.469  15.059  1.00  0.00    -0.203 F 
ATOM     84  F   UNL     1       3.316   0.913  19.340  1.00  0.00    -0.200 F 
ATOM     85  C   UNL     1       3.580   2.022  17.272  1.00  0.00     0.200 A 
ATOM     86  F   UNL     1       3.789   3.151  15.209  1.00  0.00    -0.200 F 
ATOM     87  F   UNL     1       4.912   1.901  17.359  1.00  0.00    -0.200 F 
ENDBRANCH  53  77
BRANCH  65  88
ATOM     88  C   UNL     1      -3.812   5.828  20.984  1.00  0.00     0.064 A 
ATOM     89  C   UNL     1      -3.171   7.076  20.964  1.00  0.00     0.173 A 
ATOM     90  C   UNL     1      -4.345   5.387  22.206  1.00  0.00     0.173 A 
ATOM     91  F   UNL     1      -2.632   7.540  19.826  1.00  0.00    -0.203 F 
ATOM     92  C   UNL     1      -3.040   7.834  22.125  1.00  0.00     0.198 A 
ATOM     93  C   UNL     1      -4.245   6.163  23.357  1.00  0.00     0.198 A 
ATOM     94  F   UNL     1      -4.976   4.205  22.281  1.00  0.00    -0.203 F 
ATOM     95  F   UNL     1      -2.372   8.995  22.093  1.00  0.00    -0.200 F 
ATOM     96  C   UNL     1      -3.583   7.381  23.318  1.00  0.00     0.200 A 
ATOM     97  F   UNL     1      -4.786   5.731  24.504  1.00  0.00    -0.200 F 
ATOM     98  F   UNL     1      -3.462   8.114  24.433  1.00  0.00    -0.200 F 
ENDBRANCH  65  88
ENDBRANCH  39  40
ENDBRANCH  32  34
ENDBRANCH  31  32
ENDBRANCH  30  31
ENDBRANCH  29  30
ENDBRANCH   1  29
TORSDOF 19
