REMARK SMILES C[C@H](O)[C@@H](NC(=O)c1ccc(Cl)c(S(C)(=O)=O)c1)C(=O)OCCOCCOC(=O)c1ccc(-c2c3nc(c(-c4c(F)c(F)c(F)c(F)c4F)c4ccc([nH]4)c(-c4c(F)c(F)c(F)c(F)c4F)c4nc(c(-c5c(F)c(F)c(F)c(F)c5F)c5ccc2[nH]5)C=C4)C=C3)cc1
REMARK SMILES IDX 23 1 22 2 21 3 19 4 20 5 4 6 2 7 1 8 3 9 5 11 6 12 7 14 8 15
REMARK SMILES IDX 9 16 18 17 10 18 13 19 11 20 12 21 14 22 15 23 16 24 17 25
REMARK SMILES IDX 24 26 25 27 26 28 27 29 28 30 29 31 30 32 31 33 92 34 32 35
REMARK SMILES IDX 91 36 33 37 34 38 35 39 85 40 36 41 90 42 84 43 86 44 37 45
REMARK SMILES IDX 89 46 83 47 82 48 38 50 70 51 50 52 69 53 51 54 54 55 68 56
REMARK SMILES IDX 87 57 52 58 53 59 67 61 88 62 55 63 39 64 40 65 48 66 41 67
REMARK SMILES IDX 42 68 46 69 49 70 43 71 44 72 47 73 45 74 71 75 72 76 80 77
REMARK SMILES IDX 73 78 74 79 78 80 81 81 75 82 76 83 79 84 77 85 56 86 57 87
REMARK SMILES IDX 65 88 58 89 59 90 63 91 66 92 60 93 61 94 64 95 62 96
REMARK H PARENT 3 10 5 13 86 49 54 60
REMARK Flexibility Score: inf
ROOT
ATOM      1  C   UNL     1      -1.453   5.889  -1.115  1.00  0.00     0.202 C 
ENDROOT
BRANCH   1   2
ATOM      2  C   UNL     1      -1.421   5.053   0.170  1.00  0.00     0.261 C 
BRANCH   2   3
ATOM      3  O   UNL     1      -0.735   3.794   0.203  1.00  0.00    -0.462 OA
BRANCH   3   4
ATOM      4  C   UNL     1      -1.504   2.738  -0.184  1.00  0.00     0.331 C 
ATOM      5  O   UNL     1      -2.530   2.840  -0.850  1.00  0.00    -0.250 OA
BRANCH   4   6
ATOM      6  C   UNL     1      -1.068   1.409   0.424  1.00  0.00     0.221 C 
BRANCH   6   7
ATOM      7  C   UNL     1       0.466   1.191   0.455  1.00  0.00     0.145 C 
ATOM      8  C   UNL     1       1.196   1.532  -0.838  1.00  0.00     0.041 C 
BRANCH   7   9
ATOM      9  O   UNL     1       0.696  -0.206   0.729  1.00  0.00    -0.391 OA
ATOM     10  H   UNL     1       0.319  -0.742   0.013  1.00  0.00     0.211 HD
ENDBRANCH   7   9
ENDBRANCH   6   7
BRANCH   6  11
ATOM     11  N   UNL     1      -1.616   1.059   1.761  1.00  0.00    -0.336 N 
ATOM     12  C   UNL     1      -2.664   1.480   2.527  1.00  0.00     0.252 C 
ATOM     13  H   UNL     1      -1.095   0.349   2.202  1.00  0.00     0.164 HD
ATOM     14  O   UNL     1      -2.970   0.869   3.548  1.00  0.00    -0.269 OA
BRANCH  12  15
ATOM     15  C   UNL     1      -3.373   2.738   2.260  1.00  0.00     0.041 A 
ATOM     16  C   UNL     1      -4.373   2.822   1.296  1.00  0.00     0.015 A 
ATOM     17  C   UNL     1      -3.076   3.842   3.066  1.00  0.00     0.035 A 
ATOM     18  C   UNL     1      -5.022   4.045   1.084  1.00  0.00     0.023 A 
ATOM     19  C   UNL     1      -3.741   5.065   2.864  1.00  0.00     0.086 A 
ATOM     20  C   UNL     1      -4.714   5.173   1.863  1.00  0.00     0.059 A 
ATOM     21  Cl  UNL     1      -5.583   6.612   1.488  1.00  0.00    -0.083 Cl
BRANCH  19  22
ATOM     22  S   UNL     1      -3.213   6.435   3.866  1.00  0.00     0.177 S 
ATOM     23  C   UNL     1      -4.315   6.365   5.254  1.00  0.00     0.164 C 
ATOM     24  O   UNL     1      -1.876   6.116   4.347  1.00  0.00    -0.224 OA
ATOM     25  O   UNL     1      -3.418   7.672   3.150  1.00  0.00    -0.224 OA
ENDBRANCH  19  22
ENDBRANCH  12  15
ENDBRANCH   6  11
ENDBRANCH   4   6
ENDBRANCH   3   4
ENDBRANCH   2   3
ENDBRANCH   1   2
BRANCH   1  26
ATOM     26  O   UNL     1      -1.487   5.235  -2.368  1.00  0.00    -0.374 OA
BRANCH  26  27
ATOM     27  C   UNL     1      -0.356   4.466  -2.759  1.00  0.00     0.202 C 
BRANCH  27  28
ATOM     28  C   UNL     1       1.032   5.103  -2.623  1.00  0.00     0.261 C 
BRANCH  28  29
ATOM     29  O   UNL     1       1.375   5.403  -1.252  1.00  0.00    -0.460 OA
BRANCH  29  30
ATOM     30  C   UNL     1       1.802   6.674  -1.055  1.00  0.00     0.338 C 
ATOM     31  O   UNL     1       2.014   7.518  -1.911  1.00  0.00    -0.246 OA
BRANCH  30  32
ATOM     32  C   UNL     1       1.842   7.023   0.376  1.00  0.00     0.060 A 
ATOM     33  C   UNL     1       1.011   8.065   0.807  1.00  0.00     0.016 A 
ATOM     34  C   UNL     1       2.844   6.523   1.209  1.00  0.00     0.016 A 
ATOM     35  C   UNL     1       1.254   8.691   2.026  1.00  0.00     0.010 A 
ATOM     36  C   UNL     1       3.089   7.157   2.435  1.00  0.00     0.010 A 
ATOM     37  C   UNL     1       2.346   8.294   2.807  1.00  0.00    -0.014 A 
BRANCH  37  38
ATOM     38  C   UNL     1       2.849   9.235   3.844  1.00  0.00     0.031 A 
ATOM     39  C   UNL     1       4.035  10.111   3.513  1.00  0.00     0.074 A 
ATOM     40  C   UNL     1       2.209   9.395   5.015  1.00  0.00     0.049 A 
ATOM     41  N   UNL     1       4.622  11.034   4.234  1.00  0.00    -0.248 NA
ATOM     42  C   UNL     1       4.640   9.921   2.184  1.00  0.00     0.031 C 
ATOM     43  C   UNL     1       1.020   8.657   5.435  1.00  0.00     0.029 A 
ATOM     44  N   UNL     1       2.469  10.245   6.061  1.00  0.00    -0.354 N 
ATOM     45  C   UNL     1       5.662  11.524   3.452  1.00  0.00     0.074 A 
ATOM     46  C   UNL     1       5.653  10.773   2.217  1.00  0.00     0.031 C 
ATOM     47  C   UNL     1       0.652   9.088   6.654  1.00  0.00     0.029 A 
ATOM     48  C   UNL     1       1.591  10.113   7.108  1.00  0.00     0.049 A 
ATOM     49  H   UNL     1       3.214  10.889   6.060  1.00  0.00     0.167 HD
ATOM     50  C   UNL     1       6.536  12.523   3.727  1.00  0.00     0.037 A 
ATOM     51  C   UNL     1       1.558  10.742   8.299  1.00  0.00     0.037 A 
ATOM     52  C   UNL     1       6.537  13.287   4.947  1.00  0.00     0.049 A 
ATOM     53  C   UNL     1       2.575  11.813   8.603  1.00  0.00     0.074 A 
ATOM     54  C   UNL     1       7.379  14.322   5.317  1.00  0.00     0.029 A 
ATOM     55  N   UNL     1       5.651  13.098   5.996  1.00  0.00    -0.354 N 
ATOM     56  N   UNL     1       3.546  12.277   7.853  1.00  0.00    -0.248 NA
ATOM     57  C   UNL     1       2.478  12.461   9.919  1.00  0.00     0.031 C 
ATOM     58  C   UNL     1       7.035  14.725   6.612  1.00  0.00     0.029 A 
ATOM     59  C   UNL     1       5.937  13.986   7.022  1.00  0.00     0.049 A 
ATOM     60  H   UNL     1       4.926  12.433   6.011  1.00  0.00     0.167 HD
ATOM     61  C   UNL     1       4.145  13.295   8.587  1.00  0.00     0.074 A 
ATOM     62  C   UNL     1       3.420  13.389   9.836  1.00  0.00     0.031 C 
ATOM     63  C   UNL     1       5.198  14.083   8.255  1.00  0.00     0.037 A 
BRANCH  50  64
ATOM     64  C   UNL     1       7.586  12.832   2.697  1.00  0.00     0.064 A 
ATOM     65  C   UNL     1       7.269  13.446   1.476  1.00  0.00     0.173 A 
ATOM     66  C   UNL     1       8.935  12.543   2.954  1.00  0.00     0.173 A 
ATOM     67  F   UNL     1       5.994  13.731   1.174  1.00  0.00    -0.203 F 
ATOM     68  C   UNL     1       8.261  13.736   0.541  1.00  0.00     0.198 A 
ATOM     69  C   UNL     1       9.927  12.863   2.031  1.00  0.00     0.198 A 
ATOM     70  F   UNL     1       9.294  11.960   4.108  1.00  0.00    -0.203 F 
ATOM     71  F   UNL     1       7.930  14.279  -0.639  1.00  0.00    -0.200 F 
ATOM     72  C   UNL     1       9.589  13.452   0.823  1.00  0.00     0.200 A 
ATOM     73  F   UNL     1      11.211  12.601   2.312  1.00  0.00    -0.200 F 
ATOM     74  F   UNL     1      10.543  13.740  -0.073  1.00  0.00    -0.200 F 
ENDBRANCH  50  64
BRANCH  51  75
ATOM     75  C   UNL     1       0.523  10.379   9.303  1.00  0.00     0.064 A 
ATOM     76  C   UNL     1      -0.478  11.286   9.679  1.00  0.00     0.173 A 
ATOM     77  C   UNL     1       0.538   9.126   9.935  1.00  0.00     0.173 A 
ATOM     78  F   UNL     1      -0.519  12.506   9.124  1.00  0.00    -0.203 F 
ATOM     79  C   UNL     1      -1.406  10.964  10.668  1.00  0.00     0.198 A 
ATOM     80  C   UNL     1      -0.410   8.794  10.899  1.00  0.00     0.198 A 
ATOM     81  F   UNL     1       1.477   8.223   9.616  1.00  0.00    -0.203 F 
ATOM     82  F   UNL     1      -2.314  11.872  11.051  1.00  0.00    -0.200 F 
ATOM     83  C   UNL     1      -1.375   9.717  11.273  1.00  0.00     0.200 A 
ATOM     84  F   UNL     1      -0.384   7.584  11.473  1.00  0.00    -0.200 F 
ATOM     85  F   UNL     1      -2.267   9.409  12.225  1.00  0.00    -0.200 F 
ENDBRANCH  51  75
BRANCH  63  86
ATOM     86  C   UNL     1       5.590  15.160   9.228  1.00  0.00     0.064 A 
ATOM     87  C   UNL     1       6.168  14.865  10.472  1.00  0.00     0.173 A 
ATOM     88  C   UNL     1       5.397  16.512   8.901  1.00  0.00     0.173 A 
ATOM     89  F   UNL     1       6.367  13.590  10.839  1.00  0.00    -0.203 F 
ATOM     90  C   UNL     1       6.495  15.880  11.369  1.00  0.00     0.198 A 
ATOM     91  C   UNL     1       5.758  17.524   9.785  1.00  0.00     0.198 A 
ATOM     92  F   UNL     1       4.860  16.852   7.720  1.00  0.00    -0.203 F 
ATOM     93  F   UNL     1       6.983  15.570  12.578  1.00  0.00    -0.200 F 
ATOM     94  C   UNL     1       6.294  17.207  11.023  1.00  0.00     0.200 A 
ATOM     95  F   UNL     1       5.580  18.808   9.441  1.00  0.00    -0.200 F 
ATOM     96  F   UNL     1       6.608  18.182  11.888  1.00  0.00    -0.200 F 
ENDBRANCH  63  86
ENDBRANCH  37  38
ENDBRANCH  30  32
ENDBRANCH  29  30
ENDBRANCH  28  29
ENDBRANCH  27  28
ENDBRANCH  26  27
ENDBRANCH   1  26
TORSDOF 19
