REMARK SMILES COC(=O)c1c(NC(=O)[C@@H]2[C@H]3CC[C@H](CC3)[C@H]2C(=O)OCCOCCOC(=O)c2ccc(-c3c4nc(c(-c5c(F)c(F)c(F)c(F)c5F)c5ccc([nH]5)c(-c5c(F)c(F)c(F)c(F)c5F)c5nc(c(-c6c(F)c(F)c(F)c(F)c6F)c6ccc3[nH]6)C=C5)C=C4)cc2)sc(C)c1-c1ccc(C)cc1
REMARK SMILES IDX 22 1 21 2 20 3 18 4 19 5 17 6 10 7 11 8 12 9 16 10 14 11
REMARK SMILES IDX 13 12 15 13 8 14 7 15 9 17 6 18 5 19 95 20 92 21 93 22 94 23
REMARK SMILES IDX 3 24 4 25 2 26 1 27 96 28 97 29 102 30 98 31 101 32 99 33
REMARK SMILES IDX 100 34 23 35 24 36 25 37 26 38 27 39 28 40 29 41 30 42 91 43
REMARK SMILES IDX 31 44 90 45 32 46 33 47 34 48 84 49 35 50 89 51 83 52 85 53
REMARK SMILES IDX 36 54 88 55 82 56 81 57 37 59 69 60 49 61 68 62 50 63 53 64
REMARK SMILES IDX 67 65 86 66 51 67 52 68 66 70 87 71 54 72 38 73 39 74 47 75
REMARK SMILES IDX 40 76 41 77 45 78 48 79 42 80 43 81 46 82 44 83 70 84 71 85
REMARK SMILES IDX 79 86 72 87 73 88 77 89 80 90 74 91 75 92 78 93 76 94 55 95
REMARK SMILES IDX 56 96 64 97 57 98 58 99 62 100 65 101 59 102 60 103 63 104
REMARK SMILES IDX 61 105
REMARK H PARENT 7 16 85 58 53 69
REMARK Flexibility Score: inf
ROOT
ATOM      1  C   UNL     1       2.986  -2.454  -0.304  1.00  0.00     0.202 C 
ENDROOT
BRANCH   1   2
ATOM      2  C   UNL     1       2.560  -3.808   0.255  1.00  0.00     0.261 C 
BRANCH   2   3
ATOM      3  O   UNL     1       2.572  -4.850  -0.736  1.00  0.00    -0.463 OA
BRANCH   3   4
ATOM      4  C   UNL     1       1.377  -5.422  -1.054  1.00  0.00     0.310 C 
ATOM      5  O   UNL     1       0.288  -4.989  -0.699  1.00  0.00    -0.252 OA
BRANCH   4   6
ATOM      6  C   UNL     1       1.544  -6.785  -1.735  1.00  0.00     0.115 C 
ATOM      7  C   UNL     1       2.702  -6.947  -2.761  1.00  0.00     0.096 C 
ATOM      8  C   UNL     1       3.864  -7.743  -2.106  1.00  0.00     0.002 C 
ATOM      9  C   UNL     1       4.224  -7.225  -0.701  1.00  0.00     0.005 C 
ATOM     10  C   UNL     1       3.418  -9.156  -1.806  1.00  0.00     0.005 C 
ATOM     11  C   UNL     1       1.754  -7.795  -0.574  1.00  0.00     0.004 C 
ATOM     12  C   UNL     1       3.030  -7.480   0.250  1.00  0.00     0.005 C 
ATOM     13  C   UNL     1       1.991  -9.154  -1.228  1.00  0.00     0.005 C 
BRANCH   7  14
ATOM     14  C   UNL     1       2.300  -7.269  -4.270  1.00  0.00     0.229 C 
ATOM     15  N   UNL     1       1.813  -8.355  -4.952  1.00  0.00    -0.317 N 
ATOM     16  H   UNL     1       1.817  -8.194  -5.923  1.00  0.00     0.170 HD
ATOM     17  O   UNL     1       2.388  -6.270  -5.024  1.00  0.00    -0.274 OA
BRANCH  15  18
ATOM     18  C   UNL     1       1.315  -9.617  -4.660  1.00  0.00     0.111 A 
ATOM     19  C   UNL     1       0.404 -10.472  -5.319  1.00  0.00     0.102 A 
ATOM     20  C   UNL     1       0.074 -11.576  -4.401  1.00  0.00     0.012 A 
ATOM     21  S   UNL     1       2.374 -10.866  -4.102  1.00  0.00    -0.122 S 
ATOM     22  C   UNL     1       0.993 -11.573  -3.361  1.00  0.00     0.012 A 
ATOM     23  C   UNL     1       1.058 -12.297  -2.066  1.00  0.00     0.057 C 
BRANCH  19  24
ATOM     24  C   UNL     1       0.009 -10.331  -6.713  1.00  0.00     0.341 C 
ATOM     25  O   UNL     1       0.524  -9.503  -7.466  1.00  0.00    -0.246 OA
BRANCH  24  26
ATOM     26  O   UNL     1      -0.852 -11.303  -7.112  1.00  0.00    -0.465 OA
ATOM     27  C   UNL     1      -0.914 -11.554  -8.516  1.00  0.00     0.282 C 
ENDBRANCH  24  26
ENDBRANCH  19  24
BRANCH  20  28
ATOM     28  C   UNL     1      -0.614 -12.839  -4.624  1.00  0.00    -0.016 A 
ATOM     29  C   UNL     1       0.075 -13.820  -5.354  1.00  0.00     0.009 A 
ATOM     30  C   UNL     1      -1.788 -13.173  -3.949  1.00  0.00     0.009 A 
ATOM     31  C   UNL     1      -0.400 -15.124  -5.408  1.00  0.00     0.004 A 
ATOM     32  C   UNL     1      -2.268 -14.486  -4.011  1.00  0.00     0.004 A 
ATOM     33  C   UNL     1      -1.575 -15.468  -4.737  1.00  0.00    -0.051 A 
ATOM     34  C   UNL     1      -2.062 -16.884  -4.806  1.00  0.00     0.044 C 
ENDBRANCH  20  28
ENDBRANCH  15  18
ENDBRANCH   7  14
ENDBRANCH   4   6
ENDBRANCH   3   4
ENDBRANCH   2   3
ENDBRANCH   1   2
BRANCH   1  35
ATOM     35  O   UNL     1       2.253  -1.945  -1.408  1.00  0.00    -0.374 OA
BRANCH  35  36
ATOM     36  C   UNL     1       2.332  -2.636  -2.654  1.00  0.00     0.202 C 
BRANCH  36  37
ATOM     37  C   UNL     1       3.679  -2.646  -3.390  1.00  0.00     0.261 C 
BRANCH  37  38
ATOM     38  O   UNL     1       4.744  -3.286  -2.659  1.00  0.00    -0.460 OA
BRANCH  38  39
ATOM     39  C   UNL     1       5.742  -2.450  -2.281  1.00  0.00     0.338 C 
ATOM     40  O   UNL     1       5.822  -1.249  -2.483  1.00  0.00    -0.246 OA
BRANCH  39  41
ATOM     41  C   UNL     1       6.717  -3.142  -1.421  1.00  0.00     0.060 A 
ATOM     42  C   UNL     1       6.889  -2.657  -0.118  1.00  0.00     0.016 A 
ATOM     43  C   UNL     1       7.574  -4.115  -1.935  1.00  0.00     0.016 A 
ATOM     44  C   UNL     1       7.958  -3.100   0.656  1.00  0.00     0.010 A 
ATOM     45  C   UNL     1       8.651  -4.557  -1.156  1.00  0.00     0.010 A 
ATOM     46  C   UNL     1       8.874  -4.018   0.126  1.00  0.00    -0.014 A 
BRANCH  46  47
ATOM     47  C   UNL     1      10.133  -4.295   0.863  1.00  0.00     0.031 A 
ATOM     48  C   UNL     1      11.414  -3.649   0.403  1.00  0.00     0.074 A 
ATOM     49  C   UNL     1      10.127  -5.076   1.958  1.00  0.00     0.049 A 
ATOM     50  N   UNL     1      12.627  -3.779   0.879  1.00  0.00    -0.248 NA
ATOM     51  C   UNL     1      11.317  -2.735  -0.747  1.00  0.00     0.031 C 
ATOM     52  C   UNL     1       8.945  -5.722   2.525  1.00  0.00     0.029 A 
ATOM     53  N   UNL     1      11.153  -5.465   2.784  1.00  0.00    -0.354 N 
ATOM     54  C   UNL     1      13.436  -2.982   0.078  1.00  0.00     0.074 A 
ATOM     55  C   UNL     1      12.583  -2.385  -0.925  1.00  0.00     0.031 C 
ATOM     56  C   UNL     1       9.315  -6.442   3.597  1.00  0.00     0.029 A 
ATOM     57  C   UNL     1      10.763  -6.339   3.768  1.00  0.00     0.049 A 
ATOM     58  H   UNL     1      12.079  -5.147   2.680  1.00  0.00     0.167 HD
ATOM     59  C   UNL     1      14.770  -2.767   0.177  1.00  0.00     0.037 A 
ATOM     60  C   UNL     1      11.496  -7.005   4.682  1.00  0.00     0.037 A 
ATOM     61  C   UNL     1      15.612  -3.344   1.193  1.00  0.00     0.049 A 
ATOM     62  C   UNL     1      12.987  -6.784   4.734  1.00  0.00     0.074 A 
ATOM     63  C   UNL     1      16.965  -3.144   1.404  1.00  0.00     0.029 A 
ATOM     64  N   UNL     1      15.184  -4.238   2.162  1.00  0.00    -0.354 N 
ATOM     65  N   UNL     1      13.736  -5.997   4.000  1.00  0.00    -0.248 NA
ATOM     66  C   UNL     1      13.736  -7.541   5.748  1.00  0.00     0.031 C 
ATOM     67  C   UNL     1      17.370  -3.970   2.456  1.00  0.00     0.029 A 
ATOM     68  C   UNL     1      16.256  -4.629   2.949  1.00  0.00     0.049 A 
ATOM     69  H   UNL     1      14.257  -4.549   2.274  1.00  0.00     0.167 HD
ATOM     70  C   UNL     1      15.031  -6.139   4.483  1.00  0.00     0.074 A 
ATOM     71  C   UNL     1      14.964  -7.073   5.586  1.00  0.00     0.031 C 
ATOM     72  C   UNL     1      16.174  -5.550   4.052  1.00  0.00     0.037 A 
BRANCH  59  73
ATOM     73  C   UNL     1      15.426  -1.894  -0.854  1.00  0.00     0.064 A 
ATOM     74  C   UNL     1      15.247  -0.504  -0.873  1.00  0.00     0.173 A 
ATOM     75  C   UNL     1      16.320  -2.454  -1.780  1.00  0.00     0.173 A 
ATOM     76  F   UNL     1      14.397   0.081  -0.016  1.00  0.00    -0.203 F 
ATOM     77  C   UNL     1      15.933   0.293  -1.788  1.00  0.00     0.198 A 
ATOM     78  C   UNL     1      17.025  -1.653  -2.673  1.00  0.00     0.198 A 
ATOM     79  F   UNL     1      16.532  -3.779  -1.799  1.00  0.00    -0.203 F 
ATOM     80  F   UNL     1      15.728   1.617  -1.808  1.00  0.00    -0.200 F 
ATOM     81  C   UNL     1      16.829  -0.281  -2.679  1.00  0.00     0.200 A 
ATOM     82  F   UNL     1      17.904  -2.208  -3.520  1.00  0.00    -0.200 F 
ATOM     83  F   UNL     1      17.506   0.490  -3.542  1.00  0.00    -0.200 F 
ENDBRANCH  59  73
BRANCH  60  84
ATOM     84  C   UNL     1      10.845  -7.979   5.599  1.00  0.00     0.064 A 
ATOM     85  C   UNL     1      10.820  -7.773   6.986  1.00  0.00     0.173 A 
ATOM     86  C   UNL     1      10.280  -9.166   5.108  1.00  0.00     0.173 A 
ATOM     87  F   UNL     1      11.368  -6.666   7.508  1.00  0.00    -0.203 F 
ATOM     88  C   UNL     1      10.290  -8.733   7.847  1.00  0.00     0.198 A 
ATOM     89  C   UNL     1       9.717 -10.107   5.967  1.00  0.00     0.198 A 
ATOM     90  F   UNL     1      10.276  -9.415   3.790  1.00  0.00    -0.203 F 
ATOM     91  F   UNL     1      10.344  -8.542   9.172  1.00  0.00    -0.200 F 
ATOM     92  C   UNL     1       9.735  -9.897   7.337  1.00  0.00     0.200 A 
ATOM     93  F   UNL     1       9.168 -11.223   5.467  1.00  0.00    -0.200 F 
ATOM     94  F   UNL     1       9.231 -10.821   8.165  1.00  0.00    -0.200 F 
ENDBRANCH  60  84
BRANCH  72  95
ATOM     95  C   UNL     1      17.439  -5.859   4.802  1.00  0.00     0.064 A 
ATOM     96  C   UNL     1      18.048  -7.122   4.741  1.00  0.00     0.173 A 
ATOM     97  C   UNL     1      18.072  -4.864   5.563  1.00  0.00     0.173 A 
ATOM     98  F   UNL     1      17.478  -8.113   4.038  1.00  0.00    -0.203 F 
ATOM     99  C   UNL     1      19.224  -7.385   5.439  1.00  0.00     0.198 A 
ATOM    100  C   UNL     1      19.267  -5.120   6.230  1.00  0.00     0.198 A 
ATOM    101  F   UNL     1      17.539  -3.636   5.649  1.00  0.00    -0.203 F 
ATOM    102  F   UNL     1      19.756  -8.615   5.411  1.00  0.00    -0.200 F 
ATOM    103  C   UNL     1      19.836  -6.383   6.176  1.00  0.00     0.200 A 
ATOM    104  F   UNL     1      19.867  -4.144   6.926  1.00  0.00    -0.200 F 
ATOM    105  F   UNL     1      20.972  -6.636   6.840  1.00  0.00    -0.200 F 
ENDBRANCH  72  95
ENDBRANCH  46  47
ENDBRANCH  39  41
ENDBRANCH  38  39
ENDBRANCH  37  38
ENDBRANCH  36  37
ENDBRANCH  35  36
ENDBRANCH   1  35
TORSDOF 19
