REMARK SMILES O=C(OCCOCCOC(=O)c1ccc([C@H]2CCCN(C(=O)c3ccc4[nH]ccc4c3)C2)cc1)c1ccc(-c2c3nc(c(-c4c(F)c(F)c(F)c(F)c4F)c4ccc([nH]4)c(-c4c(F)c(F)c(F)c(F)c4F)c4nc(c(-c5c(F)c(F)c(F)c(F)c5F)c5ccc2[nH]5)C=C4)C=C3)cc1
REMARK SMILES IDX 7 1 6 2 5 3 4 4 3 5 2 6 1 7 35 8 36 9 97 10 37 11 96 12
REMARK SMILES IDX 38 13 39 14 40 15 90 16 41 17 95 18 89 19 91 20 42 21 94 22
REMARK SMILES IDX 88 23 87 24 43 26 75 27 55 28 74 29 56 30 59 31 73 32 92 33
REMARK SMILES IDX 57 34 58 35 72 37 93 38 60 39 44 40 45 41 53 42 46 43 47 44
REMARK SMILES IDX 51 45 54 46 48 47 49 48 52 49 50 50 76 51 77 52 85 53 78 54
REMARK SMILES IDX 79 55 83 56 86 57 80 58 81 59 84 60 82 61 61 62 62 63 70 64
REMARK SMILES IDX 63 65 64 66 68 67 71 68 65 69 66 70 69 71 67 72 8 73 9 74
REMARK SMILES IDX 10 75 11 76 12 77 13 78 34 79 14 80 33 81 15 82 16 83 17 84
REMARK SMILES IDX 32 85 18 86 20 87 19 88 21 89 22 90 23 91 24 92 31 93 25 94
REMARK SMILES IDX 30 95 26 96 29 97 27 98 28 99
REMARK H PARENT 91 25 59 36 27 100
REMARK Flexibility Score: inf
ROOT
ATOM      1  C   UNL     1      12.790   6.398   6.724  1.00  0.00     0.202 C 
ENDROOT
BRANCH   1   2
ATOM      2  O   UNL     1      12.845   5.041   6.272  1.00  0.00    -0.374 OA
BRANCH   2   3
ATOM      3  C   UNL     1      12.670   4.031   7.263  1.00  0.00     0.202 C 
BRANCH   3   4
ATOM      4  C   UNL     1      13.963   3.615   7.968  1.00  0.00     0.261 C 
BRANCH   4   5
ATOM      5  O   UNL     1      14.568   4.748   8.613  1.00  0.00    -0.460 OA
BRANCH   5   6
ATOM      6  C   UNL     1      15.675   5.429   8.240  1.00  0.00     0.338 C 
ATOM      7  O   UNL     1      16.103   6.311   8.983  1.00  0.00    -0.246 OA
BRANCH   6   8
ATOM      8  C   UNL     1      16.404   5.192   6.956  1.00  0.00     0.060 A 
ATOM      9  C   UNL     1      15.821   4.703   5.785  1.00  0.00     0.016 A 
ATOM     10  C   UNL     1      17.743   5.613   6.895  1.00  0.00     0.016 A 
ATOM     11  C   UNL     1      16.529   4.615   4.597  1.00  0.00     0.010 A 
ATOM     12  C   UNL     1      18.457   5.563   5.694  1.00  0.00     0.010 A 
ATOM     13  C   UNL     1      17.840   5.071   4.540  1.00  0.00    -0.014 A 
BRANCH  13  14
ATOM     14  C   UNL     1      18.538   4.994   3.249  1.00  0.00     0.031 A 
ATOM     15  C   UNL     1      19.528   3.898   3.036  1.00  0.00     0.074 A 
ATOM     16  C   UNL     1      18.189   5.846   2.268  1.00  0.00     0.049 A 
ATOM     17  N   UNL     1      20.317   3.687   2.020  1.00  0.00    -0.248 NA
ATOM     18  C   UNL     1      19.635   2.893   4.108  1.00  0.00     0.031 C 
ATOM     19  C   UNL     1      17.135   6.861   2.371  1.00  0.00     0.029 A 
ATOM     20  N   UNL     1      18.663   5.989   0.993  1.00  0.00    -0.354 N 
ATOM     21  C   UNL     1      21.042   2.550   2.344  1.00  0.00     0.074 A 
ATOM     22  C   UNL     1      20.590   2.102   3.641  1.00  0.00     0.031 C 
ATOM     23  C   UNL     1      17.045   7.521   1.205  1.00  0.00     0.029 A 
ATOM     24  C   UNL     1      18.083   7.030   0.308  1.00  0.00     0.049 A 
ATOM     25  H   UNL     1      19.353   5.404   0.604  1.00  0.00     0.167 HD
ATOM     26  C   UNL     1      22.013   1.960   1.614  1.00  0.00     0.037 A 
ATOM     27  C   UNL     1      18.407   7.556  -0.888  1.00  0.00     0.037 A 
ATOM     28  C   UNL     1      22.422   2.434   0.320  1.00  0.00     0.049 A 
ATOM     29  C   UNL     1      19.559   6.932  -1.632  1.00  0.00     0.074 A 
ATOM     30  C   UNL     1      23.402   1.934  -0.515  1.00  0.00     0.029 A 
ATOM     31  N   UNL     1      21.863   3.532  -0.322  1.00  0.00    -0.354 N 
ATOM     32  N   UNL     1      20.272   5.876  -1.315  1.00  0.00    -0.248 NA
ATOM     33  C   UNL     1      19.972   7.582  -2.881  1.00  0.00     0.031 C 
ATOM     34  C   UNL     1      23.477   2.766  -1.636  1.00  0.00     0.029 A 
ATOM     35  C   UNL     1      22.508   3.753  -1.525  1.00  0.00     0.049 A 
ATOM     36  H   UNL     1      21.119   4.073   0.028  1.00  0.00     0.167 HD
ATOM     37  C   UNL     1      21.213   5.732  -2.323  1.00  0.00     0.074 A 
ATOM     38  C   UNL     1      20.957   6.790  -3.280  1.00  0.00     0.031 C 
ATOM     39  C   UNL     1      22.210   4.822  -2.446  1.00  0.00     0.037 A 
BRANCH  26  40
ATOM     40  C   UNL     1      22.744   0.809   2.232  1.00  0.00     0.064 A 
ATOM     41  C   UNL     1      22.167  -0.461   2.368  1.00  0.00     0.173 A 
ATOM     42  C   UNL     1      24.060   0.985   2.688  1.00  0.00     0.173 A 
ATOM     43  F   UNL     1      20.902  -0.674   1.974  1.00  0.00    -0.203 F 
ATOM     44  C   UNL     1      22.876  -1.509   2.951  1.00  0.00     0.198 A 
ATOM     45  C   UNL     1      24.774  -0.070   3.248  1.00  0.00     0.198 A 
ATOM     46  F   UNL     1      24.654   2.185   2.590  1.00  0.00    -0.203 F 
ATOM     47  F   UNL     1      22.292  -2.705   3.110  1.00  0.00    -0.200 F 
ATOM     48  C   UNL     1      24.180  -1.315   3.383  1.00  0.00     0.200 A 
ATOM     49  F   UNL     1      26.034   0.121   3.663  1.00  0.00    -0.200 F 
ATOM     50  F   UNL     1      24.862  -2.326   3.940  1.00  0.00    -0.200 F 
ENDBRANCH  26  40
BRANCH  27  51
ATOM     51  C   UNL     1      17.718   8.773  -1.399  1.00  0.00     0.064 A 
ATOM     52  C   UNL     1      16.998   8.758  -2.601  1.00  0.00     0.173 A 
ATOM     53  C   UNL     1      17.806   9.997  -0.715  1.00  0.00     0.173 A 
ATOM     54  F   UNL     1      16.901   7.623  -3.309  1.00  0.00    -0.203 F 
ATOM     55  C   UNL     1      16.423   9.921  -3.114  1.00  0.00     0.198 A 
ATOM     56  C   UNL     1      17.200  11.150  -1.209  1.00  0.00     0.198 A 
ATOM     57  F   UNL     1      18.488  10.078   0.438  1.00  0.00    -0.203 F 
ATOM     58  F   UNL     1      15.799   9.890  -4.299  1.00  0.00    -0.200 F 
ATOM     59  C   UNL     1      16.520  11.115  -2.415  1.00  0.00     0.200 A 
ATOM     60  F   UNL     1      17.288  12.298  -0.522  1.00  0.00    -0.200 F 
ATOM     61  F   UNL     1      15.975  12.233  -2.913  1.00  0.00    -0.200 F 
ENDBRANCH  27  51
BRANCH  39  62
ATOM     62  C   UNL     1      23.084   4.937  -3.657  1.00  0.00     0.064 A 
ATOM     63  C   UNL     1      24.041   5.955  -3.768  1.00  0.00     0.173 A 
ATOM     64  C   UNL     1      23.008   3.981  -4.680  1.00  0.00     0.173 A 
ATOM     65  F   UNL     1      24.134   6.901  -2.821  1.00  0.00    -0.203 F 
ATOM     66  C   UNL     1      24.885   6.019  -4.871  1.00  0.00     0.198 A 
ATOM     67  C   UNL     1      23.875   4.030  -5.765  1.00  0.00     0.198 A 
ATOM     68  F   UNL     1      22.111   2.985  -4.611  1.00  0.00    -0.203 F 
ATOM     69  F   UNL     1      25.768   7.021  -4.978  1.00  0.00    -0.200 F 
ATOM     70  C   UNL     1      24.809   5.051  -5.862  1.00  0.00     0.200 A 
ATOM     71  F   UNL     1      23.813   3.085  -6.713  1.00  0.00    -0.200 F 
ATOM     72  F   UNL     1      25.637   5.104  -6.914  1.00  0.00    -0.200 F 
ENDBRANCH  39  62
ENDBRANCH  13  14
ENDBRANCH   6   8
ENDBRANCH   5   6
ENDBRANCH   4   5
ENDBRANCH   3   4
ENDBRANCH   2   3
ENDBRANCH   1   2
BRANCH   1  73
ATOM     73  C   UNL     1      12.131   7.254   5.636  1.00  0.00     0.261 C 
BRANCH  73  74
ATOM     74  O   UNL     1      10.768   6.828   5.499  1.00  0.00    -0.460 OA
BRANCH  74  75
ATOM     75  C   UNL     1      10.600   5.691   4.776  1.00  0.00     0.338 C 
ATOM     76  O   UNL     1      11.271   5.317   3.828  1.00  0.00    -0.246 OA
BRANCH  75  77
ATOM     77  C   UNL     1       9.586   4.863   5.472  1.00  0.00     0.060 A 
ATOM     78  C   UNL     1       9.615   3.470   5.335  1.00  0.00     0.016 A 
ATOM     79  C   UNL     1       8.654   5.454   6.322  1.00  0.00     0.016 A 
ATOM     80  C   UNL     1       8.677   2.679   6.008  1.00  0.00     0.005 A 
ATOM     81  C   UNL     1       7.734   4.665   6.999  1.00  0.00     0.005 A 
ATOM     82  C   UNL     1       7.695   3.272   6.816  1.00  0.00    -0.043 A 
BRANCH  82  83
ATOM     83  C   UNL     1       6.545   2.435   7.358  1.00  0.00     0.039 C 
ATOM     84  C   UNL     1       6.914   1.558   8.569  1.00  0.00     0.012 C 
ATOM     85  C   UNL     1       5.321   3.301   7.702  1.00  0.00     0.128 C 
ATOM     86  C   UNL     1       5.691   0.775   9.078  1.00  0.00     0.022 C 
ATOM     87  N   UNL     1       4.207   2.498   8.149  1.00  0.00    -0.338 N 
ATOM     88  C   UNL     1       4.477   1.675   9.327  1.00  0.00     0.120 C 
BRANCH  87  89
ATOM     89  C   UNL     1       3.020   2.585   7.439  1.00  0.00     0.253 C 
ATOM     90  O   UNL     1       2.879   3.209   6.392  1.00  0.00    -0.269 OA
BRANCH  89  91
ATOM     91  C   UNL     1       1.843   1.902   7.978  1.00  0.00     0.040 A 
ATOM     92  C   UNL     1       1.440   0.701   7.397  1.00  0.00     0.016 A 
ATOM     93  C   UNL     1       1.135   2.507   9.024  1.00  0.00     0.024 A 
ATOM     94  C   UNL     1       0.318   0.034   7.885  1.00  0.00     0.027 A 
ATOM     95  C   UNL     1      -0.009   1.854   9.508  1.00  0.00     0.000 A 
ATOM     96  C   UNL     1      -0.382   0.633   8.942  1.00  0.00     0.045 A 
ATOM     97  C   UNL     1      -0.971   2.167  10.506  1.00  0.00     0.028 A 
ATOM     98  N   UNL     1      -1.510   0.211   9.607  1.00  0.00    -0.361 N 
ATOM     99  C   UNL     1      -1.885   1.139  10.542  1.00  0.00     0.083 A 
ATOM    100  H   UNL     1      -1.981  -0.637   9.436  1.00  0.00     0.166 HD
ENDBRANCH  89  91
ENDBRANCH  87  89
ENDBRANCH  82  83
ENDBRANCH  75  77
ENDBRANCH  74  75
ENDBRANCH  73  74
ENDBRANCH   1  73
TORSDOF 17
