REMARK SMILES O=C(OCCOCCOC(=O)c1cc(-c2ccc(C(F)(F)F)cc2)cc([N+](=O)[O-])c1)c1ccc(-c2c3nc(c(-c4c(F)c(F)c(F)c(F)c4F)c4ccc([nH]4)c(-c4c(F)c(F)c(F)c(F)c4F)c4nc(c(-c5c(F)c(F)c(F)c(F)c5F)c5ccc2[nH]5)C=C4)C=C3)cc1
REMARK SMILES IDX 6 1 5 2 4 3 3 4 2 5 1 6 31 7 32 8 93 9 33 10 92 11 34 12
REMARK SMILES IDX 35 13 36 14 86 15 37 16 91 17 85 18 87 19 38 20 90 21 84 22
REMARK SMILES IDX 83 23 39 25 71 26 51 27 70 28 52 29 55 30 69 31 88 32 53 33
REMARK SMILES IDX 54 34 68 36 89 37 56 38 40 39 41 40 49 41 42 42 43 43 47 44
REMARK SMILES IDX 50 45 44 46 45 47 48 48 46 49 72 50 73 51 81 52 74 53 75 54
REMARK SMILES IDX 79 55 82 56 76 57 77 58 80 59 78 60 57 61 58 62 66 63 59 64
REMARK SMILES IDX 60 65 64 66 67 67 61 68 62 69 65 70 63 71 7 72 8 73 9 74
REMARK SMILES IDX 10 75 11 76 12 77 13 78 30 79 14 80 26 81 25 82 15 83 16 84
REMARK SMILES IDX 24 85 17 86 23 87 18 88 19 89 20 90 21 91 22 92 27 93 28 94
REMARK SMILES IDX 29 95
REMARK H PARENT 87 24 55 35
REMARK Flexibility Score: inf
ROOT
ATOM      1  O   UNL     1       4.053   1.584   0.728  1.00  0.00    -0.374 OA
ENDROOT
BRANCH   1   2
ATOM      2  C   UNL     1       4.306   1.479  -0.673  1.00  0.00     0.202 C 
BRANCH   2   3
ATOM      3  C   UNL     1       3.957   0.120  -1.294  1.00  0.00     0.261 C 
BRANCH   3   4
ATOM      4  O   UNL     1       2.583  -0.221  -1.041  1.00  0.00    -0.460 OA
BRANCH   4   5
ATOM      5  C   UNL     1       2.091  -1.089  -0.123  1.00  0.00     0.338 C 
ATOM      6  O   UNL     1       0.881  -1.301  -0.090  1.00  0.00    -0.246 OA
BRANCH   5   7
ATOM      7  C   UNL     1       2.953  -1.808   0.861  1.00  0.00     0.060 A 
ATOM      8  C   UNL     1       4.173  -1.321   1.320  1.00  0.00     0.016 A 
ATOM      9  C   UNL     1       2.473  -3.003   1.421  1.00  0.00     0.016 A 
ATOM     10  C   UNL     1       4.939  -2.007   2.233  1.00  0.00     0.010 A 
ATOM     11  C   UNL     1       3.210  -3.678   2.404  1.00  0.00     0.010 A 
ATOM     12  C   UNL     1       4.452  -3.174   2.803  1.00  0.00    -0.014 A 
BRANCH  12  13
ATOM     13  C   UNL     1       5.366  -3.842   3.740  1.00  0.00     0.031 A 
ATOM     14  C   UNL     1       6.107  -5.046   3.262  1.00  0.00     0.074 A 
ATOM     15  C   UNL     1       5.691  -3.204   4.880  1.00  0.00     0.049 A 
ATOM     16  N   UNL     1       7.008  -5.760   3.879  1.00  0.00    -0.248 NA
ATOM     17  C   UNL     1       5.818  -5.494   1.888  1.00  0.00     0.031 C 
ATOM     18  C   UNL     1       5.118  -1.925   5.322  1.00  0.00     0.029 A 
ATOM     19  N   UNL     1       6.620  -3.496   5.839  1.00  0.00    -0.354 N 
ATOM     20  C   UNL     1       7.378  -6.748   2.980  1.00  0.00     0.074 A 
ATOM     21  C   UNL     1       6.598  -6.557   1.779  1.00  0.00     0.031 C 
ATOM     22  C   UNL     1       5.735  -1.530   6.445  1.00  0.00     0.029 A 
ATOM     23  C   UNL     1       6.676  -2.565   6.848  1.00  0.00     0.049 A 
ATOM     24  H   UNL     1       7.194  -4.296   5.810  1.00  0.00     0.167 HD
ATOM     25  C   UNL     1       8.294  -7.726   3.159  1.00  0.00     0.037 A 
ATOM     26  C   UNL     1       7.383  -2.583   7.992  1.00  0.00     0.037 A 
ATOM     27  C   UNL     1       9.043  -7.881   4.375  1.00  0.00     0.049 A 
ATOM     28  C   UNL     1       8.295  -3.759   8.217  1.00  0.00     0.074 A 
ATOM     29  C   UNL     1       9.921  -8.885   4.733  1.00  0.00     0.029 A 
ATOM     30  N   UNL     1       8.996  -6.987   5.440  1.00  0.00    -0.354 N 
ATOM     31  N   UNL     1       8.571  -4.757   7.410  1.00  0.00    -0.248 NA
ATOM     32  C   UNL     1       8.983  -3.821   9.510  1.00  0.00     0.031 C 
ATOM     33  C   UNL     1      10.368  -8.624   6.033  1.00  0.00     0.029 A 
ATOM     34  C   UNL     1       9.818  -7.424   6.463  1.00  0.00     0.049 A 
ATOM     35  H   UNL     1       8.456  -6.164   5.463  1.00  0.00     0.167 HD
ATOM     36  C   UNL     1       9.474  -5.560   8.089  1.00  0.00     0.074 A 
ATOM     37  C   UNL     1       9.726  -4.908   9.360  1.00  0.00     0.031 C 
ATOM     38  C   UNL     1      10.038  -6.735   7.710  1.00  0.00     0.037 A 
BRANCH  25  39
ATOM     39  C   UNL     1       8.457  -8.719   2.049  1.00  0.00     0.064 A 
ATOM     40  C   UNL     1       9.060  -8.380   0.828  1.00  0.00     0.173 A 
ATOM     41  C   UNL     1       7.965 -10.025   2.196  1.00  0.00     0.173 A 
ATOM     42  F   UNL     1       9.512  -7.134   0.621  1.00  0.00    -0.203 F 
ATOM     43  C   UNL     1       9.140  -9.304  -0.212  1.00  0.00     0.198 A 
ATOM     44  C   UNL     1       8.074 -10.954   1.165  1.00  0.00     0.198 A 
ATOM     45  F   UNL     1       7.366 -10.396   3.337  1.00  0.00    -0.203 F 
ATOM     46  F   UNL     1       9.663  -8.939  -1.391  1.00  0.00    -0.200 F 
ATOM     47  C   UNL     1       8.653 -10.591  -0.041  1.00  0.00     0.200 A 
ATOM     48  F   UNL     1       7.601 -12.197   1.334  1.00  0.00    -0.200 F 
ATOM     49  F   UNL     1       8.726 -11.476  -1.044  1.00  0.00    -0.200 F 
ENDBRANCH  25  39
BRANCH  26  50
ATOM     50  C   UNL     1       7.187  -1.530   9.027  1.00  0.00     0.064 A 
ATOM     51  C   UNL     1       8.241  -0.715   9.461  1.00  0.00     0.173 A 
ATOM     52  C   UNL     1       5.937  -1.352   9.645  1.00  0.00     0.173 A 
ATOM     53  F   UNL     1       9.461  -0.852   8.921  1.00  0.00    -0.203 F 
ATOM     54  C   UNL     1       8.063   0.206  10.494  1.00  0.00     0.198 A 
ATOM     55  C   UNL     1       5.751  -0.404  10.649  1.00  0.00     0.198 A 
ATOM     56  F   UNL     1       4.889  -2.103   9.276  1.00  0.00    -0.203 F 
ATOM     57  F   UNL     1       9.106   0.921  10.938  1.00  0.00    -0.200 F 
ATOM     58  C   UNL     1       6.818   0.363  11.085  1.00  0.00     0.200 A 
ATOM     59  F   UNL     1       4.540  -0.247  11.202  1.00  0.00    -0.200 F 
ATOM     60  F   UNL     1       6.651   1.241  12.083  1.00  0.00    -0.200 F 
ENDBRANCH  26  50
BRANCH  38  61
ATOM     61  C   UNL     1      11.002  -7.354   8.678  1.00  0.00     0.064 A 
ATOM     62  C   UNL     1      10.572  -7.911   9.891  1.00  0.00     0.173 A 
ATOM     63  C   UNL     1      12.370  -7.408   8.373  1.00  0.00     0.173 A 
ATOM     64  F   UNL     1       9.275  -7.869  10.232  1.00  0.00    -0.203 F 
ATOM     65  C   UNL     1      11.484  -8.465  10.783  1.00  0.00     0.198 A 
ATOM     66  C   UNL     1      13.273  -7.998   9.249  1.00  0.00     0.198 A 
ATOM     67  F   UNL     1      12.827  -6.896   7.220  1.00  0.00    -0.203 F 
ATOM     68  F   UNL     1      11.062  -8.930  11.966  1.00  0.00    -0.200 F 
ATOM     69  C   UNL     1      12.832  -8.515  10.458  1.00  0.00     0.200 A 
ATOM     70  F   UNL     1      14.572  -8.063   8.925  1.00  0.00    -0.200 F 
ATOM     71  F   UNL     1      13.708  -9.053  11.316  1.00  0.00    -0.200 F 
ENDBRANCH  38  61
ENDBRANCH  12  13
ENDBRANCH   5   7
ENDBRANCH   4   5
ENDBRANCH   3   4
ENDBRANCH   2   3
ENDBRANCH   1   2
BRANCH   1  72
ATOM     72  C   UNL     1       2.721   1.940   1.111  1.00  0.00     0.202 C 
BRANCH  72  73
ATOM     73  C   UNL     1       2.766   3.190   1.991  1.00  0.00     0.261 C 
BRANCH  73  74
ATOM     74  O   UNL     1       3.290   4.274   1.208  1.00  0.00    -0.460 OA
BRANCH  74  75
ATOM     75  C   UNL     1       4.643   4.344   1.150  1.00  0.00     0.338 C 
ATOM     76  O   UNL     1       5.457   3.832   1.899  1.00  0.00    -0.246 OA
BRANCH  75  77
ATOM     77  C   UNL     1       4.989   4.992  -0.132  1.00  0.00     0.067 A 
ATOM     78  C   UNL     1       6.056   4.483  -0.889  1.00  0.00     0.025 A 
ATOM     79  C   UNL     1       4.240   6.074  -0.594  1.00  0.00     0.101 A 
ATOM     80  C   UNL     1       6.372   5.035  -2.139  1.00  0.00    -0.011 A 
ATOM     81  C   UNL     1       4.566   6.642  -1.825  1.00  0.00     0.270 A 
ATOM     82  C   UNL     1       5.608   6.119  -2.605  1.00  0.00     0.094 A 
BRANCH  80  83
ATOM     83  C   UNL     1       7.548   4.590  -2.894  1.00  0.00    -0.018 A 
ATOM     84  C   UNL     1       7.543   3.453  -3.714  1.00  0.00     0.009 A 
ATOM     85  C   UNL     1       8.722   5.352  -2.817  1.00  0.00     0.009 A 
ATOM     86  C   UNL     1       8.687   3.100  -4.447  1.00  0.00     0.014 A 
ATOM     87  C   UNL     1       9.861   5.003  -3.543  1.00  0.00     0.014 A 
ATOM     88  C   UNL     1       9.856   3.875  -4.372  1.00  0.00     0.056 A 
BRANCH  88  89
ATOM     89  C   UNL     1      11.083   3.506  -5.171  1.00  0.00     0.416 C 
ATOM     90  F   UNL     1      11.573   2.280  -4.838  1.00  0.00    -0.166 F 
ATOM     91  F   UNL     1      10.840   3.462  -6.510  1.00  0.00    -0.166 F 
ATOM     92  F   UNL     1      12.119   4.378  -5.010  1.00  0.00    -0.166 F 
ENDBRANCH  88  89
ENDBRANCH  80  83
BRANCH  81  93
ATOM     93  N   UNL     1       3.842   7.833  -2.278  1.00  0.00     0.062 N 
ATOM     94  O   UNL     1       4.263   8.412  -3.288  1.00  0.00    -0.258 OA
ATOM     95  O   UNL     1       2.863   8.197  -1.612  1.00  0.00    -0.258 OA
ENDBRANCH  81  93
ENDBRANCH  75  77
ENDBRANCH  74  75
ENDBRANCH  73  74
ENDBRANCH  72  73
ENDBRANCH   1  72
TORSDOF 17
