REMARK SMILES CCOc1ccc2c(c1)=N[C@H](SCC(=O)OCCOCCOC(=O)c1ccc(-c3c4nc(c(-c5c(F)c(F)c(F)c(F)c5F)c5ccc([nH]5)c(-c5c(F)c(F)c(F)c(F)c5F)c5nc(c(-c6c(F)c(F)c(F)c(F)c6F)c6ccc3[nH]6)C=C5)C=C4)cc1)N=2
REMARK SMILES IDX 18 1 17 2 16 3 14 4 15 5 13 6 12 7 11 8 4 9 5 10 9 11 6 12
REMARK SMILES IDX 8 13 7 14 10 15 88 16 3 17 2 18 1 19 19 20 20 21 21 22 22 23
REMARK SMILES IDX 23 24 24 25 25 26 26 27 87 28 27 29 86 30 28 31 29 32 30 33
REMARK SMILES IDX 80 34 31 35 85 36 79 37 81 38 32 39 84 40 78 41 77 42 33 44
REMARK SMILES IDX 65 45 45 46 64 47 46 48 49 49 63 50 82 51 47 52 48 53 62 55
REMARK SMILES IDX 83 56 50 57 34 58 35 59 43 60 36 61 37 62 41 63 44 64 38 65
REMARK SMILES IDX 39 66 42 67 40 68 66 69 67 70 75 71 68 72 69 73 73 74 76 75
REMARK SMILES IDX 70 76 71 77 74 78 72 79 51 80 52 81 60 82 53 83 54 84 58 85
REMARK SMILES IDX 61 86 55 87 56 88 59 89 57 90
REMARK H PARENT 81 43 49 54
REMARK Flexibility Score: inf
ROOT
ATOM      1  C   UNL     1       9.892  -2.746   7.957  1.00  0.00     0.202 C 
ENDROOT
BRANCH   1   2
ATOM      2  C   UNL     1       9.869  -1.280   8.400  1.00  0.00     0.261 C 
BRANCH   2   3
ATOM      3  O   UNL     1       8.816  -0.546   7.746  1.00  0.00    -0.463 OA
BRANCH   3   4
ATOM      4  C   UNL     1       9.136   0.723   7.363  1.00  0.00     0.316 C 
ATOM      5  O   UNL     1      10.199   1.276   7.631  1.00  0.00    -0.251 OA
BRANCH   4   6
ATOM      6  C   UNL     1       8.126   1.332   6.415  1.00  0.00     0.196 C 
BRANCH   6   7
ATOM      7  S   UNL     1       6.395   1.131   6.932  1.00  0.00    -0.100 SA
BRANCH   7   8
ATOM      8  C   UNL     1       5.791   0.109   5.540  1.00  0.00     0.282 C 
ATOM      9  C   UNL     1       2.318   0.321   2.661  1.00  0.00     0.121 A 
ATOM     10  C   UNL     1       3.373   0.834   1.804  1.00  0.00     0.049 A 
ATOM     11  C   UNL     1       2.527  -0.032   3.938  1.00  0.00     0.076 A 
ATOM     12  C   UNL     1       4.645   0.975   2.205  1.00  0.00     0.034 A 
ATOM     13  C   UNL     1       3.895   0.073   4.458  1.00  0.00     0.090 A 
ATOM     14  C   UNL     1       4.964   0.594   3.584  1.00  0.00     0.087 A 
ATOM     15  N   UNL     1       4.340  -0.227   5.628  1.00  0.00    -0.246 NA
ATOM     16  N   UNL     1       6.101   0.647   4.184  1.00  0.00    -0.246 NA
BRANCH   9  17
ATOM     17  O   UNL     1       1.042   0.389   2.147  1.00  0.00    -0.494 OA
BRANCH  17  18
ATOM     18  C   UNL     1       0.699  -0.668   1.243  1.00  0.00     0.226 C 
ATOM     19  C   UNL     1       0.697  -0.159  -0.189  1.00  0.00     0.049 C 
ENDBRANCH  17  18
ENDBRANCH   9  17
ENDBRANCH   7   8
ENDBRANCH   6   7
ENDBRANCH   4   6
ENDBRANCH   3   4
ENDBRANCH   2   3
ENDBRANCH   1   2
BRANCH   1  20
ATOM     20  O   UNL     1      10.233  -2.983   6.590  1.00  0.00    -0.374 OA
BRANCH  20  21
ATOM     21  C   UNL     1       9.346  -2.483   5.589  1.00  0.00     0.202 C 
BRANCH  21  22
ATOM     22  C   UNL     1       7.974  -3.166   5.502  1.00  0.00     0.261 C 
BRANCH  22  23
ATOM     23  O   UNL     1       7.203  -3.003   6.708  1.00  0.00    -0.460 OA
BRANCH  23  24
ATOM     24  C   UNL     1       6.678  -4.147   7.205  1.00  0.00     0.338 C 
ATOM     25  O   UNL     1       6.683  -5.253   6.675  1.00  0.00    -0.246 OA
BRANCH  24  26
ATOM     26  C   UNL     1       6.230  -3.958   8.597  1.00  0.00     0.060 A 
ATOM     27  C   UNL     1       5.149  -3.138   8.922  1.00  0.00     0.016 A 
ATOM     28  C   UNL     1       6.853  -4.732   9.586  1.00  0.00     0.016 A 
ATOM     29  C   UNL     1       4.661  -3.135  10.238  1.00  0.00     0.010 A 
ATOM     30  C   UNL     1       6.370  -4.721  10.895  1.00  0.00     0.010 A 
ATOM     31  C   UNL     1       5.251  -3.944  11.228  1.00  0.00    -0.014 A 
BRANCH  31  32
ATOM     32  C   UNL     1       4.635  -4.091  12.574  1.00  0.00     0.031 A 
ATOM     33  C   UNL     1       5.240  -3.457  13.791  1.00  0.00     0.074 A 
ATOM     34  C   UNL     1       3.558  -4.888  12.713  1.00  0.00     0.049 A 
ATOM     35  N   UNL     1       4.817  -3.482  15.032  1.00  0.00    -0.248 NA
ATOM     36  C   UNL     1       6.491  -2.712  13.596  1.00  0.00     0.031 C 
ATOM     37  C   UNL     1       2.917  -5.625  11.625  1.00  0.00     0.029 A 
ATOM     38  N   UNL     1       2.824  -5.225  13.824  1.00  0.00    -0.354 N 
ATOM     39  C   UNL     1       5.738  -2.747  15.764  1.00  0.00     0.074 A 
ATOM     40  C   UNL     1       6.770  -2.329  14.836  1.00  0.00     0.031 C 
ATOM     41  C   UNL     1       1.878  -6.317  12.118  1.00  0.00     0.029 A 
ATOM     42  C   UNL     1       1.789  -6.087  13.559  1.00  0.00     0.049 A 
ATOM     43  H   UNL     1       3.021  -4.880  14.725  1.00  0.00     0.167 HD
ATOM     44  C   UNL     1       5.712  -2.433  17.082  1.00  0.00     0.037 A 
ATOM     45  C   UNL     1       0.868  -6.632  14.378  1.00  0.00     0.037 A 
ATOM     46  C   UNL     1       4.688  -2.854  18.006  1.00  0.00     0.049 A 
ATOM     47  C   UNL     1       0.867  -6.284  15.840  1.00  0.00     0.074 A 
ATOM     48  C   UNL     1       4.535  -2.508  19.338  1.00  0.00     0.029 A 
ATOM     49  N   UNL     1       3.656  -3.730  17.703  1.00  0.00    -0.354 N 
ATOM     50  N   UNL     1       1.675  -5.490  16.499  1.00  0.00    -0.248 NA
ATOM     51  C   UNL     1      -0.178  -6.899  16.671  1.00  0.00     0.031 C 
ATOM     52  C   UNL     1       3.448  -3.219  19.857  1.00  0.00     0.029 A 
ATOM     53  C   UNL     1       2.888  -3.967  18.834  1.00  0.00     0.049 A 
ATOM     54  H   UNL     1       3.492  -4.125  16.817  1.00  0.00     0.167 HD
ATOM     55  C   UNL     1       1.230  -5.498  17.814  1.00  0.00     0.074 A 
ATOM     56  C   UNL     1       0.070  -6.363  17.859  1.00  0.00     0.031 C 
ATOM     57  C   UNL     1       1.742  -4.841  18.884  1.00  0.00     0.037 A 
BRANCH  44  58
ATOM     58  C   UNL     1       6.822  -1.577  17.618  1.00  0.00     0.064 A 
ATOM     59  C   UNL     1       6.916  -0.215  17.292  1.00  0.00     0.173 A 
ATOM     60  C   UNL     1       7.756  -2.100  18.526  1.00  0.00     0.173 A 
ATOM     61  F   UNL     1       6.048   0.334  16.430  1.00  0.00    -0.203 F 
ATOM     62  C   UNL     1       7.917   0.585  17.837  1.00  0.00     0.198 A 
ATOM     63  C   UNL     1       8.739  -1.291  19.090  1.00  0.00     0.198 A 
ATOM     64  F   UNL     1       7.703  -3.392  18.882  1.00  0.00    -0.203 F 
ATOM     65  F   UNL     1       8.007   1.875  17.485  1.00  0.00    -0.200 F 
ATOM     66  C   UNL     1       8.822   0.049  18.741  1.00  0.00     0.200 A 
ATOM     67  F   UNL     1       9.602  -1.806  19.976  1.00  0.00    -0.200 F 
ATOM     68  F   UNL     1       9.776   0.824  19.275  1.00  0.00    -0.200 F 
ENDBRANCH  44  58
BRANCH  45  69
ATOM     69  C   UNL     1      -0.165  -7.531  13.804  1.00  0.00     0.064 A 
ATOM     70  C   UNL     1      -1.485  -7.092  13.643  1.00  0.00     0.173 A 
ATOM     71  C   UNL     1       0.158  -8.819  13.354  1.00  0.00     0.173 A 
ATOM     72  F   UNL     1      -1.843  -5.875  14.078  1.00  0.00    -0.203 F 
ATOM     73  C   UNL     1      -2.446  -7.907  13.049  1.00  0.00     0.198 A 
ATOM     74  C   UNL     1      -0.798  -9.625  12.740  1.00  0.00     0.198 A 
ATOM     75  F   UNL     1       1.410  -9.282  13.485  1.00  0.00    -0.203 F 
ATOM     76  F   UNL     1      -3.706  -7.471  12.923  1.00  0.00    -0.200 F 
ATOM     77  C   UNL     1      -2.099  -9.169  12.589  1.00  0.00     0.200 A 
ATOM     78  F   UNL     1      -0.456 -10.838  12.285  1.00  0.00    -0.200 F 
ATOM     79  F   UNL     1      -3.018  -9.945  11.999  1.00  0.00    -0.200 F 
ENDBRANCH  45  69
BRANCH  57  80
ATOM     80  C   UNL     1       1.062  -5.026  20.210  1.00  0.00     0.064 A 
ATOM     81  C   UNL     1       1.181  -6.223  20.932  1.00  0.00     0.173 A 
ATOM     82  C   UNL     1       0.348  -3.972  20.801  1.00  0.00     0.173 A 
ATOM     83  F   UNL     1       1.839  -7.266  20.406  1.00  0.00    -0.203 F 
ATOM     84  C   UNL     1       0.604  -6.359  22.193  1.00  0.00     0.198 A 
ATOM     85  C   UNL     1      -0.204  -4.103  22.073  1.00  0.00     0.198 A 
ATOM     86  F   UNL     1       0.209  -2.804  20.156  1.00  0.00    -0.203 F 
ATOM     87  F   UNL     1       0.706  -7.522  22.852  1.00  0.00    -0.200 F 
ATOM     88  C   UNL     1      -0.078  -5.297  22.766  1.00  0.00     0.200 A 
ATOM     89  F   UNL     1      -0.851  -3.070  22.631  1.00  0.00    -0.200 F 
ATOM     90  F   UNL     1      -0.616  -5.424  23.987  1.00  0.00    -0.200 F 
ENDBRANCH  57  80
ENDBRANCH  31  32
ENDBRANCH  24  26
ENDBRANCH  23  24
ENDBRANCH  22  23
ENDBRANCH  21  22
ENDBRANCH  20  21
ENDBRANCH   1  20
TORSDOF 18
