REMARK SMILES O=C(OCCOCCOC(=O)[C@@H]1C=C[C@@H]([NH+]2CC3(CCOCC3)C2)C1)c1ccc(-c2c3nc(c(-c4c(F)c(F)c(F)c(F)c4F)c4ccc([nH]4)c(-c4c(F)c(F)c(F)c(F)c4F)c4nc(c(-c5c(F)c(F)c(F)c(F)c5F)c5ccc2[nH]5)C=C4)C=C3)cc1
REMARK SMILES IDX 5 1 4 2 3 3 2 4 1 5 26 6 27 7 88 8 28 9 87 10 29 11 30 12
REMARK SMILES IDX 31 13 81 14 32 15 86 16 80 17 82 18 33 19 85 20 79 21 78 22
REMARK SMILES IDX 34 24 66 25 46 26 65 27 47 28 50 29 64 30 83 31 48 32 49 33
REMARK SMILES IDX 63 35 84 36 51 37 35 38 36 39 44 40 37 41 38 42 42 43 45 44
REMARK SMILES IDX 39 45 40 46 43 47 41 48 67 49 68 50 76 51 69 52 70 53 74 54
REMARK SMILES IDX 77 55 71 56 72 57 75 58 73 59 52 60 53 61 61 62 54 63 55 64
REMARK SMILES IDX 59 65 62 66 56 67 57 68 60 69 58 70 6 71 7 72 8 73 9 74
REMARK SMILES IDX 10 75 11 76 12 77 13 78 25 79 14 80 15 81 16 82 17 83 24 84
REMARK SMILES IDX 18 86 19 87 23 88 20 89 22 90 21 91
REMARK H PARENT 82 23 50 34 16 85
REMARK Flexibility Score: inf
ROOT
ATOM      1  C   UNL     1       5.431  -2.711   2.265  1.00  0.00     0.202 C 
ENDROOT
BRANCH   1   2
ATOM      2  C   UNL     1       4.948  -2.648   3.712  1.00  0.00     0.261 C 
BRANCH   2   3
ATOM      3  O   UNL     1       4.931  -1.298   4.181  1.00  0.00    -0.460 OA
BRANCH   3   4
ATOM      4  C   UNL     1       6.050  -0.564   4.378  1.00  0.00     0.338 C 
ATOM      5  O   UNL     1       6.009   0.657   4.238  1.00  0.00    -0.246 OA
BRANCH   4   6
ATOM      6  C   UNL     1       7.303  -1.181   4.902  1.00  0.00     0.060 A 
ATOM      7  C   UNL     1       7.837  -2.414   4.504  1.00  0.00     0.016 A 
ATOM      8  C   UNL     1       8.029  -0.403   5.813  1.00  0.00     0.016 A 
ATOM      9  C   UNL     1       9.050  -2.864   4.962  1.00  0.00     0.010 A 
ATOM     10  C   UNL     1       9.241  -0.863   6.316  1.00  0.00     0.010 A 
ATOM     11  C   UNL     1       9.736  -2.097   5.885  1.00  0.00    -0.014 A 
BRANCH  11  12
ATOM     12  C   UNL     1      10.864  -2.748   6.535  1.00  0.00     0.031 A 
ATOM     13  C   UNL     1      10.594  -3.407   7.841  1.00  0.00     0.074 A 
ATOM     14  C   UNL     1      12.020  -2.866   5.868  1.00  0.00     0.049 A 
ATOM     15  N   UNL     1      11.428  -3.923   8.693  1.00  0.00    -0.248 NA
ATOM     16  C   UNL     1       9.177  -3.505   8.239  1.00  0.00     0.031 C 
ATOM     17  C   UNL     1      12.250  -2.418   4.492  1.00  0.00     0.029 A 
ATOM     18  N   UNL     1      13.208  -3.411   6.253  1.00  0.00    -0.354 N 
ATOM     19  C   UNL     1      10.646  -4.353   9.754  1.00  0.00     0.074 A 
ATOM     20  C   UNL     1       9.270  -4.064   9.433  1.00  0.00     0.031 C 
ATOM     21  C   UNL     1      13.523  -2.684   4.158  1.00  0.00     0.029 A 
ATOM     22  C   UNL     1      14.200  -3.236   5.324  1.00  0.00     0.049 A 
ATOM     23  H   UNL     1      13.339  -3.880   7.109  1.00  0.00     0.167 HD
ATOM     24  C   UNL     1      11.077  -4.910  10.906  1.00  0.00     0.037 A 
ATOM     25  C   UNL     1      15.521  -3.437   5.459  1.00  0.00     0.037 A 
ATOM     26  C   UNL     1      12.471  -5.152  11.155  1.00  0.00     0.049 A 
ATOM     27  C   UNL     1      15.999  -3.950   6.790  1.00  0.00     0.074 A 
ATOM     28  C   UNL     1      13.083  -5.633  12.293  1.00  0.00     0.029 A 
ATOM     29  N   UNL     1      13.477  -4.915  10.220  1.00  0.00    -0.354 N 
ATOM     30  N   UNL     1      15.293  -4.258   7.856  1.00  0.00    -0.248 NA
ATOM     31  C   UNL     1      17.444  -4.128   6.952  1.00  0.00     0.031 C 
ATOM     32  C   UNL     1      14.464  -5.632  12.065  1.00  0.00     0.029 A 
ATOM     33  C   UNL     1      14.710  -5.221  10.760  1.00  0.00     0.049 A 
ATOM     34  H   UNL     1      13.329  -4.578   9.307  1.00  0.00     0.167 HD
ATOM     35  C   UNL     1      16.199  -4.693   8.808  1.00  0.00     0.074 A 
ATOM     36  C   UNL     1      17.511  -4.607   8.188  1.00  0.00     0.031 C 
ATOM     37  C   UNL     1      15.979  -5.129  10.074  1.00  0.00     0.037 A 
BRANCH  24  38
ATOM     38  C   UNL     1      10.049  -5.144  11.972  1.00  0.00     0.064 A 
ATOM     39  C   UNL     1       9.025  -6.095  11.836  1.00  0.00     0.173 A 
ATOM     40  C   UNL     1      10.031  -4.326  13.113  1.00  0.00     0.173 A 
ATOM     41  F   UNL     1       8.970  -6.877  10.747  1.00  0.00    -0.203 F 
ATOM     42  C   UNL     1       7.999  -6.184  12.776  1.00  0.00     0.198 A 
ATOM     43  C   UNL     1       9.024  -4.442  14.067  1.00  0.00     0.198 A 
ATOM     44  F   UNL     1      10.974  -3.388  13.287  1.00  0.00    -0.203 F 
ATOM     45  F   UNL     1       6.985  -7.038  12.579  1.00  0.00    -0.200 F 
ATOM     46  C   UNL     1       8.000  -5.359  13.890  1.00  0.00     0.200 A 
ATOM     47  F   UNL     1       9.028  -3.643  15.143  1.00  0.00    -0.200 F 
ATOM     48  F   UNL     1       7.003  -5.432  14.782  1.00  0.00    -0.200 F 
ENDBRANCH  24  38
BRANCH  25  49
ATOM     49  C   UNL     1      16.438  -3.083   4.347  1.00  0.00     0.064 A 
ATOM     50  C   UNL     1      17.148  -4.067   3.649  1.00  0.00     0.173 A 
ATOM     51  C   UNL     1      16.582  -1.752   3.920  1.00  0.00     0.173 A 
ATOM     52  F   UNL     1      17.055  -5.351   4.022  1.00  0.00    -0.203 F 
ATOM     53  C   UNL     1      17.969  -3.734   2.571  1.00  0.00     0.198 A 
ATOM     54  C   UNL     1      17.378  -1.424   2.825  1.00  0.00     0.198 A 
ATOM     55  F   UNL     1      15.919  -0.769   4.548  1.00  0.00    -0.203 F 
ATOM     56  F   UNL     1      18.657  -4.692   1.936  1.00  0.00    -0.200 F 
ATOM     57  C   UNL     1      18.076  -2.415   2.155  1.00  0.00     0.200 A 
ATOM     58  F   UNL     1      17.460  -0.150   2.416  1.00  0.00    -0.200 F 
ATOM     59  F   UNL     1      18.851  -2.100   1.108  1.00  0.00    -0.200 F 
ENDBRANCH  25  49
BRANCH  37  60
ATOM     60  C   UNL     1      17.173  -5.606  10.840  1.00  0.00     0.064 A 
ATOM     61  C   UNL     1      18.110  -4.715  11.377  1.00  0.00     0.173 A 
ATOM     62  C   UNL     1      17.317  -6.974  11.116  1.00  0.00     0.173 A 
ATOM     63  F   UNL     1      18.016  -3.401  11.124  1.00  0.00    -0.203 F 
ATOM     64  C   UNL     1      19.159  -5.180  12.163  1.00  0.00     0.198 A 
ATOM     65  C   UNL     1      18.347  -7.431  11.929  1.00  0.00     0.198 A 
ATOM     66  F   UNL     1      16.435  -7.860  10.627  1.00  0.00    -0.203 F 
ATOM     67  F   UNL     1      20.064  -4.318  12.644  1.00  0.00    -0.200 F 
ATOM     68  C   UNL     1      19.268  -6.534  12.448  1.00  0.00     0.200 A 
ATOM     69  F   UNL     1      18.439  -8.735  12.220  1.00  0.00    -0.200 F 
ATOM     70  F   UNL     1      20.265  -6.976  13.227  1.00  0.00    -0.200 F 
ENDBRANCH  37  60
ENDBRANCH  11  12
ENDBRANCH   4   6
ENDBRANCH   3   4
ENDBRANCH   2   3
ENDBRANCH   1   2
BRANCH   1  71
ATOM     71  O   UNL     1       6.751  -2.211   2.038  1.00  0.00    -0.374 OA
BRANCH  71  72
ATOM     72  C   UNL     1       6.876  -0.967   1.351  1.00  0.00     0.202 C 
BRANCH  72  73
ATOM     73  C   UNL     1       7.125  -1.177  -0.139  1.00  0.00     0.261 C 
BRANCH  73  74
ATOM     74  O   UNL     1       5.983  -1.832  -0.697  1.00  0.00    -0.463 OA
BRANCH  74  75
ATOM     75  C   UNL     1       5.976  -3.185  -0.518  1.00  0.00     0.313 C 
ATOM     76  O   UNL     1       6.931  -3.871  -0.189  1.00  0.00    -0.252 OA
BRANCH  75  77
ATOM     77  C   UNL     1       4.582  -3.710  -0.815  1.00  0.00     0.128 C 
ATOM     78  C   UNL     1       3.659  -4.323   0.196  1.00  0.00    -0.010 C 
ATOM     79  C   UNL     1       4.828  -4.879  -1.723  1.00  0.00     0.089 C 
ATOM     80  C   UNL     1       3.525  -5.649   0.045  1.00  0.00     0.033 C 
ATOM     81  C   UNL     1       4.444  -6.172  -1.017  1.00  0.00     0.208 C 
BRANCH  81  82
ATOM     82  N   UNL     1       3.935  -7.223  -1.904  1.00  0.00    -0.328 N 
ATOM     83  C   UNL     1       4.959  -7.636  -2.891  1.00  0.00     0.275 C 
ATOM     84  C   UNL     1       3.046  -6.754  -2.979  1.00  0.00     0.275 C 
ATOM     85  H   UNL     1       3.559  -7.878  -1.218  1.00  0.00     0.348 HD
ATOM     86  C   UNL     1       4.210  -6.876  -4.035  1.00  0.00     0.073 C 
ATOM     87  C   UNL     1       3.733  -7.731  -5.220  1.00  0.00     0.047 C 
ATOM     88  C   UNL     1       4.875  -5.611  -4.633  1.00  0.00     0.047 C 
ATOM     89  C   UNL     1       4.889  -7.977  -6.182  1.00  0.00     0.161 C 
ATOM     90  C   UNL     1       5.962  -5.971  -5.627  1.00  0.00     0.161 C 
ATOM     91  O   UNL     1       5.409  -6.744  -6.680  1.00  0.00    -0.381 OA
ENDBRANCH  81  82
ENDBRANCH  75  77
ENDBRANCH  74  75
ENDBRANCH  73  74
ENDBRANCH  72  73
ENDBRANCH  71  72
ENDBRANCH   1  71
TORSDOF 15
