REMARK SMILES O=C(C[C@H]([NH2+]Cc1ccco1)C(=O)OCCOCCOC(=O)c1ccc(-c2c3nc(c(-c4c(F)c(F)c(F)c(F)c4F)c4ccc([nH]4)c(-c4c(F)c(F)c(F)c(F)c4F)c4nc(c(-c5c(F)c(F)c(F)c(F)c5F)c5ccc2[nH]5)C=C4)C=C3)cc1)Nc1ccc(O)cc1
REMARK SMILES IDX 16 1 15 2 14 3 12 4 13 5 4 6 3 7 2 8 1 9 86 10 87 12 88 13
REMARK SMILES IDX 93 14 89 15 92 16 90 17 91 18 5 20 6 23 7 24 8 25 11 26 9 27
REMARK SMILES IDX 10 28 17 29 18 30 19 31 20 32 21 33 22 34 23 35 24 36 85 37
REMARK SMILES IDX 25 38 84 39 26 40 27 41 28 42 78 43 29 44 83 45 77 46 79 47
REMARK SMILES IDX 30 48 82 49 76 50 75 51 31 53 63 54 43 55 62 56 44 57 47 58
REMARK SMILES IDX 61 59 80 60 45 61 46 62 60 64 81 65 48 66 32 67 33 68 41 69
REMARK SMILES IDX 34 70 35 71 39 72 42 73 36 74 37 75 40 76 38 77 64 78 65 79
REMARK SMILES IDX 73 80 66 81 67 82 71 83 74 84 68 85 69 86 72 87 70 88 49 89
REMARK SMILES IDX 50 90 58 91 51 92 52 93 56 94 59 95 53 96 54 97 57 98 55 99
REMARK H PARENT 86 11 91 19 5 21 5 22 79 52 47 63
REMARK Flexibility Score: inf
ROOT
ATOM      1  C   UNL     1       5.344  -4.560  -3.102  1.00  0.00     0.202 C 
ENDROOT
BRANCH   1   2
ATOM      2  C   UNL     1       5.915  -3.145  -3.214  1.00  0.00     0.261 C 
BRANCH   2   3
ATOM      3  O   UNL     1       5.255  -2.277  -2.269  1.00  0.00    -0.459 OA
BRANCH   3   4
ATOM      4  C   UNL     1       4.967  -1.024  -2.716  1.00  0.00     0.365 C 
ATOM      5  O   UNL     1       5.304  -0.577  -3.806  1.00  0.00    -0.245 OA
BRANCH   4   6
ATOM      6  C   UNL     1       4.185  -0.185  -1.686  1.00  0.00     0.303 C 
BRANCH   6   7
ATOM      7  C   UNL     1       5.100   0.664  -0.791  1.00  0.00     0.177 C 
BRANCH   7   8
ATOM      8  C   UNL     1       6.509   0.134  -0.606  1.00  0.00     0.231 C 
ATOM      9  O   UNL     1       7.473   0.789  -0.984  1.00  0.00    -0.274 OA
ATOM     10  N   UNL     1       6.546  -1.118  -0.021  1.00  0.00    -0.326 N 
ATOM     11  H   UNL     1       5.713  -1.450   0.386  1.00  0.00     0.169 HD
BRANCH  10  12
ATOM     12  C   UNL     1       7.672  -1.960   0.043  1.00  0.00     0.041 A 
ATOM     13  C   UNL     1       7.420  -3.333   0.115  1.00  0.00     0.030 A 
ATOM     14  C   UNL     1       8.989  -1.507  -0.056  1.00  0.00     0.030 A 
ATOM     15  C   UNL     1       8.467  -4.240  -0.024  1.00  0.00     0.048 A 
ATOM     16  C   UNL     1      10.046  -2.419  -0.121  1.00  0.00     0.048 A 
ATOM     17  C   UNL     1       9.772  -3.780  -0.125  1.00  0.00     0.115 A 
BRANCH  17  18
ATOM     18  O   UNL     1      10.765  -4.707  -0.224  1.00  0.00    -0.508 OA
ATOM     19  H   UNL     1      10.555  -5.620  -0.224  1.00  0.00     0.293 HD
ENDBRANCH  17  18
ENDBRANCH  10  12
ENDBRANCH   7   8
ENDBRANCH   6   7
BRANCH   6  20
ATOM     20  N   UNL     1       3.204  -1.001  -0.898  1.00  0.00    -0.328 N 
ATOM     21  H   UNL     1       3.632  -1.289  -0.018  1.00  0.00     0.347 HD
ATOM     22  H   UNL     1       2.942  -1.826  -1.439  1.00  0.00     0.347 HD
BRANCH  20  23
ATOM     23  C   UNL     1       2.000  -0.201  -0.617  1.00  0.00     0.337 C 
BRANCH  23  24
ATOM     24  C   UNL     1       1.164  -0.804   0.456  1.00  0.00     0.157 A 
ATOM     25  C   UNL     1       0.245  -1.833   0.493  1.00  0.00     0.052 A 
ATOM     26  O   UNL     1       1.239  -0.207   1.682  1.00  0.00    -0.463 OA
ATOM     27  C   UNL     1      -0.291  -1.845   1.805  1.00  0.00     0.042 A 
ATOM     28  C   UNL     1       0.343  -0.834   2.487  1.00  0.00     0.195 A 
ENDBRANCH  23  24
ENDBRANCH  20  23
ENDBRANCH   6  20
ENDBRANCH   4   6
ENDBRANCH   3   4
ENDBRANCH   2   3
ENDBRANCH   1   2
BRANCH   1  29
ATOM     29  O   UNL     1       4.048  -4.737  -3.680  1.00  0.00    -0.374 OA
BRANCH  29  30
ATOM     30  C   UNL     1       2.958  -4.076  -3.044  1.00  0.00     0.202 C 
BRANCH  30  31
ATOM     31  C   UNL     1       2.346  -4.797  -1.838  1.00  0.00     0.261 C 
BRANCH  31  32
ATOM     32  O   UNL     1       3.298  -5.135  -0.814  1.00  0.00    -0.460 OA
BRANCH  32  33
ATOM     33  C   UNL     1       3.670  -6.437  -0.811  1.00  0.00     0.338 C 
ATOM     34  O   UNL     1       3.278  -7.322  -1.563  1.00  0.00    -0.246 OA
BRANCH  33  35
ATOM     35  C   UNL     1       4.728  -6.680   0.187  1.00  0.00     0.060 A 
ATOM     36  C   UNL     1       5.845  -7.418  -0.219  1.00  0.00     0.016 A 
ATOM     37  C   UNL     1       4.588  -6.290   1.523  1.00  0.00     0.016 A 
ATOM     38  C   UNL     1       6.801  -7.808   0.717  1.00  0.00     0.010 A 
ATOM     39  C   UNL     1       5.548  -6.689   2.464  1.00  0.00     0.010 A 
ATOM     40  C   UNL     1       6.642  -7.477   2.072  1.00  0.00    -0.014 A 
BRANCH  40  41
ATOM     41  C   UNL     1       7.572  -8.071   3.067  1.00  0.00     0.031 A 
ATOM     42  C   UNL     1       7.202  -9.353   3.749  1.00  0.00     0.074 A 
ATOM     43  C   UNL     1       8.770  -7.511   3.309  1.00  0.00     0.049 A 
ATOM     44  N   UNL     1       7.910 -10.088   4.568  1.00  0.00    -0.248 NA
ATOM     45  C   UNL     1       5.848  -9.864   3.493  1.00  0.00     0.031 C 
ATOM     46  C   UNL     1       9.216  -6.250   2.743  1.00  0.00     0.029 A 
ATOM     47  N   UNL     1       9.834  -7.931   4.067  1.00  0.00    -0.354 N 
ATOM     48  C   UNL     1       7.087 -11.142   4.934  1.00  0.00     0.074 A 
ATOM     49  C   UNL     1       5.818 -10.940   4.265  1.00  0.00     0.031 C 
ATOM     50  C   UNL     1      10.488  -6.022   3.104  1.00  0.00     0.029 A 
ATOM     51  C   UNL     1      10.927  -7.101   3.982  1.00  0.00     0.049 A 
ATOM     52  H   UNL     1       9.817  -8.746   4.618  1.00  0.00     0.167 HD
ATOM     53  C   UNL     1       7.368 -12.181   5.755  1.00  0.00     0.037 A 
ATOM     54  C   UNL     1      12.143  -7.195   4.554  1.00  0.00     0.037 A 
ATOM     55  C   UNL     1       8.629 -12.370   6.425  1.00  0.00     0.049 A 
ATOM     56  C   UNL     1      12.431  -8.367   5.453  1.00  0.00     0.074 A 
ATOM     57  C   UNL     1       9.015 -13.400   7.265  1.00  0.00     0.029 A 
ATOM     58  N   UNL     1       9.709 -11.502   6.338  1.00  0.00    -0.354 N 
ATOM     59  N   UNL     1      11.659  -9.380   5.761  1.00  0.00    -0.248 NA
ATOM     60  C   UNL     1      13.753  -8.401   6.092  1.00  0.00     0.031 C 
ATOM     61  C   UNL     1      10.310 -13.131   7.723  1.00  0.00     0.029 A 
ATOM     62  C   UNL     1      10.753 -11.961   7.127  1.00  0.00     0.049 A 
ATOM     63  H   UNL     1       9.731 -10.681   5.795  1.00  0.00     0.167 HD
ATOM     64  C   UNL     1      12.399 -10.173   6.627  1.00  0.00     0.074 A 
ATOM     65  C   UNL     1      13.696  -9.542   6.764  1.00  0.00     0.031 C 
ATOM     66  C   UNL     1      12.033 -11.313   7.263  1.00  0.00     0.037 A 
BRANCH  53  67
ATOM     67  C   UNL     1       6.272 -13.175   5.999  1.00  0.00     0.064 A 
ATOM     68  C   UNL     1       5.854 -14.072   5.005  1.00  0.00     0.173 A 
ATOM     69  C   UNL     1       5.638 -13.237   7.249  1.00  0.00     0.173 A 
ATOM     70  F   UNL     1       6.416 -14.040   3.787  1.00  0.00    -0.203 F 
ATOM     71  C   UNL     1       4.823 -14.977   5.245  1.00  0.00     0.198 A 
ATOM     72  C   UNL     1       4.627 -14.162   7.495  1.00  0.00     0.198 A 
ATOM     73  F   UNL     1       6.000 -12.400   8.233  1.00  0.00    -0.203 F 
ATOM     74  F   UNL     1       4.405 -15.790   4.265  1.00  0.00    -0.200 F 
ATOM     75  C   UNL     1       4.215 -15.025   6.491  1.00  0.00     0.200 A 
ATOM     76  F   UNL     1       4.046 -14.213   8.701  1.00  0.00    -0.200 F 
ATOM     77  F   UNL     1       3.224 -15.897   6.721  1.00  0.00    -0.200 F 
ENDBRANCH  53  67
BRANCH  54  78
ATOM     78  C   UNL     1      13.174  -6.155   4.300  1.00  0.00     0.064 A 
ATOM     79  C   UNL     1      14.345  -6.455   3.589  1.00  0.00     0.173 A 
ATOM     80  C   UNL     1      13.018  -4.842   4.769  1.00  0.00     0.173 A 
ATOM     81  F   UNL     1      14.556  -7.702   3.142  1.00  0.00    -0.203 F 
ATOM     82  C   UNL     1      15.326  -5.488   3.373  1.00  0.00     0.198 A 
ATOM     83  C   UNL     1      13.983  -3.868   4.523  1.00  0.00     0.198 A 
ATOM     84  F   UNL     1      11.919  -4.501   5.457  1.00  0.00    -0.203 F 
ATOM     85  F   UNL     1      16.456  -5.815   2.731  1.00  0.00    -0.200 F 
ATOM     86  C   UNL     1      15.140  -4.194   3.833  1.00  0.00     0.200 A 
ATOM     87  F   UNL     1      13.793  -2.614   4.957  1.00  0.00    -0.200 F 
ATOM     88  F   UNL     1      16.079  -3.262   3.617  1.00  0.00    -0.200 F 
ENDBRANCH  54  78
BRANCH  66  89
ATOM     89  C   UNL     1      13.056 -11.948   8.159  1.00  0.00     0.064 A 
ATOM     90  C   UNL     1      13.423 -11.366   9.381  1.00  0.00     0.173 A 
ATOM     91  C   UNL     1      13.668 -13.157   7.796  1.00  0.00     0.173 A 
ATOM     92  F   UNL     1      12.879 -10.201   9.765  1.00  0.00    -0.203 F 
ATOM     93  C   UNL     1      14.391 -11.953  10.191  1.00  0.00     0.198 A 
ATOM     94  C   UNL     1      14.614 -13.757   8.623  1.00  0.00     0.198 A 
ATOM     95  F   UNL     1      13.348 -13.758   6.640  1.00  0.00    -0.203 F 
ATOM     96  F   UNL     1      14.768 -11.349  11.327  1.00  0.00    -0.200 F 
ATOM     97  C   UNL     1      14.982 -13.150   9.815  1.00  0.00     0.200 A 
ATOM     98  F   UNL     1      15.175 -14.919   8.264  1.00  0.00    -0.200 F 
ATOM     99  F   UNL     1      15.914 -13.713  10.595  1.00  0.00    -0.200 F 
ENDBRANCH  66  89
ENDBRANCH  40  41
ENDBRANCH  33  35
ENDBRANCH  32  33
ENDBRANCH  31  32
ENDBRANCH  30  31
ENDBRANCH  29  30
ENDBRANCH   1  29
TORSDOF 21
