REMARK SMILES CC[C@@H](C(=O)OCCOCCOC(=O)c1ccc(-c2c3nc(c(-c4c(F)c(F)c(F)c(F)c4F)c4ccc([nH]4)c(-c4c(F)c(F)c(F)c(F)c4F)c4nc(c(-c5c(F)c(F)c(F)c(F)c5F)c5ccc2[nH]5)C=C4)C=C3)cc1)N(C)C(=O)N(C)C[C@@H]1CCC[N@H+]1C
REMARK SMILES IDX 7 1 6 2 4 3 5 4 3 5 2 6 1 7 78 8 79 9 80 10 81 11 82 12
REMARK SMILES IDX 83 13 84 14 85 15 86 16 89 17 87 18 88 19 90 20 8 22 9 23
REMARK SMILES IDX 10 24 11 25 12 26 13 27 14 28 15 29 16 30 77 31 17 32 76 33
REMARK SMILES IDX 18 34 19 35 20 36 70 37 21 38 75 39 69 40 71 41 22 42 74 43
REMARK SMILES IDX 68 44 67 45 23 47 55 48 35 49 54 50 36 51 39 52 53 53 72 54
REMARK SMILES IDX 37 55 38 56 52 58 73 59 40 60 24 61 25 62 33 63 26 64 27 65
REMARK SMILES IDX 31 66 34 67 28 68 29 69 32 70 30 71 56 72 57 73 65 74 58 75
REMARK SMILES IDX 59 76 63 77 66 78 60 79 61 80 64 81 62 82 41 83 42 84 50 85
REMARK SMILES IDX 43 86 44 87 48 88 51 89 45 90 46 91 49 92 47 93
REMARK H PARENT 89 21 71 46 39 57
REMARK Flexibility Score: inf
ROOT
ATOM      1  C   UNL     1      -0.366 -10.969   2.956  1.00  0.00     0.261 C 
ENDROOT
BRANCH   1   2
ATOM      2  O   UNL     1      -1.693 -11.338   2.531  1.00  0.00    -0.462 OA
BRANCH   2   3
ATOM      3  C   UNL     1      -2.715 -10.621   3.064  1.00  0.00     0.328 C 
ATOM      4  O   UNL     1      -2.591  -9.874   4.031  1.00  0.00    -0.250 OA
BRANCH   3   5
ATOM      5  C   UNL     1      -4.074 -10.915   2.391  1.00  0.00     0.196 C 
BRANCH   5   6
ATOM      6  C   UNL     1      -4.097 -11.633   1.017  1.00  0.00     0.034 C 
ATOM      7  C   UNL     1      -3.567 -13.064   1.019  1.00  0.00     0.007 C 
ENDBRANCH   5   6
BRANCH   5   8
ATOM      8  N   UNL     1      -4.885  -9.645   2.425  1.00  0.00    -0.314 N 
ATOM      9  C   UNL     1      -5.741  -9.518   3.590  1.00  0.00     0.149 C 
BRANCH   8  10
ATOM     10  C   UNL     1      -4.586  -8.649   1.512  1.00  0.00     0.320 C 
ATOM     11  O   UNL     1      -3.812  -8.905   0.582  1.00  0.00    -0.248 OA
BRANCH  10  12
ATOM     12  N   UNL     1      -5.106  -7.371   1.574  1.00  0.00    -0.322 N 
ATOM     13  C   UNL     1      -5.870  -6.691   2.612  1.00  0.00     0.149 C 
BRANCH  12  14
ATOM     14  C   UNL     1      -4.801  -6.496   0.426  1.00  0.00     0.185 C 
BRANCH  14  15
ATOM     15  C   UNL     1      -3.575  -5.544   0.569  1.00  0.00     0.203 C 
ATOM     16  C   UNL     1      -2.553  -5.894   1.658  1.00  0.00     0.073 C 
ATOM     17  N   UNL     1      -3.905  -4.129   0.874  1.00  0.00    -0.333 N 
ATOM     18  C   UNL     1      -1.972  -4.563   2.124  1.00  0.00     0.068 C 
ATOM     19  C   UNL     1      -2.619  -3.519   1.238  1.00  0.00     0.262 C 
ATOM     20  C   UNL     1      -4.497  -3.422  -0.259  1.00  0.00     0.333 C 
ATOM     21  H   UNL     1      -4.604  -4.074   1.615  1.00  0.00     0.348 HD
ENDBRANCH  14  15
ENDBRANCH  12  14
ENDBRANCH  10  12
ENDBRANCH   8  10
ENDBRANCH   5   8
ENDBRANCH   3   5
ENDBRANCH   2   3
ENDBRANCH   1   2
BRANCH   1  22
ATOM     22  C   UNL     1       0.521 -10.735   1.729  1.00  0.00     0.202 C 
BRANCH  22  23
ATOM     23  O   UNL     1       0.315  -9.500   1.035  1.00  0.00    -0.374 OA
BRANCH  23  24
ATOM     24  C   UNL     1      -0.912  -9.374   0.318  1.00  0.00     0.202 C 
BRANCH  24  25
ATOM     25  C   UNL     1      -0.919  -9.880  -1.124  1.00  0.00     0.261 C 
BRANCH  25  26
ATOM     26  O   UNL     1      -0.508 -11.251  -1.205  1.00  0.00    -0.460 OA
BRANCH  26  27
ATOM     27  C   UNL     1       0.786 -11.405  -1.556  1.00  0.00     0.338 C 
ATOM     28  O   UNL     1       1.566 -10.539  -1.934  1.00  0.00    -0.246 OA
BRANCH  27  29
ATOM     29  C   UNL     1       1.224 -12.782  -1.285  1.00  0.00     0.060 A 
ATOM     30  C   UNL     1       2.472 -12.935  -0.670  1.00  0.00     0.016 A 
ATOM     31  C   UNL     1       0.485 -13.896  -1.693  1.00  0.00     0.016 A 
ATOM     32  C   UNL     1       3.035 -14.199  -0.553  1.00  0.00     0.010 A 
ATOM     33  C   UNL     1       1.053 -15.168  -1.576  1.00  0.00     0.010 A 
ATOM     34  C   UNL     1       2.355 -15.312  -1.064  1.00  0.00    -0.014 A 
BRANCH  34  35
ATOM     35  C   UNL     1       3.118 -16.566  -1.260  1.00  0.00     0.031 A 
ATOM     36  C   UNL     1       3.692 -16.847  -2.623  1.00  0.00     0.074 A 
ATOM     37  C   UNL     1       3.379 -17.382  -0.227  1.00  0.00     0.049 A 
ATOM     38  N   UNL     1       4.448 -17.839  -3.019  1.00  0.00    -0.248 NA
ATOM     39  C   UNL     1       3.372 -15.876  -3.682  1.00  0.00     0.031 C 
ATOM     40  C   UNL     1       2.913 -17.185   1.144  1.00  0.00     0.029 A 
ATOM     41  N   UNL     1       4.118 -18.536  -0.172  1.00  0.00    -0.354 N 
ATOM     42  C   UNL     1       4.694 -17.609  -4.367  1.00  0.00     0.074 A 
ATOM     43  C   UNL     1       3.975 -16.409  -4.733  1.00  0.00     0.031 C 
ATOM     44  C   UNL     1       3.381 -18.186   1.910  1.00  0.00     0.029 A 
ATOM     45  C   UNL     1       4.162 -19.100   1.078  1.00  0.00     0.049 A 
ATOM     46  H   UNL     1       4.573 -18.923  -0.955  1.00  0.00     0.167 HD
ATOM     47  C   UNL     1       5.465 -18.324  -5.219  1.00  0.00     0.037 A 
ATOM     48  C   UNL     1       4.764 -20.230   1.495  1.00  0.00     0.037 A 
ATOM     49  C   UNL     1       6.184 -19.514  -4.851  1.00  0.00     0.049 A 
ATOM     50  C   UNL     1       5.572 -21.038   0.513  1.00  0.00     0.074 A 
ATOM     51  C   UNL     1       6.996 -20.312  -5.636  1.00  0.00     0.029 A 
ATOM     52  N   UNL     1       6.172 -20.078  -3.583  1.00  0.00    -0.354 N 
ATOM     53  N   UNL     1       5.817 -20.803  -0.754  1.00  0.00    -0.248 NA
ATOM     54  C   UNL     1       6.198 -22.265   1.026  1.00  0.00     0.031 C 
ATOM     55  C   UNL     1       7.441 -21.384  -4.854  1.00  0.00     0.029 A 
ATOM     56  C   UNL     1       6.948 -21.225  -3.569  1.00  0.00     0.049 A 
ATOM     57  H   UNL     1       5.685 -19.715  -2.808  1.00  0.00     0.167 HD
ATOM     58  C   UNL     1       6.645 -21.832  -1.181  1.00  0.00     0.074 A 
ATOM     59  C   UNL     1       6.875 -22.684  -0.033  1.00  0.00     0.031 C 
ATOM     60  C   UNL     1       7.168 -22.055  -2.413  1.00  0.00     0.037 A 
BRANCH  47  61
ATOM     61  C   UNL     1       5.548 -17.847  -6.639  1.00  0.00     0.064 A 
ATOM     62  C   UNL     1       6.253 -16.684  -6.987  1.00  0.00     0.173 A 
ATOM     63  C   UNL     1       4.929 -18.572  -7.669  1.00  0.00     0.173 A 
ATOM     64  F   UNL     1       6.847 -15.946  -6.037  1.00  0.00    -0.203 F 
ATOM     65  C   UNL     1       6.313 -16.252  -8.309  1.00  0.00     0.198 A 
ATOM     66  C   UNL     1       5.015 -18.152  -8.993  1.00  0.00     0.198 A 
ATOM     67  F   UNL     1       4.243 -19.690  -7.390  1.00  0.00    -0.203 F 
ATOM     68  F   UNL     1       6.951 -15.113  -8.612  1.00  0.00    -0.200 F 
ATOM     69  C   UNL     1       5.700 -16.989  -9.312  1.00  0.00     0.200 A 
ATOM     70  F   UNL     1       4.430 -18.870  -9.962  1.00  0.00    -0.200 F 
ATOM     71  F   UNL     1       5.763 -16.574 -10.584  1.00  0.00    -0.200 F 
ENDBRANCH  47  61
BRANCH  48  72
ATOM     72  C   UNL     1       4.631 -20.663   2.910  1.00  0.00     0.064 A 
ATOM     73  C   UNL     1       5.731 -20.655   3.778  1.00  0.00     0.173 A 
ATOM     74  C   UNL     1       3.404 -21.118   3.415  1.00  0.00     0.173 A 
ATOM     75  F   UNL     1       6.931 -20.252   3.335  1.00  0.00    -0.203 F 
ATOM     76  C   UNL     1       5.614 -21.105   5.092  1.00  0.00     0.198 A 
ATOM     77  C   UNL     1       3.281 -21.541   4.736  1.00  0.00     0.198 A 
ATOM     78  F   UNL     1       2.321 -21.146   2.624  1.00  0.00    -0.203 F 
ATOM     79  F   UNL     1       6.692 -21.134   5.887  1.00  0.00    -0.200 F 
ATOM     80  C   UNL     1       4.388 -21.543   5.571  1.00  0.00     0.200 A 
ATOM     81  F   UNL     1       2.093 -21.953   5.198  1.00  0.00    -0.200 F 
ATOM     82  F   UNL     1       4.276 -21.977   6.834  1.00  0.00    -0.200 F 
ENDBRANCH  48  72
BRANCH  60  83
ATOM     83  C   UNL     1       8.068 -23.247  -2.568  1.00  0.00     0.064 A 
ATOM     84  C   UNL     1       7.568 -24.557  -2.541  1.00  0.00     0.173 A 
ATOM     85  C   UNL     1       9.446 -23.074  -2.770  1.00  0.00     0.173 A 
ATOM     86  F   UNL     1       6.260 -24.776  -2.338  1.00  0.00    -0.203 F 
ATOM     87  C   UNL     1       8.419 -25.651  -2.675  1.00  0.00     0.198 A 
ATOM     88  C   UNL     1      10.290 -24.169  -2.935  1.00  0.00     0.198 A 
ATOM     89  F   UNL     1       9.974 -21.841  -2.814  1.00  0.00    -0.203 F 
ATOM     90  F   UNL     1       7.927 -26.894  -2.588  1.00  0.00    -0.200 F 
ATOM     91  C   UNL     1       9.777 -25.456  -2.877  1.00  0.00     0.200 A 
ATOM     92  F   UNL     1      11.600 -23.978  -3.144  1.00  0.00    -0.200 F 
ATOM     93  F   UNL     1      10.595 -26.510  -3.005  1.00  0.00    -0.200 F 
ENDBRANCH  60  83
ENDBRANCH  34  35
ENDBRANCH  27  29
ENDBRANCH  26  27
ENDBRANCH  25  26
ENDBRANCH  24  25
ENDBRANCH  23  24
ENDBRANCH  22  23
ENDBRANCH   1  22
TORSDOF 20
