REMARK SMILES Cc1nc(CSCC(=O)N2CCCC[C@@H]2C(=O)OCCOCCOC(=O)c2ccc(-c3c4nc(c(-c5c(F)c(F)c(F)c(F)c5F)c5ccc([nH]5)c(-c5c(F)c(F)c(F)c(F)c5F)c5nc(c(-c6c(F)c(F)c(F)c(F)c6F)c6ccc3[nH]6)C=C5)C=C4)cc2)cs1
REMARK SMILES IDX 19 1 18 2 16 3 17 4 15 5 10 6 11 7 12 8 14 9 13 10 8 11 9 12
REMARK SMILES IDX 7 13 6 14 5 15 4 16 1 17 2 18 3 19 91 20 90 21 20 22 21 23
REMARK SMILES IDX 22 24 23 25 24 26 25 27 26 28 27 29 28 30 89 31 29 32 88 33
REMARK SMILES IDX 30 34 31 35 32 36 82 37 33 38 87 39 81 40 83 41 34 42 86 43
REMARK SMILES IDX 80 44 79 45 35 47 67 48 47 49 66 50 48 51 51 52 65 53 84 54
REMARK SMILES IDX 49 55 50 56 64 58 85 59 52 60 36 61 37 62 45 63 38 64 39 65
REMARK SMILES IDX 43 66 46 67 40 68 41 69 44 70 42 71 68 72 69 73 77 74 70 75
REMARK SMILES IDX 71 76 75 77 78 78 72 79 73 80 76 81 74 82 53 83 54 84 62 85
REMARK SMILES IDX 55 86 56 87 60 88 63 89 57 90 58 91 61 92 59 93
REMARK H PARENT 83 46 51 57
REMARK Flexibility Score: inf
ROOT
ATOM      1  C   UNL     1       2.392  -3.045   0.766  1.00  0.00     0.261 C 
ENDROOT
BRANCH   1   2
ATOM      2  O   UNL     1       2.592  -4.151  -0.110  1.00  0.00    -0.462 OA
BRANCH   2   3
ATOM      3  C   UNL     1       3.118  -3.902  -1.337  1.00  0.00     0.328 C 
ATOM      4  O   UNL     1       3.568  -2.823  -1.702  1.00  0.00    -0.250 OA
BRANCH   3   5
ATOM      5  C   UNL     1       2.995  -5.135  -2.254  1.00  0.00     0.195 C 
ATOM      6  N   UNL     1       2.168  -4.882  -3.450  1.00  0.00    -0.328 N 
ATOM      7  C   UNL     1       1.921  -6.018  -4.330  1.00  0.00     0.120 C 
ATOM      8  C   UNL     1       1.522  -7.285  -3.567  1.00  0.00     0.022 C 
ATOM      9  C   UNL     1       2.610  -6.419  -1.508  1.00  0.00     0.037 C 
ATOM     10  C   UNL     1       2.529  -7.599  -2.467  1.00  0.00     0.005 C 
BRANCH   6  11
ATOM     11  C   UNL     1       1.173  -3.903  -3.395  1.00  0.00     0.233 C 
ATOM     12  O   UNL     1       0.191  -4.023  -2.672  1.00  0.00    -0.274 OA
BRANCH  11  13
ATOM     13  C   UNL     1       1.492  -2.712  -4.306  1.00  0.00     0.170 C 
BRANCH  13  14
ATOM     14  S   UNL     1       0.700  -1.139  -3.825  1.00  0.00    -0.146 SA
BRANCH  14  15
ATOM     15  C   UNL     1       1.323  -1.000  -2.128  1.00  0.00     0.127 C 
BRANCH  15  16
ATOM     16  C   UNL     1       0.521  -0.094  -1.253  1.00  0.00     0.061 A 
ATOM     17  C   UNL     1      -2.775   0.422   0.213  1.00  0.00     0.079 C 
ATOM     18  C   UNL     1      -1.344   0.455  -0.185  1.00  0.00     0.090 A 
ATOM     19  N   UNL     1      -0.805  -0.415  -1.006  1.00  0.00    -0.246 NA
ATOM     20  S   UNL     1      -0.280   1.661   0.410  1.00  0.00    -0.127 S 
ATOM     21  C   UNL     1       0.988   0.990  -0.530  1.00  0.00     0.091 A 
ENDBRANCH  15  16
ENDBRANCH  14  15
ENDBRANCH  13  14
ENDBRANCH  11  13
ENDBRANCH   6  11
ENDBRANCH   3   5
ENDBRANCH   2   3
ENDBRANCH   1   2
BRANCH   1  22
ATOM     22  C   UNL     1       3.623  -2.464   1.474  1.00  0.00     0.202 C 
BRANCH  22  23
ATOM     23  O   UNL     1       4.922  -2.953   1.193  1.00  0.00    -0.374 OA
BRANCH  23  24
ATOM     24  C   UNL     1       5.191  -4.347   1.190  1.00  0.00     0.202 C 
BRANCH  24  25
ATOM     25  C   UNL     1       4.807  -5.188   2.409  1.00  0.00     0.261 C 
BRANCH  25  26
ATOM     26  O   UNL     1       3.399  -5.173   2.697  1.00  0.00    -0.460 OA
BRANCH  26  27
ATOM     27  C   UNL     1       3.081  -4.676   3.917  1.00  0.00     0.338 C 
ATOM     28  O   UNL     1       3.845  -4.258   4.768  1.00  0.00    -0.246 OA
BRANCH  27  29
ATOM     29  C   UNL     1       1.619  -4.563   4.066  1.00  0.00     0.060 A 
ATOM     30  C   UNL     1       1.100  -3.308   4.409  1.00  0.00     0.016 A 
ATOM     31  C   UNL     1       0.790  -5.684   3.997  1.00  0.00     0.016 A 
ATOM     32  C   UNL     1      -0.244  -3.180   4.749  1.00  0.00     0.010 A 
ATOM     33  C   UNL     1      -0.556  -5.557   4.354  1.00  0.00     0.010 A 
ATOM     34  C   UNL     1      -1.064  -4.315   4.778  1.00  0.00    -0.014 A 
BRANCH  34  35
ATOM     35  C   UNL     1      -2.380  -4.239   5.457  1.00  0.00     0.031 A 
ATOM     36  C   UNL     1      -2.468  -4.663   6.898  1.00  0.00     0.074 A 
ATOM     37  C   UNL     1      -3.466  -3.769   4.822  1.00  0.00     0.049 A 
ATOM     38  N   UNL     1      -3.508  -4.715   7.691  1.00  0.00    -0.248 NA
ATOM     39  C   UNL     1      -1.208  -5.086   7.529  1.00  0.00     0.031 C 
ATOM     40  C   UNL     1      -3.495  -3.280   3.447  1.00  0.00     0.029 A 
ATOM     41  N   UNL     1      -4.760  -3.633   5.260  1.00  0.00    -0.354 N 
ATOM     42  C   UNL     1      -3.028  -5.179   8.910  1.00  0.00     0.074 A 
ATOM     43  C   UNL     1      -1.612  -5.425   8.743  1.00  0.00     0.031 C 
ATOM     44  C   UNL     1      -4.752  -2.905   3.147  1.00  0.00     0.029 A 
ATOM     45  C   UNL     1      -5.616  -3.158   4.299  1.00  0.00     0.049 A 
ATOM     46  H   UNL     1      -5.045  -3.855   6.176  1.00  0.00     0.167 HD
ATOM     47  C   UNL     1      -3.706  -5.375  10.066  1.00  0.00     0.037 A 
ATOM     48  C   UNL     1      -6.949  -2.971   4.345  1.00  0.00     0.037 A 
ATOM     49  C   UNL     1      -5.116  -5.139  10.226  1.00  0.00     0.049 A 
ATOM     50  C   UNL     1      -7.699  -3.282   5.615  1.00  0.00     0.074 A 
ATOM     51  C   UNL     1      -5.896  -5.297  11.358  1.00  0.00     0.029 A 
ATOM     52  N   UNL     1      -5.960  -4.702   9.216  1.00  0.00    -0.354 N 
ATOM     53  N   UNL     1      -7.239  -3.703   6.769  1.00  0.00    -0.248 NA
ATOM     54  C   UNL     1      -9.156  -3.089   5.587  1.00  0.00     0.031 C 
ATOM     55  C   UNL     1      -7.222  -5.007  11.018  1.00  0.00     0.029 A 
ATOM     56  C   UNL     1      -7.259  -4.613   9.690  1.00  0.00     0.049 A 
ATOM     57  H   UNL     1      -5.678  -4.486   8.297  1.00  0.00     0.167 HD
ATOM     58  C   UNL     1      -8.341  -3.797   7.610  1.00  0.00     0.074 A 
ATOM     59  C   UNL     1      -9.492  -3.380   6.836  1.00  0.00     0.031 C 
ATOM     60  C   UNL     1      -8.394  -4.190   8.907  1.00  0.00     0.037 A 
BRANCH  47  61
ATOM     61  C   UNL     1      -2.929  -5.907  11.235  1.00  0.00     0.064 A 
ATOM     62  C   UNL     1      -1.975  -5.126  11.906  1.00  0.00     0.173 A 
ATOM     63  C   UNL     1      -3.142  -7.217  11.692  1.00  0.00     0.173 A 
ATOM     64  F   UNL     1      -1.721  -3.873  11.500  1.00  0.00    -0.203 F 
ATOM     65  C   UNL     1      -1.240  -5.649  12.968  1.00  0.00     0.198 A 
ATOM     66  C   UNL     1      -2.427  -7.725  12.773  1.00  0.00     0.198 A 
ATOM     67  F   UNL     1      -4.044  -8.005  11.088  1.00  0.00    -0.203 F 
ATOM     68  F   UNL     1      -0.293  -4.904  13.555  1.00  0.00    -0.200 F 
ATOM     69  C   UNL     1      -1.469  -6.945  13.403  1.00  0.00     0.200 A 
ATOM     70  F   UNL     1      -2.658  -8.975  13.198  1.00  0.00    -0.200 F 
ATOM     71  F   UNL     1      -0.759  -7.447  14.423  1.00  0.00    -0.200 F 
ENDBRANCH  47  61
BRANCH  48  72
ATOM     72  C   UNL     1      -7.664  -2.466   3.144  1.00  0.00     0.064 A 
ATOM     73  C   UNL     1      -8.223  -1.181   3.126  1.00  0.00     0.173 A 
ATOM     74  C   UNL     1      -7.809  -3.258   1.996  1.00  0.00     0.173 A 
ATOM     75  F   UNL     1      -8.135  -0.397   4.210  1.00  0.00    -0.203 F 
ATOM     76  C   UNL     1      -8.907  -0.710   2.007  1.00  0.00     0.198 A 
ATOM     77  C   UNL     1      -8.471  -2.777   0.869  1.00  0.00     0.198 A 
ATOM     78  F   UNL     1      -7.299  -4.498   1.967  1.00  0.00    -0.203 F 
ATOM     79  F   UNL     1      -9.466   0.507   2.030  1.00  0.00    -0.200 F 
ATOM     80  C   UNL     1      -9.024  -1.506   0.877  1.00  0.00     0.200 A 
ATOM     81  F   UNL     1      -8.576  -3.546  -0.224  1.00  0.00    -0.200 F 
ATOM     82  F   UNL     1      -9.679  -1.050  -0.200  1.00  0.00    -0.200 F 
ENDBRANCH  48  72
BRANCH  60  83
ATOM     83  C   UNL     1      -9.733  -4.154   9.587  1.00  0.00     0.064 A 
ATOM     84  C   UNL     1     -10.741  -5.081   9.285  1.00  0.00     0.173 A 
ATOM     85  C   UNL     1      -9.993  -3.205  10.589  1.00  0.00     0.173 A 
ATOM     86  F   UNL     1     -10.547  -6.000   8.327  1.00  0.00    -0.203 F 
ATOM     87  C   UNL     1     -11.967  -5.045   9.944  1.00  0.00     0.198 A 
ATOM     88  C   UNL     1     -11.209  -3.191  11.266  1.00  0.00     0.198 A 
ATOM     89  F   UNL     1      -9.060  -2.300  10.922  1.00  0.00    -0.203 F 
ATOM     90  F   UNL     1     -12.932  -5.913   9.607  1.00  0.00    -0.200 F 
ATOM     91  C   UNL     1     -12.198  -4.106  10.938  1.00  0.00     0.200 A 
ATOM     92  F   UNL     1     -11.424  -2.293  12.237  1.00  0.00    -0.200 F 
ATOM     93  F   UNL     1     -13.376  -4.079  11.577  1.00  0.00    -0.200 F 
ENDBRANCH  60  83
ENDBRANCH  34  35
ENDBRANCH  27  29
ENDBRANCH  26  27
ENDBRANCH  25  26
ENDBRANCH  24  25
ENDBRANCH  23  24
ENDBRANCH  22  23
ENDBRANCH   1  22
TORSDOF 19
