REMARK SMILES COc1cc(-c2ccc(NC(=O)CCC(=O)OCCOCCOC(=O)c3ccc(-c4c5nc(c(-c6c(F)c(F)c(F)c(F)c6F)c6ccc([nH]6)c(-c6c(F)c(F)c(F)c(F)c6F)c6nc(c(-c7c(F)c(F)c(F)c(F)c7F)c7ccc4[nH]7)C=C6)C=C5)cc3)c(OC)c2)ccc1N
REMARK SMILES IDX 18 1 17 2 15 3 16 4 14 5 13 6 11 7 10 8 12 10 9 11 6 12 7 13
REMARK SMILES IDX 92 14 8 15 89 16 5 17 3 18 4 19 95 20 94 21 93 22 2 23 1 24
REMARK SMILES IDX 96 25 90 28 91 29 19 30 20 31 21 32 22 33 23 34 24 35 25 36
REMARK SMILES IDX 26 37 27 38 88 39 28 40 87 41 29 42 30 43 31 44 81 45 32 46
REMARK SMILES IDX 86 47 80 48 82 49 33 50 85 51 79 52 78 53 34 55 66 56 46 57
REMARK SMILES IDX 65 58 47 59 50 60 64 61 83 62 48 63 49 64 63 66 84 67 51 68
REMARK SMILES IDX 35 69 36 70 44 71 37 72 38 73 42 74 45 75 39 76 40 77 43 78
REMARK SMILES IDX 41 79 67 80 68 81 76 82 69 83 70 84 74 85 77 86 71 87 72 88
REMARK SMILES IDX 75 89 73 90 52 91 53 92 61 93 54 94 55 95 59 96 62 97 56 98
REMARK SMILES IDX 57 99 60 100 58 101
REMARK H PARENT 10 9 96 26 96 27 82 54 50 65
REMARK Flexibility Score: inf
ROOT
ATOM      1  C   UNL     1      -4.354   0.344  -3.873  1.00  0.00     0.261 C 
ENDROOT
BRANCH   1   2
ATOM      2  O   UNL     1      -5.244   0.515  -4.999  1.00  0.00    -0.463 OA
BRANCH   2   3
ATOM      3  C   UNL     1      -5.382   1.645  -5.715  1.00  0.00     0.306 C 
ATOM      4  O   UNL     1      -5.107   2.764  -5.306  1.00  0.00    -0.252 OA
BRANCH   3   5
ATOM      5  C   UNL     1      -5.868   1.332  -7.136  1.00  0.00     0.132 C 
BRANCH   5   6
ATOM      6  C   UNL     1      -4.775   1.381  -8.218  1.00  0.00     0.112 C 
BRANCH   6   7
ATOM      7  C   UNL     1      -4.688   0.261  -9.262  1.00  0.00     0.225 C 
ATOM      8  N   UNL     1      -3.723  -0.727  -9.279  1.00  0.00    -0.323 N 
ATOM      9  H   UNL     1      -3.631  -1.169 -10.154  1.00  0.00     0.170 HD
ATOM     10  O   UNL     1      -5.425   0.329 -10.255  1.00  0.00    -0.275 OA
BRANCH   8  11
ATOM     11  C   UNL     1      -2.840  -1.234  -8.295  1.00  0.00     0.083 A 
ATOM     12  C   UNL     1      -0.739  -1.583  -6.401  1.00  0.00    -0.014 A 
ATOM     13  C   UNL     1      -0.584  -2.005  -7.713  1.00  0.00     0.011 A 
ATOM     14  C   UNL     1      -2.063  -1.354  -6.023  1.00  0.00     0.057 A 
ATOM     15  C   UNL     1      -1.649  -1.867  -8.636  1.00  0.00     0.031 A 
ATOM     16  C   UNL     1      -3.100  -1.218  -6.954  1.00  0.00     0.142 A 
BRANCH  12  17
ATOM     17  C   UNL     1       0.371  -1.283  -5.460  1.00  0.00    -0.014 A 
ATOM     18  C   UNL     1       1.166  -1.057  -3.148  1.00  0.00     0.142 A 
ATOM     19  C   UNL     1       0.263  -1.574  -4.090  1.00  0.00     0.057 A 
ATOM     20  C   UNL     1       2.284  -0.313  -3.550  1.00  0.00     0.074 A 
ATOM     21  C   UNL     1       2.405  -0.015  -4.909  1.00  0.00     0.030 A 
ATOM     22  C   UNL     1       1.476  -0.501  -5.849  1.00  0.00     0.011 A 
BRANCH  18  23
ATOM     23  O   UNL     1       0.900  -1.364  -1.834  1.00  0.00    -0.495 OA
ATOM     24  C   UNL     1       0.678  -0.207  -1.025  1.00  0.00     0.278 C 
ENDBRANCH  18  23
BRANCH  20  25
ATOM     25  N   UNL     1       3.180   0.234  -2.636  1.00  0.00    -0.396 N 
ATOM     26  H   UNL     1       3.095   0.024  -1.677  1.00  0.00     0.156 HD
ATOM     27  H   UNL     1       3.898   0.831  -2.947  1.00  0.00     0.156 HD
ENDBRANCH  20  25
ENDBRANCH  12  17
BRANCH  16  28
ATOM     28  O   UNL     1      -4.365  -1.131  -6.482  1.00  0.00    -0.495 OA
ATOM     29  C   UNL     1      -5.228  -2.149  -6.979  1.00  0.00     0.278 C 
ENDBRANCH  16  28
ENDBRANCH   8  11
ENDBRANCH   6   7
ENDBRANCH   5   6
ENDBRANCH   3   5
ENDBRANCH   2   3
ENDBRANCH   1   2
BRANCH   1  30
ATOM     30  C   UNL     1      -3.090   1.223  -3.695  1.00  0.00     0.202 C 
BRANCH  30  31
ATOM     31  O   UNL     1      -2.054   1.171  -4.703  1.00  0.00    -0.374 OA
BRANCH  31  32
ATOM     32  C   UNL     1      -2.186   2.159  -5.729  1.00  0.00     0.202 C 
BRANCH  32  33
ATOM     33  C   UNL     1      -1.032   2.259  -6.770  1.00  0.00     0.261 C 
BRANCH  33  34
ATOM     34  O   UNL     1      -1.199   1.455  -7.991  1.00  0.00    -0.460 OA
BRANCH  34  35
ATOM     35  C   UNL     1      -0.136   1.495  -8.861  1.00  0.00     0.338 C 
ATOM     36  O   UNL     1       0.885   2.150  -8.682  1.00  0.00    -0.246 OA
BRANCH  35  37
ATOM     37  C   UNL     1      -0.228   0.532 -10.019  1.00  0.00     0.060 A 
ATOM     38  C   UNL     1       0.786  -0.431 -10.160  1.00  0.00     0.016 A 
ATOM     39  C   UNL     1      -1.269   0.511 -10.956  1.00  0.00     0.016 A 
ATOM     40  C   UNL     1       0.682  -1.483 -11.106  1.00  0.00     0.010 A 
ATOM     41  C   UNL     1      -1.353  -0.527 -11.935  1.00  0.00     0.010 A 
ATOM     42  C   UNL     1      -0.409  -1.573 -11.992  1.00  0.00    -0.014 A 
BRANCH  42  43
ATOM     43  C   UNL     1      -0.474  -2.687 -13.017  1.00  0.00     0.031 A 
ATOM     44  C   UNL     1       0.427  -2.602 -14.228  1.00  0.00     0.074 A 
ATOM     45  C   UNL     1      -1.252  -3.794 -12.921  1.00  0.00     0.049 A 
ATOM     46  N   UNL     1       0.586  -3.450 -15.218  1.00  0.00    -0.248 NA
ATOM     47  C   UNL     1       1.261  -1.397 -14.328  1.00  0.00     0.031 C 
ATOM     48  C   UNL     1      -2.163  -4.124 -11.831  1.00  0.00     0.029 A 
ATOM     49  N   UNL     1      -1.390  -4.875 -13.783  1.00  0.00    -0.354 N 
ATOM     50  C   UNL     1       1.548  -2.891 -16.046  1.00  0.00     0.074 A 
ATOM     51  C   UNL     1       1.925  -1.624 -15.451  1.00  0.00     0.031 C 
ATOM     52  C   UNL     1      -2.757  -5.307 -12.081  1.00  0.00     0.029 A 
ATOM     53  C   UNL     1      -2.305  -5.822 -13.372  1.00  0.00     0.049 A 
ATOM     54  H   UNL     1      -0.878  -4.957 -14.620  1.00  0.00     0.167 HD
ATOM     55  C   UNL     1       2.078  -3.364 -17.200  1.00  0.00     0.037 A 
ATOM     56  C   UNL     1      -2.753  -6.960 -13.956  1.00  0.00     0.037 A 
ATOM     57  C   UNL     1       1.713  -4.585 -17.867  1.00  0.00     0.049 A 
ATOM     58  C   UNL     1      -2.237  -7.402 -15.310  1.00  0.00     0.074 A 
ATOM     59  C   UNL     1       2.227  -5.104 -19.045  1.00  0.00     0.029 A 
ATOM     60  N   UNL     1       0.731  -5.462 -17.444  1.00  0.00    -0.354 N 
ATOM     61  N   UNL     1      -1.284  -6.889 -16.044  1.00  0.00    -0.248 NA
ATOM     62  C   UNL     1      -2.873  -8.588 -15.919  1.00  0.00     0.031 C 
ATOM     63  C   UNL     1       1.517  -6.266 -19.366  1.00  0.00     0.029 A 
ATOM     64  C   UNL     1       0.597  -6.497 -18.360  1.00  0.00     0.049 A 
ATOM     65  H   UNL     1       0.206  -5.366 -16.617  1.00  0.00     0.167 HD
ATOM     66  C   UNL     1      -1.187  -7.699 -17.173  1.00  0.00     0.074 A 
ATOM     67  C   UNL     1      -2.166  -8.749 -17.029  1.00  0.00     0.031 C 
ATOM     68  C   UNL     1      -0.355  -7.568 -18.233  1.00  0.00     0.037 A 
BRANCH  55  69
ATOM     69  C   UNL     1       3.115  -2.509 -17.857  1.00  0.00     0.064 A 
ATOM     70  C   UNL     1       4.425  -2.446 -17.364  1.00  0.00     0.173 A 
ATOM     71  C   UNL     1       2.797  -1.766 -19.003  1.00  0.00     0.173 A 
ATOM     72  F   UNL     1       4.766  -3.131 -16.262  1.00  0.00    -0.203 F 
ATOM     73  C   UNL     1       5.379  -1.647 -17.985  1.00  0.00     0.198 A 
ATOM     74  C   UNL     1       3.759  -0.987 -19.634  1.00  0.00     0.198 A 
ATOM     75  F   UNL     1       1.555  -1.802 -19.508  1.00  0.00    -0.203 F 
ATOM     76  F   UNL     1       6.616  -1.566 -17.476  1.00  0.00    -0.200 F 
ATOM     77  C   UNL     1       5.046  -0.922 -19.121  1.00  0.00     0.200 A 
ATOM     78  F   UNL     1       3.440  -0.293 -20.735  1.00  0.00    -0.200 F 
ATOM     79  F   UNL     1       5.967  -0.153 -19.718  1.00  0.00    -0.200 F 
ENDBRANCH  55  69
BRANCH  56  80
ATOM     80  C   UNL     1      -3.813  -7.791 -13.307  1.00  0.00     0.064 A 
ATOM     81  C   UNL     1      -3.549  -9.102 -12.878  1.00  0.00     0.173 A 
ATOM     82  C   UNL     1      -5.138  -7.339 -13.229  1.00  0.00     0.173 A 
ATOM     83  F   UNL     1      -2.309  -9.603 -12.980  1.00  0.00    -0.203 F 
ATOM     84  C   UNL     1      -4.574  -9.935 -12.426  1.00  0.00     0.198 A 
ATOM     85  C   UNL     1      -6.156  -8.163 -12.750  1.00  0.00     0.198 A 
ATOM     86  F   UNL     1      -5.452  -6.106 -13.650  1.00  0.00    -0.203 F 
ATOM     87  F   UNL     1      -4.306 -11.206 -12.097  1.00  0.00    -0.200 F 
ATOM     88  C   UNL     1      -5.876  -9.464 -12.361  1.00  0.00     0.200 A 
ATOM     89  F   UNL     1      -7.415  -7.706 -12.693  1.00  0.00    -0.200 F 
ATOM     90  F   UNL     1      -6.863 -10.271 -11.947  1.00  0.00    -0.200 F 
ENDBRANCH  56  80
BRANCH  68  91
ATOM     91  C   UNL     1      -0.416  -8.600 -19.327  1.00  0.00     0.064 A 
ATOM     92  C   UNL     1      -1.491  -8.663 -20.226  1.00  0.00     0.173 A 
ATOM     93  C   UNL     1       0.649  -9.494 -19.523  1.00  0.00     0.173 A 
ATOM     94  F   UNL     1      -2.542  -7.843 -20.079  1.00  0.00    -0.203 F 
ATOM     95  C   UNL     1      -1.504  -9.588 -21.269  1.00  0.00     0.198 A 
ATOM     96  C   UNL     1       0.646 -10.400 -20.582  1.00  0.00     0.198 A 
ATOM     97  F   UNL     1       1.707  -9.476 -18.698  1.00  0.00    -0.203 F 
ATOM     98  F   UNL     1      -2.557  -9.650 -22.096  1.00  0.00    -0.200 F 
ATOM     99  C   UNL     1      -0.432 -10.449 -21.453  1.00  0.00     0.200 A 
ATOM    100  F   UNL     1       1.689 -11.221 -20.764  1.00  0.00    -0.200 F 
ATOM    101  F   UNL     1      -0.439 -11.327 -22.465  1.00  0.00    -0.200 F 
ENDBRANCH  68  91
ENDBRANCH  42  43
ENDBRANCH  35  37
ENDBRANCH  34  35
ENDBRANCH  33  34
ENDBRANCH  32  33
ENDBRANCH  31  32
ENDBRANCH  30  31
ENDBRANCH   1  30
TORSDOF 21
