REMARK SMILES Cc1n[nH]c(C[N@H+]2CCC[C@H](c3cccc(C(=O)OCCOCCOC(=O)c4ccc(-c5c6nc(c(-c7c(F)c(F)c(F)c(F)c7F)c7ccc([nH]7)c(-c7c(F)c(F)c(F)c(F)c7F)c7nc(c(-c8c(F)c(F)c(F)c(F)c8F)c8ccc5[nH]8)C=C7)C=C6)cc4)c3)C2)n1
REMARK SMILES IDX 21 1 20 2 19 3 17 4 18 5 16 6 12 7 13 8 91 9 14 10 15 11
REMARK SMILES IDX 11 12 7 13 8 14 92 15 9 17 10 18 6 19 5 20 1 21 2 22 3 23
REMARK SMILES IDX 93 24 4 25 22 27 23 28 24 29 25 30 26 31 27 32 28 33 29 34
REMARK SMILES IDX 90 35 30 36 89 37 31 38 32 39 33 40 83 41 34 42 88 43 82 44
REMARK SMILES IDX 84 45 35 46 87 47 81 48 80 49 36 51 68 52 48 53 67 54 49 55
REMARK SMILES IDX 52 56 66 57 85 58 50 59 51 60 65 62 86 63 53 64 37 65 38 66
REMARK SMILES IDX 46 67 39 68 40 69 44 70 47 71 41 72 42 73 45 74 43 75 69 76
REMARK SMILES IDX 70 77 78 78 71 79 72 80 76 81 79 82 73 83 74 84 77 85 75 86
REMARK SMILES IDX 54 87 55 88 63 89 56 90 57 91 61 92 64 93 58 94 59 95 62 96
REMARK SMILES IDX 60 97
REMARK H PARENT 7 16 4 26 84 50 52 61
REMARK Flexibility Score: inf
ROOT
ATOM      1  C   UNL     1       3.788  10.161   7.796  1.00  0.00     0.202 C 
ENDROOT
BRANCH   1   2
ATOM      2  C   UNL     1       4.070   8.767   8.362  1.00  0.00     0.261 C 
BRANCH   2   3
ATOM      3  O   UNL     1       3.365   7.743   7.644  1.00  0.00    -0.460 OA
BRANCH   3   4
ATOM      4  C   UNL     1       2.378   7.134   8.350  1.00  0.00     0.338 C 
ATOM      5  O   UNL     1       2.111   7.298   9.528  1.00  0.00    -0.246 OA
BRANCH   4   6
ATOM      6  C   UNL     1       1.506   6.373   7.430  1.00  0.00     0.060 A 
ATOM      7  C   UNL     1       1.172   4.854   5.554  1.00  0.00    -0.038 A 
ATOM      8  C   UNL     1      -0.214   4.956   5.780  1.00  0.00     0.004 A 
ATOM      9  C   UNL     1       2.023   5.627   6.365  1.00  0.00     0.020 A 
ATOM     10  C   UNL     1      -0.733   5.736   6.814  1.00  0.00     0.001 A 
ATOM     11  C   UNL     1       0.128   6.427   7.654  1.00  0.00     0.016 A 
BRANCH   7  12
ATOM     12  C   UNL     1       1.754   3.946   4.467  1.00  0.00     0.074 C 
ATOM     13  N   UNL     1       0.408   1.874   4.913  1.00  0.00    -0.328 N 
ATOM     14  C   UNL     1       1.586   1.143   5.394  1.00  0.00     0.262 C 
ATOM     15  C   UNL     1       0.777   2.884   3.898  1.00  0.00     0.270 C 
ATOM     16  H   UNL     1       0.027   2.374   5.716  1.00  0.00     0.348 HD
ATOM     17  C   UNL     1       2.660   2.090   5.936  1.00  0.00     0.062 C 
ATOM     18  C   UNL     1       3.016   3.173   4.917  1.00  0.00     0.020 C 
BRANCH  13  19
ATOM     19  C   UNL     1      -0.673   0.983   4.451  1.00  0.00     0.340 C 
BRANCH  19  20
ATOM     20  C   UNL     1      -0.345   0.207   3.221  1.00  0.00     0.179 A 
ATOM     21  C   UNL     1       0.873  -0.304  -0.040  1.00  0.00     0.092 C 
ATOM     22  C   UNL     1       0.332  -0.418   1.327  1.00  0.00     0.147 A 
ATOM     23  N   UNL     1       0.344  -1.556   2.031  1.00  0.00    -0.159 NA
ATOM     24  N   UNL     1      -0.132   0.672   2.008  1.00  0.00    -0.211 NA
ATOM     25  N   UNL     1      -0.117  -1.139   3.223  1.00  0.00    -0.258 N 
ATOM     26  H   UNL     1      -0.269  -1.728   3.997  1.00  0.00     0.192 HD
ENDBRANCH  19  20
ENDBRANCH  13  19
ENDBRANCH   7  12
ENDBRANCH   4   6
ENDBRANCH   3   4
ENDBRANCH   2   3
ENDBRANCH   1   2
BRANCH   1  27
ATOM     27  O   UNL     1       2.459  10.676   7.897  1.00  0.00    -0.374 OA
BRANCH  27  28
ATOM     28  C   UNL     1       1.414  10.098   7.123  1.00  0.00     0.202 C 
BRANCH  28  29
ATOM     29  C   UNL     1       1.391  10.368   5.626  1.00  0.00     0.261 C 
BRANCH  29  30
ATOM     30  O   UNL     1       2.568   9.905   4.984  1.00  0.00    -0.460 OA
BRANCH  30  31
ATOM     31  C   UNL     1       3.466  10.882   4.719  1.00  0.00     0.338 C 
ATOM     32  O   UNL     1       3.482  12.015   5.158  1.00  0.00    -0.246 OA
BRANCH  31  33
ATOM     33  C   UNL     1       4.354  10.407   3.652  1.00  0.00     0.060 A 
ATOM     34  C   UNL     1       5.226  11.361   3.126  1.00  0.00     0.016 A 
ATOM     35  C   UNL     1       4.063   9.206   2.987  1.00  0.00     0.016 A 
ATOM     36  C   UNL     1       5.591  11.236   1.809  1.00  0.00     0.010 A 
ATOM     37  C   UNL     1       4.416   9.090   1.667  1.00  0.00     0.010 A 
ATOM     38  C   UNL     1       5.086  10.156   1.077  1.00  0.00    -0.014 A 
BRANCH  38  39
ATOM     39  C   UNL     1       5.334  10.136  -0.342  1.00  0.00     0.031 A 
ATOM     40  C   UNL     1       6.729   9.791  -0.669  1.00  0.00     0.074 A 
ATOM     41  C   UNL     1       4.369  10.359  -1.250  1.00  0.00     0.049 A 
ATOM     42  N   UNL     1       7.626  10.583  -1.149  1.00  0.00    -0.248 NA
ATOM     43  C   UNL     1       7.237   8.482  -0.237  1.00  0.00     0.031 C 
ATOM     44  C   UNL     1       2.924  10.484  -1.052  1.00  0.00     0.029 A 
ATOM     45  N   UNL     1       4.501  10.442  -2.597  1.00  0.00    -0.354 N 
ATOM     46  C   UNL     1       8.780   9.821  -1.245  1.00  0.00     0.074 A 
ATOM     47  C   UNL     1       8.536   8.605  -0.513  1.00  0.00     0.031 C 
ATOM     48  C   UNL     1       2.304  10.396  -2.253  1.00  0.00     0.029 A 
ATOM     49  C   UNL     1       3.311  10.336  -3.300  1.00  0.00     0.049 A 
ATOM     50  H   UNL     1       5.371  10.568  -3.040  1.00  0.00     0.167 HD
ATOM     51  C   UNL     1       9.761  10.154  -2.124  1.00  0.00     0.037 A 
ATOM     52  C   UNL     1       3.205  10.126  -4.636  1.00  0.00     0.037 A 
ATOM     53  C   UNL     1       9.611  11.508  -2.591  1.00  0.00     0.049 A 
ATOM     54  C   UNL     1       4.495  10.548  -5.251  1.00  0.00     0.074 A 
ATOM     55  C   UNL     1       9.636  12.745  -1.976  1.00  0.00     0.029 A 
ATOM     56  N   UNL     1       9.002  11.703  -3.807  1.00  0.00    -0.354 N 
ATOM     57  N   UNL     1       4.887  11.792  -5.305  1.00  0.00    -0.248 NA
ATOM     58  C   UNL     1       5.560   9.557  -5.354  1.00  0.00     0.031 C 
ATOM     59  C   UNL     1       8.630  13.508  -2.638  1.00  0.00     0.029 A 
ATOM     60  C   UNL     1       8.095  12.721  -3.657  1.00  0.00     0.049 A 
ATOM     61  H   UNL     1       9.183  11.202  -4.635  1.00  0.00     0.167 HD
ATOM     62  C   UNL     1       6.242  11.750  -5.006  1.00  0.00     0.074 A 
ATOM     63  C   UNL     1       6.618  10.343  -5.127  1.00  0.00     0.031 C 
ATOM     64  C   UNL     1       6.859  12.805  -4.398  1.00  0.00     0.037 A 
BRANCH  51  65
ATOM     65  C   UNL     1      10.617   9.148  -2.835  1.00  0.00     0.064 A 
ATOM     66  C   UNL     1      11.740   9.592  -3.555  1.00  0.00     0.173 A 
ATOM     67  C   UNL     1      10.210   7.819  -3.082  1.00  0.00     0.173 A 
ATOM     68  F   UNL     1      12.191  10.847  -3.410  1.00  0.00    -0.203 F 
ATOM     69  C   UNL     1      12.364   8.784  -4.508  1.00  0.00     0.198 A 
ATOM     70  C   UNL     1      10.871   6.997  -3.989  1.00  0.00     0.198 A 
ATOM     71  F   UNL     1       9.095   7.303  -2.550  1.00  0.00    -0.203 F 
ATOM     72  F   UNL     1      13.349   9.287  -5.262  1.00  0.00    -0.200 F 
ATOM     73  C   UNL     1      11.926   7.490  -4.727  1.00  0.00     0.200 A 
ATOM     74  F   UNL     1      10.417   5.754  -4.202  1.00  0.00    -0.200 F 
ATOM     75  F   UNL     1      12.483   6.735  -5.682  1.00  0.00    -0.200 F 
ENDBRANCH  51  65
BRANCH  52  76
ATOM     76  C   UNL     1       2.213   9.283  -5.347  1.00  0.00     0.064 A 
ATOM     77  C   UNL     1       2.074   9.345  -6.744  1.00  0.00     0.173 A 
ATOM     78  C   UNL     1       1.571   8.204  -4.706  1.00  0.00     0.173 A 
ATOM     79  F   UNL     1       2.690  10.311  -7.440  1.00  0.00    -0.203 F 
ATOM     80  C   UNL     1       1.357   8.375  -7.455  1.00  0.00     0.198 A 
ATOM     81  C   UNL     1       0.851   7.242  -5.416  1.00  0.00     0.198 A 
ATOM     82  F   UNL     1       1.707   8.003  -3.388  1.00  0.00    -0.203 F 
ATOM     83  F   UNL     1       1.299   8.434  -8.793  1.00  0.00    -0.200 F 
ATOM     84  C   UNL     1       0.755   7.319  -6.791  1.00  0.00     0.200 A 
ATOM     85  F   UNL     1       0.306   6.205  -4.763  1.00  0.00    -0.200 F 
ATOM     86  F   UNL     1       0.121   6.357  -7.477  1.00  0.00    -0.200 F 
ENDBRANCH  52  76
BRANCH  64  87
ATOM     87  C   UNL     1       6.091  14.091  -4.286  1.00  0.00     0.064 A 
ATOM     88  C   UNL     1       4.910  14.236  -3.536  1.00  0.00     0.173 A 
ATOM     89  C   UNL     1       6.652  15.251  -4.834  1.00  0.00     0.173 A 
ATOM     90  F   UNL     1       4.371  13.195  -2.891  1.00  0.00    -0.203 F 
ATOM     91  C   UNL     1       4.296  15.478  -3.386  1.00  0.00     0.198 A 
ATOM     92  C   UNL     1       6.058  16.496  -4.651  1.00  0.00     0.198 A 
ATOM     93  F   UNL     1       7.811  15.182  -5.507  1.00  0.00    -0.203 F 
ATOM     94  F   UNL     1       3.163  15.588  -2.676  1.00  0.00    -0.200 F 
ATOM     95  C   UNL     1       4.875  16.608  -3.938  1.00  0.00     0.200 A 
ATOM     96  F   UNL     1       6.649  17.593  -5.143  1.00  0.00    -0.200 F 
ATOM     97  F   UNL     1       4.309  17.810  -3.760  1.00  0.00    -0.200 F 
ENDBRANCH  64  87
ENDBRANCH  38  39
ENDBRANCH  31  33
ENDBRANCH  30  31
ENDBRANCH  29  30
ENDBRANCH  28  29
ENDBRANCH  27  28
ENDBRANCH   1  27
TORSDOF 17
