REMARK SMILES C[NH+]1CCC([NH+]2CCC(Oc3ccc4ccccc4c3)(C(=O)OCCOCCOC(=O)c3ccc(-c4c5nc(c(-c6c(F)c(F)c(F)c(F)c6F)c6ccc([nH]6)c(-c6c(F)c(F)c(F)c(F)c6F)c6nc(c(-c7c(F)c(F)c(F)c(F)c7F)c7ccc4[nH]7)C=C6)C=C5)cc3)CC2)CC1
REMARK SMILES IDX 26 1 25 2 24 3 23 4 21 5 22 6 9 7 6 8 7 9 96 10 8 12 95 13
REMARK SMILES IDX 5 14 1 15 2 16 3 17 98 18 4 20 97 21 10 22 11 23 12 24 20 25
REMARK SMILES IDX 13 26 19 27 14 28 18 29 15 30 17 31 16 32 27 33 28 34 29 35
REMARK SMILES IDX 30 36 31 37 32 38 33 39 94 40 34 41 93 42 35 43 36 44 37 45
REMARK SMILES IDX 87 46 38 47 92 48 86 49 88 50 39 51 91 52 85 53 84 54 40 56
REMARK SMILES IDX 72 57 52 58 71 59 53 60 56 61 70 62 89 63 54 64 55 65 69 67
REMARK SMILES IDX 90 68 57 69 41 70 42 71 50 72 43 73 44 74 48 75 51 76 45 77
REMARK SMILES IDX 46 78 49 79 47 80 73 81 74 82 82 83 75 84 76 85 80 86 83 87
REMARK SMILES IDX 77 88 78 89 81 90 79 91 58 92 59 93 67 94 60 95 61 96 65 97
REMARK SMILES IDX 68 98 62 99 63 100 66 101 64 102
REMARK H PARENT 6 11 2 19 88 55 56 66
REMARK Flexibility Score: inf
ROOT
ATOM      1  O   UNL     1       3.107  -5.162   2.962  1.00  0.00    -0.374 OA
ENDROOT
BRANCH   1   2
ATOM      2  C   UNL     1       4.072  -4.804   3.950  1.00  0.00     0.202 C 
BRANCH   2   3
ATOM      3  C   UNL     1       5.341  -4.068   3.498  1.00  0.00     0.261 C 
BRANCH   3   4
ATOM      4  O   UNL     1       5.119  -2.698   3.087  1.00  0.00    -0.460 OA
BRANCH   4   5
ATOM      5  C   UNL     1       5.587  -2.364   1.847  1.00  0.00     0.351 C 
ATOM      6  O   UNL     1       5.994  -3.200   1.042  1.00  0.00    -0.247 OA
BRANCH   5   7
ATOM      7  C   UNL     1       5.638  -0.839   1.572  1.00  0.00     0.216 C 
ATOM      8  N   UNL     1       3.232   0.186   0.119  1.00  0.00    -0.332 N 
ATOM      9  C   UNL     1       3.297   0.369   1.567  1.00  0.00     0.267 C 
ATOM     10  C   UNL     1       4.086  -0.870  -0.409  1.00  0.00     0.267 C 
ATOM     11  H   UNL     1       3.654   1.046  -0.232  1.00  0.00     0.348 HD
ATOM     12  C   UNL     1       4.583  -0.011   2.321  1.00  0.00     0.122 C 
ATOM     13  C   UNL     1       5.527  -0.642   0.049  1.00  0.00     0.122 C 
BRANCH   8  14
ATOM     14  C   UNL     1       1.855   0.198  -0.460  1.00  0.00     0.195 C 
ATOM     15  C   UNL     1      -2.484   0.240  -0.413  1.00  0.00     0.332 C 
ATOM     16  N   UNL     1      -1.056   0.218  -0.111  1.00  0.00    -0.337 N 
ATOM     17  C   UNL     1      -0.381   1.436  -0.572  1.00  0.00     0.268 C 
ATOM     18  C   UNL     1      -0.411  -0.964  -0.686  1.00  0.00     0.268 C 
ATOM     19  H   UNL     1      -0.970   0.175   0.904  1.00  0.00     0.347 HD
ATOM     20  C   UNL     1       1.064   1.464  -0.064  1.00  0.00     0.126 C 
ATOM     21  C   UNL     1       1.015  -1.055  -0.151  1.00  0.00     0.126 C 
ENDBRANCH   8  14
BRANCH   7  22
ATOM     22  O   UNL     1       6.962  -0.592   2.145  1.00  0.00    -0.475 OA
BRANCH  22  23
ATOM     23  C   UNL     1       7.704   0.427   1.623  1.00  0.00     0.121 A 
ATOM     24  C   UNL     1       7.515   1.740   2.040  1.00  0.00     0.047 A 
ATOM     25  C   UNL     1       8.770   0.111   0.779  1.00  0.00     0.055 A 
ATOM     26  C   UNL     1       8.337   2.755   1.551  1.00  0.00     0.012 A 
ATOM     27  C   UNL     1       9.625   1.119   0.298  1.00  0.00    -0.015 A 
ATOM     28  C   UNL     1       9.393   2.462   0.680  1.00  0.00    -0.018 A 
ATOM     29  C   UNL     1      10.715   0.831  -0.539  1.00  0.00     0.009 A 
ATOM     30  C   UNL     1      10.238   3.475   0.202  1.00  0.00     0.009 A 
ATOM     31  C   UNL     1      11.555   1.849  -0.997  1.00  0.00     0.001 A 
ATOM     32  C   UNL     1      11.313   3.170  -0.632  1.00  0.00     0.001 A 
ENDBRANCH  22  23
ENDBRANCH   7  22
ENDBRANCH   5   7
ENDBRANCH   4   5
ENDBRANCH   3   4
ENDBRANCH   2   3
ENDBRANCH   1   2
BRANCH   1  33
ATOM     33  C   UNL     1       2.653  -4.143   2.090  1.00  0.00     0.202 C 
BRANCH  33  34
ATOM     34  C   UNL     1       1.840  -2.998   2.697  1.00  0.00     0.261 C 
BRANCH  34  35
ATOM     35  O   UNL     1       2.131  -2.681   4.056  1.00  0.00    -0.460 OA
BRANCH  35  36
ATOM     36  C   UNL     1       1.103  -2.862   4.913  1.00  0.00     0.338 C 
ATOM     37  O   UNL     1      -0.045  -3.179   4.666  1.00  0.00    -0.246 OA
BRANCH  36  38
ATOM     38  C   UNL     1       1.620  -2.721   6.277  1.00  0.00     0.060 A 
ATOM     39  C   UNL     1       1.801  -3.887   7.026  1.00  0.00     0.016 A 
ATOM     40  C   UNL     1       1.847  -1.459   6.830  1.00  0.00     0.016 A 
ATOM     41  C   UNL     1       2.174  -3.790   8.361  1.00  0.00     0.010 A 
ATOM     42  C   UNL     1       2.222  -1.365   8.172  1.00  0.00     0.010 A 
ATOM     43  C   UNL     1       2.351  -2.529   8.950  1.00  0.00    -0.014 A 
BRANCH  43  44
ATOM     44  C   UNL     1       2.535  -2.444  10.415  1.00  0.00     0.031 A 
ATOM     45  C   UNL     1       1.344  -2.152  11.282  1.00  0.00     0.074 A 
ATOM     46  C   UNL     1       3.739  -2.685  10.961  1.00  0.00     0.049 A 
ATOM     47  N   UNL     1       1.263  -2.086  12.587  1.00  0.00    -0.248 NA
ATOM     48  C   UNL     1       0.072  -1.902  10.587  1.00  0.00     0.031 C 
ATOM     49  C   UNL     1       4.954  -3.000  10.213  1.00  0.00     0.029 A 
ATOM     50  N   UNL     1       4.133  -2.709  12.274  1.00  0.00    -0.354 N 
ATOM     51  C   UNL     1      -0.065  -1.795  12.867  1.00  0.00     0.074 A 
ATOM     52  C   UNL     1      -0.748  -1.659  11.599  1.00  0.00     0.031 C 
ATOM     53  C   UNL     1       5.962  -3.190  11.081  1.00  0.00     0.029 A 
ATOM     54  C   UNL     1       5.466  -2.990  12.441  1.00  0.00     0.049 A 
ATOM     55  H   UNL     1       3.519  -2.542  13.025  1.00  0.00     0.167 HD
ATOM     56  C   UNL     1      -0.662  -1.668  14.075  1.00  0.00     0.037 A 
ATOM     57  C   UNL     1       6.199  -3.069  13.567  1.00  0.00     0.037 A 
ATOM     58  C   UNL     1       0.025  -1.802  15.332  1.00  0.00     0.049 A 
ATOM     59  C   UNL     1       5.521  -2.872  14.897  1.00  0.00     0.074 A 
ATOM     60  C   UNL     1      -0.488  -1.707  16.613  1.00  0.00     0.029 A 
ATOM     61  N   UNL     1       1.384  -2.054  15.462  1.00  0.00    -0.354 N 
ATOM     62  N   UNL     1       4.257  -2.635  15.155  1.00  0.00    -0.248 NA
ATOM     63  C   UNL     1       6.370  -2.959  16.093  1.00  0.00     0.031 C 
ATOM     64  C   UNL     1       0.568  -1.857  17.518  1.00  0.00     0.029 A 
ATOM     65  C   UNL     1       1.731  -2.093  16.802  1.00  0.00     0.049 A 
ATOM     66  H   UNL     1       2.008  -2.185  14.712  1.00  0.00     0.167 HD
ATOM     67  C   UNL     1       4.154  -2.569  16.538  1.00  0.00     0.074 A 
ATOM     68  C   UNL     1       5.482  -2.805  17.066  1.00  0.00     0.031 C 
ATOM     69  C   UNL     1       3.060  -2.333  17.303  1.00  0.00     0.037 A 
BRANCH  56  70
ATOM     70  C   UNL     1      -2.127  -1.348  14.092  1.00  0.00     0.064 A 
ATOM     71  C   UNL     1      -3.093  -2.301  13.733  1.00  0.00     0.173 A 
ATOM     72  C   UNL     1      -2.573  -0.081  14.495  1.00  0.00     0.173 A 
ATOM     73  F   UNL     1      -2.716  -3.522  13.325  1.00  0.00    -0.203 F 
ATOM     74  C   UNL     1      -4.450  -1.989  13.756  1.00  0.00     0.198 A 
ATOM     75  C   UNL     1      -3.932   0.220  14.541  1.00  0.00     0.198 A 
ATOM     76  F   UNL     1      -1.691   0.866  14.849  1.00  0.00    -0.203 F 
ATOM     77  F   UNL     1      -5.352  -2.901  13.369  1.00  0.00    -0.200 F 
ATOM     78  C   UNL     1      -4.869  -0.732  14.166  1.00  0.00     0.200 A 
ATOM     79  F   UNL     1      -4.336   1.432  14.946  1.00  0.00    -0.200 F 
ATOM     80  F   UNL     1      -6.175  -0.435  14.192  1.00  0.00    -0.200 F 
ENDBRANCH  56  70
BRANCH  57  81
ATOM     81  C   UNL     1       7.655  -3.353  13.485  1.00  0.00     0.064 A 
ATOM     82  C   UNL     1       8.183  -4.571  13.933  1.00  0.00     0.173 A 
ATOM     83  C   UNL     1       8.548  -2.408  12.958  1.00  0.00     0.173 A 
ATOM     84  F   UNL     1       7.373  -5.497  14.466  1.00  0.00    -0.203 F 
ATOM     85  C   UNL     1       9.552  -4.828  13.870  1.00  0.00     0.198 A 
ATOM     86  C   UNL     1       9.912  -2.676  12.871  1.00  0.00     0.198 A 
ATOM     87  F   UNL     1       8.092  -1.227  12.516  1.00  0.00    -0.203 F 
ATOM     88  F   UNL     1      10.037  -5.984  14.343  1.00  0.00    -0.200 F 
ATOM     89  C   UNL     1      10.414  -3.883  13.334  1.00  0.00     0.200 A 
ATOM     90  F   UNL     1      10.740  -1.765  12.342  1.00  0.00    -0.200 F 
ATOM     91  F   UNL     1      11.729  -4.132  13.270  1.00  0.00    -0.200 F 
ENDBRANCH  57  81
BRANCH  69  92
ATOM     92  C   UNL     1       3.249  -2.345  18.791  1.00  0.00     0.064 A 
ATOM     93  C   UNL     1       3.903  -1.298  19.456  1.00  0.00     0.173 A 
ATOM     94  C   UNL     1       2.733  -3.396  19.564  1.00  0.00     0.173 A 
ATOM     95  F   UNL     1       4.426  -0.278  18.759  1.00  0.00    -0.203 F 
ATOM     96  C   UNL     1       4.054  -1.314  20.840  1.00  0.00     0.198 A 
ATOM     97  C   UNL     1       2.862  -3.395  20.950  1.00  0.00     0.198 A 
ATOM     98  F   UNL     1       2.093  -4.418  18.976  1.00  0.00    -0.203 F 
ATOM     99  F   UNL     1       4.720  -0.325  21.451  1.00  0.00    -0.200 F 
ATOM    100  C   UNL     1       3.527  -2.358  21.586  1.00  0.00     0.200 A 
ATOM    101  F   UNL     1       2.342  -4.399  21.671  1.00  0.00    -0.200 F 
ATOM    102  F   UNL     1       3.668  -2.369  22.919  1.00  0.00    -0.200 F 
ENDBRANCH  69  92
ENDBRANCH  43  44
ENDBRANCH  36  38
ENDBRANCH  35  36
ENDBRANCH  34  35
ENDBRANCH  33  34
ENDBRANCH   1  33
TORSDOF 17
