REMARK SMILES O=C(OCCOCCOC(=O)[C@@H]1CCCN(c2ccc3cc(S(=O)(=O)N4CCCCC4)ccc3n2)C1)c1ccc(-c2c3nc(c(-c4c(F)c(F)c(F)c(F)c4F)c4ccc([nH]4)c(-c4c(F)c(F)c(F)c(F)c4F)c4nc(c(-c5c(F)c(F)c(F)c(F)c5F)c5ccc2[nH]5)C=C4)C=C3)cc1
REMARK SMILES IDX 7 1 6 2 5 3 4 4 3 5 2 6 1 7 37 8 38 9 99 10 39 11 98 12
REMARK SMILES IDX 40 13 41 14 42 15 92 16 43 17 97 18 91 19 93 20 44 21 96 22
REMARK SMILES IDX 90 23 89 24 45 26 77 27 57 28 76 29 58 30 61 31 75 32 94 33
REMARK SMILES IDX 59 34 60 35 74 37 95 38 62 39 46 40 47 41 55 42 48 43 49 44
REMARK SMILES IDX 53 45 56 46 50 47 51 48 54 49 52 50 78 51 79 52 87 53 80 54
REMARK SMILES IDX 81 55 85 56 88 57 82 58 83 59 86 60 84 61 63 62 64 63 72 64
REMARK SMILES IDX 65 65 66 66 70 67 73 68 67 69 68 70 71 71 69 72 8 73 9 74
REMARK SMILES IDX 10 75 11 76 12 77 13 78 36 79 14 80 16 81 15 82 17 83 18 84
REMARK SMILES IDX 35 85 19 86 34 87 20 88 33 89 21 90 32 91 22 92 23 93 24 94
REMARK SMILES IDX 25 95 26 96 27 97 31 98 28 99 30 100 29 101
REMARK H PARENT 93 25 61 36
REMARK Flexibility Score: inf
ROOT
ATOM      1  C   UNL     1       1.852   0.256  -2.335  1.00  0.00     0.202 C 
ENDROOT
BRANCH   1   2
ATOM      2  O   UNL     1       3.064   0.460  -1.608  1.00  0.00    -0.374 OA
BRANCH   2   3
ATOM      3  C   UNL     1       3.603  -0.739  -1.044  1.00  0.00     0.202 C 
BRANCH   3   4
ATOM      4  C   UNL     1       3.230  -0.959   0.425  1.00  0.00     0.261 C 
BRANCH   4   5
ATOM      5  O   UNL     1       1.862  -0.595   0.665  1.00  0.00    -0.460 OA
BRANCH   5   6
ATOM      6  C   UNL     1       1.423   0.620   1.079  1.00  0.00     0.338 C 
ATOM      7  O   UNL     1       0.216   0.836   1.157  1.00  0.00    -0.246 OA
BRANCH   6   8
ATOM      8  C   UNL     1       2.362   1.672   1.559  1.00  0.00     0.060 A 
ATOM      9  C   UNL     1       3.571   1.989   0.937  1.00  0.00     0.016 A 
ATOM     10  C   UNL     1       1.968   2.426   2.674  1.00  0.00     0.016 A 
ATOM     11  C   UNL     1       4.426   2.939   1.462  1.00  0.00     0.010 A 
ATOM     12  C   UNL     1       2.791   3.442   3.168  1.00  0.00     0.010 A 
ATOM     13  C   UNL     1       4.035   3.681   2.571  1.00  0.00    -0.014 A 
BRANCH  13  14
ATOM     14  C   UNL     1       4.996   4.650   3.121  1.00  0.00     0.031 A 
ATOM     15  C   UNL     1       5.682   4.321   4.407  1.00  0.00     0.074 A 
ATOM     16  C   UNL     1       5.321   5.735   2.396  1.00  0.00     0.049 A 
ATOM     17  N   UNL     1       6.493   5.048   5.124  1.00  0.00    -0.248 NA
ATOM     18  C   UNL     1       5.422   2.981   4.961  1.00  0.00     0.031 C 
ATOM     19  C   UNL     1       4.790   6.048   1.066  1.00  0.00     0.029 A 
ATOM     20  N   UNL     1       6.200   6.750   2.649  1.00  0.00    -0.354 N 
ATOM     21  C   UNL     1       6.793   4.282   6.240  1.00  0.00     0.074 A 
ATOM     22  C   UNL     1       6.096   3.023   6.099  1.00  0.00     0.031 C 
ATOM     23  C   UNL     1       5.394   7.153   0.602  1.00  0.00     0.029 A 
ATOM     24  C   UNL     1       6.280   7.674   1.635  1.00  0.00     0.049 A 
ATOM     25  H   UNL     1       6.726   6.813   3.479  1.00  0.00     0.167 HD
ATOM     26  C   UNL     1       7.566   4.626   7.295  1.00  0.00     0.037 A 
ATOM     27  C   UNL     1       6.971   8.828   1.580  1.00  0.00     0.037 A 
ATOM     28  C   UNL     1       8.258   5.884   7.381  1.00  0.00     0.049 A 
ATOM     29  C   UNL     1       7.787   9.203   2.789  1.00  0.00     0.074 A 
ATOM     30  C   UNL     1       9.015   6.393   8.418  1.00  0.00     0.029 A 
ATOM     31  N   UNL     1       8.275   6.832   6.364  1.00  0.00    -0.354 N 
ATOM     32  N   UNL     1       7.971   8.537   3.908  1.00  0.00    -0.248 NA
ATOM     33  C   UNL     1       8.460  10.506   2.751  1.00  0.00     0.031 C 
ATOM     34  C   UNL     1       9.466   7.664   8.040  1.00  0.00     0.029 A 
ATOM     35  C   UNL     1       9.028   7.927   6.750  1.00  0.00     0.049 A 
ATOM     36  H   UNL     1       7.819   6.739   5.496  1.00  0.00     0.167 HD
ATOM     37  C   UNL     1       8.804   9.321   4.689  1.00  0.00     0.074 A 
ATOM     38  C   UNL     1       9.092  10.514   3.916  1.00  0.00     0.031 C 
ATOM     39  C   UNL     1       9.289   9.086   5.934  1.00  0.00     0.037 A 
BRANCH  26  40
ATOM     40  C   UNL     1       7.607   3.668   8.448  1.00  0.00     0.064 A 
ATOM     41  C   UNL     1       8.276   2.438   8.377  1.00  0.00     0.173 A 
ATOM     42  C   UNL     1       6.904   3.965   9.626  1.00  0.00     0.173 A 
ATOM     43  F   UNL     1       8.937   2.091   7.261  1.00  0.00    -0.203 F 
ATOM     44  C   UNL     1       8.206   1.523   9.426  1.00  0.00     0.198 A 
ATOM     45  C   UNL     1       6.859   3.060  10.683  1.00  0.00     0.198 A 
ATOM     46  F   UNL     1       6.240   5.124   9.744  1.00  0.00    -0.203 F 
ATOM     47  F   UNL     1       8.793   0.324   9.308  1.00  0.00    -0.200 F 
ATOM     48  C   UNL     1       7.499   1.835  10.578  1.00  0.00     0.200 A 
ATOM     49  F   UNL     1       6.176   3.365  11.796  1.00  0.00    -0.200 F 
ATOM     50  F   UNL     1       7.419   0.947  11.579  1.00  0.00    -0.200 F 
ENDBRANCH  26  40
BRANCH  27  51
ATOM     51  C   UNL     1       6.885   9.705   0.379  1.00  0.00     0.064 A 
ATOM     52  C   UNL     1       8.015   9.999  -0.399  1.00  0.00     0.173 A 
ATOM     53  C   UNL     1       5.665  10.275  -0.021  1.00  0.00     0.173 A 
ATOM     54  F   UNL     1       9.221   9.546  -0.031  1.00  0.00    -0.203 F 
ATOM     55  C   UNL     1       7.927  10.814  -1.528  1.00  0.00     0.198 A 
ATOM     56  C   UNL     1       5.572  11.066  -1.165  1.00  0.00     0.198 A 
ATOM     57  F   UNL     1       4.551  10.054   0.693  1.00  0.00    -0.203 F 
ATOM     58  F   UNL     1       9.031  11.115  -2.225  1.00  0.00    -0.200 F 
ATOM     59  C   UNL     1       6.704  11.337  -1.916  1.00  0.00     0.200 A 
ATOM     60  F   UNL     1       4.386  11.567  -1.536  1.00  0.00    -0.200 F 
ATOM     61  F   UNL     1       6.618  12.117  -3.002  1.00  0.00    -0.200 F 
ENDBRANCH  27  51
BRANCH  39  62
ATOM     62  C   UNL     1      10.204  10.126   6.501  1.00  0.00     0.064 A 
ATOM     63  C   UNL     1       9.717  11.352   6.974  1.00  0.00     0.173 A 
ATOM     64  C   UNL     1      11.579   9.872   6.602  1.00  0.00     0.173 A 
ATOM     65  F   UNL     1       8.410  11.642   6.883  1.00  0.00    -0.203 F 
ATOM     66  C   UNL     1      10.582  12.300   7.510  1.00  0.00     0.198 A 
ATOM     67  C   UNL     1      12.437  10.811   7.162  1.00  0.00     0.198 A 
ATOM     68  F   UNL     1      12.086   8.708   6.166  1.00  0.00    -0.203 F 
ATOM     69  F   UNL     1      10.106  13.484   7.918  1.00  0.00    -0.200 F 
ATOM     70  C   UNL     1      11.939  12.026   7.609  1.00  0.00     0.200 A 
ATOM     71  F   UNL     1      13.745  10.541   7.269  1.00  0.00    -0.200 F 
ATOM     72  F   UNL     1      12.770  12.938   8.133  1.00  0.00    -0.200 F 
ENDBRANCH  39  62
ENDBRANCH  13  14
ENDBRANCH   6   8
ENDBRANCH   5   6
ENDBRANCH   4   5
ENDBRANCH   3   4
ENDBRANCH   2   3
ENDBRANCH   1   2
BRANCH   1  73
ATOM     73  C   UNL     1       2.159   0.065  -3.818  1.00  0.00     0.261 C 
BRANCH  73  74
ATOM     74  O   UNL     1       3.162  -0.964  -3.973  1.00  0.00    -0.463 OA
BRANCH  74  75
ATOM     75  C   UNL     1       4.276  -0.583  -4.642  1.00  0.00     0.310 C 
ATOM     76  O   UNL     1       4.347   0.443  -5.316  1.00  0.00    -0.252 OA
BRANCH  75  77
ATOM     77  C   UNL     1       5.440  -1.561  -4.542  1.00  0.00     0.118 C 
ATOM     78  C   UNL     1       5.349  -2.764  -3.573  1.00  0.00     0.019 C 
ATOM     79  C   UNL     1       6.700  -0.729  -4.314  1.00  0.00     0.133 C 
ATOM     80  C   UNL     1       6.172  -2.737  -2.261  1.00  0.00     0.022 C 
ATOM     81  N   UNL     1       6.854  -0.511  -2.880  1.00  0.00    -0.356 N 
ATOM     82  C   UNL     1       7.280  -1.684  -2.148  1.00  0.00     0.118 C 
BRANCH  81  83
ATOM     83  C   UNL     1       7.248   0.748  -2.464  1.00  0.00     0.129 A 
ATOM     84  C   UNL     1       6.399   1.832  -2.686  1.00  0.00     0.047 A 
ATOM     85  N   UNL     1       8.431   0.907  -1.838  1.00  0.00    -0.231 NA
ATOM     86  C   UNL     1       6.774   3.107  -2.280  1.00  0.00     0.014 A 
ATOM     87  C   UNL     1       8.822   2.148  -1.487  1.00  0.00     0.073 A 
ATOM     88  C   UNL     1       8.017   3.289  -1.683  1.00  0.00     0.002 A 
ATOM     89  C   UNL     1      10.077   2.334  -0.928  1.00  0.00     0.030 A 
ATOM     90  C   UNL     1       8.470   4.565  -1.307  1.00  0.00     0.032 A 
ATOM     91  C   UNL     1      10.552   3.604  -0.574  1.00  0.00     0.024 A 
ATOM     92  C   UNL     1       9.746   4.724  -0.758  1.00  0.00     0.083 A 
BRANCH  92  93
ATOM     93  S   UNL     1      10.253   6.398  -0.390  1.00  0.00     0.243 S 
ATOM     94  O   UNL     1      10.101   7.129  -1.631  1.00  0.00    -0.207 OA
ATOM     95  O   UNL     1       9.522   6.780   0.799  1.00  0.00    -0.207 OA
BRANCH  93  96
ATOM     96  N   UNL     1      11.916   6.370  -0.003  1.00  0.00    -0.198 NA
ATOM     97  C   UNL     1      12.254   5.875   1.355  1.00  0.00     0.102 C 
ATOM     98  C   UNL     1      12.836   6.077  -1.128  1.00  0.00     0.102 C 
ATOM     99  C   UNL     1      13.742   5.955   1.664  1.00  0.00     0.017 C 
ATOM    100  C   UNL     1      14.300   6.184  -0.730  1.00  0.00     0.017 C 
ATOM    101  C   UNL     1      14.582   5.388   0.533  1.00  0.00     0.003 C 
ENDBRANCH  93  96
ENDBRANCH  92  93
ENDBRANCH  81  83
ENDBRANCH  75  77
ENDBRANCH  74  75
ENDBRANCH  73  74
ENDBRANCH   1  73
TORSDOF 17
