REMARK SMILES C[C@H]1CCc2sc3ncn4nc(/C=C\C(=O)OCCOCCOC(=O)c5ccc(-c6c7nc(c(-c8c(F)c(F)c(F)c(F)c8F)c8ccc([nH]8)c(-c8c(F)c(F)c(F)c(F)c8F)c8nc(c(-c9c(F)c(F)c(F)c(F)c9F)c9ccc6[nH]9)C=C8)C=C7)cc5)nc4c3c2C1
REMARK SMILES IDX 21 1 20 2 19 3 18 4 17 5 15 6 16 7 14 8 13 9 12 10 1 11 2 12
REMARK SMILES IDX 3 13 93 14 4 15 92 16 5 17 91 18 6 19 7 20 90 21 8 22 10 23
REMARK SMILES IDX 89 24 9 25 11 26 22 27 23 28 24 29 25 30 26 31 27 32 88 33
REMARK SMILES IDX 28 34 87 35 29 36 30 37 31 38 81 39 32 40 86 41 80 42 82 43
REMARK SMILES IDX 33 44 85 45 79 46 78 47 34 49 66 50 46 51 65 52 47 53 50 54
REMARK SMILES IDX 64 55 83 56 48 57 49 58 63 60 84 61 51 62 35 63 36 64 44 65
REMARK SMILES IDX 37 66 38 67 42 68 45 69 39 70 40 71 43 72 41 73 67 74 68 75
REMARK SMILES IDX 76 76 69 77 70 78 74 79 77 80 71 81 72 82 75 83 73 84 52 85
REMARK SMILES IDX 53 86 61 87 54 88 55 89 59 90 62 91 56 92 57 93 60 94 58 95
REMARK H PARENT 82 48 50 59
REMARK Flexibility Score: inf
ROOT
ATOM      1  C   UNL     1       5.840  -0.381   2.179  1.00  0.00     0.202 C 
ENDROOT
BRANCH   1   2
ATOM      2  O   UNL     1       4.865   0.481   1.610  1.00  0.00    -0.374 OA
BRANCH   2   3
ATOM      3  C   UNL     1       3.792  -0.126   0.912  1.00  0.00     0.202 C 
BRANCH   3   4
ATOM      4  C   UNL     1       4.077  -0.866  -0.393  1.00  0.00     0.261 C 
BRANCH   4   5
ATOM      5  O   UNL     1       5.005  -1.937  -0.362  1.00  0.00    -0.460 OA
BRANCH   5   6
ATOM      6  C   UNL     1       6.276  -1.800  -0.702  1.00  0.00     0.330 C 
ATOM      7  O   UNL     1       6.830  -0.775  -1.110  1.00  0.00    -0.247 OA
BRANCH   6   8
ATOM      8  C   UNL     1       7.014  -3.015  -0.282  1.00  0.00     0.097 C 
ATOM      9  C   UNL     1       6.588  -4.241   0.091  1.00  0.00     0.058 C 
BRANCH   9  10
ATOM     10  C   UNL     1       5.292  -4.862   0.167  1.00  0.00     0.175 A 
ATOM     11  C   UNL     1      -0.129  -1.489  -1.935  1.00  0.00     0.008 C 
ATOM     12  C   UNL     1       0.107  -1.541  -0.419  1.00  0.00    -0.009 C 
ATOM     13  C   UNL     1      -1.155  -1.863   0.399  1.00  0.00     0.009 C 
ATOM     14  C   UNL     1       1.224  -2.519  -0.058  1.00  0.00     0.041 C 
ATOM     15  C   UNL     1      -1.639  -3.331   0.250  1.00  0.00     0.047 C 
ATOM     16  C   UNL     1       0.829  -3.912   0.174  1.00  0.00    -0.020 A 
ATOM     17  C   UNL     1      -0.483  -4.296   0.294  1.00  0.00     0.011 A 
ATOM     18  C   UNL     1       1.715  -5.000   0.273  1.00  0.00     0.060 A 
ATOM     19  S   UNL     1      -0.622  -6.000   0.415  1.00  0.00    -0.120 S 
ATOM     20  C   UNL     1       1.088  -6.229   0.346  1.00  0.00     0.129 A 
ATOM     21  C   UNL     1       3.189  -5.059   0.253  1.00  0.00     0.168 A 
ATOM     22  N   UNL     1       1.697  -7.466   0.356  1.00  0.00    -0.225 NA
ATOM     23  N   UNL     1       3.761  -6.288   0.255  1.00  0.00    -0.201 N 
ATOM     24  N   UNL     1       4.119  -4.139   0.230  1.00  0.00    -0.207 NA
ATOM     25  C   UNL     1       3.011  -7.466   0.294  1.00  0.00     0.227 A 
ATOM     26  N   UNL     1       5.108  -6.201   0.221  1.00  0.00    -0.145 NA
ENDBRANCH   9  10
ENDBRANCH   6   8
ENDBRANCH   5   6
ENDBRANCH   4   5
ENDBRANCH   3   4
ENDBRANCH   2   3
ENDBRANCH   1   2
BRANCH   1  27
ATOM     27  C   UNL     1       5.457  -1.203   3.393  1.00  0.00     0.261 C 
BRANCH  27  28
ATOM     28  O   UNL     1       4.402  -2.110   3.103  1.00  0.00    -0.460 OA
BRANCH  28  29
ATOM     29  C   UNL     1       3.213  -1.788   3.660  1.00  0.00     0.338 C 
ATOM     30  O   UNL     1       2.805  -0.686   3.981  1.00  0.00    -0.246 OA
BRANCH  29  31
ATOM     31  C   UNL     1       2.574  -3.028   4.076  1.00  0.00     0.060 A 
ATOM     32  C   UNL     1       1.280  -2.990   4.593  1.00  0.00     0.016 A 
ATOM     33  C   UNL     1       3.392  -4.128   4.277  1.00  0.00     0.016 A 
ATOM     34  C   UNL     1       1.004  -3.832   5.661  1.00  0.00     0.010 A 
ATOM     35  C   UNL     1       2.941  -5.081   5.131  1.00  0.00     0.010 A 
ATOM     36  C   UNL     1       1.988  -4.738   6.071  1.00  0.00    -0.014 A 
BRANCH  36  37
ATOM     37  C   UNL     1       1.819  -5.681   7.175  1.00  0.00     0.031 A 
ATOM     38  C   UNL     1       0.747  -6.644   6.763  1.00  0.00     0.074 A 
ATOM     39  C   UNL     1       2.571  -5.689   8.319  1.00  0.00     0.049 A 
ATOM     40  N   UNL     1      -0.496  -6.542   7.104  1.00  0.00    -0.248 NA
ATOM     41  C   UNL     1       0.930  -7.555   5.606  1.00  0.00     0.031 C 
ATOM     42  C   UNL     1       3.692  -4.835   8.772  1.00  0.00     0.029 A 
ATOM     43  N   UNL     1       2.446  -6.528   9.413  1.00  0.00    -0.354 N 
ATOM     44  C   UNL     1      -1.157  -7.575   6.450  1.00  0.00     0.074 A 
ATOM     45  C   UNL     1      -0.321  -7.952   5.356  1.00  0.00     0.031 C 
ATOM     46  C   UNL     1       4.300  -5.372   9.871  1.00  0.00     0.029 A 
ATOM     47  C   UNL     1       3.551  -6.535  10.308  1.00  0.00     0.049 A 
ATOM     48  H   UNL     1       1.646  -7.082   9.561  1.00  0.00     0.167 HD
ATOM     49  C   UNL     1      -2.127  -8.262   7.112  1.00  0.00     0.037 A 
ATOM     50  C   UNL     1       3.717  -7.351  11.405  1.00  0.00     0.037 A 
ATOM     51  C   UNL     1      -2.567  -7.482   8.244  1.00  0.00     0.049 A 
ATOM     52  C   UNL     1       2.352  -7.855  11.737  1.00  0.00     0.074 A 
ATOM     53  C   UNL     1      -3.211  -6.272   8.400  1.00  0.00     0.029 A 
ATOM     54  N   UNL     1      -1.859  -7.702   9.397  1.00  0.00    -0.354 N 
ATOM     55  N   UNL     1       1.414  -7.052  12.166  1.00  0.00    -0.248 NA
ATOM     56  C   UNL     1       1.917  -9.025  10.981  1.00  0.00     0.031 C 
ATOM     57  C   UNL     1      -2.538  -5.625   9.481  1.00  0.00     0.029 A 
ATOM     58  C   UNL     1      -1.627  -6.518  10.044  1.00  0.00     0.049 A 
ATOM     59  H   UNL     1      -1.559  -8.585   9.714  1.00  0.00     0.167 HD
ATOM     60  C   UNL     1       0.334  -7.333  11.345  1.00  0.00     0.074 A 
ATOM     61  C   UNL     1       0.721  -8.551  10.614  1.00  0.00     0.031 C 
ATOM     62  C   UNL     1      -0.606  -6.382  11.056  1.00  0.00     0.037 A 
BRANCH  49  63
ATOM     63  C   UNL     1      -2.285  -9.769   7.068  1.00  0.00     0.064 A 
ATOM     64  C   UNL     1      -3.368 -10.352   7.755  1.00  0.00     0.173 A 
ATOM     65  C   UNL     1      -1.286 -10.675   6.643  1.00  0.00     0.173 A 
ATOM     66  F   UNL     1      -4.356  -9.586   8.241  1.00  0.00    -0.203 F 
ATOM     67  C   UNL     1      -3.422 -11.722   8.034  1.00  0.00     0.198 A 
ATOM     68  C   UNL     1      -1.365 -12.048   6.884  1.00  0.00     0.198 A 
ATOM     69  F   UNL     1      -0.142 -10.274   6.079  1.00  0.00    -0.203 F 
ATOM     70  F   UNL     1      -4.422 -12.210   8.780  1.00  0.00    -0.200 F 
ATOM     71  C   UNL     1      -2.421 -12.569   7.597  1.00  0.00     0.200 A 
ATOM     72  F   UNL     1      -0.365 -12.846   6.480  1.00  0.00    -0.200 F 
ATOM     73  F   UNL     1      -2.450 -13.874   7.896  1.00  0.00    -0.200 F 
ENDBRANCH  49  63
BRANCH  50  74
ATOM     74  C   UNL     1       4.927  -8.143  11.833  1.00  0.00     0.064 A 
ATOM     75  C   UNL     1       4.997  -8.879  13.044  1.00  0.00     0.173 A 
ATOM     76  C   UNL     1       5.920  -8.453  10.889  1.00  0.00     0.173 A 
ATOM     77  F   UNL     1       4.076  -8.697  14.004  1.00  0.00    -0.203 F 
ATOM     78  C   UNL     1       5.976  -9.869  13.268  1.00  0.00     0.198 A 
ATOM     79  C   UNL     1       6.882  -9.448  11.105  1.00  0.00     0.198 A 
ATOM     80  F   UNL     1       5.917  -7.857   9.690  1.00  0.00    -0.203 F 
ATOM     81  F   UNL     1       5.986 -10.576  14.409  1.00  0.00    -0.200 F 
ATOM     82  C   UNL     1       6.905 -10.165  12.286  1.00  0.00     0.200 A 
ATOM     83  F   UNL     1       7.747  -9.749  10.127  1.00  0.00    -0.200 F 
ATOM     84  F   UNL     1       7.791 -11.158  12.456  1.00  0.00    -0.200 F 
ENDBRANCH  50  74
BRANCH  62  85
ATOM     85  C   UNL     1      -0.539  -5.070  11.797  1.00  0.00     0.064 A 
ATOM     86  C   UNL     1       0.470  -4.099  11.651  1.00  0.00     0.173 A 
ATOM     87  C   UNL     1      -1.630  -4.731  12.604  1.00  0.00     0.173 A 
ATOM     88  F   UNL     1       1.484  -4.283  10.797  1.00  0.00    -0.203 F 
ATOM     89  C   UNL     1       0.419  -2.883  12.341  1.00  0.00     0.198 A 
ATOM     90  C   UNL     1      -1.699  -3.507  13.261  1.00  0.00     0.198 A 
ATOM     91  F   UNL     1      -2.664  -5.578  12.713  1.00  0.00    -0.203 F 
ATOM     92  F   UNL     1       1.401  -1.979  12.196  1.00  0.00    -0.200 F 
ATOM     93  C   UNL     1      -0.665  -2.592  13.151  1.00  0.00     0.200 A 
ATOM     94  F   UNL     1      -2.787  -3.205  13.982  1.00  0.00    -0.200 F 
ATOM     95  F   UNL     1      -0.729  -1.423  13.804  1.00  0.00    -0.200 F 
ENDBRANCH  62  85
ENDBRANCH  36  37
ENDBRANCH  29  31
ENDBRANCH  28  29
ENDBRANCH  27  28
ENDBRANCH   1  27
TORSDOF 15
