REMARK SMILES O=C(OCCOCCOC(=O)c1cnc(OCC2CC2)c(Cl)c1)c1ccc(-c2c3nc(c(-c4c(F)c(F)c(F)c(F)c4F)c4ccc([nH]4)c(-c4c(F)c(F)c(F)c(F)c4F)c4nc(c(-c5c(F)c(F)c(F)c(F)c5F)c5ccc2[nH]5)C=C4)C=C3)cc1
REMARK SMILES IDX 7 1 6 2 5 3 4 4 3 5 2 6 1 7 24 8 25 9 86 10 26 11 85 12
REMARK SMILES IDX 27 13 28 14 29 15 79 16 30 17 84 18 78 19 80 20 31 21 83 22
REMARK SMILES IDX 77 23 76 24 32 26 64 27 44 28 63 29 45 30 48 31 62 32 81 33
REMARK SMILES IDX 46 34 47 35 61 37 82 38 49 39 33 40 34 41 42 42 35 43 36 44
REMARK SMILES IDX 40 45 43 46 37 47 38 48 41 49 39 50 65 51 66 52 74 53 67 54
REMARK SMILES IDX 68 55 72 56 75 57 69 58 70 59 73 60 71 61 50 62 51 63 59 64
REMARK SMILES IDX 52 65 53 66 57 67 60 68 54 69 55 70 58 71 56 72 8 73 9 74
REMARK SMILES IDX 10 75 11 76 12 77 13 78 23 79 14 80 21 81 15 82 22 83 16 84
REMARK SMILES IDX 17 85 18 86 19 87 20 88
REMARK H PARENT 80 25 48 36
REMARK Flexibility Score: inf
ROOT
ATOM      1  C   UNL     1       2.609   1.826   1.102  1.00  0.00     0.202 C 
ENDROOT
BRANCH   1   2
ATOM      2  O   UNL     1       3.958   1.511   0.741  1.00  0.00    -0.374 OA
BRANCH   2   3
ATOM      3  C   UNL     1       4.240   1.432  -0.657  1.00  0.00     0.202 C 
BRANCH   3   4
ATOM      4  C   UNL     1       3.897   0.090  -1.317  1.00  0.00     0.261 C 
BRANCH   4   5
ATOM      5  O   UNL     1       2.525  -0.268  -1.073  1.00  0.00    -0.460 OA
BRANCH   5   6
ATOM      6  C   UNL     1       2.043  -1.160  -0.172  1.00  0.00     0.338 C 
ATOM      7  O   UNL     1       0.833  -1.376  -0.136  1.00  0.00    -0.246 OA
BRANCH   6   8
ATOM      8  C   UNL     1       2.913  -1.895   0.792  1.00  0.00     0.060 A 
ATOM      9  C   UNL     1       4.127  -1.409   1.266  1.00  0.00     0.016 A 
ATOM     10  C   UNL     1       2.442  -3.108   1.322  1.00  0.00     0.016 A 
ATOM     11  C   UNL     1       4.898  -2.112   2.162  1.00  0.00     0.010 A 
ATOM     12  C   UNL     1       3.184  -3.802   2.288  1.00  0.00     0.010 A 
ATOM     13  C   UNL     1       4.421  -3.298   2.701  1.00  0.00    -0.014 A 
BRANCH  13  14
ATOM     14  C   UNL     1       5.339  -3.985   3.620  1.00  0.00     0.031 A 
ATOM     15  C   UNL     1       6.080  -5.178   3.114  1.00  0.00     0.074 A 
ATOM     16  C   UNL     1       5.661  -3.377   4.777  1.00  0.00     0.049 A 
ATOM     17  N   UNL     1       6.977  -5.909   3.716  1.00  0.00    -0.248 NA
ATOM     18  C   UNL     1       5.794  -5.590   1.728  1.00  0.00     0.031 C 
ATOM     19  C   UNL     1       5.088  -2.110   5.251  1.00  0.00     0.029 A 
ATOM     20  N   UNL     1       6.589  -3.694   5.730  1.00  0.00    -0.354 N 
ATOM     21  C   UNL     1       7.347  -6.875   2.793  1.00  0.00     0.074 A 
ATOM     22  C   UNL     1       6.571  -6.653   1.595  1.00  0.00     0.031 C 
ATOM     23  C   UNL     1       5.702  -1.745   6.386  1.00  0.00     0.029 A 
ATOM     24  C   UNL     1       6.642  -2.790   6.764  1.00  0.00     0.049 A 
ATOM     25  H   UNL     1       7.163  -4.492   5.681  1.00  0.00     0.167 HD
ATOM     26  C   UNL     1       8.262  -7.858   2.949  1.00  0.00     0.037 A 
ATOM     27  C   UNL     1       7.345  -2.839   7.909  1.00  0.00     0.037 A 
ATOM     28  C   UNL     1       9.010  -8.044   4.162  1.00  0.00     0.049 A 
ATOM     29  C   UNL     1       8.256  -4.021   8.106  1.00  0.00     0.074 A 
ATOM     30  C   UNL     1       9.889  -9.056   4.494  1.00  0.00     0.029 A 
ATOM     31  N   UNL     1       8.960  -7.177   5.249  1.00  0.00    -0.354 N 
ATOM     32  N   UNL     1       8.534  -4.998   7.274  1.00  0.00    -0.248 NA
ATOM     33  C   UNL     1       8.943  -4.116   9.397  1.00  0.00     0.031 C 
ATOM     34  C   UNL     1      10.334  -8.828   5.801  1.00  0.00     0.029 A 
ATOM     35  C   UNL     1       9.783  -7.640   6.261  1.00  0.00     0.049 A 
ATOM     36  H   UNL     1       8.420  -6.356   5.292  1.00  0.00     0.167 HD
ATOM     37  C   UNL     1       9.436  -5.818   7.933  1.00  0.00     0.074 A 
ATOM     38  C   UNL     1       9.686  -5.199   9.221  1.00  0.00     0.031 C 
ATOM     39  C   UNL     1      10.001  -6.982   7.526  1.00  0.00     0.037 A 
BRANCH  26  40
ATOM     40  C   UNL     1       8.426  -8.824   1.815  1.00  0.00     0.064 A 
ATOM     41  C   UNL     1       9.029  -8.455   0.603  1.00  0.00     0.173 A 
ATOM     42  C   UNL     1       7.937 -10.134   1.931  1.00  0.00     0.173 A 
ATOM     43  F   UNL     1       9.480  -7.204   0.426  1.00  0.00    -0.203 F 
ATOM     44  C   UNL     1       9.113  -9.354  -0.458  1.00  0.00     0.198 A 
ATOM     45  C   UNL     1       8.049 -11.039   0.879  1.00  0.00     0.198 A 
ATOM     46  F   UNL     1       7.337 -10.534   3.063  1.00  0.00    -0.203 F 
ATOM     47  F   UNL     1       9.637  -8.961  -1.628  1.00  0.00    -0.200 F 
ATOM     48  C   UNL     1       8.629 -10.646  -0.317  1.00  0.00     0.200 A 
ATOM     49  F   UNL     1       7.580 -12.287   1.018  1.00  0.00    -0.200 F 
ATOM     50  F   UNL     1       8.706 -11.508  -1.340  1.00  0.00    -0.200 F 
ENDBRANCH  26  40
BRANCH  27  51
ATOM     51  C   UNL     1       7.146  -1.814   8.971  1.00  0.00     0.064 A 
ATOM     52  C   UNL     1       8.200  -1.012   9.431  1.00  0.00     0.173 A 
ATOM     53  C   UNL     1       5.895  -1.652   9.591  1.00  0.00     0.173 A 
ATOM     54  F   UNL     1       9.421  -1.135   8.890  1.00  0.00    -0.203 F 
ATOM     55  C   UNL     1       8.021  -0.120  10.489  1.00  0.00     0.198 A 
ATOM     56  C   UNL     1       5.707  -0.732  10.620  1.00  0.00     0.198 A 
ATOM     57  F   UNL     1       4.847  -2.391   9.198  1.00  0.00    -0.203 F 
ATOM     58  F   UNL     1       9.064   0.580  10.956  1.00  0.00    -0.200 F 
ATOM     59  C   UNL     1       6.774   0.022  11.080  1.00  0.00     0.200 A 
ATOM     60  F   UNL     1       4.496  -0.589  11.175  1.00  0.00    -0.200 F 
ATOM     61  F   UNL     1       6.605   0.871  12.102  1.00  0.00    -0.200 F 
ENDBRANCH  27  51
BRANCH  39  62
ATOM     62  C   UNL     1      10.963  -7.626   8.479  1.00  0.00     0.064 A 
ATOM     63  C   UNL     1      10.533  -8.211   9.678  1.00  0.00     0.173 A 
ATOM     64  C   UNL     1      12.332  -7.674   8.172  1.00  0.00     0.173 A 
ATOM     65  F   UNL     1       9.236  -8.175  10.021  1.00  0.00    -0.203 F 
ATOM     66  C   UNL     1      11.445  -8.784  10.558  1.00  0.00     0.198 A 
ATOM     67  C   UNL     1      13.234  -8.285   9.035  1.00  0.00     0.198 A 
ATOM     68  F   UNL     1      12.790  -7.136   7.032  1.00  0.00    -0.203 F 
ATOM     69  F   UNL     1      11.022  -9.276  11.730  1.00  0.00    -0.200 F 
ATOM     70  C   UNL     1      12.793  -8.828  10.232  1.00  0.00     0.200 A 
ATOM     71  F   UNL     1      14.533  -8.344   8.710  1.00  0.00    -0.200 F 
ATOM     72  F   UNL     1      13.669  -9.386  11.078  1.00  0.00    -0.200 F 
ENDBRANCH  39  62
ENDBRANCH  13  14
ENDBRANCH   6   8
ENDBRANCH   5   6
ENDBRANCH   4   5
ENDBRANCH   3   4
ENDBRANCH   2   3
ENDBRANCH   1   2
BRANCH   1  73
ATOM     73  C   UNL     1       2.609   2.994   2.091  1.00  0.00     0.261 C 
BRANCH  73  74
ATOM     74  O   UNL     1       3.227   4.125   1.460  1.00  0.00    -0.460 OA
BRANCH  74  75
ATOM     75  C   UNL     1       4.581   4.139   1.526  1.00  0.00     0.339 C 
ATOM     76  O   UNL     1       5.309   3.509   2.277  1.00  0.00    -0.246 OA
BRANCH  75  77
ATOM     77  C   UNL     1       5.064   4.923   0.392  1.00  0.00     0.080 A 
ATOM     78  C   UNL     1       6.093   4.441  -0.388  1.00  0.00     0.131 A 
ATOM     79  C   UNL     1       4.510   6.152   0.070  1.00  0.00     0.043 A 
ATOM     80  N   UNL     1       6.543   5.085  -1.488  1.00  0.00    -0.220 NA
ATOM     81  C   UNL     1       5.027   6.888  -1.000  1.00  0.00     0.104 A 
ATOM     82  C   UNL     1       6.017   6.304  -1.799  1.00  0.00     0.232 A 
ATOM     83  Cl  UNL     1       4.413   8.496  -1.100  1.00  0.00    -0.078 Cl
BRANCH  82  84
ATOM     84  O   UNL     1       6.615   6.767  -2.921  1.00  0.00    -0.476 OA
BRANCH  84  85
ATOM     85  C   UNL     1       6.235   7.966  -3.580  1.00  0.00     0.235 C 
BRANCH  85  86
ATOM     86  C   UNL     1       4.919   7.831  -4.293  1.00  0.00     0.027 C 
ATOM     87  C   UNL     1       4.800   8.185  -5.753  1.00  0.00     0.007 C 
ATOM     88  C   UNL     1       4.690   6.751  -5.316  1.00  0.00     0.007 C 
ENDBRANCH  85  86
ENDBRANCH  84  85
ENDBRANCH  82  84
ENDBRANCH  75  77
ENDBRANCH  74  75
ENDBRANCH  73  74
ENDBRANCH   1  73
TORSDOF 17
