REMARK SMILES COc1ccccc1C(=O)N/C(=C/c1ccc2c(c1)OCO2)C(=O)Nc1ccc(C(=O)OCCOCCOC(=O)c2ccc(-c3c4nc(c(-c5c(F)c(F)c(F)c(F)c5F)c5ccc([nH]5)c(-c5c(F)c(F)c(F)c(F)c5F)c5nc(c(-c6c(F)c(F)c(F)c(F)c6F)c6ccc3[nH]6)C=C5)C=C4)cc2)cc1
REMARK SMILES IDX 33 1 32 2 30 3 31 4 29 5 26 6 27 7 105 8 28 9 104 10 25 11
REMARK SMILES IDX 23 12 24 13 12 15 13 16 11 17 9 18 10 19 8 21 3 22 4 23 5 24
REMARK SMILES IDX 7 25 6 26 2 27 1 28 14 29 15 30 19 31 16 32 18 33 17 34
REMARK SMILES IDX 20 35 22 36 21 37 34 38 35 39 36 40 37 41 38 42 39 43 40 44
REMARK SMILES IDX 41 45 42 46 103 47 43 48 102 49 44 50 45 51 46 52 96 53
REMARK SMILES IDX 47 54 101 55 95 56 97 57 48 58 100 59 94 60 93 61 49 63
REMARK SMILES IDX 81 64 61 65 80 66 62 67 65 68 79 69 98 70 63 71 64 72 78 74
REMARK SMILES IDX 99 75 66 76 50 77 51 78 59 79 52 80 53 81 57 82 60 83 54 84
REMARK SMILES IDX 55 85 58 86 56 87 82 88 83 89 91 90 84 91 85 92 89 93 92 94
REMARK SMILES IDX 86 95 87 96 90 97 88 98 67 99 68 100 76 101 69 102 70 103
REMARK SMILES IDX 74 104 77 105 71 106 72 107 75 108 73 109
REMARK H PARENT 25 14 11 20 97 62 65 73
REMARK Flexibility Score: inf
ROOT
ATOM      1  C   UNL     1      -2.588   7.437  -2.266  1.00  0.00     0.261 C 
ENDROOT
BRANCH   1   2
ATOM      2  O   UNL     1      -2.030   6.311  -1.585  1.00  0.00    -0.460 OA
BRANCH   2   3
ATOM      3  C   UNL     1      -2.311   6.268  -0.260  1.00  0.00     0.338 C 
ATOM      4  O   UNL     1      -2.727   7.160   0.454  1.00  0.00    -0.246 OA
BRANCH   3   5
ATOM      5  C   UNL     1      -2.205   4.878   0.160  1.00  0.00     0.060 A 
ATOM      6  C   UNL     1      -1.769   1.167   1.222  1.00  0.00     0.041 A 
ATOM      7  C   UNL     1      -2.724   2.186   1.945  1.00  0.00     0.027 A 
ATOM      8  C   UNL     1      -1.238   1.834   0.011  1.00  0.00     0.027 A 
ATOM      9  C   UNL     1      -3.002   4.177   1.460  1.00  0.00     0.018 A 
ATOM     10  C   UNL     1      -1.311   3.735  -0.591  1.00  0.00     0.018 A 
BRANCH   6  11
ATOM     11  N   UNL     1      -0.774   0.329   1.820  1.00  0.00    -0.321 N 
ATOM     12  C   UNL     1       0.076  -0.335   0.937  1.00  0.00     0.272 C 
ATOM     13  O   UNL     1      -0.455  -1.308   0.397  1.00  0.00    -0.267 OA
ATOM     14  H   UNL     1      -0.695   0.228   2.796  1.00  0.00     0.170 HD
BRANCH  12  15
ATOM     15  C   UNL     1       1.410   0.291   0.293  1.00  0.00     0.108 C 
ATOM     16  C   UNL     1       1.537   1.395  -0.531  1.00  0.00     0.040 C 
BRANCH  15  17
ATOM     17  N   UNL     1       2.627  -0.386   0.408  1.00  0.00    -0.317 N 
ATOM     18  C   UNL     1       3.135  -1.588   0.828  1.00  0.00     0.259 C 
ATOM     19  O   UNL     1       4.368  -1.681   0.847  1.00  0.00    -0.269 OA
ATOM     20  H   UNL     1       3.358   0.187   0.082  1.00  0.00     0.170 HD
BRANCH  18  21
ATOM     21  C   UNL     1       2.353  -2.731   1.311  1.00  0.00     0.082 A 
ATOM     22  C   UNL     1       1.227  -3.289   0.721  1.00  0.00     0.131 A 
ATOM     23  C   UNL     1       0.377  -4.040   1.550  1.00  0.00     0.047 A 
ATOM     24  C   UNL     1       0.767  -4.454   2.823  1.00  0.00     0.004 A 
ATOM     25  C   UNL     1       2.829  -3.286   2.519  1.00  0.00     0.018 A 
ATOM     26  C   UNL     1       2.050  -4.171   3.259  1.00  0.00     0.001 A 
BRANCH  22  27
ATOM     27  O   UNL     1       0.781  -3.265  -0.568  1.00  0.00    -0.496 OA
ATOM     28  C   UNL     1       1.391  -2.491  -1.585  1.00  0.00     0.278 C 
ENDBRANCH  22  27
ENDBRANCH  18  21
ENDBRANCH  15  17
BRANCH  16  29
ATOM     29  C   UNL     1       0.544   2.509  -0.814  1.00  0.00    -0.019 A 
ATOM     30  C   UNL     1      -0.826   2.169  -2.033  1.00  0.00     0.012 A 
ATOM     31  C   UNL     1       0.299   3.175   0.854  1.00  0.00     0.058 A 
ATOM     32  C   UNL     1      -2.601   2.284  -1.555  1.00  0.00     0.051 A 
ATOM     33  C   UNL     1      -1.337   3.320   1.365  1.00  0.00     0.166 A 
ATOM     34  C   UNL     1      -2.918   2.816   0.129  1.00  0.00     0.165 A 
ATOM     35  O   UNL     1      -2.072   3.601   3.050  1.00  0.00    -0.454 OA
ATOM     36  O   UNL     1      -4.431   2.879   1.120  1.00  0.00    -0.454 OA
ATOM     37  C   UNL     1      -3.986   3.282   2.932  1.00  0.00     0.468 C 
ENDBRANCH  16  29
ENDBRANCH  12  15
ENDBRANCH   6  11
ENDBRANCH   3   5
ENDBRANCH   2   3
ENDBRANCH   1   2
BRANCH   1  38
ATOM     38  C   UNL     1      -3.989   7.108  -2.794  1.00  0.00     0.202 C 
BRANCH  38  39
ATOM     39  O   UNL     1      -4.936   6.636  -1.834  1.00  0.00    -0.374 OA
BRANCH  39  40
ATOM     40  C   UNL     1      -4.986   5.215  -1.662  1.00  0.00     0.202 C 
BRANCH  40  41
ATOM     41  C   UNL     1      -5.910   4.458  -2.620  1.00  0.00     0.261 C 
BRANCH  41  42
ATOM     42  O   UNL     1      -5.333   4.394  -3.939  1.00  0.00    -0.460 OA
BRANCH  42  43
ATOM     43  C   UNL     1      -5.809   5.317  -4.806  1.00  0.00     0.338 C 
ATOM     44  O   UNL     1      -6.732   6.094  -4.632  1.00  0.00    -0.246 OA
BRANCH  43  45
ATOM     45  C   UNL     1      -4.904   5.411  -5.966  1.00  0.00     0.060 A 
ATOM     46  C   UNL     1      -4.450   6.687  -6.327  1.00  0.00     0.016 A 
ATOM     47  C   UNL     1      -4.550   4.292  -6.720  1.00  0.00     0.016 A 
ATOM     48  C   UNL     1      -3.690   6.858  -7.479  1.00  0.00     0.010 A 
ATOM     49  C   UNL     1      -3.794   4.466  -7.882  1.00  0.00     0.010 A 
ATOM     50  C   UNL     1      -3.396   5.754  -8.287  1.00  0.00    -0.014 A 
BRANCH  50  51
ATOM     51  C   UNL     1      -2.803   5.968  -9.629  1.00  0.00     0.031 A 
ATOM     52  C   UNL     1      -3.682   5.847 -10.842  1.00  0.00     0.074 A 
ATOM     53  C   UNL     1      -1.505   6.291  -9.761  1.00  0.00     0.049 A 
ATOM     54  N   UNL     1      -3.368   5.930 -12.110  1.00  0.00    -0.248 NA
ATOM     55  C   UNL     1      -5.110   5.592 -10.592  1.00  0.00     0.031 C 
ATOM     56  C   UNL     1      -0.567   6.482  -8.657  1.00  0.00     0.029 A 
ATOM     57  N   UNL     1      -0.751   6.505 -10.887  1.00  0.00    -0.354 N 
ATOM     58  C   UNL     1      -4.552   5.724 -12.806  1.00  0.00     0.074 A 
ATOM     59  C   UNL     1      -5.585   5.477 -11.823  1.00  0.00     0.031 C 
ATOM     60  C   UNL     1       0.643   6.776  -9.161  1.00  0.00     0.029 A 
ATOM     61  C   UNL     1       0.574   6.749 -10.620  1.00  0.00     0.049 A 
ATOM     62  H   UNL     1      -1.123   6.487 -11.798  1.00  0.00     0.167 HD
ATOM     63  C   UNL     1      -4.757   5.747 -14.145  1.00  0.00     0.037 A 
ATOM     64  C   UNL     1       1.615   6.901 -11.461  1.00  0.00     0.037 A 
ATOM     65  C   UNL     1      -3.722   5.995 -15.115  1.00  0.00     0.049 A 
ATOM     66  C   UNL     1       1.374   6.840 -12.948  1.00  0.00     0.074 A 
ATOM     67  C   UNL     1      -3.831   6.063 -16.493  1.00  0.00     0.029 A 
ATOM     68  N   UNL     1      -2.385   6.205 -14.809  1.00  0.00    -0.354 N 
ATOM     69  N   UNL     1       0.249   6.670 -13.601  1.00  0.00    -0.248 NA
ATOM     70  C   UNL     1       2.550   6.995 -13.816  1.00  0.00     0.031 C 
ATOM     71  C   UNL     1      -2.549   6.238 -17.024  1.00  0.00     0.029 A 
ATOM     72  C   UNL     1      -1.653   6.364 -15.975  1.00  0.00     0.049 A 
ATOM     73  H   UNL     1      -2.012   6.235 -13.899  1.00  0.00     0.167 HD
ATOM     74  C   UNL     1       0.575   6.735 -14.951  1.00  0.00     0.074 A 
ATOM     75  C   UNL     1       2.001   6.974 -15.022  1.00  0.00     0.031 C 
ATOM     76  C   UNL     1      -0.233   6.611 -16.032  1.00  0.00     0.037 A 
BRANCH  63  77
ATOM     77  C   UNL     1      -6.146   5.463 -14.644  1.00  0.00     0.064 A 
ATOM     78  C   UNL     1      -7.210   6.354 -14.432  1.00  0.00     0.173 A 
ATOM     79  C   UNL     1      -6.407   4.299 -15.383  1.00  0.00     0.173 A 
ATOM     80  F   UNL     1      -7.020   7.477 -13.723  1.00  0.00    -0.203 F 
ATOM     81  C   UNL     1      -8.487   6.074 -14.914  1.00  0.00     0.198 A 
ATOM     82  C   UNL     1      -7.676   4.040 -15.895  1.00  0.00     0.198 A 
ATOM     83  F   UNL     1      -5.427   3.414 -15.621  1.00  0.00    -0.203 F 
ATOM     84  F   UNL     1      -9.498   6.914 -14.652  1.00  0.00    -0.200 F 
ATOM     85  C   UNL     1      -8.717   4.923 -15.652  1.00  0.00     0.200 A 
ATOM     86  F   UNL     1      -7.891   2.936 -16.623  1.00  0.00    -0.200 F 
ATOM     87  F   UNL     1      -9.943   4.661 -16.125  1.00  0.00    -0.200 F 
ENDBRANCH  63  77
BRANCH  64  88
ATOM     88  C   UNL     1       2.985   7.107 -10.920  1.00  0.00     0.064 A 
ATOM     89  C   UNL     1       3.674   8.309 -11.129  1.00  0.00     0.173 A 
ATOM     90  C   UNL     1       3.643   6.096 -10.203  1.00  0.00     0.173 A 
ATOM     91  F   UNL     1       3.097   9.298 -11.828  1.00  0.00    -0.203 F 
ATOM     92  C   UNL     1       4.977   8.483 -10.666  1.00  0.00     0.198 A 
ATOM     93  C   UNL     1       4.932   6.285  -9.708  1.00  0.00     0.198 A 
ATOM     94  F   UNL     1       3.030   4.926  -9.972  1.00  0.00    -0.203 F 
ATOM     95  F   UNL     1       5.632   9.621 -10.931  1.00  0.00    -0.200 F 
ATOM     96  C   UNL     1       5.602   7.474  -9.950  1.00  0.00     0.200 A 
ATOM     97  F   UNL     1       5.524   5.313  -9.001  1.00  0.00    -0.200 F 
ATOM     98  F   UNL     1       6.853   7.643  -9.502  1.00  0.00    -0.200 F 
ENDBRANCH  64  88
BRANCH  76  99
ATOM     99  C   UNL     1       0.391   6.782 -17.390  1.00  0.00     0.064 A 
ATOM    100  C   UNL     1       1.289   5.843 -17.920  1.00  0.00     0.173 A 
ATOM    101  C   UNL     1       0.051   7.885 -18.191  1.00  0.00     0.173 A 
ATOM    102  F   UNL     1       1.658   4.776 -17.194  1.00  0.00    -0.203 F 
ATOM    103  C   UNL     1       1.847   6.018 -19.184  1.00  0.00     0.198 A 
ATOM    104  C   UNL     1       0.580   8.036 -19.469  1.00  0.00     0.198 A 
ATOM    105  F   UNL     1      -0.809   8.809 -17.739  1.00  0.00    -0.203 F 
ATOM    106  F   UNL     1       2.747   5.138 -19.645  1.00  0.00    -0.200 F 
ATOM    107  C   UNL     1       1.485   7.108 -19.961  1.00  0.00     0.200 A 
ATOM    108  F   UNL     1       0.213   9.079 -20.225  1.00  0.00    -0.200 F 
ATOM    109  F   UNL     1       2.015   7.269 -21.181  1.00  0.00    -0.200 F 
ENDBRANCH  76  99
ENDBRANCH  50  51
ENDBRANCH  43  45
ENDBRANCH  42  43
ENDBRANCH  41  42
ENDBRANCH  40  41
ENDBRANCH  39  40
ENDBRANCH  38  39
ENDBRANCH   1  38
TORSDOF 20
