REMARK SMILES CCc1cccc(C)c1Nc1ccccc1CC(=O)OCCOCCOC(=O)c1ccc(-c2c3nc(c(-c4c(F)c(F)c(F)c(F)c4F)c4ccc([nH]4)c(-c4c(F)c(F)c(F)c(F)c4F)c4nc(c(-c5c(F)c(F)c(F)c(F)c5F)c5ccc2[nH]5)C=C4)C=C3)cc1
REMARK SMILES IDX 22 1 21 2 20 3 18 4 19 5 17 6 16 7 11 8 12 9 13 10 15 11
REMARK SMILES IDX 14 12 10 13 9 15 3 16 4 17 5 18 7 19 6 20 8 21 2 22 1 23
REMARK SMILES IDX 23 24 24 25 25 26 26 27 27 28 28 29 29 30 30 31 91 32 31 33
REMARK SMILES IDX 90 34 32 35 33 36 34 37 84 38 35 39 89 40 83 41 85 42 36 43
REMARK SMILES IDX 88 44 82 45 81 46 37 48 69 49 49 50 68 51 50 52 53 53 67 54
REMARK SMILES IDX 86 55 51 56 52 57 66 59 87 60 54 61 38 62 39 63 47 64 40 65
REMARK SMILES IDX 41 66 45 67 48 68 42 69 43 70 46 71 44 72 70 73 71 74 79 75
REMARK SMILES IDX 72 76 73 77 77 78 80 79 74 80 75 81 78 82 76 83 55 84 56 85
REMARK SMILES IDX 64 86 57 87 58 88 62 89 65 90 59 91 60 92 63 93 61 94
REMARK H PARENT 10 14 85 47 53 58
REMARK Flexibility Score: inf
ROOT
ATOM      1  C   UNL     1      -1.191  -1.734   2.307  1.00  0.00     0.202 C 
ENDROOT
BRANCH   1   2
ATOM      2  C   UNL     1      -1.704  -1.094   4.093  1.00  0.00     0.261 C 
BRANCH   2   3
ATOM      3  O   UNL     1      -1.101   0.516   4.766  1.00  0.00    -0.463 OA
BRANCH   3   4
ATOM      4  C   UNL     1      -0.057   1.495   4.682  1.00  0.00     0.310 C 
ATOM      5  O   UNL     1       0.821   1.397   5.559  1.00  0.00    -0.252 OA
BRANCH   4   6
ATOM      6  C   UNL     1       0.180   2.818   3.630  1.00  0.00     0.160 C 
BRANCH   6   7
ATOM      7  C   UNL     1      -0.541   3.474   2.144  1.00  0.00    -0.013 A 
ATOM      8  C   UNL     1      -0.627   3.119   0.487  1.00  0.00     0.042 A 
ATOM      9  C   UNL     1      -1.263   4.064  -0.326  1.00  0.00     0.026 A 
ATOM     10  C   UNL     1      -1.826   5.210   0.295  1.00  0.00     0.002 A 
ATOM     11  C   UNL     1      -1.121   4.680   2.583  1.00  0.00     0.006 A 
ATOM     12  C   UNL     1      -1.775   5.499   1.681  1.00  0.00     0.000 A 
BRANCH   8  13
ATOM     13  N   UNL     1      -0.764   1.473  -0.279  1.00  0.00    -0.355 N 
ATOM     14  H   UNL     1      -0.529   1.418  -1.234  1.00  0.00     0.167 HD
BRANCH  13  15
ATOM     15  C   UNL     1      -1.304  -0.140   0.537  1.00  0.00     0.045 A 
ATOM     16  C   UNL     1      -0.241  -1.436  -0.101  1.00  0.00    -0.024 A 
ATOM     17  C   UNL     1       0.741  -2.383   1.003  1.00  0.00     0.006 A 
ATOM     18  C   UNL     1       1.055  -1.971   2.627  1.00  0.00     0.001 A 
ATOM     19  C   UNL     1      -1.341   0.138   2.460  1.00  0.00    -0.027 A 
ATOM     20  C   UNL     1       0.184  -0.664   3.377  1.00  0.00     0.005 A 
ATOM     21  C   UNL     1      -2.525   1.264   3.333  1.00  0.00     0.046 C 
BRANCH  16  22
ATOM     22  C   UNL     1       0.759  -1.242  -1.276  1.00  0.00     0.034 C 
ATOM     23  C   UNL     1       1.716  -0.052  -1.145  1.00  0.00     0.009 C 
ENDBRANCH  16  22
ENDBRANCH  13  15
ENDBRANCH   8  13
ENDBRANCH   6   7
ENDBRANCH   4   6
ENDBRANCH   3   4
ENDBRANCH   2   3
ENDBRANCH   1   2
BRANCH   1  24
ATOM     24  O   UNL     1       0.189  -0.494   1.562  1.00  0.00    -0.374 OA
BRANCH  24  25
ATOM     25  C   UNL     1      -0.159   1.235   1.567  1.00  0.00     0.202 C 
BRANCH  25  26
ATOM     26  C   UNL     1      -2.211   1.578   1.220  1.00  0.00     0.261 C 
BRANCH  26  27
ATOM     27  O   UNL     1      -3.510   0.253   1.386  1.00  0.00    -0.460 OA
BRANCH  27  28
ATOM     28  C   UNL     1      -4.362  -0.838   1.746  1.00  0.00     0.338 C 
ATOM     29  O   UNL     1      -5.373  -1.010   1.056  1.00  0.00    -0.246 OA
BRANCH  28  30
ATOM     30  C   UNL     1      -4.318  -1.883   2.980  1.00  0.00     0.060 A 
ATOM     31  C   UNL     1      -5.115  -1.755   4.122  1.00  0.00     0.016 A 
ATOM     32  C   UNL     1      -3.567  -3.066   3.081  1.00  0.00     0.016 A 
ATOM     33  C   UNL     1      -4.673  -2.223   5.413  1.00  0.00     0.010 A 
ATOM     34  C   UNL     1      -3.129  -3.558   4.369  1.00  0.00     0.010 A 
ATOM     35  C   UNL     1      -3.449  -2.868   5.549  1.00  0.00    -0.014 A 
BRANCH  35  36
ATOM     36  C   UNL     1      -2.355  -2.395   6.579  1.00  0.00     0.031 A 
ATOM     37  C   UNL     1      -1.082  -3.174   6.812  1.00  0.00     0.074 A 
ATOM     38  C   UNL     1      -2.240  -1.058   6.912  1.00  0.00     0.049 A 
ATOM     39  N   UNL     1      -0.526  -3.380   7.962  1.00  0.00    -0.248 NA
ATOM     40  C   UNL     1      -0.295  -3.777   5.729  1.00  0.00     0.031 C 
ATOM     41  C   UNL     1      -1.110  -0.237   7.434  1.00  0.00     0.029 A 
ATOM     42  N   UNL     1      -3.151  -0.041   6.579  1.00  0.00    -0.354 N 
ATOM     43  C   UNL     1       0.755  -3.878   7.720  1.00  0.00     0.074 A 
ATOM     44  C   UNL     1       0.718  -4.361   6.372  1.00  0.00     0.031 C 
ATOM     45  C   UNL     1      -1.516   1.039   7.666  1.00  0.00     0.029 A 
ATOM     46  C   UNL     1      -2.930   1.127   7.335  1.00  0.00     0.049 A 
ATOM     47  H   UNL     1      -3.858  -0.133   5.900  1.00  0.00     0.167 HD
ATOM     48  C   UNL     1       1.822  -3.545   8.517  1.00  0.00     0.037 A 
ATOM     49  C   UNL     1      -3.958   1.525   8.130  1.00  0.00     0.037 A 
ATOM     50  C   UNL     1       1.444  -2.384   9.348  1.00  0.00     0.049 A 
ATOM     51  C   UNL     1      -3.665   0.867   9.463  1.00  0.00     0.074 A 
ATOM     52  C   UNL     1       1.826  -1.052   9.352  1.00  0.00     0.029 A 
ATOM     53  N   UNL     1       0.280  -2.441  10.108  1.00  0.00    -0.354 N 
ATOM     54  N   UNL     1      -2.732  -0.042   9.593  1.00  0.00    -0.248 NA
ATOM     55  C   UNL     1      -4.203   1.266  10.753  1.00  0.00     0.031 C 
ATOM     56  C   UNL     1       0.810  -0.309  10.044  1.00  0.00     0.029 A 
ATOM     57  C   UNL     1      -0.183  -1.187  10.470  1.00  0.00     0.049 A 
ATOM     58  H   UNL     1      -0.167  -3.281  10.361  1.00  0.00     0.167 HD
ATOM     59  C   UNL     1      -2.418  -0.240  10.886  1.00  0.00     0.074 A 
ATOM     60  C   UNL     1      -3.415   0.557  11.587  1.00  0.00     0.031 C 
ATOM     61  C   UNL     1      -1.406  -1.069  11.278  1.00  0.00     0.037 A 
BRANCH  48  62
ATOM     62  C   UNL     1       3.277  -4.054   8.411  1.00  0.00     0.064 A 
ATOM     63  C   UNL     1       4.260  -3.591   9.322  1.00  0.00     0.173 A 
ATOM     64  C   UNL     1       3.763  -5.058   7.538  1.00  0.00     0.173 A 
ATOM     65  F   UNL     1       3.954  -2.700  10.275  1.00  0.00    -0.203 F 
ATOM     66  C   UNL     1       5.588  -4.057   9.332  1.00  0.00     0.198 A 
ATOM     67  C   UNL     1       5.096  -5.508   7.532  1.00  0.00     0.198 A 
ATOM     68  F   UNL     1       2.972  -5.710   6.685  1.00  0.00    -0.203 F 
ATOM     69  F   UNL     1       6.454  -3.587  10.241  1.00  0.00    -0.200 F 
ATOM     70  C   UNL     1       6.008  -5.012   8.432  1.00  0.00     0.200 A 
ATOM     71  F   UNL     1       5.472  -6.455   6.658  1.00  0.00    -0.200 F 
ATOM     72  F   UNL     1       7.266  -5.474   8.453  1.00  0.00    -0.200 F 
ENDBRANCH  48  62
BRANCH  49  73
ATOM     73  C   UNL     1      -5.195   1.619   7.269  1.00  0.00     0.064 A 
ATOM     74  C   UNL     1      -5.163   2.603   6.239  1.00  0.00     0.173 A 
ATOM     75  C   UNL     1      -6.083   0.556   7.068  1.00  0.00     0.173 A 
ATOM     76  F   UNL     1      -4.359   3.671   6.366  1.00  0.00    -0.203 F 
ATOM     77  C   UNL     1      -5.809   2.426   5.011  1.00  0.00     0.198 A 
ATOM     78  C   UNL     1      -6.788   0.421   5.857  1.00  0.00     0.198 A 
ATOM     79  F   UNL     1      -6.143  -0.450   7.950  1.00  0.00    -0.203 F 
ATOM     80  F   UNL     1      -5.586   3.282   4.002  1.00  0.00    -0.200 F 
ATOM     81  C   UNL     1      -6.589   1.309   4.806  1.00  0.00     0.200 A 
ATOM     82  F   UNL     1      -7.546  -0.668   5.651  1.00  0.00    -0.200 F 
ATOM     83  F   UNL     1      -7.074   1.040   3.584  1.00  0.00    -0.200 F 
ENDBRANCH  49  73
BRANCH  61  84
ATOM     84  C   UNL     1      -1.541  -1.855  12.544  1.00  0.00     0.064 A 
ATOM     85  C   UNL     1      -2.792  -2.121  13.126  1.00  0.00     0.173 A 
ATOM     86  C   UNL     1      -0.438  -2.508  13.132  1.00  0.00     0.173 A 
ATOM     87  F   UNL     1      -3.941  -1.760  12.535  1.00  0.00    -0.203 F 
ATOM     88  C   UNL     1      -2.909  -2.817  14.319  1.00  0.00     0.198 A 
ATOM     89  C   UNL     1      -0.577  -3.307  14.258  1.00  0.00     0.198 A 
ATOM     90  F   UNL     1       0.799  -2.421  12.622  1.00  0.00    -0.203 F 
ATOM     91  F   UNL     1      -4.109  -2.919  14.905  1.00  0.00    -0.200 F 
ATOM     92  C   UNL     1      -1.801  -3.413  14.885  1.00  0.00     0.200 A 
ATOM     93  F   UNL     1       0.484  -3.977  14.729  1.00  0.00    -0.200 F 
ATOM     94  F   UNL     1      -1.918  -4.106  16.022  1.00  0.00    -0.200 F 
ENDBRANCH  61  84
ENDBRANCH  35  36
ENDBRANCH  28  30
ENDBRANCH  27  28
ENDBRANCH  26  27
ENDBRANCH  25  26
ENDBRANCH  24  25
ENDBRANCH   1  24
TORSDOF 18
