REMARK SMILES CC(C)(C)c1ccc(C(=O)N/C(=C/c2ccc(O)cc2)C(=O)OCCOCCOC(=O)c2ccc(-c3c4nc(c(-c5c(F)c(F)c(F)c(F)c5F)c5ccc([nH]5)c(-c5c(F)c(F)c(F)c(F)c5F)c5nc(c(-c6c(F)c(F)c(F)c(F)c6F)c6ccc3[nH]6)C=C5)C=C4)cc2)cc1
REMARK SMILES IDX 25 1 24 2 23 3 21 4 22 5 12 6 13 7 11 8 9 9 10 10 8 12 5 13
REMARK SMILES IDX 6 14 96 15 7 16 95 17 2 18 1 19 3 20 4 21 14 22 15 23 20 24
REMARK SMILES IDX 16 25 19 26 17 27 18 28 26 30 27 31 28 32 29 33 30 34 31 35
REMARK SMILES IDX 32 36 33 37 94 38 34 39 93 40 35 41 36 42 37 43 87 44 38 45
REMARK SMILES IDX 92 46 86 47 88 48 39 49 91 50 85 51 84 52 40 54 72 55 52 56
REMARK SMILES IDX 71 57 53 58 56 59 70 60 89 61 54 62 55 63 69 65 90 66 57 67
REMARK SMILES IDX 41 68 42 69 50 70 43 71 44 72 48 73 51 74 45 75 46 76 49 77
REMARK SMILES IDX 47 78 73 79 74 80 82 81 75 82 76 83 80 84 83 85 77 86 78 87
REMARK SMILES IDX 81 88 79 89 58 90 59 91 67 92 60 93 61 94 65 95 68 96 62 97
REMARK SMILES IDX 63 98 66 99 64 100
REMARK H PARENT 11 11 18 29 88 53 56 64
REMARK Flexibility Score: inf
ROOT
ATOM      1  C   UNL     1       1.968   4.452   2.136  1.00  0.00     0.202 C 
ENDROOT
BRANCH   1   2
ATOM      2  C   UNL     1       0.860   4.613   3.159  1.00  0.00     0.261 C 
BRANCH   2   3
ATOM      3  O   UNL     1       1.488   4.426   4.416  1.00  0.00    -0.459 OA
BRANCH   3   4
ATOM      4  C   UNL     1       0.709   4.092   5.452  1.00  0.00     0.354 C 
ATOM      5  O   UNL     1      -0.507   4.149   5.517  1.00  0.00    -0.244 OA
BRANCH   4   6
ATOM      6  C   UNL     1       1.617   3.708   6.558  1.00  0.00     0.128 C 
ATOM      7  C   UNL     1       2.260   4.727   7.182  1.00  0.00     0.042 C 
BRANCH   6   8
ATOM      8  N   UNL     1       1.859   2.385   6.899  1.00  0.00    -0.316 N 
ATOM      9  C   UNL     1       1.660   1.138   6.312  1.00  0.00     0.255 C 
ATOM     10  O   UNL     1       2.088   0.160   6.933  1.00  0.00    -0.269 OA
ATOM     11  H   UNL     1       2.281   2.308   7.786  1.00  0.00     0.170 HD
BRANCH   9  12
ATOM     12  C   UNL     1       1.128   0.889   4.944  1.00  0.00     0.040 A 
ATOM     13  C   UNL     1       0.369   0.577   2.200  1.00  0.00    -0.043 A 
ATOM     14  C   UNL     1       1.450  -0.136   2.743  1.00  0.00     0.005 A 
ATOM     15  C   UNL     1      -0.409   1.305   3.116  1.00  0.00     0.005 A 
ATOM     16  C   UNL     1       1.825   0.018   4.093  1.00  0.00     0.014 A 
ATOM     17  C   UNL     1      -0.064   1.412   4.476  1.00  0.00     0.014 A 
BRANCH  13  18
ATOM     18  C   UNL     1       0.062   0.618   0.686  1.00  0.00    -0.013 C 
ATOM     19  C   UNL     1       0.715  -0.531  -0.114  1.00  0.00     0.016 C 
ATOM     20  C   UNL     1       0.593   1.935   0.081  1.00  0.00     0.016 C 
ATOM     21  C   UNL     1      -1.457   0.565   0.411  1.00  0.00     0.016 C 
ENDBRANCH  13  18
ENDBRANCH   9  12
ENDBRANCH   6   8
BRANCH   7  22
ATOM     22  C   UNL     1       2.252   6.153   6.749  1.00  0.00    -0.023 A 
ATOM     23  C   UNL     1       3.478   6.812   6.573  1.00  0.00     0.012 A 
ATOM     24  C   UNL     1       1.078   6.843   6.402  1.00  0.00     0.012 A 
ATOM     25  C   UNL     1       3.531   8.075   5.969  1.00  0.00     0.047 A 
ATOM     26  C   UNL     1       1.131   8.085   5.757  1.00  0.00     0.047 A 
ATOM     27  C   UNL     1       2.363   8.682   5.528  1.00  0.00     0.115 A 
BRANCH  27  28
ATOM     28  O   UNL     1       2.474   9.865   4.862  1.00  0.00    -0.508 OA
ATOM     29  H   UNL     1       3.318  10.246   4.721  1.00  0.00     0.293 HD
ENDBRANCH  27  28
ENDBRANCH   7  22
ENDBRANCH   4   6
ENDBRANCH   3   4
ENDBRANCH   2   3
ENDBRANCH   1   2
BRANCH   1  30
ATOM     30  O   UNL     1       2.648   3.195   2.112  1.00  0.00    -0.374 OA
BRANCH  30  31
ATOM     31  C   UNL     1       3.601   2.912   3.137  1.00  0.00     0.202 C 
BRANCH  31  32
ATOM     32  C   UNL     1       4.992   3.543   3.000  1.00  0.00     0.261 C 
BRANCH  32  33
ATOM     33  O   UNL     1       4.955   4.942   2.708  1.00  0.00    -0.460 OA
BRANCH  33  34
ATOM     34  C   UNL     1       4.982   5.228   1.379  1.00  0.00     0.338 C 
ATOM     35  O   UNL     1       5.176   4.463   0.458  1.00  0.00    -0.246 OA
BRANCH  34  36
ATOM     36  C   UNL     1       4.508   6.615   1.194  1.00  0.00     0.060 A 
ATOM     37  C   UNL     1       3.476   6.832   0.268  1.00  0.00     0.016 A 
ATOM     38  C   UNL     1       5.035   7.672   1.936  1.00  0.00     0.016 A 
ATOM     39  C   UNL     1       2.987   8.117   0.056  1.00  0.00     0.010 A 
ATOM     40  C   UNL     1       4.565   8.963   1.703  1.00  0.00     0.010 A 
ATOM     41  C   UNL     1       3.565   9.192   0.740  1.00  0.00    -0.014 A 
BRANCH  41  42
ATOM     42  C   UNL     1       3.281  10.577   0.307  1.00  0.00     0.031 A 
ATOM     43  C   UNL     1       4.258  11.235  -0.624  1.00  0.00     0.074 A 
ATOM     44  C   UNL     1       2.190  11.231   0.736  1.00  0.00     0.049 A 
ATOM     45  N   UNL     1       4.297  12.468  -1.056  1.00  0.00    -0.248 NA
ATOM     46  C   UNL     1       5.343  10.381  -1.137  1.00  0.00     0.031 C 
ATOM     47  C   UNL     1       1.143  10.667   1.585  1.00  0.00     0.029 A 
ATOM     48  N   UNL     1       1.795  12.527   0.524  1.00  0.00    -0.354 N 
ATOM     49  C   UNL     1       5.413  12.540  -1.880  1.00  0.00     0.074 A 
ATOM     50  C   UNL     1       6.040  11.237  -1.867  1.00  0.00     0.031 C 
ATOM     51  C   UNL     1       0.238  11.626   1.851  1.00  0.00     0.029 A 
ATOM     52  C   UNL     1       0.666  12.875   1.223  1.00  0.00     0.049 A 
ATOM     53  H   UNL     1       2.275  13.148  -0.070  1.00  0.00     0.167 HD
ATOM     54  C   UNL     1       5.867  13.599  -2.588  1.00  0.00     0.037 A 
ATOM     55  C   UNL     1       0.074  14.077   1.361  1.00  0.00     0.037 A 
ATOM     56  C   UNL     1       5.239  14.893  -2.585  1.00  0.00     0.049 A 
ATOM     57  C   UNL     1       0.658  15.269   0.642  1.00  0.00     0.074 A 
ATOM     58  C   UNL     1       5.605  16.033  -3.278  1.00  0.00     0.029 A 
ATOM     59  N   UNL     1       4.116  15.221  -1.838  1.00  0.00    -0.354 N 
ATOM     60  N   UNL     1       1.698  15.331  -0.155  1.00  0.00    -0.248 NA
ATOM     61  C   UNL     1      -0.019  16.559   0.841  1.00  0.00     0.031 C 
ATOM     62  C   UNL     1       4.742  17.067  -2.901  1.00  0.00     0.029 A 
ATOM     63  C   UNL     1       3.796  16.555  -2.026  1.00  0.00     0.049 A 
ATOM     64  H   UNL     1       3.621  14.597  -1.260  1.00  0.00     0.167 HD
ATOM     65  C   UNL     1       1.781  16.652  -0.578  1.00  0.00     0.074 A 
ATOM     66  C   UNL     1       0.676  17.355   0.040  1.00  0.00     0.031 C 
ATOM     67  C   UNL     1       2.687  17.234  -1.404  1.00  0.00     0.037 A 
BRANCH  54  68
ATOM     68  C   UNL     1       7.121  13.411  -3.392  1.00  0.00     0.064 A 
ATOM     69  C   UNL     1       7.153  12.602  -4.538  1.00  0.00     0.173 A 
ATOM     70  C   UNL     1       8.304  14.070  -3.022  1.00  0.00     0.173 A 
ATOM     71  F   UNL     1       6.055  11.936  -4.925  1.00  0.00    -0.203 F 
ATOM     72  C   UNL     1       8.328  12.439  -5.268  1.00  0.00     0.198 A 
ATOM     73  C   UNL     1       9.468  13.931  -3.773  1.00  0.00     0.198 A 
ATOM     74  F   UNL     1       8.329  14.856  -1.935  1.00  0.00    -0.203 F 
ATOM     75  F   UNL     1       8.348  11.620  -6.329  1.00  0.00    -0.200 F 
ATOM     76  C   UNL     1       9.482  13.110  -4.890  1.00  0.00     0.200 A 
ATOM     77  F   UNL     1      10.578  14.590  -3.413  1.00  0.00    -0.200 F 
ATOM     78  F   UNL     1      10.609  12.959  -5.598  1.00  0.00    -0.200 F 
ENDBRANCH  54  68
BRANCH  55  79
ATOM     79  C   UNL     1      -1.122  14.224   2.232  1.00  0.00     0.064 A 
ATOM     80  C   UNL     1      -2.374  14.553   1.694  1.00  0.00     0.173 A 
ATOM     81  C   UNL     1      -1.035  14.060   3.623  1.00  0.00     0.173 A 
ATOM     82  F   UNL     1      -2.505  14.741   0.372  1.00  0.00    -0.203 F 
ATOM     83  C   UNL     1      -3.486  14.737   2.514  1.00  0.00     0.198 A 
ATOM     84  C   UNL     1      -2.154  14.214   4.439  1.00  0.00     0.198 A 
ATOM     85  F   UNL     1       0.137  13.737   4.190  1.00  0.00    -0.203 F 
ATOM     86  F   UNL     1      -4.658  15.100   1.977  1.00  0.00    -0.200 F 
ATOM     87  C   UNL     1      -3.376  14.562   3.885  1.00  0.00     0.200 A 
ATOM     88  F   UNL     1      -2.046  14.025   5.761  1.00  0.00    -0.200 F 
ATOM     89  F   UNL     1      -4.446  14.734   4.673  1.00  0.00    -0.200 F 
ENDBRANCH  55  79
BRANCH  67  90
ATOM     90  C   UNL     1       2.499  18.691  -1.719  1.00  0.00     0.064 A 
ATOM     91  C   UNL     1       2.717  19.690  -0.758  1.00  0.00     0.173 A 
ATOM     92  C   UNL     1       2.138  19.096  -3.014  1.00  0.00     0.173 A 
ATOM     93  F   UNL     1       3.050  19.357   0.498  1.00  0.00    -0.203 F 
ATOM     94  C   UNL     1       2.549  21.036  -1.074  1.00  0.00     0.198 A 
ATOM     95  C   UNL     1       2.007  20.444  -3.335  1.00  0.00     0.198 A 
ATOM     96  F   UNL     1       1.927  18.183  -3.974  1.00  0.00    -0.203 F 
ATOM     97  F   UNL     1       2.708  21.969  -0.125  1.00  0.00    -0.200 F 
ATOM     98  C   UNL     1       2.203  21.412  -2.363  1.00  0.00     0.200 A 
ATOM     99  F   UNL     1       1.691  20.805  -4.587  1.00  0.00    -0.200 F 
ATOM    100  F   UNL     1       2.052  22.708  -2.667  1.00  0.00    -0.200 F 
ENDBRANCH  67  90
ENDBRANCH  41  42
ENDBRANCH  34  36
ENDBRANCH  33  34
ENDBRANCH  32  33
ENDBRANCH  31  32
ENDBRANCH  30  31
ENDBRANCH   1  30
TORSDOF 19
