REMARK SMILES O=C(CNC(=O)c1cccs1)N[C@@H]1C=C[C@H](C(=O)OCCOCCOC(=O)c2ccc(-c3c4nc(c(-c5c(F)c(F)c(F)c(F)c5F)c5ccc([nH]5)c(-c5c(F)c(F)c(F)c(F)c5F)c5nc(c(-c6c(F)c(F)c(F)c(F)c6F)c6ccc3[nH]6)C=C5)C=C4)cc2)C1
REMARK SMILES IDX 21 1 20 2 19 3 17 4 18 5 16 6 13 7 14 8 91 9 15 10 12 11
REMARK SMILES IDX 1 12 2 13 3 15 4 16 5 17 6 19 7 20 8 21 11 22 9 23 10 24
REMARK SMILES IDX 22 25 23 26 24 27 25 28 26 29 27 30 28 31 29 32 90 33 30 34
REMARK SMILES IDX 89 35 31 36 32 37 33 38 83 39 34 40 88 41 82 42 84 43 35 44
REMARK SMILES IDX 87 45 81 46 80 47 36 49 68 50 48 51 67 52 49 53 52 54 66 55
REMARK SMILES IDX 85 56 50 57 51 58 65 60 86 61 53 62 37 63 38 64 46 65 39 66
REMARK SMILES IDX 40 67 44 68 47 69 41 70 42 71 45 72 43 73 69 74 70 75 78 76
REMARK SMILES IDX 71 77 72 78 76 79 79 80 73 81 74 82 77 83 75 84 54 85 55 86
REMARK SMILES IDX 63 87 56 88 57 89 61 90 64 91 58 92 59 93 62 94 60 95
REMARK H PARENT 12 14 4 18 84 48 52 59
REMARK Flexibility Score: inf
ROOT
ATOM      1  C   UNL     1      -0.271  -1.505   7.393  1.00  0.00     0.202 C 
ENDROOT
BRANCH   1   2
ATOM      2  C   UNL     1       0.264  -0.254   6.690  1.00  0.00     0.261 C 
BRANCH   2   3
ATOM      3  O   UNL     1       1.066  -0.569   5.535  1.00  0.00    -0.463 OA
BRANCH   3   4
ATOM      4  C   UNL     1       2.384  -0.237   5.629  1.00  0.00     0.312 C 
ATOM      5  O   UNL     1       2.895   0.349   6.577  1.00  0.00    -0.252 OA
BRANCH   4   6
ATOM      6  C   UNL     1       3.193  -0.668   4.411  1.00  0.00     0.124 C 
ATOM      7  C   UNL     1       2.307  -0.789   2.113  1.00  0.00     0.106 C 
ATOM      8  C   UNL     1       2.520  -2.140   2.704  1.00  0.00    -0.006 C 
ATOM      9  C   UNL     1       2.856   0.175   3.175  1.00  0.00     0.048 C 
ATOM     10  C   UNL     1       2.992  -2.081   3.951  1.00  0.00    -0.014 C 
BRANCH   7  11
ATOM     11  N   UNL     1       0.892  -0.641   1.895  1.00  0.00    -0.348 N 
ATOM     12  O   UNL     1       0.964  -1.232  -0.321  1.00  0.00    -0.273 OA
ATOM     13  C   UNL     1       0.314  -0.930   0.677  1.00  0.00     0.239 C 
ATOM     14  H   UNL     1       0.323  -0.326   2.634  1.00  0.00     0.164 HD
BRANCH  13  15
ATOM     15  C   UNL     1      -1.193  -0.673   0.600  1.00  0.00     0.216 C 
BRANCH  15  16
ATOM     16  N   UNL     1      -1.836  -0.900   1.887  1.00  0.00    -0.342 N 
ATOM     17  C   UNL     1      -2.208   0.009   2.844  1.00  0.00     0.261 C 
ATOM     18  H   UNL     1      -2.031  -1.841   2.101  1.00  0.00     0.164 HD
ATOM     19  O   UNL     1      -2.276  -0.419   3.998  1.00  0.00    -0.268 OA
BRANCH  17  20
ATOM     20  C   UNL     1      -2.463   1.390   2.481  1.00  0.00     0.092 A 
ATOM     21  C   UNL     1      -2.991   1.939   1.327  1.00  0.00     0.025 A 
ATOM     22  S   UNL     1      -2.167   2.606   3.659  1.00  0.00    -0.139 S 
ATOM     23  C   UNL     1      -3.056   3.362   1.378  1.00  0.00     0.012 A 
ATOM     24  C   UNL     1      -2.654   3.852   2.598  1.00  0.00     0.065 A 
ENDBRANCH  17  20
ENDBRANCH  15  16
ENDBRANCH  13  15
ENDBRANCH   7  11
ENDBRANCH   4   6
ENDBRANCH   3   4
ENDBRANCH   2   3
ENDBRANCH   1   2
BRANCH   1  25
ATOM     25  O   UNL     1       0.681  -2.394   7.977  1.00  0.00    -0.374 OA
BRANCH  25  26
ATOM     26  C   UNL     1       1.445  -3.211   7.096  1.00  0.00     0.202 C 
BRANCH  26  27
ATOM     27  C   UNL     1       0.749  -4.423   6.461  1.00  0.00     0.261 C 
BRANCH  27  28
ATOM     28  O   UNL     1      -0.397  -4.071   5.668  1.00  0.00    -0.460 OA
BRANCH  28  29
ATOM     29  C   UNL     1      -1.589  -4.384   6.239  1.00  0.00     0.338 C 
ATOM     30  O   UNL     1      -1.774  -4.989   7.278  1.00  0.00    -0.246 OA
BRANCH  29  31
ATOM     31  C   UNL     1      -2.691  -3.739   5.499  1.00  0.00     0.060 A 
ATOM     32  C   UNL     1      -3.582  -2.944   6.232  1.00  0.00     0.016 A 
ATOM     33  C   UNL     1      -2.900  -3.970   4.139  1.00  0.00     0.016 A 
ATOM     34  C   UNL     1      -4.712  -2.409   5.618  1.00  0.00     0.010 A 
ATOM     35  C   UNL     1      -4.037  -3.433   3.524  1.00  0.00     0.010 A 
ATOM     36  C   UNL     1      -4.966  -2.676   4.267  1.00  0.00    -0.014 A 
BRANCH  36  37
ATOM     37  C   UNL     1      -6.269  -2.296   3.665  1.00  0.00     0.031 A 
ATOM     38  C   UNL     1      -7.300  -3.365   3.430  1.00  0.00     0.074 A 
ATOM     39  C   UNL     1      -6.545  -1.020   3.340  1.00  0.00     0.049 A 
ATOM     40  N   UNL     1      -8.476  -3.276   2.863  1.00  0.00    -0.248 NA
ATOM     41  C   UNL     1      -6.962  -4.714   3.909  1.00  0.00     0.031 C 
ATOM     42  C   UNL     1      -5.678   0.124   3.597  1.00  0.00     0.029 A 
ATOM     43  N   UNL     1      -7.634  -0.476   2.704  1.00  0.00    -0.354 N 
ATOM     44  C   UNL     1      -9.022  -4.551   2.930  1.00  0.00     0.074 A 
ATOM     45  C   UNL     1      -8.027  -5.408   3.537  1.00  0.00     0.031 C 
ATOM     46  C   UNL     1      -6.234   1.227   3.069  1.00  0.00     0.029 A 
ATOM     47  C   UNL     1      -7.498   0.865   2.437  1.00  0.00     0.049 A 
ATOM     48  H   UNL     1      -8.434  -0.996   2.462  1.00  0.00     0.167 HD
ATOM     49  C   UNL     1     -10.254  -4.962   2.546  1.00  0.00     0.037 A 
ATOM     50  C   UNL     1      -8.299   1.701   1.750  1.00  0.00     0.037 A 
ATOM     51  C   UNL     1     -11.242  -4.107   1.941  1.00  0.00     0.049 A 
ATOM     52  C   UNL     1      -9.611   1.193   1.218  1.00  0.00     0.074 A 
ATOM     53  C   UNL     1     -12.526  -4.425   1.537  1.00  0.00     0.029 A 
ATOM     54  N   UNL     1     -11.050  -2.766   1.643  1.00  0.00    -0.354 N 
ATOM     55  N   UNL     1     -10.135  -0.004   1.313  1.00  0.00    -0.248 NA
ATOM     56  C   UNL     1     -10.457   2.162   0.506  1.00  0.00     0.031 C 
ATOM     57  C   UNL     1     -13.088  -3.293   0.937  1.00  0.00     0.029 A 
ATOM     58  C   UNL     1     -12.180  -2.251   1.028  1.00  0.00     0.049 A 
ATOM     59  H   UNL     1     -10.231  -2.255   1.841  1.00  0.00     0.167 HD
ATOM     60  C   UNL     1     -11.389   0.078   0.723  1.00  0.00     0.074 A 
ATOM     61  C   UNL     1     -11.546   1.444   0.269  1.00  0.00     0.031 C 
ATOM     62  C   UNL     1     -12.329  -0.888   0.584  1.00  0.00     0.037 A 
BRANCH  49  63
ATOM     63  C   UNL     1     -10.596  -6.409   2.756  1.00  0.00     0.064 A 
ATOM     64  C   UNL     1     -10.789  -6.943   4.039  1.00  0.00     0.173 A 
ATOM     65  C   UNL     1     -10.765  -7.265   1.657  1.00  0.00     0.173 A 
ATOM     66  F   UNL     1     -10.627  -6.170   5.124  1.00  0.00    -0.203 F 
ATOM     67  C   UNL     1     -11.110  -8.287   4.216  1.00  0.00     0.198 A 
ATOM     68  C   UNL     1     -11.117  -8.600   1.836  1.00  0.00     0.198 A 
ATOM     69  F   UNL     1     -10.595  -6.806   0.409  1.00  0.00    -0.203 F 
ATOM     70  F   UNL     1     -11.240  -8.786   5.453  1.00  0.00    -0.200 F 
ATOM     71  C   UNL     1     -11.282  -9.112   3.115  1.00  0.00     0.200 A 
ATOM     72  F   UNL     1     -11.296  -9.392   0.770  1.00  0.00    -0.200 F 
ATOM     73  F   UNL     1     -11.598 -10.402   3.285  1.00  0.00    -0.200 F 
ENDBRANCH  49  63
BRANCH  50  74
ATOM     74  C   UNL     1      -7.889   3.113   1.534  1.00  0.00     0.064 A 
ATOM     75  C   UNL     1      -8.555   4.166   2.175  1.00  0.00     0.173 A 
ATOM     76  C   UNL     1      -6.843   3.437   0.659  1.00  0.00     0.173 A 
ATOM     77  F   UNL     1      -9.582   3.906   2.997  1.00  0.00    -0.203 F 
ATOM     78  C   UNL     1      -8.202   5.493   1.935  1.00  0.00     0.198 A 
ATOM     79  C   UNL     1      -6.477   4.763   0.437  1.00  0.00     0.198 A 
ATOM     80  F   UNL     1      -6.175   2.467   0.017  1.00  0.00    -0.203 F 
ATOM     81  F   UNL     1      -8.887   6.483   2.522  1.00  0.00    -0.200 F 
ATOM     82  C   UNL     1      -7.160   5.790   1.070  1.00  0.00     0.200 A 
ATOM     83  F   UNL     1      -5.467   5.047  -0.397  1.00  0.00    -0.200 F 
ATOM     84  F   UNL     1      -6.821   7.065   0.838  1.00  0.00    -0.200 F 
ENDBRANCH  50  74
BRANCH  62  85
ATOM     85  C   UNL     1     -13.637  -0.495  -0.042  1.00  0.00     0.064 A 
ATOM     86  C   UNL     1     -13.742  -0.180  -1.405  1.00  0.00     0.173 A 
ATOM     87  C   UNL     1     -14.810  -0.468   0.729  1.00  0.00     0.173 A 
ATOM     88  F   UNL     1     -12.649  -0.175  -2.183  1.00  0.00    -0.203 F 
ATOM     89  C   UNL     1     -14.966   0.174  -1.966  1.00  0.00     0.198 A 
ATOM     90  C   UNL     1     -16.038  -0.148   0.157  1.00  0.00     0.198 A 
ATOM     91  F   UNL     1     -14.768  -0.766   2.036  1.00  0.00    -0.203 F 
ATOM     92  F   UNL     1     -15.032   0.524  -3.258  1.00  0.00    -0.200 F 
ATOM     93  C   UNL     1     -16.114   0.182  -1.187  1.00  0.00     0.200 A 
ATOM     94  F   UNL     1     -17.148  -0.157   0.908  1.00  0.00    -0.200 F 
ATOM     95  F   UNL     1     -17.293   0.515  -1.731  1.00  0.00    -0.200 F 
ENDBRANCH  62  85
ENDBRANCH  36  37
ENDBRANCH  29  31
ENDBRANCH  28  29
ENDBRANCH  27  28
ENDBRANCH  26  27
ENDBRANCH  25  26
ENDBRANCH   1  25
TORSDOF 18
