REMARK SMILES C[C@@H]1CC[C@H](C)[N@H+]1Cc1cc2c(cc1Cl)C=C(C(=O)OCCOCCOC(=O)c1ccc(-c3c4nc(c(-c5c(F)c(F)c(F)c(F)c5F)c5ccc([nH]5)c(-c5c(F)c(F)c(F)c(F)c5F)c5nc(c(-c6c(F)c(F)c(F)c(F)c6F)c6ccc3[nH]6)C=C5)C=C4)cc1)[C@@H](C(F)(F)F)O2
REMARK SMILES IDX 23 1 22 2 21 3 20 4 18 5 19 6 17 7 9 8 10 9 14 10 11 11
REMARK SMILES IDX 13 12 15 13 12 14 97 15 16 16 92 17 8 18 7 19 6 20 5 21 4 22
REMARK SMILES IDX 3 23 2 24 1 26 93 27 94 28 95 29 96 30 24 31 25 32 26 33
REMARK SMILES IDX 27 34 28 35 29 36 30 37 91 38 31 39 90 40 32 41 33 42 34 43
REMARK SMILES IDX 84 44 35 45 89 46 83 47 85 48 36 49 88 50 82 51 81 52 37 54
REMARK SMILES IDX 69 55 49 56 68 57 50 58 53 59 67 60 86 61 51 62 52 63 66 65
REMARK SMILES IDX 87 66 54 67 38 68 39 69 47 70 40 71 41 72 45 73 48 74 42 75
REMARK SMILES IDX 43 76 46 77 44 78 70 79 71 80 79 81 72 82 73 83 77 84 80 85
REMARK SMILES IDX 74 86 75 87 78 88 76 89 55 90 56 91 64 92 57 93 58 94 62 95
REMARK SMILES IDX 65 96 59 97 60 98 63 99 61 100
REMARK H PARENT 7 25 85 53 53 64
REMARK Flexibility Score: inf
ROOT
ATOM      1  O   UNL     1       1.075  -4.839 -10.438  1.00  0.00    -0.374 OA
ENDROOT
BRANCH   1   2
ATOM      2  C   UNL     1       0.806  -3.902 -11.476  1.00  0.00     0.202 C 
BRANCH   2   3
ATOM      3  C   UNL     1      -0.416  -2.992 -11.324  1.00  0.00     0.261 C 
BRANCH   3   4
ATOM      4  O   UNL     1      -0.392  -2.258 -10.090  1.00  0.00    -0.460 OA
BRANCH   4   5
ATOM      5  C   UNL     1      -1.351  -2.646  -9.219  1.00  0.00     0.338 C 
ATOM      6  O   UNL     1      -2.284  -3.401  -9.447  1.00  0.00    -0.246 OA
BRANCH   5   7
ATOM      7  C   UNL     1      -1.054  -2.145  -7.869  1.00  0.00     0.087 C 
ATOM      8  C   UNL     1      -1.652  -1.612  -2.931  1.00  0.00     0.029 A 
ATOM      9  C   UNL     1      -1.034  -0.811  -3.926  1.00  0.00     0.058 A 
ATOM     10  C   UNL     1      -2.148  -2.866  -3.326  1.00  0.00     0.050 A 
ATOM     11  C   UNL     1      -0.912  -1.265  -5.246  1.00  0.00     0.128 A 
ATOM     12  C   UNL     1      -1.869  -3.379  -4.589  1.00  0.00     0.033 A 
ATOM     13  Cl  UNL     1      -3.305  -3.779  -2.417  1.00  0.00    -0.084 Cl
ATOM     14  C   UNL     1      -1.278  -2.571  -5.552  1.00  0.00     0.019 A 
ATOM     15  O   UNL     1      -0.453  -0.389  -6.196  1.00  0.00    -0.475 OA
ATOM     16  C   UNL     1      -1.218  -3.060  -6.909  1.00  0.00     0.027 C 
ATOM     17  C   UNL     1      -0.737  -0.702  -7.603  1.00  0.00     0.316 C 
BRANCH   8  18
ATOM     18  C   UNL     1      -1.809  -1.063  -1.520  1.00  0.00     0.301 C 
BRANCH  18  19
ATOM     19  N   UNL     1      -0.849  -1.506  -0.494  1.00  0.00    -0.327 N 
ATOM     20  C   UNL     1       0.950   0.122  -0.017  1.00  0.00     0.075 C 
ATOM     21  C   UNL     1       0.562  -1.167  -0.731  1.00  0.00     0.181 C 
ATOM     22  C   UNL     1       1.357  -2.356  -0.190  1.00  0.00     0.071 C 
ATOM     23  C   UNL     1       0.410  -3.518  -0.389  1.00  0.00     0.071 C 
ATOM     24  C   UNL     1      -0.948  -2.908  -0.076  1.00  0.00     0.181 C 
ATOM     25  H   UNL     1      -1.176  -0.930   0.282  1.00  0.00     0.348 HD
ATOM     26  C   UNL     1      -1.308  -2.994   1.407  1.00  0.00     0.075 C 
ENDBRANCH  18  19
ENDBRANCH   8  18
BRANCH  17  27
ATOM     27  C   UNL     1      -1.829   0.229  -8.152  1.00  0.00     0.430 C 
ATOM     28  F   UNL     1      -1.554   1.528  -7.886  1.00  0.00    -0.167 F 
ATOM     29  F   UNL     1      -1.925   0.125  -9.502  1.00  0.00    -0.167 F 
ATOM     30  F   UNL     1      -3.046  -0.047  -7.638  1.00  0.00    -0.167 F 
ENDBRANCH  17  27
ENDBRANCH   5   7
ENDBRANCH   4   5
ENDBRANCH   3   4
ENDBRANCH   2   3
ENDBRANCH   1   2
BRANCH   1  31
ATOM     31  C   UNL     1       1.613  -4.365  -9.204  1.00  0.00     0.202 C 
BRANCH  31  32
ATOM     32  C   UNL     1       3.035  -3.790  -9.189  1.00  0.00     0.261 C 
BRANCH  32  33
ATOM     33  O   UNL     1       3.143  -2.557  -9.921  1.00  0.00    -0.460 OA
BRANCH  33  34
ATOM     34  C   UNL     1       3.883  -2.620 -11.056  1.00  0.00     0.338 C 
ATOM     35  O   UNL     1       4.477  -3.586 -11.506  1.00  0.00    -0.246 OA
BRANCH  34  36
ATOM     36  C   UNL     1       3.690  -1.369 -11.808  1.00  0.00     0.060 A 
ATOM     37  C   UNL     1       4.064  -0.144 -11.259  1.00  0.00     0.016 A 
ATOM     38  C   UNL     1       3.140  -1.439 -13.096  1.00  0.00     0.016 A 
ATOM     39  C   UNL     1       3.888   1.020 -12.008  1.00  0.00     0.010 A 
ATOM     40  C   UNL     1       2.959  -0.275 -13.840  1.00  0.00     0.010 A 
ATOM     41  C   UNL     1       3.342   0.963 -13.305  1.00  0.00    -0.014 A 
BRANCH  41  42
ATOM     42  C   UNL     1       3.276   2.188 -14.135  1.00  0.00     0.031 A 
ATOM     43  C   UNL     1       1.977   2.890 -14.390  1.00  0.00     0.074 A 
ATOM     44  C   UNL     1       4.420   2.666 -14.661  1.00  0.00     0.049 A 
ATOM     45  N   UNL     1       1.761   4.010 -15.032  1.00  0.00    -0.248 NA
ATOM     46  C   UNL     1       0.763   2.253 -13.860  1.00  0.00     0.031 C 
ATOM     47  C   UNL     1       5.735   2.045 -14.504  1.00  0.00     0.029 A 
ATOM     48  N   UNL     1       4.663   3.781 -15.421  1.00  0.00    -0.354 N 
ATOM     49  C   UNL     1       0.392   4.227 -14.965  1.00  0.00     0.074 A 
ATOM     50  C   UNL     1      -0.180   3.095 -14.265  1.00  0.00     0.031 C 
ATOM     51  C   UNL     1       6.654   2.807 -15.116  1.00  0.00     0.029 A 
ATOM     52  C   UNL     1       5.989   3.949 -15.736  1.00  0.00     0.049 A 
ATOM     53  H   UNL     1       3.956   4.401 -15.712  1.00  0.00     0.167 HD
ATOM     54  C   UNL     1      -0.313   5.288 -15.427  1.00  0.00     0.037 A 
ATOM     55  C   UNL     1       6.600   4.918 -16.444  1.00  0.00     0.037 A 
ATOM     56  C   UNL     1       0.264   6.403 -16.137  1.00  0.00     0.049 A 
ATOM     57  C   UNL     1       5.782   6.054 -16.993  1.00  0.00     0.074 A 
ATOM     58  C   UNL     1      -0.368   7.536 -16.619  1.00  0.00     0.029 A 
ATOM     59  N   UNL     1       1.604   6.519 -16.478  1.00  0.00    -0.354 N 
ATOM     60  N   UNL     1       4.499   6.287 -16.863  1.00  0.00    -0.248 NA
ATOM     61  C   UNL     1       6.499   7.065 -17.782  1.00  0.00     0.031 C 
ATOM     62  C   UNL     1       0.576   8.309 -17.302  1.00  0.00     0.029 A 
ATOM     63  C   UNL     1       1.811   7.691 -17.192  1.00  0.00     0.049 A 
ATOM     64  H   UNL     1       2.305   5.867 -16.248  1.00  0.00     0.167 HD
ATOM     65  C   UNL     1       4.258   7.479 -17.532  1.00  0.00     0.074 A 
ATOM     66  C   UNL     1       5.533   7.933 -18.048  1.00  0.00     0.031 C 
ATOM     67  C   UNL     1       3.084   8.135 -17.704  1.00  0.00     0.037 A 
BRANCH  54  68
ATOM     68  C   UNL     1      -1.794   5.312 -15.174  1.00  0.00     0.064 A 
ATOM     69  C   UNL     1      -2.310   5.519 -13.886  1.00  0.00     0.173 A 
ATOM     70  C   UNL     1      -2.705   5.222 -16.238  1.00  0.00     0.173 A 
ATOM     71  F   UNL     1      -1.484   5.607 -12.833  1.00  0.00    -0.203 F 
ATOM     72  C   UNL     1      -3.683   5.622 -13.671  1.00  0.00     0.198 A 
ATOM     73  C   UNL     1      -4.074   5.355 -16.023  1.00  0.00     0.198 A 
ATOM     74  F   UNL     1      -2.264   5.034 -17.491  1.00  0.00    -0.203 F 
ATOM     75  F   UNL     1      -4.153   5.791 -12.427  1.00  0.00    -0.200 F 
ATOM     76  C   UNL     1      -4.562   5.551 -14.740  1.00  0.00     0.200 A 
ATOM     77  F   UNL     1      -4.921   5.305 -17.061  1.00  0.00    -0.200 F 
ATOM     78  F   UNL     1      -5.881   5.673 -14.535  1.00  0.00    -0.200 F 
ENDBRANCH  54  68
BRANCH  55  79
ATOM     79  C   UNL     1       8.073   4.867 -16.636  1.00  0.00     0.064 A 
ATOM     80  C   UNL     1       8.912   5.803 -16.018  1.00  0.00     0.173 A 
ATOM     81  C   UNL     1       8.672   3.868 -17.418  1.00  0.00     0.173 A 
ATOM     82  F   UNL     1       8.385   6.788 -15.275  1.00  0.00    -0.203 F 
ATOM     83  C   UNL     1      10.294   5.750 -16.183  1.00  0.00     0.198 A 
ATOM     84  C   UNL     1      10.056   3.797 -17.557  1.00  0.00     0.198 A 
ATOM     85  F   UNL     1       7.913   2.945 -18.026  1.00  0.00    -0.203 F 
ATOM     86  F   UNL     1      11.071   6.679 -15.611  1.00  0.00    -0.200 F 
ATOM     87  C   UNL     1      10.866   4.741 -16.945  1.00  0.00     0.200 A 
ATOM     88  F   UNL     1      10.605   2.810 -18.278  1.00  0.00    -0.200 F 
ATOM     89  F   UNL     1      12.196   4.682 -17.091  1.00  0.00    -0.200 F 
ENDBRANCH  55  79
BRANCH  67  90
ATOM     90  C   UNL     1       3.115   9.428 -18.471  1.00  0.00     0.064 A 
ATOM     91  C   UNL     1       3.349   9.457 -19.854  1.00  0.00     0.173 A 
ATOM     92  C   UNL     1       2.847  10.646 -17.826  1.00  0.00     0.173 A 
ATOM     93  F   UNL     1       3.624   8.323 -20.516  1.00  0.00    -0.203 F 
ATOM     94  C   UNL     1       3.333  10.658 -20.558  1.00  0.00     0.198 A 
ATOM     95  C   UNL     1       2.797  11.840 -18.540  1.00  0.00     0.198 A 
ATOM     96  F   UNL     1       2.609  10.675 -16.506  1.00  0.00    -0.203 F 
ATOM     97  F   UNL     1       3.602  10.665 -21.871  1.00  0.00    -0.200 F 
ATOM     98  C   UNL     1       3.046  11.846 -19.904  1.00  0.00     0.200 A 
ATOM     99  F   UNL     1       2.502  12.985 -17.909  1.00  0.00    -0.200 F 
ATOM    100  F   UNL     1       3.014  12.998 -20.587  1.00  0.00    -0.200 F 
ENDBRANCH  67  90
ENDBRANCH  41  42
ENDBRANCH  34  36
ENDBRANCH  33  34
ENDBRANCH  32  33
ENDBRANCH  31  32
ENDBRANCH   1  31
TORSDOF 17
