REMARK SMILES CN1C(=O)C[C@@H](C(=O)OCCOCCOC(=O)c2ccc(-c3c4nc(c(-c5c(F)c(F)c(F)c(F)c5F)c5ccc([nH]5)c(-c5c(F)c(F)c(F)c(F)c5F)c5nc(c(-c6c(F)c(F)c(F)c(F)c6F)c6ccc3[nH]6)C=C5)C=C4)cc2)C12CCN(C(=O)c1ccccc1-n1cccn1)CC2
REMARK SMILES IDX 12 1 11 2 10 3 9 4 7 5 8 6 6 7 1 8 2 9 3 10 81 11 4 12 5 13
REMARK SMILES IDX 82 14 99 15 83 16 98 17 84 18 85 19 86 20 87 21 88 22 92 23
REMARK SMILES IDX 89 24 91 25 90 26 93 27 94 28 97 29 95 30 96 31 13 32 14 33
REMARK SMILES IDX 15 34 16 35 17 36 18 37 19 38 80 39 20 40 79 41 21 42 22 43
REMARK SMILES IDX 23 44 73 45 24 46 78 47 72 48 74 49 25 50 77 51 71 52 70 53
REMARK SMILES IDX 26 55 58 56 38 57 57 58 39 59 42 60 56 61 75 62 40 63 41 64
REMARK SMILES IDX 55 66 76 67 43 68 27 69 28 70 36 71 29 72 30 73 34 74 37 75
REMARK SMILES IDX 31 76 32 77 35 78 33 79 59 80 60 81 68 82 61 83 62 84 66 85
REMARK SMILES IDX 69 86 63 87 64 88 67 89 65 90 44 91 45 92 53 93 46 94 47 95
REMARK SMILES IDX 51 96 54 97 48 98 49 99 52 100 50 101
REMARK H PARENT 74 54 42 65
REMARK Flexibility Score: inf
ROOT
ATOM      1  O   UNL     1      -5.334   0.188  -2.506  1.00  0.00    -0.374 OA
ENDROOT
BRANCH   1   2
ATOM      2  C   UNL     1      -4.262   0.522  -3.385  1.00  0.00     0.202 C 
BRANCH   2   3
ATOM      3  C   UNL     1      -3.397   1.725  -2.986  1.00  0.00     0.261 C 
BRANCH   3   4
ATOM      4  O   UNL     1      -2.517   1.505  -1.861  1.00  0.00    -0.463 OA
BRANCH   4   5
ATOM      5  C   UNL     1      -2.874   2.122  -0.708  1.00  0.00     0.311 C 
ATOM      6  O   UNL     1      -3.953   2.679  -0.530  1.00  0.00    -0.252 OA
BRANCH   5   7
ATOM      7  C   UNL     1      -1.785   2.192   0.347  1.00  0.00     0.134 C 
ATOM      8  C   UNL     1       1.555   0.700  -0.520  1.00  0.00     0.147 C 
ATOM      9  N   UNL     1       0.390   1.515  -0.223  1.00  0.00    -0.339 N 
ATOM     10  C   UNL     1       0.330   2.861  -0.543  1.00  0.00     0.223 C 
ATOM     11  C   UNL     1      -0.759   1.051   0.570  1.00  0.00     0.060 C 
ATOM     12  O   UNL     1       1.172   3.506  -1.146  1.00  0.00    -0.275 OA
ATOM     13  C   UNL     1      -0.936   3.429   0.032  1.00  0.00     0.118 C 
ATOM     14  C   UNL     1      -1.214  -0.360   0.157  1.00  0.00     0.051 C 
ATOM     15  C   UNL     1      -0.346   1.009   2.081  1.00  0.00     0.051 C 
ATOM     16  C   UNL     1      -2.279  -0.923   1.085  1.00  0.00     0.122 C 
ATOM     17  C   UNL     1      -1.382   0.336   2.990  1.00  0.00     0.122 C 
ATOM     18  N   UNL     1      -1.786  -0.958   2.455  1.00  0.00    -0.338 N 
ATOM     19  C   UNL     1      -1.777  -2.081   3.285  1.00  0.00     0.256 C 
ATOM     20  O   UNL     1      -1.491  -2.050   4.478  1.00  0.00    -0.269 OA
BRANCH  19  21
ATOM     21  C   UNL     1      -2.142  -3.394   2.707  1.00  0.00     0.065 A 
ATOM     22  C   UNL     1      -3.389  -3.908   3.097  1.00  0.00     0.016 A 
ATOM     23  C   UNL     1      -1.387  -4.051   1.720  1.00  0.00     0.077 A 
ATOM     24  C   UNL     1      -3.910  -5.039   2.469  1.00  0.00     0.001 A 
ATOM     25  C   UNL     1      -1.948  -5.157   1.059  1.00  0.00     0.029 A 
ATOM     26  C   UNL     1      -3.199  -5.649   1.438  1.00  0.00     0.002 A 
BRANCH  23  27
ATOM     27  N   UNL     1      -0.077  -3.643   1.357  1.00  0.00    -0.240 N 
ATOM     28  C   UNL     1       0.865  -2.984   2.118  1.00  0.00     0.115 A 
ATOM     29  N   UNL     1       0.406  -3.909   0.110  1.00  0.00    -0.177 NA
ATOM     30  C   UNL     1       1.965  -2.779   1.322  1.00  0.00     0.042 A 
ATOM     31  C   UNL     1       1.625  -3.368   0.097  1.00  0.00     0.135 A 
ENDBRANCH  23  27
ENDBRANCH  19  21
ENDBRANCH   5   7
ENDBRANCH   4   5
ENDBRANCH   3   4
ENDBRANCH   2   3
ENDBRANCH   1   2
BRANCH   1  32
ATOM     32  C   UNL     1      -5.005  -0.524  -1.314  1.00  0.00     0.202 C 
BRANCH  32  33
ATOM     33  C   UNL     1      -4.594  -1.983  -1.527  1.00  0.00     0.261 C 
BRANCH  33  34
ATOM     34  O   UNL     1      -3.317  -2.036  -2.184  1.00  0.00    -0.460 OA
BRANCH  34  35
ATOM     35  C   UNL     1      -3.080  -3.210  -2.811  1.00  0.00     0.338 C 
ATOM     36  O   UNL     1      -3.655  -4.269  -2.636  1.00  0.00    -0.246 OA
BRANCH  35  37
ATOM     37  C   UNL     1      -2.160  -2.962  -3.933  1.00  0.00     0.060 A 
ATOM     38  C   UNL     1      -2.723  -2.712  -5.191  1.00  0.00     0.016 A 
ATOM     39  C   UNL     1      -0.779  -3.087  -3.781  1.00  0.00     0.016 A 
ATOM     40  C   UNL     1      -1.903  -2.646  -6.318  1.00  0.00     0.010 A 
ATOM     41  C   UNL     1       0.042  -3.012  -4.915  1.00  0.00     0.010 A 
ATOM     42  C   UNL     1      -0.519  -2.835  -6.195  1.00  0.00    -0.014 A 
BRANCH  42  43
ATOM     43  C   UNL     1       0.303  -2.999  -7.423  1.00  0.00     0.031 A 
ATOM     44  C   UNL     1       0.669  -4.385  -7.883  1.00  0.00     0.074 A 
ATOM     45  C   UNL     1       0.674  -1.934  -8.156  1.00  0.00     0.049 A 
ATOM     46  N   UNL     1       1.336  -4.761  -8.946  1.00  0.00    -0.248 NA
ATOM     47  C   UNL     1       0.219  -5.499  -7.033  1.00  0.00     0.031 C 
ATOM     48  C   UNL     1       0.366  -0.542  -7.838  1.00  0.00     0.029 A 
ATOM     49  N   UNL     1       1.391  -1.862  -9.326  1.00  0.00    -0.354 N 
ATOM     50  C   UNL     1       1.381  -6.148  -8.895  1.00  0.00     0.074 A 
ATOM     51  C   UNL     1       0.707  -6.548  -7.679  1.00  0.00     0.031 C 
ATOM     52  C   UNL     1       0.892   0.249  -8.790  1.00  0.00     0.029 A 
ATOM     53  C   UNL     1       1.589  -0.579  -9.773  1.00  0.00     0.049 A 
ATOM     54  H   UNL     1       1.731  -2.656  -9.800  1.00  0.00     0.167 HD
ATOM     55  C   UNL     1       1.921  -7.013  -9.787  1.00  0.00     0.037 A 
ATOM     56  C   UNL     1       2.264  -0.124 -10.848  1.00  0.00     0.037 A 
ATOM     57  C   UNL     1       2.594  -6.623 -10.998  1.00  0.00     0.049 A 
ATOM     58  C   UNL     1       2.909  -1.104 -11.794  1.00  0.00     0.074 A 
ATOM     59  C   UNL     1       3.153  -7.431 -11.974  1.00  0.00     0.029 A 
ATOM     60  N   UNL     1       2.806  -5.312 -11.395  1.00  0.00    -0.354 N 
ATOM     61  N   UNL     1       2.908  -2.414 -11.757  1.00  0.00    -0.248 NA
ATOM     62  C   UNL     1       3.645  -0.539 -12.935  1.00  0.00     0.031 C 
ATOM     63  C   UNL     1       3.743  -6.607 -12.939  1.00  0.00     0.029 A 
ATOM     64  C   UNL     1       3.512  -5.287 -12.588  1.00  0.00     0.049 A 
ATOM     65  H   UNL     1       2.500  -4.516 -10.903  1.00  0.00     0.167 HD
ATOM     66  C   UNL     1       3.620  -2.829 -12.876  1.00  0.00     0.074 A 
ATOM     67  C   UNL     1       4.027  -1.632 -13.581  1.00  0.00     0.031 C 
ATOM     68  C   UNL     1       3.909  -4.090 -13.281  1.00  0.00     0.037 A 
BRANCH  55  69
ATOM     69  C   UNL     1       1.818  -8.477  -9.477  1.00  0.00     0.064 A 
ATOM     70  C   UNL     1       0.602  -9.167  -9.591  1.00  0.00     0.173 A 
ATOM     71  C   UNL     1       2.955  -9.205  -9.097  1.00  0.00     0.173 A 
ATOM     72  F   UNL     1      -0.515  -8.512  -9.941  1.00  0.00    -0.203 F 
ATOM     73  C   UNL     1       0.524 -10.529  -9.312  1.00  0.00     0.198 A 
ATOM     74  C   UNL     1       2.878 -10.572  -8.843  1.00  0.00     0.198 A 
ATOM     75  F   UNL     1       4.143  -8.592  -8.979  1.00  0.00    -0.203 F 
ATOM     76  F   UNL     1      -0.656 -11.160  -9.388  1.00  0.00    -0.200 F 
ATOM     77  C   UNL     1       1.662 -11.231  -8.944  1.00  0.00     0.200 A 
ATOM     78  F   UNL     1       3.980 -11.251  -8.498  1.00  0.00    -0.200 F 
ATOM     79  F   UNL     1       1.586 -12.543  -8.681  1.00  0.00    -0.200 F 
ENDBRANCH  55  69
BRANCH  56  80
ATOM     80  C   UNL     1       2.366   1.338 -11.091  1.00  0.00     0.064 A 
ATOM     81  C   UNL     1       1.698   1.943 -12.165  1.00  0.00     0.173 A 
ATOM     82  C   UNL     1       3.147   2.157 -10.263  1.00  0.00     0.173 A 
ATOM     83  F   UNL     1       0.963   1.196 -13.002  1.00  0.00    -0.203 F 
ATOM     84  C   UNL     1       1.818   3.310 -12.408  1.00  0.00     0.198 A 
ATOM     85  C   UNL     1       3.245   3.527 -10.492  1.00  0.00     0.198 A 
ATOM     86  F   UNL     1       3.810   1.624  -9.226  1.00  0.00    -0.203 F 
ATOM     87  F   UNL     1       1.203   3.857 -13.466  1.00  0.00    -0.200 F 
ATOM     88  C   UNL     1       2.586   4.102 -11.568  1.00  0.00     0.200 A 
ATOM     89  F   UNL     1       3.982   4.290  -9.673  1.00  0.00    -0.200 F 
ATOM     90  F   UNL     1       2.698   5.417 -11.800  1.00  0.00    -0.200 F 
ENDBRANCH  56  80
BRANCH  68  91
ATOM     91  C   UNL     1       4.685  -4.246 -14.556  1.00  0.00     0.064 A 
ATOM     92  C   UNL     1       6.056  -3.957 -14.620  1.00  0.00     0.173 A 
ATOM     93  C   UNL     1       4.062  -4.735 -15.714  1.00  0.00     0.173 A 
ATOM     94  F   UNL     1       6.694  -3.474 -13.544  1.00  0.00    -0.203 F 
ATOM     95  C   UNL     1       6.771  -4.135 -15.802  1.00  0.00     0.198 A 
ATOM     96  C   UNL     1       4.784  -4.935 -16.887  1.00  0.00     0.198 A 
ATOM     97  F   UNL     1       2.753  -5.032 -15.704  1.00  0.00    -0.203 F 
ATOM     98  F   UNL     1       8.072  -3.818 -15.851  1.00  0.00    -0.200 F 
ATOM     99  C   UNL     1       6.136  -4.630 -16.932  1.00  0.00     0.200 A 
ATOM    100  F   UNL     1       4.173  -5.425 -17.975  1.00  0.00    -0.200 F 
ATOM    101  F   UNL     1       6.828  -4.808 -18.066  1.00  0.00    -0.200 F 
ENDBRANCH  68  91
ENDBRANCH  42  43
ENDBRANCH  35  37
ENDBRANCH  34  35
ENDBRANCH  33  34
ENDBRANCH  32  33
ENDBRANCH   1  32
TORSDOF 16
