REMARK SMILES C[NH+]1CCC(C(=O)N2C[C@@H](C(=O)OCCOCCOC(=O)c3ccc(-c4c5nc(c(-c6c(F)c(F)c(F)c(F)c6F)c6ccc([nH]6)c(-c6c(F)c(F)c(F)c(F)c6F)c6nc(c(-c7c(F)c(F)c(F)c(F)c7F)c7ccc4[nH]7)C=C6)C=C5)cc3)[C@H](c3ccc4c(c3)OCO4)C2)CC1
REMARK SMILES IDX 16 1 15 2 14 3 13 4 11 5 12 6 10 7 8 8 9 9 95 10 85 11 6 12
REMARK SMILES IDX 7 13 5 14 1 15 2 16 3 17 97 18 4 20 96 21 86 22 87 23 91 24
REMARK SMILES IDX 88 25 90 26 89 27 92 28 94 29 93 30 17 31 18 32 19 33 20 34
REMARK SMILES IDX 21 35 22 36 23 37 84 38 24 39 83 40 25 41 26 42 27 43 77 44
REMARK SMILES IDX 28 45 82 46 76 47 78 48 29 49 81 50 75 51 74 52 30 54 62 55
REMARK SMILES IDX 42 56 61 57 43 58 46 59 60 60 79 61 44 62 45 63 59 65 80 66
REMARK SMILES IDX 47 67 31 68 32 69 40 70 33 71 34 72 38 73 41 74 35 75 36 76
REMARK SMILES IDX 39 77 37 78 63 79 64 80 72 81 65 82 66 83 70 84 73 85 67 86
REMARK SMILES IDX 68 87 71 88 69 89 48 90 49 91 57 92 50 93 51 94 55 95 58 96
REMARK SMILES IDX 52 97 53 98 56 99 54 100
REMARK H PARENT 2 19 78 53 46 64
REMARK Flexibility Score: inf
ROOT
ATOM      1  O   UNL     1       1.816  -3.697   6.038  1.00  0.00    -0.374 OA
ENDROOT
BRANCH   1   2
ATOM      2  C   UNL     1       2.170  -2.944   7.196  1.00  0.00     0.202 C 
BRANCH   2   3
ATOM      3  C   UNL     1       3.371  -2.004   7.060  1.00  0.00     0.261 C 
BRANCH   3   4
ATOM      4  O   UNL     1       3.165  -1.032   6.028  1.00  0.00    -0.463 OA
BRANCH   4   5
ATOM      5  C   UNL     1       4.022  -1.083   4.970  1.00  0.00     0.311 C 
ATOM      6  O   UNL     1       4.985  -1.827   4.864  1.00  0.00    -0.252 OA
BRANCH   5   7
ATOM      7  C   UNL     1       3.608  -0.079   3.929  1.00  0.00     0.128 C 
ATOM      8  N   UNL     1       3.612   0.301   1.641  1.00  0.00    -0.341 N 
ATOM      9  C   UNL     1       3.385  -0.755   2.596  1.00  0.00     0.135 C 
ATOM     10  C   UNL     1       4.660   1.184   2.143  1.00  0.00     0.128 C 
ATOM     11  C   UNL     1       4.699   0.987   3.676  1.00  0.00     0.055 C 
BRANCH   8  12
ATOM     12  C   UNL     1       3.323   0.250   0.295  1.00  0.00     0.226 C 
ATOM     13  O   UNL     1       4.164   0.600  -0.540  1.00  0.00    -0.275 OA
BRANCH  12  14
ATOM     14  C   UNL     1       1.872   0.038  -0.157  1.00  0.00     0.090 C 
ATOM     15  C   UNL     1      -2.423  -0.074  -0.218  1.00  0.00     0.332 C 
ATOM     16  N   UNL     1      -1.020  -0.064   0.196  1.00  0.00    -0.337 N 
ATOM     17  C   UNL     1      -0.378   1.189  -0.224  1.00  0.00     0.262 C 
ATOM     18  C   UNL     1      -0.302  -1.226  -0.350  1.00  0.00     0.262 C 
ATOM     19  H   UNL     1      -0.983  -0.124   1.213  1.00  0.00     0.347 HD
ATOM     20  C   UNL     1       1.053   1.253   0.298  1.00  0.00     0.075 C 
ATOM     21  C   UNL     1       1.138  -1.258   0.182  1.00  0.00     0.075 C 
ENDBRANCH  12  14
ENDBRANCH   8  12
BRANCH  11  22
ATOM     22  C   UNL     1       4.405   2.153   4.617  1.00  0.00    -0.038 A 
ATOM     23  C   UNL     1       3.813   3.365   4.201  1.00  0.00     0.008 A 
ATOM     24  C   UNL     1       4.563   1.917   6.001  1.00  0.00     0.054 A 
ATOM     25  C   UNL     1       3.308   4.279   5.138  1.00  0.00     0.051 A 
ATOM     26  C   UNL     1       3.989   2.793   6.892  1.00  0.00     0.166 A 
ATOM     27  C   UNL     1       3.367   3.940   6.471  1.00  0.00     0.165 A 
ATOM     28  O   UNL     1       3.888   2.607   8.236  1.00  0.00    -0.454 OA
ATOM     29  O   UNL     1       2.803   4.625   7.502  1.00  0.00    -0.454 OA
ATOM     30  C   UNL     1       2.976   3.674   8.572  1.00  0.00     0.468 C 
ENDBRANCH  11  22
ENDBRANCH   5   7
ENDBRANCH   4   5
ENDBRANCH   3   4
ENDBRANCH   2   3
ENDBRANCH   1   2
BRANCH   1  31
ATOM     31  C   UNL     1       1.153  -3.017   4.973  1.00  0.00     0.202 C 
BRANCH  31  32
ATOM     32  C   UNL     1      -0.305  -2.603   5.203  1.00  0.00     0.261 C 
BRANCH  32  33
ATOM     33  O   UNL     1      -0.446  -1.609   6.235  1.00  0.00    -0.460 OA
BRANCH  33  34
ATOM     34  C   UNL     1      -1.192  -2.001   7.296  1.00  0.00     0.338 C 
ATOM     35  O   UNL     1      -1.767  -3.063   7.449  1.00  0.00    -0.246 OA
BRANCH  34  36
ATOM     36  C   UNL     1      -1.122  -0.996   8.371  1.00  0.00     0.060 A 
ATOM     37  C   UNL     1      -0.583  -1.393   9.601  1.00  0.00     0.016 A 
ATOM     38  C   UNL     1      -1.705   0.263   8.222  1.00  0.00     0.016 A 
ATOM     39  C   UNL     1      -0.664  -0.544  10.704  1.00  0.00     0.010 A 
ATOM     40  C   UNL     1      -1.794   1.110   9.332  1.00  0.00     0.010 A 
ATOM     41  C   UNL     1      -1.304   0.697  10.585  1.00  0.00    -0.014 A 
BRANCH  41  42
ATOM     42  C   UNL     1      -1.565   1.511  11.797  1.00  0.00     0.031 A 
ATOM     43  C   UNL     1      -2.920   1.456  12.446  1.00  0.00     0.074 A 
ATOM     44  C   UNL     1      -0.598   2.289  12.315  1.00  0.00     0.049 A 
ATOM     45  N   UNL     1      -3.375   2.125  13.475  1.00  0.00    -0.248 NA
ATOM     46  C   UNL     1      -3.893   0.523  11.857  1.00  0.00     0.031 C 
ATOM     47  C   UNL     1       0.764   2.399  11.796  1.00  0.00     0.029 A 
ATOM     48  N   UNL     1      -0.622   3.145  13.387  1.00  0.00    -0.354 N 
ATOM     49  C   UNL     1      -4.686   1.703  13.651  1.00  0.00     0.074 A 
ATOM     50  C   UNL     1      -4.962   0.733  12.612  1.00  0.00     0.031 C 
ATOM     51  C   UNL     1       1.439   3.297  12.534  1.00  0.00     0.029 A 
ATOM     52  C   UNL     1       0.549   3.841  13.559  1.00  0.00     0.049 A 
ATOM     53  H   UNL     1      -1.403   3.250  13.976  1.00  0.00     0.167 HD
ATOM     54  C   UNL     1      -5.576   2.086  14.597  1.00  0.00     0.037 A 
ATOM     55  C   UNL     1       0.856   4.824  14.427  1.00  0.00     0.037 A 
ATOM     56  C   UNL     1      -5.296   3.040  15.638  1.00  0.00     0.049 A 
ATOM     57  C   UNL     1      -0.170   5.267  15.438  1.00  0.00     0.074 A 
ATOM     58  C   UNL     1      -6.118   3.455  16.672  1.00  0.00     0.029 A 
ATOM     59  N   UNL     1      -4.104   3.733  15.773  1.00  0.00    -0.354 N 
ATOM     60  N   UNL     1      -1.391   4.829  15.625  1.00  0.00    -0.248 NA
ATOM     61  C   UNL     1       0.229   6.338  16.363  1.00  0.00     0.031 C 
ATOM     62  C   UNL     1      -5.440   4.435  17.403  1.00  0.00     0.029 A 
ATOM     63  C   UNL     1      -4.179   4.597  16.854  1.00  0.00     0.049 A 
ATOM     64  H   UNL     1      -3.319   3.628  15.187  1.00  0.00     0.167 HD
ATOM     65  C   UNL     1      -1.896   5.550  16.699  1.00  0.00     0.074 A 
ATOM     66  C   UNL     1      -0.845   6.446  17.133  1.00  0.00     0.031 C 
ATOM     67  C   UNL     1      -3.121   5.478  17.275  1.00  0.00     0.037 A 
BRANCH  54  68
ATOM     68  C   UNL     1      -6.951   1.492  14.545  1.00  0.00     0.064 A 
ATOM     69  C   UNL     1      -7.198   0.169  14.940  1.00  0.00     0.173 A 
ATOM     70  C   UNL     1      -8.046   2.277  14.154  1.00  0.00     0.173 A 
ATOM     71  F   UNL     1      -6.182  -0.625  15.312  1.00  0.00    -0.203 F 
ATOM     72  C   UNL     1      -8.490  -0.350  14.933  1.00  0.00     0.198 A 
ATOM     73  C   UNL     1      -9.339   1.762  14.170  1.00  0.00     0.198 A 
ATOM     74  F   UNL     1      -7.863   3.550  13.772  1.00  0.00    -0.203 F 
ATOM     75  F   UNL     1      -8.700  -1.625  15.287  1.00  0.00    -0.200 F 
ATOM     76  C   UNL     1      -9.560   0.449  14.556  1.00  0.00     0.200 A 
ATOM     77  F   UNL     1     -10.373   2.538  13.816  1.00  0.00    -0.200 F 
ATOM     78  F   UNL     1     -10.805  -0.049  14.562  1.00  0.00    -0.200 F 
ENDBRANCH  54  68
BRANCH  55  79
ATOM     79  C   UNL     1       2.187   5.480  14.363  1.00  0.00     0.064 A 
ATOM     80  C   UNL     1       3.131   5.312  15.384  1.00  0.00     0.173 A 
ATOM     81  C   UNL     1       2.530   6.311  13.285  1.00  0.00     0.173 A 
ATOM     82  F   UNL     1       2.840   4.546  16.445  1.00  0.00    -0.203 F 
ATOM     83  C   UNL     1       4.360   5.968  15.342  1.00  0.00     0.198 A 
ATOM     84  C   UNL     1       3.768   6.945  13.231  1.00  0.00     0.198 A 
ATOM     85  F   UNL     1       1.662   6.500  12.280  1.00  0.00    -0.203 F 
ATOM     86  F   UNL     1       5.226   5.829  16.355  1.00  0.00    -0.200 F 
ATOM     87  C   UNL     1       4.679   6.781  14.264  1.00  0.00     0.200 A 
ATOM     88  F   UNL     1       4.077   7.718  12.181  1.00  0.00    -0.200 F 
ATOM     89  F   UNL     1       5.860   7.412  14.224  1.00  0.00    -0.200 F 
ENDBRANCH  55  79
BRANCH  67  90
ATOM     90  C   UNL     1      -3.383   6.369  18.454  1.00  0.00     0.064 A 
ATOM     91  C   UNL     1      -3.577   7.749  18.301  1.00  0.00     0.173 A 
ATOM     92  C   UNL     1      -3.483   5.829  19.745  1.00  0.00     0.173 A 
ATOM     93  F   UNL     1      -3.477   8.314  17.088  1.00  0.00    -0.203 F 
ATOM     94  C   UNL     1      -3.841   8.560  19.401  1.00  0.00     0.198 A 
ATOM     95  C   UNL     1      -3.773   6.639  20.839  1.00  0.00     0.198 A 
ATOM     96  F   UNL     1      -3.312   4.514  19.943  1.00  0.00    -0.203 F 
ATOM     97  F   UNL     1      -3.982   9.883  19.238  1.00  0.00    -0.200 F 
ATOM     98  C   UNL     1      -3.946   8.004  20.668  1.00  0.00     0.200 A 
ATOM     99  F   UNL     1      -3.886   6.099  22.060  1.00  0.00    -0.200 F 
ATOM    100  F   UNL     1      -4.207   8.786  21.724  1.00  0.00    -0.200 F 
ENDBRANCH  67  90
ENDBRANCH  41  42
ENDBRANCH  34  36
ENDBRANCH  33  34
ENDBRANCH  32  33
ENDBRANCH  31  32
ENDBRANCH   1  31
TORSDOF 17
