REMARK SMILES CC(=O)OCC1=C(C(=O)OCCOCCOC(=O)c2ccc(-c3c4nc(c(-c5c(F)c(F)c(F)c(F)c5F)c5ccc([nH]5)c(-c5c(F)c(F)c(F)c(F)c5F)c5nc(c(-c6c(F)c(F)c(F)c(F)c6F)c6ccc3[nH]6)C=C5)C=C4)cc2)N2C(=O)[C@H](NC(=O)C3CCCCC3)[C@@H]2SC1
REMARK SMILES IDX 12 1 11 2 10 3 8 4 9 5 7 6 6 7 97 8 82 9 96 10 83 11 95 12
REMARK SMILES IDX 84 13 85 14 5 15 4 16 2 17 1 18 3 19 86 20 87 21 88 23 89 24
REMARK SMILES IDX 90 25 94 26 91 27 93 28 92 29 13 30 14 31 15 32 16 33 17 34
REMARK SMILES IDX 18 35 19 36 20 37 81 38 21 39 80 40 22 41 23 42 24 43 74 44
REMARK SMILES IDX 25 45 79 46 73 47 75 48 26 49 78 50 72 51 71 52 27 54 59 55
REMARK SMILES IDX 39 56 58 57 40 58 43 59 57 60 76 61 41 62 42 63 56 65 77 66
REMARK SMILES IDX 44 67 28 68 29 69 37 70 30 71 31 72 35 73 38 74 32 75 33 76
REMARK SMILES IDX 36 77 34 78 60 79 61 80 69 81 62 82 63 83 67 84 70 85 64 86
REMARK SMILES IDX 65 87 68 88 66 89 45 90 46 91 54 92 47 93 48 94 52 95 55 96
REMARK SMILES IDX 49 97 50 98 53 99 51 100
REMARK H PARENT 86 22 75 53 43 64
REMARK Flexibility Score: inf
ROOT
ATOM      1  C   UNL     1      -4.184   1.719   3.020  1.00  0.00     0.202 C 
ENDROOT
BRANCH   1   2
ATOM      2  C   UNL     1      -3.009   1.697   2.043  1.00  0.00     0.261 C 
BRANCH   2   3
ATOM      3  O   UNL     1      -1.766   1.627   2.753  1.00  0.00    -0.459 OA
BRANCH   3   4
ATOM      4  C   UNL     1      -0.911   2.657   2.525  1.00  0.00     0.355 C 
ATOM      5  O   UNL     1      -1.110   3.589   1.762  1.00  0.00    -0.244 OA
BRANCH   4   6
ATOM      6  C   UNL     1       0.289   2.568   3.438  1.00  0.00     0.134 C 
ATOM      7  C   UNL     1       1.005   1.430   3.653  1.00  0.00     0.008 C 
ATOM      8  C   UNL     1       2.328   1.407   4.400  1.00  0.00     0.108 C 
ATOM      9  N   UNL     1       0.715   3.756   3.963  1.00  0.00    -0.289 N 
ATOM     10  S   UNL     1       3.225   2.985   4.324  1.00  0.00    -0.129 SA
ATOM     11  C   UNL     1       0.334   5.048   3.979  1.00  0.00     0.253 C 
ATOM     12  C   UNL     1       1.796   3.909   4.908  1.00  0.00     0.181 C 
ATOM     13  O   UNL     1      -0.668   5.643   3.640  1.00  0.00    -0.272 OA
ATOM     14  C   UNL     1       1.720   5.433   4.612  1.00  0.00     0.205 C 
BRANCH   7  15
ATOM     15  C   UNL     1       0.608   0.044   3.183  1.00  0.00     0.267 C 
BRANCH  15  16
ATOM     16  O   UNL     1       1.339  -0.420   2.037  1.00  0.00    -0.461 OA
BRANCH  16  17
ATOM     17  C   UNL     1       1.075   0.200   0.857  1.00  0.00     0.302 C 
ATOM     18  C   UNL     1       1.537  -0.617  -0.301  1.00  0.00     0.139 C 
ATOM     19  O   UNL     1       0.488   1.261   0.723  1.00  0.00    -0.253 OA
ENDBRANCH  16  17
ENDBRANCH  15  16
ENDBRANCH   7  15
BRANCH  14  20
ATOM     20  N   UNL     1       2.692   6.000   3.642  1.00  0.00    -0.342 N 
ATOM     21  C   UNL     1       3.306   7.220   3.652  1.00  0.00     0.223 C 
ATOM     22  H   UNL     1       2.926   5.415   2.886  1.00  0.00     0.164 HD
ATOM     23  O   UNL     1       4.041   7.524   2.714  1.00  0.00    -0.275 OA
BRANCH  21  24
ATOM     24  C   UNL     1       3.117   8.118   4.865  1.00  0.00     0.078 C 
ATOM     25  C   UNL     1       4.203   7.785   5.897  1.00  0.00     0.013 C 
ATOM     26  C   UNL     1       3.165   9.599   4.479  1.00  0.00     0.013 C 
ATOM     27  C   UNL     1       4.110   8.685   7.126  1.00  0.00     0.001 C 
ATOM     28  C   UNL     1       3.023  10.482   5.717  1.00  0.00     0.001 C 
ATOM     29  C   UNL     1       4.101  10.165   6.750  1.00  0.00     0.000 C 
ENDBRANCH  21  24
ENDBRANCH  14  20
ENDBRANCH   4   6
ENDBRANCH   3   4
ENDBRANCH   2   3
ENDBRANCH   1   2
BRANCH   1  30
ATOM     30  O   UNL     1      -4.276   2.818   3.921  1.00  0.00    -0.374 OA
BRANCH  30  31
ATOM     31  C   UNL     1      -3.293   2.952   4.944  1.00  0.00     0.202 C 
BRANCH  31  32
ATOM     32  C   UNL     1      -3.369   1.990   6.138  1.00  0.00     0.261 C 
BRANCH  32  33
ATOM     33  O   UNL     1      -3.307   0.600   5.776  1.00  0.00    -0.460 OA
BRANCH  33  34
ATOM     34  C   UNL     1      -4.499  -0.043   5.853  1.00  0.00     0.338 C 
ATOM     35  O   UNL     1      -5.572   0.417   6.201  1.00  0.00    -0.246 OA
BRANCH  34  36
ATOM     36  C   UNL     1      -4.376  -1.409   5.316  1.00  0.00     0.060 A 
ATOM     37  C   UNL     1      -5.201  -1.769   4.243  1.00  0.00     0.016 A 
ATOM     38  C   UNL     1      -3.562  -2.356   5.940  1.00  0.00     0.016 A 
ATOM     39  C   UNL     1      -5.252  -3.095   3.817  1.00  0.00     0.010 A 
ATOM     40  C   UNL     1      -3.620  -3.686   5.516  1.00  0.00     0.010 A 
ATOM     41  C   UNL     1      -4.493  -4.068   4.480  1.00  0.00    -0.014 A 
BRANCH  41  42
ATOM     42  C   UNL     1      -4.724  -5.505   4.197  1.00  0.00     0.031 A 
ATOM     43  C   UNL     1      -5.537  -6.317   5.167  1.00  0.00     0.074 A 
ATOM     44  C   UNL     1      -4.223  -6.076   3.088  1.00  0.00     0.049 A 
ATOM     45  N   UNL     1      -5.788  -7.601   5.172  1.00  0.00    -0.248 NA
ATOM     46  C   UNL     1      -6.143  -5.580   6.287  1.00  0.00     0.031 C 
ATOM     47  C   UNL     1      -3.463  -5.383   2.051  1.00  0.00     0.029 A 
ATOM     48  N   UNL     1      -4.271  -7.379   2.659  1.00  0.00    -0.354 N 
ATOM     49  C   UNL     1      -6.567  -7.828   6.300  1.00  0.00     0.074 A 
ATOM     50  C   UNL     1      -6.722  -6.556   6.971  1.00  0.00     0.031 C 
ATOM     51  C   UNL     1      -3.100  -6.271   1.111  1.00  0.00     0.029 A 
ATOM     52  C   UNL     1      -3.567  -7.600   1.501  1.00  0.00     0.049 A 
ATOM     53  H   UNL     1      -4.762  -8.087   3.135  1.00  0.00     0.167 HD
ATOM     54  C   UNL     1      -7.110  -8.992   6.730  1.00  0.00     0.037 A 
ATOM     55  C   UNL     1      -3.306  -8.750   0.850  1.00  0.00     0.037 A 
ATOM     56  C   UNL     1      -6.957 -10.254   6.053  1.00  0.00     0.049 A 
ATOM     57  C   UNL     1      -3.857 -10.045   1.391  1.00  0.00     0.074 A 
ATOM     58  C   UNL     1      -7.485 -11.487   6.395  1.00  0.00     0.029 A 
ATOM     59  N   UNL     1      -6.215 -10.444   4.896  1.00  0.00    -0.354 N 
ATOM     60  N   UNL     1      -4.606 -10.251   2.448  1.00  0.00    -0.248 NA
ATOM     61  C   UNL     1      -3.526 -11.268   0.646  1.00  0.00     0.031 C 
ATOM     62  C   UNL     1      -7.012 -12.433   5.480  1.00  0.00     0.029 A 
ATOM     63  C   UNL     1      -6.245 -11.780   4.529  1.00  0.00     0.049 A 
ATOM     64  H   UNL     1      -5.737  -9.735   4.409  1.00  0.00     0.167 HD
ATOM     65  C   UNL     1      -4.864 -11.616   2.475  1.00  0.00     0.074 A 
ATOM     66  C   UNL     1      -4.201 -12.187   1.321  1.00  0.00     0.031 C 
ATOM     67  C   UNL     1      -5.586 -12.333   3.372  1.00  0.00     0.037 A 
BRANCH  54  68
ATOM     68  C   UNL     1      -7.894  -8.964   8.011  1.00  0.00     0.064 A 
ATOM     69  C   UNL     1      -9.142  -8.329   8.103  1.00  0.00     0.173 A 
ATOM     70  C   UNL     1      -7.404  -9.612   9.155  1.00  0.00     0.173 A 
ATOM     71  F   UNL     1      -9.651  -7.683   7.043  1.00  0.00    -0.203 F 
ATOM     72  C   UNL     1      -9.855  -8.319   9.300  1.00  0.00     0.198 A 
ATOM     73  C   UNL     1      -8.135  -9.629  10.340  1.00  0.00     0.198 A 
ATOM     74  F   UNL     1      -6.218 -10.238   9.122  1.00  0.00    -0.203 F 
ATOM     75  F   UNL     1     -11.021  -7.663   9.378  1.00  0.00    -0.200 F 
ATOM     76  C   UNL     1      -9.356  -8.976  10.414  1.00  0.00     0.200 A 
ATOM     77  F   UNL     1      -7.656 -10.277  11.412  1.00  0.00    -0.200 F 
ATOM     78  F   UNL     1     -10.047  -8.973  11.562  1.00  0.00    -0.200 F 
ENDBRANCH  54  68
BRANCH  55  79
ATOM     79  C   UNL     1      -2.468  -8.735  -0.377  1.00  0.00     0.064 A 
ATOM     80  C   UNL     1      -3.010  -9.060  -1.628  1.00  0.00     0.173 A 
ATOM     81  C   UNL     1      -1.103  -8.417  -0.322  1.00  0.00     0.173 A 
ATOM     82  F   UNL     1      -4.305  -9.395  -1.729  1.00  0.00    -0.203 F 
ATOM     83  C   UNL     1      -2.216  -9.087  -2.773  1.00  0.00     0.198 A 
ATOM     84  C   UNL     1      -0.316  -8.413  -1.472  1.00  0.00     0.198 A 
ATOM     85  F   UNL     1      -0.533  -8.098   0.850  1.00  0.00    -0.203 F 
ATOM     86  F   UNL     1      -2.749  -9.451  -3.947  1.00  0.00    -0.200 F 
ATOM     87  C   UNL     1      -0.871  -8.758  -2.695  1.00  0.00     0.200 A 
ATOM     88  F   UNL     1       0.979  -8.078  -1.394  1.00  0.00    -0.200 F 
ATOM     89  F   UNL     1      -0.108  -8.781  -3.796  1.00  0.00    -0.200 F 
ENDBRANCH  55  79
BRANCH  67  90
ATOM     90  C   UNL     1      -5.737 -13.807   3.120  1.00  0.00     0.064 A 
ATOM     91  C   UNL     1      -4.663 -14.697   3.264  1.00  0.00     0.173 A 
ATOM     92  C   UNL     1      -6.988 -14.341   2.770  1.00  0.00     0.173 A 
ATOM     93  F   UNL     1      -3.443 -14.238   3.583  1.00  0.00    -0.203 F 
ATOM     94  C   UNL     1      -4.828 -16.061   3.037  1.00  0.00     0.198 A 
ATOM     95  C   UNL     1      -7.157 -15.709   2.579  1.00  0.00     0.198 A 
ATOM     96  F   UNL     1      -8.051 -13.535   2.628  1.00  0.00    -0.203 F 
ATOM     97  F   UNL     1      -3.775 -16.886   3.128  1.00  0.00    -0.200 F 
ATOM     98  C   UNL     1      -6.075 -16.567   2.704  1.00  0.00     0.200 A 
ATOM     99  F   UNL     1      -8.367 -16.197   2.274  1.00  0.00    -0.200 F 
ATOM    100  F   UNL     1      -6.234 -17.881   2.495  1.00  0.00    -0.200 F 
ENDBRANCH  67  90
ENDBRANCH  41  42
ENDBRANCH  34  36
ENDBRANCH  33  34
ENDBRANCH  32  33
ENDBRANCH  31  32
ENDBRANCH  30  31
ENDBRANCH   1  30
TORSDOF 19
