REMARK SMILES CC(=O)N1CCC[C@H]1COCC(=O)OCCOCCOC(=O)c1ccc(-c2c3nc(c(-c4c(F)c(F)c(F)c(F)c4F)c4ccc([nH]4)c(-c4c(F)c(F)c(F)c(F)c4F)c4nc(c(-c5c(F)c(F)c(F)c(F)c5F)c5ccc2[nH]5)C=C4)C=C3)cc1
REMARK SMILES IDX 16 1 15 2 14 3 12 4 13 5 11 6 10 7 9 8 8 9 4 10 5 11 6 12
REMARK SMILES IDX 7 13 2 14 1 15 3 16 17 17 18 18 19 19 20 20 21 21 22 22
REMARK SMILES IDX 23 23 24 24 85 25 25 26 84 27 26 28 27 29 28 30 78 31 29 32
REMARK SMILES IDX 83 33 77 34 79 35 30 36 82 37 76 38 75 39 31 41 63 42 43 43
REMARK SMILES IDX 62 44 44 45 47 46 61 47 80 48 45 49 46 50 60 52 81 53 48 54
REMARK SMILES IDX 32 55 33 56 41 57 34 58 35 59 39 60 42 61 36 62 37 63 40 64
REMARK SMILES IDX 38 65 64 66 65 67 73 68 66 69 67 70 71 71 74 72 68 73 69 74
REMARK SMILES IDX 72 75 70 76 49 77 50 78 58 79 51 80 52 81 56 82 59 83 53 84
REMARK SMILES IDX 54 85 57 86 55 87
REMARK H PARENT 79 40 47 51
REMARK Flexibility Score: inf
ROOT
ATOM      1  C   UNL     1      -2.889  -4.649   1.931  1.00  0.00     0.202 C 
ENDROOT
BRANCH   1   2
ATOM      2  C   UNL     1      -3.932  -4.655   0.796  1.00  0.00     0.261 C 
BRANCH   2   3
ATOM      3  O   UNL     1      -3.344  -4.720  -0.527  1.00  0.00    -0.462 OA
BRANCH   3   4
ATOM      4  C   UNL     1      -3.463  -3.593  -1.287  1.00  0.00     0.332 C 
ATOM      5  O   UNL     1      -4.122  -2.610  -0.965  1.00  0.00    -0.250 OA
BRANCH   4   6
ATOM      6  C   UNL     1      -2.767  -3.699  -2.665  1.00  0.00     0.282 C 
BRANCH   6   7
ATOM      7  O   UNL     1      -1.556  -4.367  -2.970  1.00  0.00    -0.368 OA
BRANCH   7   8
ATOM      8  C   UNL     1      -0.327  -3.816  -2.492  1.00  0.00     0.186 C 
BRANCH   8   9
ATOM      9  C   UNL     1       0.057  -2.390  -2.949  1.00  0.00     0.111 C 
ATOM     10  N   UNL     1       1.047  -1.701  -2.089  1.00  0.00    -0.338 N 
ATOM     11  C   UNL     1       2.352  -1.709  -2.720  1.00  0.00     0.120 C 
ATOM     12  C   UNL     1       1.982  -1.532  -4.177  1.00  0.00     0.024 C 
ATOM     13  C   UNL     1       0.750  -2.426  -4.327  1.00  0.00     0.029 C 
BRANCH  10  14
ATOM     14  C   UNL     1       0.622  -0.788  -1.140  1.00  0.00     0.219 C 
ATOM     15  C   UNL     1       1.565   0.330  -0.763  1.00  0.00     0.114 C 
ATOM     16  O   UNL     1      -0.517  -0.813  -0.681  1.00  0.00    -0.275 OA
ENDBRANCH  10  14
ENDBRANCH   8   9
ENDBRANCH   7   8
ENDBRANCH   6   7
ENDBRANCH   4   6
ENDBRANCH   3   4
ENDBRANCH   2   3
ENDBRANCH   1   2
BRANCH   1  17
ATOM     17  O   UNL     1      -1.925  -3.597   1.921  1.00  0.00    -0.374 OA
BRANCH  17  18
ATOM     18  C   UNL     1      -1.054  -3.649   0.798  1.00  0.00     0.202 C 
BRANCH  18  19
ATOM     19  C   UNL     1       0.429  -3.705   1.153  1.00  0.00     0.261 C 
BRANCH  19  20
ATOM     20  O   UNL     1       0.740  -5.098   1.355  1.00  0.00    -0.460 OA
BRANCH  20  21
ATOM     21  C   UNL     1       0.657  -5.472   2.648  1.00  0.00     0.338 C 
ATOM     22  O   UNL     1       0.809  -4.764   3.624  1.00  0.00    -0.246 OA
BRANCH  21  23
ATOM     23  C   UNL     1       0.139  -6.852   2.730  1.00  0.00     0.060 A 
ATOM     24  C   UNL     1      -0.755  -7.101   3.776  1.00  0.00     0.016 A 
ATOM     25  C   UNL     1       0.515  -7.878   1.855  1.00  0.00     0.016 A 
ATOM     26  C   UNL     1      -1.196  -8.393   4.022  1.00  0.00     0.010 A 
ATOM     27  C   UNL     1       0.069  -9.181   2.102  1.00  0.00     0.010 A 
ATOM     28  C   UNL     1      -0.739  -9.446   3.222  1.00  0.00    -0.014 A 
BRANCH  28  29
ATOM     29  C   UNL     1      -0.960 -10.828   3.701  1.00  0.00     0.031 A 
ATOM     30  C   UNL     1       0.168 -11.537   4.394  1.00  0.00     0.074 A 
ATOM     31  C   UNL     1      -2.176 -11.392   3.610  1.00  0.00     0.049 A 
ATOM     32  N   UNL     1       0.198 -12.730   4.930  1.00  0.00    -0.248 NA
ATOM     33  C   UNL     1       1.438 -10.800   4.499  1.00  0.00     0.031 C 
ATOM     34  C   UNL     1      -3.349 -10.767   3.003  1.00  0.00     0.029 A 
ATOM     35  N   UNL     1      -2.624 -12.615   4.036  1.00  0.00    -0.354 N 
ATOM     36  C   UNL     1       1.484 -12.884   5.433  1.00  0.00     0.074 A 
ATOM     37  C   UNL     1       2.218 -11.684   5.099  1.00  0.00     0.031 C 
ATOM     38  C   UNL     1      -4.386 -11.615   3.091  1.00  0.00     0.029 A 
ATOM     39  C   UNL     1      -3.939 -12.851   3.728  1.00  0.00     0.049 A 
ATOM     40  H   UNL     1      -2.057 -13.260   4.517  1.00  0.00     0.167 HD
ATOM     41  C   UNL     1       1.999 -13.928   6.124  1.00  0.00     0.037 A 
ATOM     42  C   UNL     1      -4.686 -13.954   3.921  1.00  0.00     0.037 A 
ATOM     43  C   UNL     1       1.256 -15.119   6.443  1.00  0.00     0.049 A 
ATOM     44  C   UNL     1      -4.072 -15.135   4.624  1.00  0.00     0.074 A 
ATOM     45  C   UNL     1       1.673 -16.239   7.138  1.00  0.00     0.029 A 
ATOM     46  N   UNL     1      -0.064 -15.344   6.075  1.00  0.00    -0.354 N 
ATOM     47  N   UNL     1      -2.861 -15.271   5.109  1.00  0.00    -0.248 NA
ATOM     48  C   UNL     1      -4.930 -16.311   4.816  1.00  0.00     0.031 C 
ATOM     49  C   UNL     1       0.625 -17.166   7.138  1.00  0.00     0.029 A 
ATOM     50  C   UNL     1      -0.468 -16.599   6.501  1.00  0.00     0.049 A 
ATOM     51  H   UNL     1      -0.630 -14.706   5.582  1.00  0.00     0.167 HD
ATOM     52  C   UNL     1      -2.815 -16.536   5.680  1.00  0.00     0.074 A 
ATOM     53  C   UNL     1      -4.130 -17.119   5.497  1.00  0.00     0.031 C 
ATOM     54  C   UNL     1      -1.782 -17.159   6.301  1.00  0.00     0.037 A 
BRANCH  41  55
ATOM     55  C   UNL     1       3.440 -13.837   6.542  1.00  0.00     0.064 A 
ATOM     56  C   UNL     1       3.877 -12.919   7.511  1.00  0.00     0.173 A 
ATOM     57  C   UNL     1       4.401 -14.679   5.962  1.00  0.00     0.173 A 
ATOM     58  F   UNL     1       3.004 -12.078   8.086  1.00  0.00    -0.203 F 
ATOM     59  C   UNL     1       5.224 -12.821   7.853  1.00  0.00     0.198 A 
ATOM     60  C   UNL     1       5.742 -14.603   6.332  1.00  0.00     0.198 A 
ATOM     61  F   UNL     1       4.042 -15.578   5.033  1.00  0.00    -0.203 F 
ATOM     62  F   UNL     1       5.625 -11.893   8.732  1.00  0.00    -0.200 F 
ATOM     63  C   UNL     1       6.154 -13.667   7.268  1.00  0.00     0.200 A 
ATOM     64  F   UNL     1       6.637 -15.431   5.775  1.00  0.00    -0.200 F 
ATOM     65  F   UNL     1       7.450 -13.572   7.597  1.00  0.00    -0.200 F 
ENDBRANCH  41  55
BRANCH  42  66
ATOM     66  C   UNL     1      -6.085 -13.988   3.420  1.00  0.00     0.064 A 
ATOM     67  C   UNL     1      -7.176 -14.014   4.298  1.00  0.00     0.173 A 
ATOM     68  C   UNL     1      -6.357 -13.972   2.043  1.00  0.00     0.173 A 
ATOM     69  F   UNL     1      -6.968 -14.051   5.623  1.00  0.00    -0.203 F 
ATOM     70  C   UNL     1      -8.485 -14.033   3.819  1.00  0.00     0.198 A 
ATOM     71  C   UNL     1      -7.665 -13.960   1.566  1.00  0.00     0.198 A 
ATOM     72  F   UNL     1      -5.348 -13.945   1.159  1.00  0.00    -0.203 F 
ATOM     73  F   UNL     1      -9.510 -14.095   4.680  1.00  0.00    -0.200 F 
ATOM     74  C   UNL     1      -8.728 -13.996   2.454  1.00  0.00     0.200 A 
ATOM     75  F   UNL     1      -7.894 -13.907   0.247  1.00  0.00    -0.200 F 
ATOM     76  F   UNL     1      -9.987 -14.000   1.995  1.00  0.00    -0.200 F 
ENDBRANCH  42  66
BRANCH  54  77
ATOM     77  C   UNL     1      -2.041 -18.533   6.851  1.00  0.00     0.064 A 
ATOM     78  C   UNL     1      -2.222 -19.642   6.011  1.00  0.00     0.173 A 
ATOM     79  C   UNL     1      -2.070 -18.748   8.238  1.00  0.00     0.173 A 
ATOM     80  F   UNL     1      -2.217 -19.488   4.678  1.00  0.00    -0.203 F 
ATOM     81  C   UNL     1      -2.451 -20.910   6.540  1.00  0.00     0.198 A 
ATOM     82  C   UNL     1      -2.263 -20.023   8.762  1.00  0.00     0.198 A 
ATOM     83  F   UNL     1      -1.893 -17.723   9.085  1.00  0.00    -0.203 F 
ATOM     84  F   UNL     1      -2.675 -21.945   5.719  1.00  0.00    -0.200 F 
ATOM     85  C   UNL     1      -2.463 -21.101   7.913  1.00  0.00     0.200 A 
ATOM     86  F   UNL     1      -2.257 -20.207  10.090  1.00  0.00    -0.200 F 
ATOM     87  F   UNL     1      -2.676 -22.323   8.420  1.00  0.00    -0.200 F 
ENDBRANCH  54  77
ENDBRANCH  28  29
ENDBRANCH  21  23
ENDBRANCH  20  21
ENDBRANCH  19  20
ENDBRANCH  18  19
ENDBRANCH  17  18
ENDBRANCH   1  17
TORSDOF 18
