REMARK SMILES Cc1occc1C(=O)NN1C(=O)/C(=C\c2ccc(O[C@H](C)C(=O)OCCOCCOC(=O)c3ccc(-c4c5nc(c(-c6c(F)c(F)c(F)c(F)c6F)c6ccc([nH]6)c(-c6c(F)c(F)c(F)c(F)c6F)c6nc(c(-c7c(F)c(F)c(F)c(F)c7F)c7ccc4[nH]7)C=C6)C=C5)cc3)cc2)SC1=S
REMARK SMILES IDX 25 1 24 2 22 3 23 4 20 5 21 6 19 7 18 8 15 9 16 10 97 11
REMARK SMILES IDX 17 12 96 13 14 14 10 15 11 16 99 17 12 18 13 19 98 20 100 21
REMARK SMILES IDX 9 22 7 23 8 24 6 26 1 27 2 28 3 29 4 30 5 31 26 32 27 33
REMARK SMILES IDX 28 34 29 35 30 36 31 37 32 38 33 39 34 40 95 41 35 42 94 43
REMARK SMILES IDX 36 44 37 45 38 46 88 47 39 48 93 49 87 50 89 51 40 52 92 53
REMARK SMILES IDX 86 54 85 55 41 57 73 58 53 59 72 60 54 61 57 62 71 63 90 64
REMARK SMILES IDX 55 65 56 66 70 68 91 69 58 70 42 71 43 72 51 73 44 74 45 75
REMARK SMILES IDX 49 76 52 77 46 78 47 79 50 80 48 81 74 82 75 83 83 84 76 85
REMARK SMILES IDX 77 86 81 87 84 88 78 89 79 90 82 91 80 92 59 93 60 94 68 95
REMARK SMILES IDX 61 96 62 97 66 98 69 99 63 100 64 101 67 102 65 103
REMARK H PARENT 9 25 89 56 57 67
REMARK Flexibility Score: inf
ROOT
ATOM      1  C   UNL     1       4.914  -2.216  -8.021  1.00  0.00     0.261 C 
ENDROOT
BRANCH   1   2
ATOM      2  O   UNL     1       5.228  -3.215  -7.037  1.00  0.00    -0.461 OA
BRANCH   2   3
ATOM      3  C   UNL     1       5.244  -4.498  -7.495  1.00  0.00     0.347 C 
ATOM      4  O   UNL     1       5.051  -4.829  -8.660  1.00  0.00    -0.248 OA
BRANCH   3   5
ATOM      5  C   UNL     1       5.541  -5.501  -6.388  1.00  0.00     0.279 C 
ATOM      6  C   UNL     1       6.933  -5.381  -5.769  1.00  0.00     0.066 C 
BRANCH   5   7
ATOM      7  O   UNL     1       4.417  -5.645  -5.530  1.00  0.00    -0.479 OA
BRANCH   7   8
ATOM      8  C   UNL     1       4.234  -5.006  -4.351  1.00  0.00     0.120 A 
ATOM      9  C   UNL     1       3.775  -4.193  -1.699  1.00  0.00    -0.024 A 
ATOM     10  C   UNL     1       4.785  -3.601  -2.464  1.00  0.00     0.012 A 
ATOM     11  C   UNL     1       2.886  -5.063  -2.330  1.00  0.00     0.012 A 
ATOM     12  C   UNL     1       4.998  -3.991  -3.793  1.00  0.00     0.047 A 
ATOM     13  C   UNL     1       3.138  -5.489  -3.634  1.00  0.00     0.047 A 
BRANCH   9  14
ATOM     14  C   UNL     1       3.729  -3.922  -0.255  1.00  0.00     0.029 C 
ATOM     15  N   UNL     1       3.271  -6.903   1.780  1.00  0.00    -0.198 N 
ATOM     16  C   UNL     1       3.590  -6.335   0.559  1.00  0.00     0.285 C 
ATOM     17  C   UNL     1       3.446  -6.134   2.909  1.00  0.00     0.168 C 
ATOM     18  O   UNL     1       3.817  -6.973  -0.459  1.00  0.00    -0.266 OA
ATOM     19  C   UNL     1       3.686  -4.853   0.713  1.00  0.00     0.082 C 
ATOM     20  S   UNL     1       3.727  -4.463   2.405  1.00  0.00    -0.052 SA
ATOM     21  S   UNL     1       3.431  -6.622   4.502  1.00  0.00    -0.050 S 
BRANCH  15  22
ATOM     22  N   UNL     1       3.086  -8.280   1.795  1.00  0.00    -0.254 N 
ATOM     23  C   UNL     1       1.902  -8.969   1.928  1.00  0.00     0.273 C 
ATOM     24  O   UNL     1       1.940 -10.178   1.687  1.00  0.00    -0.267 OA
ATOM     25  H   UNL     1       3.898  -8.828   1.698  1.00  0.00     0.192 HD
BRANCH  23  26
ATOM     26  C   UNL     1       0.674  -8.371   2.440  1.00  0.00     0.082 A 
ATOM     27  C   UNL     1       0.303  -5.916   1.465  1.00  0.00     0.088 C 
ATOM     28  C   UNL     1       0.061  -7.138   2.255  1.00  0.00     0.113 A 
ATOM     29  O   UNL     1      -1.106  -7.078   2.965  1.00  0.00    -0.469 OA
ATOM     30  C   UNL     1      -1.294  -8.277   3.555  1.00  0.00     0.196 A 
ATOM     31  C   UNL     1      -0.254  -9.113   3.251  1.00  0.00     0.056 A 
ENDBRANCH  23  26
ENDBRANCH  15  22
ENDBRANCH   9  14
ENDBRANCH   7   8
ENDBRANCH   5   7
ENDBRANCH   3   5
ENDBRANCH   2   3
ENDBRANCH   1   2
BRANCH   1  32
ATOM     32  C   UNL     1       6.114  -1.322  -8.339  1.00  0.00     0.202 C 
BRANCH  32  33
ATOM     33  O   UNL     1       7.217  -1.942  -8.997  1.00  0.00    -0.374 OA
BRANCH  33  34
ATOM     34  C   UNL     1       8.088  -2.744  -8.205  1.00  0.00     0.202 C 
BRANCH  34  35
ATOM     35  C   UNL     1       9.106  -1.996  -7.335  1.00  0.00     0.261 C 
BRANCH  35  36
ATOM     36  O   UNL     1       8.473  -1.197  -6.318  1.00  0.00    -0.460 OA
BRANCH  36  37
ATOM     37  C   UNL     1       8.595   0.138  -6.494  1.00  0.00     0.338 C 
ATOM     38  O   UNL     1       9.248   0.718  -7.355  1.00  0.00    -0.246 OA
BRANCH  37  39
ATOM     39  C   UNL     1       7.686   0.866  -5.591  1.00  0.00     0.060 A 
ATOM     40  C   UNL     1       6.816   1.798  -6.170  1.00  0.00     0.016 A 
ATOM     41  C   UNL     1       7.745   0.716  -4.204  1.00  0.00     0.016 A 
ATOM     42  C   UNL     1       6.041   2.626  -5.361  1.00  0.00     0.010 A 
ATOM     43  C   UNL     1       6.972   1.555  -3.392  1.00  0.00     0.010 A 
ATOM     44  C   UNL     1       6.145   2.539  -3.966  1.00  0.00    -0.014 A 
BRANCH  44  45
ATOM     45  C   UNL     1       5.508   3.582  -3.124  1.00  0.00     0.031 A 
ATOM     46  C   UNL     1       6.348   4.722  -2.615  1.00  0.00     0.074 A 
ATOM     47  C   UNL     1       4.191   3.544  -2.858  1.00  0.00     0.049 A 
ATOM     48  N   UNL     1       6.009   5.728  -1.849  1.00  0.00    -0.248 NA
ATOM     49  C   UNL     1       7.762   4.729  -3.025  1.00  0.00     0.031 C 
ATOM     50  C   UNL     1       3.263   2.521  -3.335  1.00  0.00     0.029 A 
ATOM     51  N   UNL     1       3.406   4.393  -2.118  1.00  0.00    -0.354 N 
ATOM     52  C   UNL     1       7.161   6.487  -1.690  1.00  0.00     0.074 A 
ATOM     53  C   UNL     1       8.219   5.810  -2.409  1.00  0.00     0.031 C 
ATOM     54  C   UNL     1       2.032   2.798  -2.868  1.00  0.00     0.029 A 
ATOM     55  C   UNL     1       2.094   3.999  -2.037  1.00  0.00     0.049 A 
ATOM     56  H   UNL     1       3.752   5.208  -1.687  1.00  0.00     0.167 HD
ATOM     57  C   UNL     1       7.320   7.651  -1.016  1.00  0.00     0.037 A 
ATOM     58  C   UNL     1       1.066   4.537  -1.352  1.00  0.00     0.037 A 
ATOM     59  C   UNL     1       6.269   8.328  -0.304  1.00  0.00     0.049 A 
ATOM     60  C   UNL     1       1.290   5.791  -0.544  1.00  0.00     0.074 A 
ATOM     61  C   UNL     1       6.333   9.512   0.410  1.00  0.00     0.029 A 
ATOM     62  N   UNL     1       4.960   7.878  -0.214  1.00  0.00    -0.354 N 
ATOM     63  N   UNL     1       2.380   6.507  -0.410  1.00  0.00    -0.248 NA
ATOM     64  C   UNL     1       0.137   6.311   0.206  1.00  0.00     0.031 C 
ATOM     65  C   UNL     1       5.074   9.757   0.967  1.00  0.00     0.029 A 
ATOM     66  C   UNL     1       4.213   8.751   0.560  1.00  0.00     0.049 A 
ATOM     67  H   UNL     1       4.614   7.060  -0.638  1.00  0.00     0.167 HD
ATOM     68  C   UNL     1       2.037   7.575   0.410  1.00  0.00     0.074 A 
ATOM     69  C   UNL     1       0.634   7.421   0.733  1.00  0.00     0.031 C 
ATOM     70  C   UNL     1       2.814   8.592   0.858  1.00  0.00     0.037 A 
BRANCH  57  71
ATOM     71  C   UNL     1       8.688   8.267  -1.003  1.00  0.00     0.064 A 
ATOM     72  C   UNL     1       9.219   8.897  -2.138  1.00  0.00     0.173 A 
ATOM     73  C   UNL     1       9.452   8.276   0.173  1.00  0.00     0.173 A 
ATOM     74  F   UNL     1       8.532   8.903  -3.291  1.00  0.00    -0.203 F 
ATOM     75  C   UNL     1      10.473   9.502  -2.099  1.00  0.00     0.198 A 
ATOM     76  C   UNL     1      10.694   8.903   0.215  1.00  0.00     0.198 A 
ATOM     77  F   UNL     1       8.987   7.689   1.286  1.00  0.00    -0.203 F 
ATOM     78  F   UNL     1      10.976  10.069  -3.205  1.00  0.00    -0.200 F 
ATOM     79  C   UNL     1      11.205   9.512  -0.922  1.00  0.00     0.200 A 
ATOM     80  F   UNL     1      11.396   8.921   1.357  1.00  0.00    -0.200 F 
ATOM     81  F   UNL     1      12.406  10.105  -0.883  1.00  0.00    -0.200 F 
ENDBRANCH  57  71
BRANCH  58  82
ATOM     82  C   UNL     1      -0.272   3.889  -1.377  1.00  0.00     0.064 A 
ATOM     83  C   UNL     1      -1.371   4.516  -1.981  1.00  0.00     0.173 A 
ATOM     84  C   UNL     1      -0.488   2.649  -0.758  1.00  0.00     0.173 A 
ATOM     85  F   UNL     1      -1.221   5.715  -2.562  1.00  0.00    -0.203 F 
ATOM     86  C   UNL     1      -2.640   3.941  -1.940  1.00  0.00     0.198 A 
ATOM     87  C   UNL     1      -1.750   2.061  -0.744  1.00  0.00     0.198 A 
ATOM     88  F   UNL     1       0.529   2.008  -0.164  1.00  0.00    -0.203 F 
ATOM     89  F   UNL     1      -3.684   4.589  -2.474  1.00  0.00    -0.200 F 
ATOM     90  C   UNL     1      -2.828   2.712  -1.325  1.00  0.00     0.200 A 
ATOM     91  F   UNL     1      -1.925   0.869  -0.158  1.00  0.00    -0.200 F 
ATOM     92  F   UNL     1      -4.048   2.162  -1.282  1.00  0.00    -0.200 F 
ENDBRANCH  58  82
BRANCH  70  93
ATOM     93  C   UNL     1       2.158   9.640   1.709  1.00  0.00     0.064 A 
ATOM     94  C   UNL     1       1.777   9.381   3.033  1.00  0.00     0.173 A 
ATOM     95  C   UNL     1       1.946  10.933   1.204  1.00  0.00     0.173 A 
ATOM     96  F   UNL     1       1.945   8.157   3.556  1.00  0.00    -0.203 F 
ATOM     97  C   UNL     1       1.185  10.371   3.814  1.00  0.00     0.198 A 
ATOM     98  C   UNL     1       1.381  11.928   1.997  1.00  0.00     0.198 A 
ATOM     99  F   UNL     1       2.300  11.234  -0.054  1.00  0.00    -0.203 F 
ATOM    100  F   UNL     1       0.787  10.088   5.062  1.00  0.00    -0.200 F 
ATOM    101  C   UNL     1       0.994  11.644   3.298  1.00  0.00     0.200 A 
ATOM    102  F   UNL     1       1.210  13.161   1.501  1.00  0.00    -0.200 F 
ATOM    103  F   UNL     1       0.430  12.597   4.053  1.00  0.00    -0.200 F 
ENDBRANCH  70  93
ENDBRANCH  44  45
ENDBRANCH  37  39
ENDBRANCH  36  37
ENDBRANCH  35  36
ENDBRANCH  34  35
ENDBRANCH  33  34
ENDBRANCH  32  33
ENDBRANCH   1  32
TORSDOF 19
