REMARK SMILES Cc1nsc(N(C)C(=O)[C@@H](C)CCC[C@H](C)[NH3+])c1C(=O)OCCOCCOC(=O)c1ccc(-c2c3nc(c(-c4c(F)c(F)c(F)c(F)c4F)c4ccc([nH]4)c(-c4c(F)c(F)c(F)c(F)c4F)c4nc(c(-c5c(F)c(F)c(F)c(F)c5F)c5ccc2[nH]5)C=C4)C=C3)cc1
REMARK SMILES IDX 21 1 19 2 20 3 18 4 1 5 2 6 3 7 4 8 5 9 6 10 7 11 8 12 9 13
REMARK SMILES IDX 10 14 11 15 12 16 13 17 14 18 15 19 16 20 17 21 22 25 23 26
REMARK SMILES IDX 24 27 25 28 26 29 27 30 28 31 29 32 30 33 31 34 92 35 32 36
REMARK SMILES IDX 91 37 33 38 34 39 35 40 85 41 36 42 90 43 84 44 86 45 37 46
REMARK SMILES IDX 89 47 83 48 82 49 38 51 70 52 50 53 69 54 51 55 54 56 68 57
REMARK SMILES IDX 87 58 52 59 53 60 67 62 88 63 55 64 39 65 40 66 48 67 41 68
REMARK SMILES IDX 42 69 46 70 49 71 43 72 44 73 47 74 45 75 71 76 72 77 80 78
REMARK SMILES IDX 73 79 74 80 78 81 81 82 75 83 76 84 79 85 77 86 56 87 57 88
REMARK SMILES IDX 65 89 58 90 59 91 63 92 66 93 60 94 61 95 64 96 62 97
REMARK H PARENT 17 22 17 23 17 24 86 50 54 61
REMARK Flexibility Score: inf
ROOT
ATOM      1  O   UNL     1      -7.621   6.813  -5.544  1.00  0.00    -0.460 OA
ENDROOT
BRANCH   1   2
ATOM      2  C   UNL     1      -7.456   8.098  -5.960  1.00  0.00     0.343 C 
ATOM      3  O   UNL     1      -7.467   9.085  -5.220  1.00  0.00    -0.246 OA
BRANCH   2   4
ATOM      4  C   UNL     1      -7.377   8.177  -7.403  1.00  0.00     0.117 A 
ATOM      5  C   UNL     1      -9.959   7.845  -7.715  1.00  0.00     0.069 C 
ATOM      6  C   UNL     1      -8.572   8.083  -8.214  1.00  0.00     0.068 A 
ATOM      7  N   UNL     1      -8.402   8.194  -9.527  1.00  0.00    -0.195 NA
ATOM      8  S   UNL     1      -6.808   8.413  -9.839  1.00  0.00    -0.017 S 
ATOM      9  C   UNL     1      -6.236   8.302  -8.208  1.00  0.00     0.133 A 
BRANCH   9  10
ATOM     10  N   UNL     1      -4.811   8.300  -8.032  1.00  0.00    -0.305 N 
ATOM     11  C   UNL     1      -3.905   8.619  -9.136  1.00  0.00     0.154 C 
BRANCH  10  12
ATOM     12  C   UNL     1      -4.290   7.955  -6.788  1.00  0.00     0.230 C 
ATOM     13  O   UNL     1      -4.973   7.965  -5.762  1.00  0.00    -0.274 OA
BRANCH  12  14
ATOM     14  C   UNL     1      -2.818   7.528  -6.582  1.00  0.00     0.076 C 
ATOM     15  C   UNL     1      -2.155   6.659  -7.651  1.00  0.00     0.018 C 
BRANCH  14  16
ATOM     16  C   UNL     1      -1.948   8.709  -6.126  1.00  0.00     0.013 C 
BRANCH  16  17
ATOM     17  C   UNL     1      -2.491   9.464  -4.895  1.00  0.00     0.007 C 
BRANCH  17  18
ATOM     18  C   UNL     1      -2.702   8.600  -3.639  1.00  0.00     0.064 C 
BRANCH  18  19
ATOM     19  C   UNL     1      -1.390   8.154  -2.975  1.00  0.00     0.177 C 
ATOM     20  C   UNL     1      -1.590   6.881  -2.155  1.00  0.00     0.075 C 
BRANCH  19  21
ATOM     21  N   UNL     1      -0.873   9.213  -2.106  1.00  0.00    -0.355 N 
ATOM     22  H   UNL     1      -1.547   9.404  -1.364  1.00  0.00     0.344 HD
ATOM     23  H   UNL     1      -0.723  10.060  -2.655  1.00  0.00     0.344 HD
ATOM     24  H   UNL     1       0.011   8.914  -1.694  1.00  0.00     0.344 HD
ENDBRANCH  19  21
ENDBRANCH  18  19
ENDBRANCH  17  18
ENDBRANCH  16  17
ENDBRANCH  14  16
ENDBRANCH  12  14
ENDBRANCH  10  12
ENDBRANCH   9  10
ENDBRANCH   2   4
ENDBRANCH   1   2
BRANCH   1  25
ATOM     25  C   UNL     1      -7.182   6.557  -4.203  1.00  0.00     0.261 C 
BRANCH  25  26
ATOM     26  C   UNL     1      -6.628   5.133  -4.111  1.00  0.00     0.202 C 
BRANCH  26  27
ATOM     27  O   UNL     1      -5.412   4.833  -4.808  1.00  0.00    -0.374 OA
BRANCH  27  28
ATOM     28  C   UNL     1      -5.346   4.989  -6.221  1.00  0.00     0.202 C 
BRANCH  28  29
ATOM     29  C   UNL     1      -5.825   3.853  -7.105  1.00  0.00     0.261 C 
BRANCH  29  30
ATOM     30  O   UNL     1      -7.202   3.636  -6.880  1.00  0.00    -0.460 OA
BRANCH  30  31
ATOM     31  C   UNL     1      -7.461   2.747  -5.907  1.00  0.00     0.338 C 
ATOM     32  O   UNL     1      -6.649   2.112  -5.235  1.00  0.00    -0.246 OA
BRANCH  31  33
ATOM     33  C   UNL     1      -8.909   2.538  -5.867  1.00  0.00     0.060 A 
ATOM     34  C   UNL     1      -9.281   1.331  -5.279  1.00  0.00     0.016 A 
ATOM     35  C   UNL     1      -9.709   3.208  -6.807  1.00  0.00     0.016 A 
ATOM     36  C   UNL     1     -10.242   0.602  -5.923  1.00  0.00     0.010 A 
ATOM     37  C   UNL     1     -10.649   2.467  -7.469  1.00  0.00     0.010 A 
ATOM     38  C   UNL     1     -10.806   1.138  -7.085  1.00  0.00    -0.014 A 
BRANCH  38  39
ATOM     39  C   UNL     1     -11.546   0.230  -7.920  1.00  0.00     0.031 A 
ATOM     40  C   UNL     1     -12.929   0.010  -7.472  1.00  0.00     0.074 A 
ATOM     41  C   UNL     1     -11.010  -0.295  -9.034  1.00  0.00     0.049 A 
ATOM     42  N   UNL     1     -13.468  -1.090  -7.072  1.00  0.00    -0.248 NA
ATOM     43  C   UNL     1     -13.773   1.203  -7.315  1.00  0.00     0.031 C 
ATOM     44  C   UNL     1      -9.778   0.088  -9.728  1.00  0.00     0.029 A 
ATOM     45  N   UNL     1     -11.552  -1.228  -9.854  1.00  0.00    -0.354 N 
ATOM     46  C   UNL     1     -14.775  -0.759  -6.742  1.00  0.00     0.074 A 
ATOM     47  C   UNL     1     -14.857   0.677  -6.751  1.00  0.00     0.031 C 
ATOM     48  C   UNL     1      -9.802  -0.436 -10.975  1.00  0.00     0.029 A 
ATOM     49  C   UNL     1     -10.992  -1.262 -11.117  1.00  0.00     0.049 A 
ATOM     50  H   UNL     1     -12.280  -1.829  -9.575  1.00  0.00     0.167 HD
ATOM     51  C   UNL     1     -15.754  -1.699  -6.690  1.00  0.00     0.037 A 
ATOM     52  C   UNL     1     -11.565  -1.823 -12.209  1.00  0.00     0.037 A 
ATOM     53  C   UNL     1     -15.209  -3.026  -6.585  1.00  0.00     0.049 A 
ATOM     54  C   UNL     1     -12.623  -2.760 -11.730  1.00  0.00     0.074 A 
ATOM     55  C   UNL     1     -14.419  -3.668  -5.650  1.00  0.00     0.029 A 
ATOM     56  N   UNL     1     -15.160  -3.806  -7.715  1.00  0.00    -0.354 N 
ATOM     57  N   UNL     1     -12.382  -3.878 -11.099  1.00  0.00    -0.248 NA
ATOM     58  C   UNL     1     -13.971  -2.230 -11.552  1.00  0.00     0.031 C 
ATOM     59  C   UNL     1     -13.575  -4.533  -6.404  1.00  0.00     0.029 A 
ATOM     60  C   UNL     1     -13.917  -4.386  -7.749  1.00  0.00     0.049 A 
ATOM     61  H   UNL     1     -15.881  -3.926  -8.375  1.00  0.00     0.167 HD
ATOM     62  C   UNL     1     -13.384  -3.975 -10.141  1.00  0.00     0.074 A 
ATOM     63  C   UNL     1     -14.382  -2.984 -10.528  1.00  0.00     0.031 C 
ATOM     64  C   UNL     1     -13.181  -4.640  -8.965  1.00  0.00     0.037 A 
BRANCH  51  65
ATOM     65  C   UNL     1     -17.186  -1.428  -7.055  1.00  0.00     0.064 A 
ATOM     66  C   UNL     1     -18.156  -2.410  -6.790  1.00  0.00     0.173 A 
ATOM     67  C   UNL     1     -17.598  -0.371  -7.897  1.00  0.00     0.173 A 
ATOM     68  F   UNL     1     -17.864  -3.470  -6.020  1.00  0.00    -0.203 F 
ATOM     69  C   UNL     1     -19.420  -2.372  -7.382  1.00  0.00     0.198 A 
ATOM     70  C   UNL     1     -18.880  -0.303  -8.434  1.00  0.00     0.198 A 
ATOM     71  F   UNL     1     -16.753   0.574  -8.327  1.00  0.00    -0.203 F 
ATOM     72  F   UNL     1     -20.267  -3.395  -7.203  1.00  0.00    -0.200 F 
ATOM     73  C   UNL     1     -19.780  -1.321  -8.205  1.00  0.00     0.200 A 
ATOM     74  F   UNL     1     -19.202   0.718  -9.241  1.00  0.00    -0.200 F 
ATOM     75  F   UNL     1     -20.970  -1.312  -8.818  1.00  0.00    -0.200 F 
ENDBRANCH  51  65
BRANCH  52  76
ATOM     76  C   UNL     1     -11.476  -1.339 -13.607  1.00  0.00     0.064 A 
ATOM     77  C   UNL     1     -11.858  -2.154 -14.683  1.00  0.00     0.173 A 
ATOM     78  C   UNL     1     -11.224   0.016 -13.913  1.00  0.00     0.173 A 
ATOM     79  F   UNL     1     -12.176  -3.440 -14.474  1.00  0.00    -0.203 F 
ATOM     80  C   UNL     1     -11.977  -1.646 -15.982  1.00  0.00     0.198 A 
ATOM     81  C   UNL     1     -11.323   0.516 -15.210  1.00  0.00     0.198 A 
ATOM     82  F   UNL     1     -10.962   0.908 -12.947  1.00  0.00    -0.203 F 
ATOM     83  F   UNL     1     -12.396  -2.443 -16.975  1.00  0.00    -0.200 F 
ATOM     84  C   UNL     1     -11.709  -0.312 -16.244  1.00  0.00     0.200 A 
ATOM     85  F   UNL     1     -11.095   1.818 -15.439  1.00  0.00    -0.200 F 
ATOM     86  F   UNL     1     -11.861   0.183 -17.480  1.00  0.00    -0.200 F 
ENDBRANCH  52  76
BRANCH  64  87
ATOM     87  C   UNL     1     -11.939  -5.473  -8.830  1.00  0.00     0.064 A 
ATOM     88  C   UNL     1     -10.643  -4.932  -8.860  1.00  0.00     0.173 A 
ATOM     89  C   UNL     1     -12.068  -6.824  -8.482  1.00  0.00     0.173 A 
ATOM     90  F   UNL     1     -10.447  -3.625  -9.071  1.00  0.00    -0.203 F 
ATOM     91  C   UNL     1      -9.524  -5.720  -8.597  1.00  0.00     0.198 A 
ATOM     92  C   UNL     1     -10.951  -7.601  -8.183  1.00  0.00     0.198 A 
ATOM     93  F   UNL     1     -13.286  -7.378  -8.373  1.00  0.00    -0.203 F 
ATOM     94  F   UNL     1      -8.298  -5.180  -8.638  1.00  0.00    -0.200 F 
ATOM     95  C   UNL     1      -9.680  -7.052  -8.250  1.00  0.00     0.200 A 
ATOM     96  F   UNL     1     -11.109  -8.874  -7.794  1.00  0.00    -0.200 F 
ATOM     97  F   UNL     1      -8.608  -7.798  -7.949  1.00  0.00    -0.200 F 
ENDBRANCH  64  87
ENDBRANCH  38  39
ENDBRANCH  31  33
ENDBRANCH  30  31
ENDBRANCH  29  30
ENDBRANCH  28  29
ENDBRANCH  27  28
ENDBRANCH  26  27
ENDBRANCH  25  26
ENDBRANCH   1  25
TORSDOF 22
