REMARK SMILES O=C(OCCOCCOC(=O)[C@@]1(Cc2cn3ccccc3n2)CCC[NH2+]C1)c1ccc(-c2c3nc(c(-c4c(F)c(F)c(F)c(F)c4F)c4ccc([nH]4)c(-c4c(F)c(F)c(F)c(F)c4F)c4nc(c(-c5c(F)c(F)c(F)c(F)c5F)c5ccc2[nH]5)C=C4)C=C3)cc1
REMARK SMILES IDX 6 1 5 2 4 3 3 4 2 5 1 6 28 7 29 8 90 9 30 10 89 11 31 12
REMARK SMILES IDX 32 13 33 14 83 15 34 16 88 17 82 18 84 19 35 20 87 21 81 22
REMARK SMILES IDX 80 23 36 25 68 26 48 27 67 28 49 29 52 30 66 31 85 32 50 33
REMARK SMILES IDX 51 34 65 36 86 37 53 38 37 39 38 40 46 41 39 42 40 43 44 44
REMARK SMILES IDX 47 45 41 46 42 47 45 48 43 49 69 50 70 51 78 52 71 53 72 54
REMARK SMILES IDX 76 55 79 56 73 57 74 58 77 59 75 60 54 61 55 62 63 63 56 64
REMARK SMILES IDX 57 65 61 66 64 67 58 68 59 69 62 70 60 71 7 72 8 73 9 74
REMARK SMILES IDX 10 75 11 76 12 77 23 78 27 79 24 80 26 81 25 82 13 85 14 86
REMARK SMILES IDX 15 87 22 88 16 89 21 90 17 91 20 92 18 93 19 94
REMARK H PARENT 84 24 52 35 26 83 26 84
REMARK Flexibility Score: inf
ROOT
ATOM      1  O   UNL     1       4.568   2.248  -2.142  1.00  0.00    -0.374 OA
ENDROOT
BRANCH   1   2
ATOM      2  C   UNL     1       3.827   1.752  -1.027  1.00  0.00     0.202 C 
BRANCH   2   3
ATOM      3  C   UNL     1       2.934   0.539  -1.294  1.00  0.00     0.261 C 
BRANCH   3   4
ATOM      4  O   UNL     1       3.714  -0.538  -1.839  1.00  0.00    -0.460 OA
BRANCH   4   5
ATOM      5  C   UNL     1       3.856  -0.868  -3.146  1.00  0.00     0.338 C 
ATOM      6  O   UNL     1       4.604  -1.786  -3.463  1.00  0.00    -0.246 OA
BRANCH   5   7
ATOM      7  C   UNL     1       3.070  -0.193  -4.214  1.00  0.00     0.060 A 
ATOM      8  C   UNL     1       2.731   1.154  -4.179  1.00  0.00     0.016 A 
ATOM      9  C   UNL     1       2.692  -0.940  -5.339  1.00  0.00     0.016 A 
ATOM     10  C   UNL     1       1.937   1.730  -5.138  1.00  0.00     0.010 A 
ATOM     11  C   UNL     1       1.966  -0.340  -6.375  1.00  0.00     0.010 A 
ATOM     12  C   UNL     1       1.578   1.000  -6.260  1.00  0.00    -0.014 A 
BRANCH  12  13
ATOM     13  C   UNL     1       0.721   1.709  -7.218  1.00  0.00     0.031 A 
ATOM     14  C   UNL     1      -0.728   1.357  -7.265  1.00  0.00     0.074 A 
ATOM     15  C   UNL     1       1.214   2.812  -7.816  1.00  0.00     0.049 A 
ATOM     16  N   UNL     1      -1.671   1.855  -8.014  1.00  0.00    -0.248 NA
ATOM     17  C   UNL     1      -1.187   0.320  -6.323  1.00  0.00     0.031 C 
ATOM     18  C   UNL     1       2.586   3.314  -7.656  1.00  0.00     0.029 A 
ATOM     19  N   UNL     1       0.610   3.753  -8.602  1.00  0.00    -0.354 N 
ATOM     20  C   UNL     1      -2.823   1.166  -7.665  1.00  0.00     0.074 A 
ATOM     21  C   UNL     1      -2.471   0.224  -6.629  1.00  0.00     0.031 C 
ATOM     22  C   UNL     1       2.696   4.500  -8.271  1.00  0.00     0.029 A 
ATOM     23  C   UNL     1       1.446   4.782  -8.961  1.00  0.00     0.049 A 
ATOM     24  H   UNL     1      -0.332   3.698  -8.883  1.00  0.00     0.167 HD
ATOM     25  C   UNL     1      -4.059   1.314  -8.192  1.00  0.00     0.037 A 
ATOM     26  C   UNL     1       1.228   5.809  -9.802  1.00  0.00     0.037 A 
ATOM     27  C   UNL     1      -4.357   2.275  -9.218  1.00  0.00     0.049 A 
ATOM     28  C   UNL     1      -0.126   5.881 -10.450  1.00  0.00     0.074 A 
ATOM     29  C   UNL     1      -5.523   2.450  -9.936  1.00  0.00     0.029 A 
ATOM     30  N   UNL     1      -3.460   3.241  -9.660  1.00  0.00    -0.354 N 
ATOM     31  N   UNL     1      -1.183   5.132 -10.237  1.00  0.00    -0.248 NA
ATOM     32  C   UNL     1      -0.313   6.911 -11.475  1.00  0.00     0.031 C 
ATOM     33  C   UNL     1      -5.320   3.503 -10.836  1.00  0.00     0.029 A 
ATOM     34  C   UNL     1      -4.043   4.014 -10.646  1.00  0.00     0.049 A 
ATOM     35  H   UNL     1      -2.543   3.357  -9.320  1.00  0.00     0.167 HD
ATOM     36  C   UNL     1      -2.160   5.594 -11.103  1.00  0.00     0.074 A 
ATOM     37  C   UNL     1      -1.580   6.719 -11.813  1.00  0.00     0.031 C 
ATOM     38  C   UNL     1      -3.415   5.125 -11.316  1.00  0.00     0.037 A 
BRANCH  25  39
ATOM     39  C   UNL     1      -5.116   0.361  -7.726  1.00  0.00     0.064 A 
ATOM     40  C   UNL     1      -5.699   0.457  -6.455  1.00  0.00     0.173 A 
ATOM     41  C   UNL     1      -5.519  -0.697  -8.555  1.00  0.00     0.173 A 
ATOM     42  F   UNL     1      -5.319   1.427  -5.609  1.00  0.00    -0.203 F 
ATOM     43  C   UNL     1      -6.632  -0.484  -6.022  1.00  0.00     0.198 A 
ATOM     44  C   UNL     1      -6.468  -1.622  -8.129  1.00  0.00     0.198 A 
ATOM     45  F   UNL     1      -4.979  -0.844  -9.774  1.00  0.00    -0.203 F 
ATOM     46  F   UNL     1      -7.136  -0.405  -4.782  1.00  0.00    -0.200 F 
ATOM     47  C   UNL     1      -7.019  -1.519  -6.861  1.00  0.00     0.200 A 
ATOM     48  F   UNL     1      -6.838  -2.623  -8.940  1.00  0.00    -0.200 F 
ATOM     49  F   UNL     1      -7.910  -2.427  -6.440  1.00  0.00    -0.200 F 
ENDBRANCH  25  39
BRANCH  26  50
ATOM     50  C   UNL     1       2.323   6.756 -10.149  1.00  0.00     0.064 A 
ATOM     51  C   UNL     1       2.218   8.129  -9.894  1.00  0.00     0.173 A 
ATOM     52  C   UNL     1       3.495   6.305 -10.781  1.00  0.00     0.173 A 
ATOM     53  F   UNL     1       1.114   8.621  -9.313  1.00  0.00    -0.203 F 
ATOM     54  C   UNL     1       3.227   9.014 -10.277  1.00  0.00     0.198 A 
ATOM     55  C   UNL     1       4.519   7.184 -11.128  1.00  0.00     0.198 A 
ATOM     56  F   UNL     1       3.653   5.002 -11.059  1.00  0.00    -0.203 F 
ATOM     57  F   UNL     1       3.073  10.330 -10.075  1.00  0.00    -0.200 F 
ATOM     58  C   UNL     1       4.378   8.540 -10.888  1.00  0.00     0.200 A 
ATOM     59  F   UNL     1       5.635   6.715 -11.703  1.00  0.00    -0.200 F 
ATOM     60  F   UNL     1       5.345   9.391 -11.258  1.00  0.00    -0.200 F 
ENDBRANCH  26  50
BRANCH  38  61
ATOM     61  C   UNL     1      -4.226   5.853 -12.342  1.00  0.00     0.064 A 
ATOM     62  C   UNL     1      -3.955   5.724 -13.711  1.00  0.00     0.173 A 
ATOM     63  C   UNL     1      -5.296   6.668 -11.948  1.00  0.00     0.173 A 
ATOM     64  F   UNL     1      -2.927   4.970 -14.129  1.00  0.00    -0.203 F 
ATOM     65  C   UNL     1      -4.711   6.414 -14.652  1.00  0.00     0.198 A 
ATOM     66  C   UNL     1      -6.069   7.330 -12.894  1.00  0.00     0.198 A 
ATOM     67  F   UNL     1      -5.593   6.814 -10.648  1.00  0.00    -0.203 F 
ATOM     68  F   UNL     1      -4.402   6.323 -15.953  1.00  0.00    -0.200 F 
ATOM     69  C   UNL     1      -5.771   7.210 -14.243  1.00  0.00     0.200 A 
ATOM     70  F   UNL     1      -7.100   8.090 -12.499  1.00  0.00    -0.200 F 
ATOM     71  F   UNL     1      -6.501   7.872 -15.151  1.00  0.00    -0.200 F 
ENDBRANCH  38  61
ENDBRANCH  12  13
ENDBRANCH   5   7
ENDBRANCH   4   5
ENDBRANCH   3   4
ENDBRANCH   2   3
ENDBRANCH   1   2
BRANCH   1  72
ATOM     72  C   UNL     1       5.899   1.748  -2.260  1.00  0.00     0.202 C 
BRANCH  72  73
ATOM     73  C   UNL     1       6.918   2.780  -1.774  1.00  0.00     0.261 C 
BRANCH  73  74
ATOM     74  O   UNL     1       6.600   3.210  -0.437  1.00  0.00    -0.463 OA
BRANCH  74  75
ATOM     75  C   UNL     1       5.805   4.317  -0.361  1.00  0.00     0.318 C 
ATOM     76  O   UNL     1       5.497   5.004  -1.331  1.00  0.00    -0.251 OA
BRANCH  75  77
ATOM     77  C   UNL     1       5.360   4.615   1.079  1.00  0.00     0.122 C 
ATOM     78  C   UNL     1       6.607   5.095   1.847  1.00  0.00     0.031 C 
ATOM     79  C   UNL     1       4.317   5.760   0.964  1.00  0.00     0.279 C 
ATOM     80  C   UNL     1       6.288   5.943   3.077  1.00  0.00     0.063 C 
ATOM     81  N   UNL     1       4.012   6.431   2.228  1.00  0.00    -0.345 N 
ATOM     82  C   UNL     1       5.227   7.004   2.804  1.00  0.00     0.260 C 
ATOM     83  H   UNL     1       3.336   7.176   2.059  1.00  0.00     0.346 HD
ATOM     84  H   UNL     1       3.625   5.750   2.881  1.00  0.00     0.346 HD
BRANCH  77  85
ATOM     85  C   UNL     1       4.734   3.328   1.675  1.00  0.00     0.082 C 
BRANCH  85  86
ATOM     86  C   UNL     1       4.255   3.358   3.076  1.00  0.00     0.061 A 
ATOM     87  C   UNL     1       3.042   3.809   3.552  1.00  0.00     0.116 A 
ATOM     88  N   UNL     1       5.039   2.886   4.101  1.00  0.00    -0.234 NA
ATOM     89  N   UNL     1       3.190   3.849   4.909  1.00  0.00    -0.307 N 
ATOM     90  C   UNL     1       4.394   3.218   5.200  1.00  0.00     0.136 A 
ATOM     91  C   UNL     1       2.377   4.447   5.865  1.00  0.00     0.093 A 
ATOM     92  C   UNL     1       4.760   3.128   6.570  1.00  0.00     0.048 A 
ATOM     93  C   UNL     1       2.760   4.417   7.153  1.00  0.00     0.018 A 
ATOM     94  C   UNL     1       3.987   3.715   7.505  1.00  0.00     0.005 A 
ENDBRANCH  85  86
ENDBRANCH  77  85
ENDBRANCH  75  77
ENDBRANCH  74  75
ENDBRANCH  73  74
ENDBRANCH  72  73
ENDBRANCH   1  72
TORSDOF 16
