REMARK SMILES Cc1ccc(O)c(C(=O)[C@@H]2[C@@H](C(=O)OCCOCCOC(=O)c3ccc(-c4c5nc(c(-c6c(F)c(F)c(F)c(F)c6F)c6ccc([nH]6)c(-c6c(F)c(F)c(F)c(F)c6F)c6nc(c(-c7c(F)c(F)c(F)c(F)c7F)c7ccc4[nH]7)C=C6)C=C5)cc3)[C@H]3C=C[C@@H]2C3)c1
REMARK SMILES IDX 16 1 15 2 14 3 12 4 13 5 11 6 10 7 89 8 86 9 88 10 90 11
REMARK SMILES IDX 87 12 8 13 9 14 7 15 1 16 2 17 3 18 91 19 4 20 5 21 6 22
REMARK SMILES IDX 17 24 18 25 19 26 20 27 21 28 22 29 23 30 24 31 85 32 25 33
REMARK SMILES IDX 84 34 26 35 27 36 28 37 78 38 29 39 83 40 77 41 79 42 30 43
REMARK SMILES IDX 82 44 76 45 75 46 31 48 63 49 43 50 62 51 44 52 47 53 61 54
REMARK SMILES IDX 80 55 45 56 46 57 60 59 81 60 48 61 32 62 33 63 41 64 34 65
REMARK SMILES IDX 35 66 39 67 42 68 36 69 37 70 40 71 38 72 64 73 65 74 73 75
REMARK SMILES IDX 66 76 67 77 71 78 74 79 68 80 69 81 72 82 70 83 49 84 50 85
REMARK SMILES IDX 58 86 51 87 52 88 56 89 59 90 53 91 54 92 57 93 55 94
REMARK H PARENT 6 23 79 47 47 58
REMARK Flexibility Score: inf
ROOT
ATOM      1  C   UNL     1      -0.515  -8.058   2.757  1.00  0.00     0.202 C 
ENDROOT
BRANCH   1   2
ATOM      2  C   UNL     1      -1.465  -6.971   2.253  1.00  0.00     0.261 C 
BRANCH   2   3
ATOM      3  O   UNL     1      -0.803  -6.115   1.307  1.00  0.00    -0.463 OA
BRANCH   3   4
ATOM      4  C   UNL     1      -0.549  -4.856   1.732  1.00  0.00     0.310 C 
ATOM      5  O   UNL     1      -0.911  -4.388   2.805  1.00  0.00    -0.252 OA
BRANCH   4   6
ATOM      6  C   UNL     1       0.248  -4.034   0.746  1.00  0.00     0.117 C 
ATOM      7  C   UNL     1      -0.637  -3.517  -0.404  1.00  0.00     0.083 C 
ATOM      8  C   UNL     1       0.269  -3.707  -1.653  1.00  0.00     0.024 C 
ATOM      9  C   UNL     1       1.443  -4.686  -0.007  1.00  0.00     0.027 C 
ATOM     10  C   UNL     1       0.291  -5.203  -1.931  1.00  0.00    -0.027 C 
ATOM     11  C   UNL     1       1.700  -3.640  -1.105  1.00  0.00     0.017 C 
ATOM     12  C   UNL     1       0.988  -5.784  -0.940  1.00  0.00    -0.027 C 
BRANCH   7  13
ATOM     13  C   UNL     1      -1.322  -2.172  -0.158  1.00  0.00     0.171 C 
ATOM     14  O   UNL     1      -2.556  -2.154  -0.049  1.00  0.00    -0.294 OA
BRANCH  13  15
ATOM     15  C   UNL     1      -0.632  -0.847  -0.075  1.00  0.00     0.060 A 
ATOM     16  C   UNL     1       2.844   0.632   0.428  1.00  0.00     0.044 C 
ATOM     17  C   UNL     1       1.365   0.541   0.191  1.00  0.00    -0.050 A 
ATOM     18  C   UNL     1       0.617   1.682  -0.099  1.00  0.00     0.007 A 
ATOM     19  C   UNL     1       0.714  -0.699   0.260  1.00  0.00     0.019 A 
ATOM     20  C   UNL     1      -0.753   1.575  -0.330  1.00  0.00     0.047 A 
ATOM     21  C   UNL     1      -1.368   0.323  -0.324  1.00  0.00     0.126 A 
BRANCH  21  22
ATOM     22  O   UNL     1      -2.719   0.325  -0.563  1.00  0.00    -0.507 OA
ATOM     23  H   UNL     1      -3.165   1.133  -0.724  1.00  0.00     0.293 HD
ENDBRANCH  21  22
ENDBRANCH  13  15
ENDBRANCH   7  13
ENDBRANCH   4   6
ENDBRANCH   3   4
ENDBRANCH   2   3
ENDBRANCH   1   2
BRANCH   1  24
ATOM     24  O   UNL     1       0.555  -7.622   3.594  1.00  0.00    -0.374 OA
BRANCH  24  25
ATOM     25  C   UNL     1       1.691  -7.028   2.966  1.00  0.00     0.202 C 
BRANCH  25  26
ATOM     26  C   UNL     1       2.675  -7.989   2.290  1.00  0.00     0.261 C 
BRANCH  26  27
ATOM     27  O   UNL     1       2.129  -8.547   1.080  1.00  0.00    -0.460 OA
BRANCH  27  28
ATOM     28  C   UNL     1       1.831  -9.864   1.139  1.00  0.00     0.338 C 
ATOM     29  O   UNL     1       2.045 -10.633   2.070  1.00  0.00    -0.246 OA
BRANCH  28  30
ATOM     30  C   UNL     1       1.022 -10.253  -0.031  1.00  0.00     0.060 A 
ATOM     31  C   UNL     1      -0.159 -10.971   0.204  1.00  0.00     0.016 A 
ATOM     32  C   UNL     1       1.446  -9.993  -1.335  1.00  0.00     0.016 A 
ATOM     33  C   UNL     1      -0.888 -11.489  -0.865  1.00  0.00     0.010 A 
ATOM     34  C   UNL     1       0.719 -10.521  -2.406  1.00  0.00     0.010 A 
ATOM     35  C   UNL     1      -0.425 -11.308  -2.173  1.00  0.00    -0.014 A 
BRANCH  35  36
ATOM     36  C   UNL     1      -1.006 -12.102  -3.283  1.00  0.00     0.031 A 
ATOM     37  C   UNL     1      -0.273 -13.335  -3.737  1.00  0.00     0.074 A 
ATOM     38  C   UNL     1      -2.157 -11.743  -3.876  1.00  0.00     0.049 A 
ATOM     39  N   UNL     1      -0.504 -14.113  -4.763  1.00  0.00    -0.248 NA
ATOM     40  C   UNL     1       0.885 -13.740  -2.923  1.00  0.00     0.031 C 
ATOM     41  C   UNL     1      -2.992 -10.611  -3.486  1.00  0.00     0.029 A 
ATOM     42  N   UNL     1      -2.810 -12.293  -4.952  1.00  0.00    -0.354 N 
ATOM     43  C   UNL     1       0.488 -15.084  -4.729  1.00  0.00     0.074 A 
ATOM     44  C   UNL     1       1.336 -14.789  -3.595  1.00  0.00     0.031 C 
ATOM     45  C   UNL     1      -4.039 -10.535  -4.327  1.00  0.00     0.029 A 
ATOM     46  C   UNL     1      -3.921 -11.585  -5.338  1.00  0.00     0.049 A 
ATOM     47  H   UNL     1      -2.510 -13.115  -5.403  1.00  0.00     0.167 HD
ATOM     48  C   UNL     1       0.673 -16.129  -5.569  1.00  0.00     0.037 A 
ATOM     49  C   UNL     1      -4.726 -11.748  -6.407  1.00  0.00     0.037 A 
ATOM     50  C   UNL     1      -0.178 -16.424  -6.690  1.00  0.00     0.049 A 
ATOM     51  C   UNL     1      -4.453 -12.872  -7.375  1.00  0.00     0.074 A 
ATOM     52  C   UNL     1      -0.080 -17.465  -7.597  1.00  0.00     0.029 A 
ATOM     53  N   UNL     1      -1.284 -15.673  -7.058  1.00  0.00    -0.354 N 
ATOM     54  N   UNL     1      -3.514 -13.786  -7.341  1.00  0.00    -0.248 NA
ATOM     55  C   UNL     1      -5.352 -12.984  -8.534  1.00  0.00     0.031 C 
ATOM     56  C   UNL     1      -1.098 -17.315  -8.543  1.00  0.00     0.029 A 
ATOM     57  C   UNL     1      -1.865 -16.215  -8.191  1.00  0.00     0.049 A 
ATOM     58  H   UNL     1      -1.608 -14.873  -6.583  1.00  0.00     0.167 HD
ATOM     59  C   UNL     1      -3.732 -14.603  -8.443  1.00  0.00     0.074 A 
ATOM     60  C   UNL     1      -4.891 -14.075  -9.131  1.00  0.00     0.031 C 
ATOM     61  C   UNL     1      -3.038 -15.695  -8.846  1.00  0.00     0.037 A 
BRANCH  48  62
ATOM     62  C   UNL     1       1.862 -17.012  -5.328  1.00  0.00     0.064 A 
ATOM     63  C   UNL     1       1.921 -17.892  -4.238  1.00  0.00     0.173 A 
ATOM     64  C   UNL     1       2.944 -16.999  -6.222  1.00  0.00     0.173 A 
ATOM     65  F   UNL     1       0.920 -17.931  -3.347  1.00  0.00    -0.203 F 
ATOM     66  C   UNL     1       3.030 -18.711  -4.039  1.00  0.00     0.198 A 
ATOM     67  C   UNL     1       4.038 -17.839  -6.036  1.00  0.00     0.198 A 
ATOM     68  F   UNL     1       2.936 -16.176  -7.282  1.00  0.00    -0.203 F 
ATOM     69  F   UNL     1       3.086 -19.511  -2.966  1.00  0.00    -0.200 F 
ATOM     70  C   UNL     1       4.083 -18.689  -4.941  1.00  0.00     0.200 A 
ATOM     71  F   UNL     1       5.049 -17.825  -6.916  1.00  0.00    -0.200 F 
ATOM     72  F   UNL     1       5.147 -19.483  -4.752  1.00  0.00    -0.200 F 
ENDBRANCH  48  62
BRANCH  49  73
ATOM     73  C   UNL     1      -5.854 -10.808  -6.636  1.00  0.00     0.064 A 
ATOM     74  C   UNL     1      -7.185 -11.236  -6.527  1.00  0.00     0.173 A 
ATOM     75  C   UNL     1      -5.626  -9.470  -6.988  1.00  0.00     0.173 A 
ATOM     76  F   UNL     1      -7.454 -12.513  -6.220  1.00  0.00    -0.203 F 
ATOM     77  C   UNL     1      -8.243 -10.365  -6.779  1.00  0.00     0.198 A 
ATOM     78  C   UNL     1      -6.686  -8.593  -7.212  1.00  0.00     0.198 A 
ATOM     79  F   UNL     1      -4.372  -9.011  -7.110  1.00  0.00    -0.203 F 
ATOM     80  F   UNL     1      -9.505 -10.812  -6.715  1.00  0.00    -0.200 F 
ATOM     81  C   UNL     1      -7.993  -9.043  -7.115  1.00  0.00     0.200 A 
ATOM     82  F   UNL     1      -6.439  -7.314  -7.527  1.00  0.00    -0.200 F 
ATOM     83  F   UNL     1      -9.012  -8.206  -7.356  1.00  0.00    -0.200 F 
ENDBRANCH  49  73
BRANCH  61  84
ATOM     84  C   UNL     1      -3.542 -16.443 -10.046  1.00  0.00     0.064 A 
ATOM     85  C   UNL     1      -3.386 -15.947 -11.347  1.00  0.00     0.173 A 
ATOM     86  C   UNL     1      -4.113 -17.717  -9.890  1.00  0.00     0.173 A 
ATOM     87  F   UNL     1      -2.857 -14.731 -11.547  1.00  0.00    -0.203 F 
ATOM     88  C   UNL     1      -3.794 -16.694 -12.450  1.00  0.00     0.198 A 
ATOM     89  C   UNL     1      -4.494 -18.471 -10.996  1.00  0.00     0.198 A 
ATOM     90  F   UNL     1      -4.275 -18.239  -8.666  1.00  0.00    -0.203 F 
ATOM     91  F   UNL     1      -3.663 -16.189 -13.684  1.00  0.00    -0.200 F 
ATOM     92  C   UNL     1      -4.337 -17.958 -12.274  1.00  0.00     0.200 A 
ATOM     93  F   UNL     1      -5.003 -19.699 -10.824  1.00  0.00    -0.200 F 
ATOM     94  F   UNL     1      -4.711 -18.683 -13.338  1.00  0.00    -0.200 F 
ENDBRANCH  61  84
ENDBRANCH  35  36
ENDBRANCH  28  30
ENDBRANCH  27  28
ENDBRANCH  26  27
ENDBRANCH  25  26
ENDBRANCH  24  25
ENDBRANCH   1  24
TORSDOF 17
