REMARK SMILES O=C(OCCOCCOC(=O)c1nccnc1C(=O)Nc1n[nH]c2ncccc12)c1ccc(-c2c3nc(c(-c4c(F)c(F)c(F)c(F)c4F)c4ccc([nH]4)c(-c4c(F)c(F)c(F)c(F)c4F)c4nc(c(-c5c(F)c(F)c(F)c(F)c5F)c5ccc2[nH]5)C=C4)C=C3)cc1
REMARK SMILES IDX 6 1 5 2 4 3 3 4 2 5 1 6 30 7 31 8 92 9 32 10 91 11 33 12
REMARK SMILES IDX 34 13 35 14 85 15 36 16 90 17 84 18 86 19 37 20 89 21 83 22
REMARK SMILES IDX 82 23 38 25 70 26 50 27 69 28 51 29 54 30 68 31 87 32 52 33
REMARK SMILES IDX 53 34 67 36 88 37 55 38 39 39 40 40 48 41 41 42 42 43 46 44
REMARK SMILES IDX 49 45 43 46 44 47 47 48 45 49 71 50 72 51 80 52 73 53 74 54
REMARK SMILES IDX 78 55 81 56 75 57 76 58 79 59 77 60 56 61 57 62 65 63 58 64
REMARK SMILES IDX 59 65 63 66 66 67 60 68 61 69 64 70 62 71 7 72 8 73 9 74
REMARK SMILES IDX 10 75 11 76 12 77 13 78 17 79 14 80 16 81 15 82 18 83 19 84
REMARK SMILES IDX 20 85 21 87 22 88 29 89 23 90 24 91 28 92 25 94 27 95 26 96
REMARK H PARENT 86 24 54 35 20 86 23 93
REMARK Flexibility Score: inf
ROOT
ATOM      1  O   UNL     1       1.822   0.784  -0.967  1.00  0.00    -0.374 OA
ENDROOT
BRANCH   1   2
ATOM      2  C   UNL     1       2.753  -0.109  -0.303  1.00  0.00     0.202 C 
BRANCH   2   3
ATOM      3  C   UNL     1       2.269  -1.177   0.691  1.00  0.00     0.261 C 
BRANCH   3   4
ATOM      4  O   UNL     1       0.980  -0.930   1.247  1.00  0.00    -0.460 OA
BRANCH   4   5
ATOM      5  C   UNL     1       0.706   0.055   2.125  1.00  0.00     0.338 C 
ATOM      6  O   UNL     1      -0.442   0.438   2.330  1.00  0.00    -0.246 OA
BRANCH   5   7
ATOM      7  C   UNL     1       1.806   0.592   2.945  1.00  0.00     0.060 A 
ATOM      8  C   UNL     1       2.804   1.357   2.362  1.00  0.00     0.016 A 
ATOM      9  C   UNL     1       1.806   0.426   4.323  1.00  0.00     0.016 A 
ATOM     10  C   UNL     1       3.910   1.780   3.064  1.00  0.00     0.010 A 
ATOM     11  C   UNL     1       2.825   1.016   5.078  1.00  0.00     0.010 A 
ATOM     12  C   UNL     1       3.899   1.674   4.446  1.00  0.00    -0.014 A 
BRANCH  12  13
ATOM     13  C   UNL     1       5.046   2.208   5.208  1.00  0.00     0.031 A 
ATOM     14  C   UNL     1       5.812   1.260   6.069  1.00  0.00     0.074 A 
ATOM     15  C   UNL     1       5.428   3.494   5.071  1.00  0.00     0.049 A 
ATOM     16  N   UNL     1       6.638   1.508   7.045  1.00  0.00    -0.248 NA
ATOM     17  C   UNL     1       5.596  -0.174   5.806  1.00  0.00     0.031 C 
ATOM     18  C   UNL     1       4.849   4.465   4.136  1.00  0.00     0.029 A 
ATOM     19  N   UNL     1       6.416   4.203   5.700  1.00  0.00    -0.354 N 
ATOM     20  C   UNL     1       6.958   0.269   7.581  1.00  0.00     0.074 A 
ATOM     21  C   UNL     1       6.266  -0.733   6.801  1.00  0.00     0.031 C 
ATOM     22  C   UNL     1       5.531   5.616   4.209  1.00  0.00     0.029 A 
ATOM     23  C   UNL     1       6.489   5.516   5.298  1.00  0.00     0.049 A 
ATOM     24  H   UNL     1       7.016   3.811   6.375  1.00  0.00     0.167 HD
ATOM     25  C   UNL     1       7.738   0.018   8.656  1.00  0.00     0.037 A 
ATOM     26  C   UNL     1       7.198   6.537   5.813  1.00  0.00     0.037 A 
ATOM     27  C   UNL     1       8.444   1.058   9.357  1.00  0.00     0.049 A 
ATOM     28  C   UNL     1       8.017   6.249   7.041  1.00  0.00     0.074 A 
ATOM     29  C   UNL     1       9.227   0.970  10.491  1.00  0.00     0.029 A 
ATOM     30  N   UNL     1       8.459   2.391   8.957  1.00  0.00    -0.354 N 
ATOM     31  N   UNL     1       8.207   5.105   7.658  1.00  0.00    -0.248 NA
ATOM     32  C   UNL     1       8.682   7.392   7.672  1.00  0.00     0.031 C 
ATOM     33  C   UNL     1       9.683   2.258  10.798  1.00  0.00     0.029 A 
ATOM     34  C   UNL     1       9.231   3.139   9.825  1.00  0.00     0.049 A 
ATOM     35  H   UNL     1       7.987   2.749   8.171  1.00  0.00     0.167 HD
ATOM     36  C   UNL     1       9.026   5.384   8.740  1.00  0.00     0.074 A 
ATOM     37  C   UNL     1       9.312   6.806   8.680  1.00  0.00     0.031 C 
ATOM     38  C   UNL     1       9.496   4.552   9.703  1.00  0.00     0.037 A 
BRANCH  25  39
ATOM     39  C   UNL     1       7.761  -1.390   9.172  1.00  0.00     0.064 A 
ATOM     40  C   UNL     1       8.363  -2.445   8.470  1.00  0.00     0.173 A 
ATOM     41  C   UNL     1       7.099  -1.700  10.371  1.00  0.00     0.173 A 
ATOM     42  F   UNL     1       8.977  -2.213   7.300  1.00  0.00    -0.203 F 
ATOM     43  C   UNL     1       8.265  -3.759   8.926  1.00  0.00     0.198 A 
ATOM     44  C   UNL     1       7.032  -3.009  10.841  1.00  0.00     0.198 A 
ATOM     45  F   UNL     1       6.494  -0.734  11.079  1.00  0.00    -0.203 F 
ATOM     46  F   UNL     1       8.780  -4.759   8.197  1.00  0.00    -0.200 F 
ATOM     47  C   UNL     1       7.603  -4.039  10.112  1.00  0.00     0.200 A 
ATOM     48  F   UNL     1       6.392  -3.276  11.988  1.00  0.00    -0.200 F 
ATOM     49  F   UNL     1       7.498  -5.304  10.541  1.00  0.00    -0.200 F 
ENDBRANCH  25  39
BRANCH  26  50
ATOM     50  C   UNL     1       7.099   7.906   5.234  1.00  0.00     0.064 A 
ATOM     51  C   UNL     1       8.218   8.533   4.669  1.00  0.00     0.173 A 
ATOM     52  C   UNL     1       5.889   8.620   5.229  1.00  0.00     0.173 A 
ATOM     53  F   UNL     1       9.405   7.909   4.668  1.00  0.00    -0.203 F 
ATOM     54  C   UNL     1       8.135   9.819   4.134  1.00  0.00     0.198 A 
ATOM     55  C   UNL     1       5.798   9.890   4.661  1.00  0.00     0.198 A 
ATOM     56  F   UNL     1       4.784   8.077   5.759  1.00  0.00    -0.203 F 
ATOM     57  F   UNL     1       9.232  10.411   3.643  1.00  0.00    -0.200 F 
ATOM     58  C   UNL     1       6.923  10.493   4.122  1.00  0.00     0.200 A 
ATOM     59  F   UNL     1       4.620  10.527   4.636  1.00  0.00    -0.200 F 
ATOM     60  F   UNL     1       6.841  11.725   3.601  1.00  0.00    -0.200 F 
ENDBRANCH  26  50
BRANCH  38  61
ATOM     61  C   UNL     1      10.411   5.162  10.720  1.00  0.00     0.064 A 
ATOM     62  C   UNL     1       9.934   6.016  11.723  1.00  0.00     0.173 A 
ATOM     63  C   UNL     1      11.779   4.856  10.700  1.00  0.00     0.173 A 
ATOM     64  F   UNL     1       8.635   6.349  11.767  1.00  0.00    -0.203 F 
ATOM     65  C   UNL     1      10.804   6.566  12.658  1.00  0.00     0.198 A 
ATOM     66  C   UNL     1      12.639   5.382  11.656  1.00  0.00     0.198 A 
ATOM     67  F   UNL     1      12.276   4.038   9.760  1.00  0.00    -0.203 F 
ATOM     68  F   UNL     1      10.340   7.424  13.577  1.00  0.00    -0.200 F 
ATOM     69  C   UNL     1      12.153   6.243  12.628  1.00  0.00     0.200 A 
ATOM     70  F   UNL     1      13.939   5.058  11.635  1.00  0.00    -0.200 F 
ATOM     71  F   UNL     1      12.988   6.770  13.534  1.00  0.00    -0.200 F 
ENDBRANCH  38  61
ENDBRANCH  12  13
ENDBRANCH   5   7
ENDBRANCH   4   5
ENDBRANCH   3   4
ENDBRANCH   2   3
ENDBRANCH   1   2
BRANCH   1  72
ATOM     72  C   UNL     1       2.138   2.200  -1.076  1.00  0.00     0.202 C 
BRANCH  72  73
ATOM     73  C   UNL     1       2.471   3.071  -2.390  1.00  0.00     0.261 C 
BRANCH  73  74
ATOM     74  O   UNL     1       3.219   2.582  -3.543  1.00  0.00    -0.458 OA
BRANCH  74  75
ATOM     75  C   UNL     1       4.527   2.877  -3.861  1.00  0.00     0.359 C 
ATOM     76  O   UNL     1       5.274   3.533  -3.158  1.00  0.00    -0.244 OA
BRANCH  75  77
ATOM     77  C   UNL     1       4.923   2.071  -5.091  1.00  0.00     0.179 A 
ATOM     78  N   UNL     1       3.911   1.954  -6.014  1.00  0.00    -0.245 NA
ATOM     79  C   UNL     1       6.084   1.287  -5.216  1.00  0.00     0.161 A 
ATOM     80  C   UNL     1       4.067   1.014  -6.975  1.00  0.00     0.132 A 
ATOM     81  N   UNL     1       6.216   0.334  -6.200  1.00  0.00    -0.247 NA
ATOM     82  C   UNL     1       5.184   0.208  -7.054  1.00  0.00     0.132 A 
BRANCH  79  83
ATOM     83  C   UNL     1       7.296   1.294  -4.343  1.00  0.00     0.278 C 
ATOM     84  O   UNL     1       8.155   2.157  -4.513  1.00  0.00    -0.267 OA
ATOM     85  N   UNL     1       7.518   0.236  -3.451  1.00  0.00    -0.303 N 
ATOM     86  H   UNL     1       8.406  -0.180  -3.361  1.00  0.00     0.172 HD
BRANCH  85  87
ATOM     87  C   UNL     1       6.446  -0.201  -2.704  1.00  0.00     0.164 A 
ATOM     88  N   UNL     1       6.193   0.559  -1.634  1.00  0.00    -0.155 NA
ATOM     89  C   UNL     1       5.266  -0.848  -3.164  1.00  0.00     0.063 A 
ATOM     90  N   UNL     1       4.927   0.894  -1.876  1.00  0.00    -0.259 N 
ATOM     91  C   UNL     1       4.310   0.055  -2.770  1.00  0.00     0.157 A 
ATOM     92  C   UNL     1       4.819  -1.883  -4.000  1.00  0.00     0.017 A 
ATOM     93  H   UNL     1       4.479   1.665  -1.456  1.00  0.00     0.192 HD
ATOM     94  N   UNL     1       3.031   0.109  -3.175  1.00  0.00    -0.237 NA
ATOM     95  C   UNL     1       3.449  -1.937  -4.322  1.00  0.00     0.021 A 
ATOM     96  C   UNL     1       2.618  -0.912  -3.923  1.00  0.00     0.113 A 
ENDBRANCH  85  87
ENDBRANCH  79  83
ENDBRANCH  75  77
ENDBRANCH  74  75
ENDBRANCH  73  74
ENDBRANCH  72  73
ENDBRANCH   1  72
TORSDOF 16
