REMARK SMILES CC[C@@H](C)N(C)c1ccc(/C=C/C(=O)OCCOCCOC(=O)c2ccc(-c3c4nc(c(-c5c(F)c(F)c(F)c(F)c5F)c5ccc([nH]5)c(-c5c(F)c(F)c(F)c(F)c5F)c5nc(c(-c6c(F)c(F)c(F)c(F)c6F)c6ccc3[nH]6)C=C5)C=C4)cc2)cc1F
REMARK SMILES IDX 17 1 16 2 15 3 13 4 14 5 12 6 11 7 10 8 7 9 8 10 88 11 9 12
REMARK SMILES IDX 87 13 89 14 5 15 6 16 3 17 4 18 2 19 1 20 18 21 19 22 20 23
REMARK SMILES IDX 21 24 22 25 23 26 24 27 25 28 86 29 26 30 85 31 27 32 28 33
REMARK SMILES IDX 29 34 79 35 30 36 84 37 78 38 80 39 31 40 83 41 77 42 76 43
REMARK SMILES IDX 32 45 64 46 44 47 63 48 45 49 48 50 62 51 81 52 46 53 47 54
REMARK SMILES IDX 61 56 82 57 49 58 33 59 34 60 42 61 35 62 36 63 40 64 43 65
REMARK SMILES IDX 37 66 38 67 41 68 39 69 65 70 66 71 74 72 67 73 68 74 72 75
REMARK SMILES IDX 75 76 69 77 70 78 73 79 71 80 50 81 51 82 59 83 52 84 53 85
REMARK SMILES IDX 57 86 60 87 54 88 55 89 58 90 56 91
REMARK H PARENT 80 44 48 55
REMARK Flexibility Score: inf
ROOT
ATOM      1  C   UNL     1      -9.590   6.453   0.625  1.00  0.00     0.202 C 
ENDROOT
BRANCH   1   2
ATOM      2  C   UNL     1      -9.229   5.541  -0.548  1.00  0.00     0.261 C 
BRANCH   2   3
ATOM      3  O   UNL     1      -7.851   5.137  -0.467  1.00  0.00    -0.460 OA
BRANCH   3   4
ATOM      4  C   UNL     1      -7.064   5.556  -1.484  1.00  0.00     0.330 C 
ATOM      5  O   UNL     1      -7.431   6.115  -2.507  1.00  0.00    -0.247 OA
BRANCH   4   6
ATOM      6  C   UNL     1      -5.631   5.320  -1.218  1.00  0.00     0.094 C 
ATOM      7  C   UNL     1      -5.106   4.743  -0.125  1.00  0.00     0.016 C 
BRANCH   7   8
ATOM      8  C   UNL     1      -3.657   4.543   0.060  1.00  0.00    -0.022 A 
ATOM      9  C   UNL     1      -0.861   3.997   0.328  1.00  0.00     0.073 A 
ATOM     10  C   UNL     1      -1.328   5.091  -0.415  1.00  0.00     0.029 A 
ATOM     11  C   UNL     1      -1.837   3.249   1.008  1.00  0.00     0.147 A 
ATOM     12  C   UNL     1      -2.697   5.365  -0.540  1.00  0.00     0.010 A 
ATOM     13  C   UNL     1      -3.207   3.505   0.877  1.00  0.00     0.049 A 
ATOM     14  F   UNL     1      -1.478   2.259   1.841  1.00  0.00    -0.205 F 
BRANCH   9  15
ATOM     15  N   UNL     1       0.497   3.667   0.353  1.00  0.00    -0.370 N 
ATOM     16  C   UNL     1       1.455   4.761   0.494  1.00  0.00     0.144 C 
BRANCH  15  17
ATOM     17  C   UNL     1       0.974   2.457  -0.367  1.00  0.00     0.078 C 
ATOM     18  C   UNL     1       0.497   2.441  -1.823  1.00  0.00     0.031 C 
BRANCH  17  19
ATOM     19  C   UNL     1       0.629   1.162   0.386  1.00  0.00     0.021 C 
ATOM     20  C   UNL     1       1.431  -0.044  -0.086  1.00  0.00     0.006 C 
ENDBRANCH  17  19
ENDBRANCH  15  17
ENDBRANCH   9  15
ENDBRANCH   7   8
ENDBRANCH   4   6
ENDBRANCH   3   4
ENDBRANCH   2   3
ENDBRANCH   1   2
BRANCH   1  21
ATOM     21  O   UNL     1      -8.929   7.719   0.630  1.00  0.00    -0.374 OA
BRANCH  21  22
ATOM     22  C   UNL     1      -7.613   7.754   1.185  1.00  0.00     0.202 C 
BRANCH  22  23
ATOM     23  C   UNL     1      -7.552   7.856   2.713  1.00  0.00     0.261 C 
BRANCH  23  24
ATOM     24  O   UNL     1      -8.004   6.640   3.339  1.00  0.00    -0.460 OA
BRANCH  24  25
ATOM     25  C   UNL     1      -9.195   6.735   3.968  1.00  0.00     0.338 C 
ATOM     26  O   UNL     1      -9.862   7.748   4.144  1.00  0.00    -0.246 OA
BRANCH  25  27
ATOM     27  C   UNL     1      -9.711   5.395   4.306  1.00  0.00     0.060 A 
ATOM     28  C   UNL     1     -11.056   5.136   4.014  1.00  0.00     0.016 A 
ATOM     29  C   UNL     1      -8.935   4.445   4.975  1.00  0.00     0.016 A 
ATOM     30  C   UNL     1     -11.654   3.962   4.463  1.00  0.00     0.010 A 
ATOM     31  C   UNL     1      -9.538   3.266   5.430  1.00  0.00     0.010 A 
ATOM     32  C   UNL     1     -10.912   3.047   5.222  1.00  0.00    -0.014 A 
BRANCH  32  33
ATOM     33  C   UNL     1     -11.633   1.981   5.958  1.00  0.00     0.031 A 
ATOM     34  C   UNL     1     -11.976   2.210   7.406  1.00  0.00     0.074 A 
ATOM     35  C   UNL     1     -12.045   0.863   5.337  1.00  0.00     0.049 A 
ATOM     36  N   UNL     1     -12.634   1.442   8.237  1.00  0.00    -0.248 NA
ATOM     37  C   UNL     1     -11.518   3.479   7.995  1.00  0.00     0.031 C 
ATOM     38  C   UNL     1     -11.815   0.548   3.930  1.00  0.00     0.029 A 
ATOM     39  N   UNL     1     -12.757  -0.209   5.813  1.00  0.00    -0.354 N 
ATOM     40  C   UNL     1     -12.668   2.133   9.441  1.00  0.00     0.074 A 
ATOM     41  C   UNL     1     -11.935   3.365   9.247  1.00  0.00     0.031 C 
ATOM     42  C   UNL     1     -12.382  -0.638   3.652  1.00  0.00     0.029 A 
ATOM     43  C   UNL     1     -12.997  -1.174   4.867  1.00  0.00     0.049 A 
ATOM     44  H   UNL     1     -13.066  -0.280   6.745  1.00  0.00     0.167 HD
ATOM     45  C   UNL     1     -13.268   1.780  10.601  1.00  0.00     0.037 A 
ATOM     46  C   UNL     1     -13.639  -2.354   4.971  1.00  0.00     0.037 A 
ATOM     47  C   UNL     1     -14.004   0.559  10.794  1.00  0.00     0.049 A 
ATOM     48  C   UNL     1     -14.257  -2.750   6.286  1.00  0.00     0.074 A 
ATOM     49  C   UNL     1     -14.647   0.111  11.934  1.00  0.00     0.029 A 
ATOM     50  N   UNL     1     -14.193  -0.409   9.819  1.00  0.00    -0.354 N 
ATOM     51  N   UNL     1     -14.289  -2.089   7.417  1.00  0.00    -0.248 NA
ATOM     52  C   UNL     1     -14.938  -4.053   6.335  1.00  0.00     0.031 C 
ATOM     53  C   UNL     1     -15.191  -1.148  11.662  1.00  0.00     0.029 A 
ATOM     54  C   UNL     1     -14.933  -1.460  10.336  1.00  0.00     0.049 A 
ATOM     55  H   UNL     1     -13.853  -0.357   8.897  1.00  0.00     0.167 HD
ATOM     56  C   UNL     1     -15.017  -2.875   8.301  1.00  0.00     0.074 A 
ATOM     57  C   UNL     1     -15.411  -4.064   7.575  1.00  0.00     0.031 C 
ATOM     58  C   UNL     1     -15.333  -2.630   9.597  1.00  0.00     0.037 A 
BRANCH  45  59
ATOM     59  C   UNL     1     -13.143   2.721  11.762  1.00  0.00     0.064 A 
ATOM     60  C   UNL     1     -12.350   2.383  12.869  1.00  0.00     0.173 A 
ATOM     61  C   UNL     1     -13.840   3.938  11.800  1.00  0.00     0.173 A 
ATOM     62  F   UNL     1     -11.665   1.229  12.882  1.00  0.00    -0.203 F 
ATOM     63  C   UNL     1     -12.267   3.224  13.974  1.00  0.00     0.198 A 
ATOM     64  C   UNL     1     -13.733   4.789  12.897  1.00  0.00     0.198 A 
ATOM     65  F   UNL     1     -14.600   4.314  10.760  1.00  0.00    -0.203 F 
ATOM     66  F   UNL     1     -11.522   2.868  15.030  1.00  0.00    -0.200 F 
ATOM     67  C   UNL     1     -12.954   4.428  13.986  1.00  0.00     0.200 A 
ATOM     68  F   UNL     1     -14.378   5.965  12.896  1.00  0.00    -0.200 F 
ATOM     69  F   UNL     1     -12.861   5.244  15.045  1.00  0.00    -0.200 F 
ENDBRANCH  45  59
BRANCH  46  70
ATOM     70  C   UNL     1     -13.751  -3.231   3.778  1.00  0.00     0.064 A 
ATOM     71  C   UNL     1     -12.632  -3.896   3.258  1.00  0.00     0.173 A 
ATOM     72  C   UNL     1     -14.977  -3.400   3.120  1.00  0.00     0.173 A 
ATOM     73  F   UNL     1     -11.437  -3.767   3.853  1.00  0.00    -0.203 F 
ATOM     74  C   UNL     1     -12.730  -4.680   2.111  1.00  0.00     0.198 A 
ATOM     75  C   UNL     1     -15.079  -4.203   1.986  1.00  0.00     0.198 A 
ATOM     76  F   UNL     1     -16.079  -2.803   3.595  1.00  0.00    -0.203 F 
ATOM     77  F   UNL     1     -11.639  -5.280   1.616  1.00  0.00    -0.200 F 
ATOM     78  C   UNL     1     -13.954  -4.835   1.477  1.00  0.00     0.200 A 
ATOM     79  F   UNL     1     -16.267  -4.369   1.390  1.00  0.00    -0.200 F 
ATOM     80  F   UNL     1     -14.050  -5.596   0.378  1.00  0.00    -0.200 F 
ENDBRANCH  46  70
BRANCH  58  81
ATOM     81  C   UNL     1     -16.182  -3.638  10.314  1.00  0.00     0.064 A 
ATOM     82  C   UNL     1     -17.506  -3.327  10.660  1.00  0.00     0.173 A 
ATOM     83  C   UNL     1     -15.665  -4.872  10.732  1.00  0.00     0.173 A 
ATOM     84  F   UNL     1     -18.044  -2.154  10.292  1.00  0.00    -0.203 F 
ATOM     85  C   UNL     1     -18.278  -4.210  11.410  1.00  0.00     0.198 A 
ATOM     86  C   UNL     1     -16.449  -5.765  11.460  1.00  0.00     0.198 A 
ATOM     87  F   UNL     1     -14.408  -5.219  10.419  1.00  0.00    -0.203 F 
ATOM     88  F   UNL     1     -19.529  -3.877  11.756  1.00  0.00    -0.200 F 
ATOM     89  C   UNL     1     -17.750  -5.429  11.806  1.00  0.00     0.200 A 
ATOM     90  F   UNL     1     -15.945  -6.952  11.825  1.00  0.00    -0.200 F 
ATOM     91  F   UNL     1     -18.496  -6.283  12.521  1.00  0.00    -0.200 F 
ENDBRANCH  58  81
ENDBRANCH  32  33
ENDBRANCH  25  27
ENDBRANCH  24  25
ENDBRANCH  23  24
ENDBRANCH  22  23
ENDBRANCH  21  22
ENDBRANCH   1  21
TORSDOF 18
