REMARK SMILES C[NH2+][C@]1(C(=O)OCCOCCOC(=O)c2ccc(-c3c4nc(c(-c5c(F)c(F)c(F)c(F)c5F)c5ccc([nH]5)c(-c5c(F)c(F)c(F)c(F)c5F)c5nc(c(-c6c(F)c(F)c(F)c(F)c6F)c6ccc3[nH]6)C=C5)C=C4)cc2)CC[C@@H](OCCCc2ccccc2)C1
REMARK SMILES IDX 7 1 6 2 4 3 5 4 3 5 78 6 91 7 79 8 80 9 2 10 1 11 81 14
REMARK SMILES IDX 82 15 83 16 84 17 85 18 86 19 90 20 87 21 89 22 88 23 8 24
REMARK SMILES IDX 9 25 10 26 11 27 12 28 13 29 14 30 15 31 16 32 77 33 17 34
REMARK SMILES IDX 76 35 18 36 19 37 20 38 70 39 21 40 75 41 69 42 71 43 22 44
REMARK SMILES IDX 74 45 68 46 67 47 23 49 55 50 35 51 54 52 36 53 39 54 53 55
REMARK SMILES IDX 72 56 37 57 38 58 52 60 73 61 40 62 24 63 25 64 33 65 26 66
REMARK SMILES IDX 27 67 31 68 34 69 28 70 29 71 32 72 30 73 56 74 57 75 65 76
REMARK SMILES IDX 58 77 59 78 63 79 66 80 60 81 61 82 64 83 62 84 41 85 42 86
REMARK SMILES IDX 50 87 43 88 44 89 48 90 51 91 45 92 46 93 49 94 47 95
REMARK H PARENT 2 12 2 13 71 48 39 59
REMARK Flexibility Score: inf
ROOT
ATOM      1  C   UNL     1       2.779   0.896  -2.722  1.00  0.00     0.261 C 
ENDROOT
BRANCH   1   2
ATOM      2  O   UNL     1       1.151   0.623  -2.333  1.00  0.00    -0.459 OA
BRANCH   2   3
ATOM      3  C   UNL     1      -0.304  -0.200  -1.490  1.00  0.00     0.368 C 
ATOM      4  O   UNL     1      -0.300  -1.344  -0.930  1.00  0.00    -0.245 OA
BRANCH   3   5
ATOM      5  C   UNL     1      -1.831   0.544  -1.136  1.00  0.00     0.196 C 
ATOM      6  C   UNL     1      -2.594   1.855  -1.480  1.00  0.00     0.084 C 
ATOM      7  C   UNL     1      -2.803  -0.560  -1.714  1.00  0.00     0.113 C 
ATOM      8  C   UNL     1      -4.019   1.512  -1.886  1.00  0.00     0.039 C 
ATOM      9  C   UNL     1      -3.952   0.107  -2.446  1.00  0.00     0.125 C 
BRANCH   5  10
ATOM     10  N   UNL     1      -2.015   0.377   0.381  1.00  0.00    -0.334 N 
ATOM     11  C   UNL     1      -1.263   1.289   1.235  1.00  0.00     0.331 C 
ATOM     12  H   UNL     1      -3.006   0.506   0.589  1.00  0.00     0.347 HD
ATOM     13  H   UNL     1      -1.653  -0.552   0.596  1.00  0.00     0.347 HD
ENDBRANCH   5  10
BRANCH   9  14
ATOM     14  O   UNL     1      -3.948   0.227  -3.861  1.00  0.00    -0.378 OA
BRANCH  14  15
ATOM     15  C   UNL     1      -2.981  -0.406  -4.670  1.00  0.00     0.161 C 
BRANCH  15  16
ATOM     16  C   UNL     1      -2.141   0.641  -5.397  1.00  0.00     0.033 C 
BRANCH  16  17
ATOM     17  C   UNL     1      -1.202   1.550  -4.581  1.00  0.00     0.038 C 
BRANCH  17  18
ATOM     18  C   UNL     1      -0.335   0.992  -3.468  1.00  0.00    -0.048 A 
ATOM     19  C   UNL     1       0.405  -0.650  -3.585  1.00  0.00     0.004 A 
ATOM     20  C   UNL     1       0.015   2.040  -2.013  1.00  0.00     0.004 A 
ATOM     21  C   UNL     1       1.479  -1.285  -2.272  1.00  0.00     0.000 A 
ATOM     22  C   UNL     1       0.976   1.358  -0.624  1.00  0.00     0.000 A 
ATOM     23  C   UNL     1       1.751  -0.293  -0.759  1.00  0.00     0.000 A 
ENDBRANCH  17  18
ENDBRANCH  16  17
ENDBRANCH  15  16
ENDBRANCH  14  15
ENDBRANCH   9  14
ENDBRANCH   3   5
ENDBRANCH   2   3
ENDBRANCH   1   2
BRANCH   1  24
ATOM     24  C   UNL     1       3.767   1.629  -1.709  1.00  0.00     0.202 C 
BRANCH  24  25
ATOM     25  O   UNL     1       3.367   1.990  -0.393  1.00  0.00    -0.374 OA
BRANCH  25  26
ATOM     26  C   UNL     1       3.409   3.361   0.017  1.00  0.00     0.202 C 
BRANCH  26  27
ATOM     27  C   UNL     1       2.410   4.336  -0.642  1.00  0.00     0.261 C 
BRANCH  27  28
ATOM     28  O   UNL     1       2.450   4.322  -2.074  1.00  0.00    -0.460 OA
BRANCH  28  29
ATOM     29  C   UNL     1       3.566   4.882  -2.595  1.00  0.00     0.338 C 
ATOM     30  O   UNL     1       4.444   5.463  -1.993  1.00  0.00    -0.246 OA
BRANCH  29  31
ATOM     31  C   UNL     1       3.684   4.444  -3.998  1.00  0.00     0.060 A 
ATOM     32  C   UNL     1       4.871   3.796  -4.359  1.00  0.00     0.016 A 
ATOM     33  C   UNL     1       2.675   4.667  -4.938  1.00  0.00     0.016 A 
ATOM     34  C   UNL     1       5.078   3.408  -5.675  1.00  0.00     0.010 A 
ATOM     35  C   UNL     1       2.900   4.311  -6.271  1.00  0.00     0.010 A 
ATOM     36  C   UNL     1       4.121   3.720  -6.647  1.00  0.00    -0.014 A 
BRANCH  36  37
ATOM     37  C   UNL     1       4.542   3.651  -8.065  1.00  0.00     0.031 A 
ATOM     38  C   UNL     1       5.089   4.900  -8.699  1.00  0.00     0.074 A 
ATOM     39  C   UNL     1       4.563   2.485  -8.732  1.00  0.00     0.049 A 
ATOM     40  N   UNL     1       5.584   5.078  -9.897  1.00  0.00    -0.248 NA
ATOM     41  C   UNL     1       5.090   6.111  -7.861  1.00  0.00     0.031 C 
ATOM     42  C   UNL     1       4.135   1.196  -8.197  1.00  0.00     0.029 A 
ATOM     43  N   UNL     1       4.981   2.202 -10.008  1.00  0.00    -0.354 N 
ATOM     44  C   UNL     1       5.958   6.415  -9.953  1.00  0.00     0.074 A 
ATOM     45  C   UNL     1       5.602   7.011  -8.685  1.00  0.00     0.031 C 
ATOM     46  C   UNL     1       4.310   0.255  -9.142  1.00  0.00     0.029 A 
ATOM     47  C   UNL     1       4.831   0.883 -10.356  1.00  0.00     0.049 A 
ATOM     48  H   UNL     1       5.354   2.881 -10.617  1.00  0.00     0.167 HD
ATOM     49  C   UNL     1       6.554   7.082 -10.967  1.00  0.00     0.037 A 
ATOM     50  C   UNL     1       5.071   0.264 -11.528  1.00  0.00     0.037 A 
ATOM     51  C   UNL     1       6.901   6.489 -12.231  1.00  0.00     0.049 A 
ATOM     52  C   UNL     1       5.636   1.057 -12.682  1.00  0.00     0.074 A 
ATOM     53  C   UNL     1       7.505   7.083 -13.324  1.00  0.00     0.029 A 
ATOM     54  N   UNL     1       6.662   5.166 -12.574  1.00  0.00    -0.354 N 
ATOM     55  N   UNL     1       5.999   2.316 -12.726  1.00  0.00    -0.248 NA
ATOM     56  C   UNL     1       5.830   0.337 -13.949  1.00  0.00     0.031 C 
ATOM     57  C   UNL     1       7.569   6.139 -14.354  1.00  0.00     0.029 A 
ATOM     58  C   UNL     1       7.075   4.935 -13.877  1.00  0.00     0.049 A 
ATOM     59  H   UNL     1       6.259   4.492 -11.981  1.00  0.00     0.167 HD
ATOM     60  C   UNL     1       6.492   2.529 -14.008  1.00  0.00     0.074 A 
ATOM     61  C   UNL     1       6.396   1.265 -14.706  1.00  0.00     0.031 C 
ATOM     62  C   UNL     1       6.983   3.668 -14.558  1.00  0.00     0.037 A 
BRANCH  49  63
ATOM     63  C   UNL     1       6.827   8.545 -10.767  1.00  0.00     0.064 A 
ATOM     64  C   UNL     1       7.806   9.002  -9.871  1.00  0.00     0.173 A 
ATOM     65  C   UNL     1       6.112   9.502 -11.502  1.00  0.00     0.173 A 
ATOM     66  F   UNL     1       8.505   8.130  -9.130  1.00  0.00    -0.203 F 
ATOM     67  C   UNL     1       8.038  10.365  -9.700  1.00  0.00     0.198 A 
ATOM     68  C   UNL     1       6.371  10.861 -11.354  1.00  0.00     0.198 A 
ATOM     69  F   UNL     1       5.166   9.118 -12.372  1.00  0.00    -0.203 F 
ATOM     70  F   UNL     1       8.940  10.781  -8.800  1.00  0.00    -0.200 F 
ATOM     71  C   UNL     1       7.327  11.292 -10.447  1.00  0.00     0.200 A 
ATOM     72  F   UNL     1       5.692  11.754 -12.088  1.00  0.00    -0.200 F 
ATOM     73  F   UNL     1       7.558  12.602 -10.288  1.00  0.00    -0.200 F 
ENDBRANCH  49  63
BRANCH  50  74
ATOM     74  C   UNL     1       4.751  -1.181 -11.688  1.00  0.00     0.064 A 
ATOM     75  C   UNL     1       5.756  -2.130 -11.919  1.00  0.00     0.173 A 
ATOM     76  C   UNL     1       3.424  -1.634 -11.652  1.00  0.00     0.173 A 
ATOM     77  F   UNL     1       7.039  -1.744 -11.990  1.00  0.00    -0.203 F 
ATOM     78  C   UNL     1       5.444  -3.471 -12.135  1.00  0.00     0.198 A 
ATOM     79  C   UNL     1       3.115  -2.980 -11.833  1.00  0.00     0.198 A 
ATOM     80  F   UNL     1       2.423  -0.767 -11.439  1.00  0.00    -0.203 F 
ATOM     81  F   UNL     1       6.418  -4.347 -12.413  1.00  0.00    -0.200 F 
ATOM     82  C   UNL     1       4.124  -3.896 -12.085  1.00  0.00     0.200 A 
ATOM     83  F   UNL     1       1.840  -3.387 -11.772  1.00  0.00    -0.200 F 
ATOM     84  F   UNL     1       3.825  -5.186 -12.293  1.00  0.00    -0.200 F 
ENDBRANCH  50  74
BRANCH  62  85
ATOM     85  C   UNL     1       7.498   3.597 -15.969  1.00  0.00     0.064 A 
ATOM     86  C   UNL     1       6.640   3.418 -17.065  1.00  0.00     0.173 A 
ATOM     87  C   UNL     1       8.868   3.759 -16.232  1.00  0.00     0.173 A 
ATOM     88  F   UNL     1       5.323   3.247 -16.871  1.00  0.00    -0.203 F 
ATOM     89  C   UNL     1       7.137   3.373 -18.365  1.00  0.00     0.198 A 
ATOM     90  C   UNL     1       9.357   3.751 -17.535  1.00  0.00     0.198 A 
ATOM     91  F   UNL     1       9.733   3.945 -15.223  1.00  0.00    -0.203 F 
ATOM     92  F   UNL     1       6.305   3.147 -19.391  1.00  0.00    -0.200 F 
ATOM     93  C   UNL     1       8.493   3.549 -18.600  1.00  0.00     0.200 A 
ATOM     94  F   UNL     1      10.664   3.942 -17.760  1.00  0.00    -0.200 F 
ATOM     95  F   UNL     1       8.968   3.516 -19.853  1.00  0.00    -0.200 F 
ENDBRANCH  62  85
ENDBRANCH  36  37
ENDBRANCH  29  31
ENDBRANCH  28  29
ENDBRANCH  27  28
ENDBRANCH  26  27
ENDBRANCH  25  26
ENDBRANCH  24  25
ENDBRANCH   1  24
TORSDOF 20
