REMARK SMILES CC(=O)Nc1cc(NC(C)=O)cc(C(=O)Nc2ccc(Br)cc2C(=O)OCCOCCOC(=O)c2ccc(-c3c4nc(c(-c5c(F)c(F)c(F)c(F)c5F)c5ccc([nH]5)c(-c5c(F)c(F)c(F)c(F)c5F)c5nc(c(-c6c(F)c(F)c(F)c(F)c6F)c6ccc3[nH]6)C=C5)C=C4)cc2)c1
REMARK SMILES IDX 28 1 27 2 26 3 24 4 25 5 23 6 17 7 18 8 19 9 22 10 20 11
REMARK SMILES IDX 21 12 16 13 14 14 15 15 13 17 5 18 6 19 98 20 7 21 12 22
REMARK SMILES IDX 4 23 1 24 2 25 3 26 8 28 9 29 10 31 11 32 29 33 30 34 31 35
REMARK SMILES IDX 32 36 33 37 34 38 35 39 36 40 97 41 37 42 96 43 38 44 39 45
REMARK SMILES IDX 40 46 90 47 41 48 95 49 89 50 91 51 42 52 94 53 88 54 87 55
REMARK SMILES IDX 43 57 75 58 55 59 74 60 56 61 59 62 73 63 92 64 57 65 58 66
REMARK SMILES IDX 72 68 93 69 60 70 44 71 45 72 53 73 46 74 47 75 51 76 54 77
REMARK SMILES IDX 48 78 49 79 52 80 50 81 76 82 77 83 85 84 78 85 79 86 83 87
REMARK SMILES IDX 86 88 80 89 81 90 84 91 82 92 61 93 62 94 70 95 63 96 64 97
REMARK SMILES IDX 68 98 71 99 65 100 66 101 69 102 67 103
REMARK H PARENT 16 16 4 27 8 30 91 56 59 67
REMARK Flexibility Score: inf
ROOT
ATOM      1  C   UNL     1       5.241   0.178   5.540  1.00  0.00     0.202 C 
ENDROOT
BRANCH   1   2
ATOM      2  C   UNL     1       4.324  -0.662   4.649  1.00  0.00     0.261 C 
BRANCH   2   3
ATOM      3  O   UNL     1       4.482  -0.426   3.237  1.00  0.00    -0.460 OA
BRANCH   3   4
ATOM      4  C   UNL     1       3.429   0.209   2.666  1.00  0.00     0.340 C 
ATOM      5  O   UNL     1       2.451   0.642   3.258  1.00  0.00    -0.246 OA
BRANCH   4   6
ATOM      6  C   UNL     1       3.636   0.483   1.223  1.00  0.00     0.084 A 
ATOM      7  C   UNL     1       4.247  -0.358   0.273  1.00  0.00     0.056 A 
ATOM      8  C   UNL     1       4.457   0.155  -1.024  1.00  0.00     0.028 A 
ATOM      9  C   UNL     1       3.978   1.413  -1.405  1.00  0.00     0.018 A 
ATOM     10  C   UNL     1       3.153   1.750   0.826  1.00  0.00     0.033 A 
ATOM     11  C   UNL     1       3.309   2.199  -0.479  1.00  0.00     0.018 A 
ATOM     12  Br  UNL     1       2.601   3.872  -0.993  1.00  0.00    -0.051 Br
BRANCH   7  13
ATOM     13  N   UNL     1       4.641  -1.709   0.411  1.00  0.00    -0.321 N 
ATOM     14  C   UNL     1       4.172  -2.772   1.151  1.00  0.00     0.255 C 
ATOM     15  O   UNL     1       4.838  -3.807   1.199  1.00  0.00    -0.269 OA
ATOM     16  H   UNL     1       5.422  -1.940  -0.142  1.00  0.00     0.170 HD
BRANCH  14  17
ATOM     17  C   UNL     1       2.867  -2.744   1.847  1.00  0.00     0.044 A 
ATOM     18  C   UNL     1       0.712  -1.726   2.188  1.00  0.00     0.044 A 
ATOM     19  C   UNL     1       0.672  -2.314   3.467  1.00  0.00     0.052 A 
ATOM     20  C   UNL     1       1.777  -2.026   1.347  1.00  0.00     0.040 A 
ATOM     21  C   UNL     1       1.687  -3.166   3.915  1.00  0.00     0.044 A 
ATOM     22  C   UNL     1       2.789  -3.381   3.090  1.00  0.00     0.040 A 
BRANCH  18  23
ATOM     23  N   UNL     1      -0.236  -0.715   1.933  1.00  0.00    -0.326 N 
ATOM     24  C   UNL     1      -0.048  -0.293  -0.523  1.00  0.00     0.114 C 
ATOM     25  C   UNL     1      -0.508   0.075   0.857  1.00  0.00     0.221 C 
ATOM     26  O   UNL     1      -1.179   1.097   1.028  1.00  0.00    -0.275 OA
ATOM     27  H   UNL     1      -0.831  -0.542   2.699  1.00  0.00     0.169 HD
ENDBRANCH  18  23
BRANCH  21  28
ATOM     28  N   UNL     1       1.719  -3.771   5.189  1.00  0.00    -0.326 N 
ATOM     29  C   UNL     1       0.820  -3.594   6.224  1.00  0.00     0.221 C 
ATOM     30  H   UNL     1       2.466  -4.389   5.361  1.00  0.00     0.169 HD
ATOM     31  C   UNL     1       1.167  -4.398   7.453  1.00  0.00     0.114 C 
ATOM     32  O   UNL     1      -0.170  -2.871   6.216  1.00  0.00    -0.275 OA
ENDBRANCH  21  28
ENDBRANCH  14  17
ENDBRANCH   7  13
ENDBRANCH   4   6
ENDBRANCH   3   4
ENDBRANCH   2   3
ENDBRANCH   1   2
BRANCH   1  33
ATOM     33  O   UNL     1       5.145   1.594   5.468  1.00  0.00    -0.374 OA
BRANCH  33  34
ATOM     34  C   UNL     1       5.528   2.247   4.263  1.00  0.00     0.202 C 
BRANCH  34  35
ATOM     35  C   UNL     1       6.997   2.167   3.829  1.00  0.00     0.261 C 
BRANCH  35  36
ATOM     36  O   UNL     1       7.463   0.827   3.585  1.00  0.00    -0.460 OA
BRANCH  36  37
ATOM     37  C   UNL     1       8.438   0.412   4.429  1.00  0.00     0.338 C 
ATOM     38  O   UNL     1       8.948   1.043   5.344  1.00  0.00    -0.246 OA
BRANCH  37  39
ATOM     39  C   UNL     1       8.765  -1.004   4.205  1.00  0.00     0.060 A 
ATOM     40  C   UNL     1       8.577  -1.898   5.268  1.00  0.00     0.016 A 
ATOM     41  C   UNL     1       9.425  -1.408   3.043  1.00  0.00     0.016 A 
ATOM     42  C   UNL     1       9.100  -3.187   5.195  1.00  0.00     0.010 A 
ATOM     43  C   UNL     1       9.960  -2.698   2.977  1.00  0.00     0.010 A 
ATOM     44  C   UNL     1       9.839  -3.576   4.069  1.00  0.00    -0.014 A 
BRANCH  44  45
ATOM     45  C   UNL     1      10.623  -4.833   4.110  1.00  0.00     0.031 A 
ATOM     46  C   UNL     1      12.082  -4.772   4.471  1.00  0.00     0.074 A 
ATOM     47  C   UNL     1      10.040  -6.016   3.853  1.00  0.00     0.049 A 
ATOM     48  N   UNL     1      12.966  -5.735   4.530  1.00  0.00    -0.248 NA
ATOM     49  C   UNL     1      12.617  -3.443   4.810  1.00  0.00     0.031 C 
ATOM     50  C   UNL     1       8.630  -6.206   3.524  1.00  0.00     0.029 A 
ATOM     51  N   UNL     1      10.571  -7.281   3.820  1.00  0.00    -0.354 N 
ATOM     52  C   UNL     1      14.160  -5.131   4.901  1.00  0.00     0.074 A 
ATOM     53  C   UNL     1      13.895  -3.714   5.035  1.00  0.00     0.031 C 
ATOM     54  C   UNL     1       8.408  -7.514   3.308  1.00  0.00     0.029 A 
ATOM     55  C   UNL     1       9.665  -8.245   3.455  1.00  0.00     0.049 A 
ATOM     56  H   UNL     1      11.511  -7.477   4.037  1.00  0.00     0.167 HD
ATOM     57  C   UNL     1      15.367  -5.706   5.116  1.00  0.00     0.037 A 
ATOM     58  C   UNL     1       9.841  -9.563   3.241  1.00  0.00     0.037 A 
ATOM     59  C   UNL     1      15.630  -7.115   4.988  1.00  0.00     0.049 A 
ATOM     60  C   UNL     1      11.205 -10.171   3.436  1.00  0.00     0.074 A 
ATOM     61  C   UNL     1      16.814  -7.797   5.209  1.00  0.00     0.029 A 
ATOM     62  N   UNL     1      14.691  -8.058   4.598  1.00  0.00    -0.354 N 
ATOM     63  N   UNL     1      12.322  -9.597   3.811  1.00  0.00    -0.248 NA
ATOM     64  C   UNL     1      11.331 -11.613   3.177  1.00  0.00     0.031 C 
ATOM     65  C   UNL     1      16.602  -9.148   4.911  1.00  0.00     0.029 A 
ATOM     66  C   UNL     1      15.275  -9.313   4.548  1.00  0.00     0.049 A 
ATOM     67  H   UNL     1      13.749  -7.864   4.387  1.00  0.00     0.167 HD
ATOM     68  C   UNL     1      13.275 -10.606   3.855  1.00  0.00     0.074 A 
ATOM     69  C   UNL     1      12.603 -11.832   3.479  1.00  0.00     0.031 C 
ATOM     70  C   UNL     1      14.590 -10.524   4.178  1.00  0.00     0.037 A 
BRANCH  57  71
ATOM     71  C   UNL     1      16.507  -4.805   5.488  1.00  0.00     0.064 A 
ATOM     72  C   UNL     1      16.602  -4.224   6.761  1.00  0.00     0.173 A 
ATOM     73  C   UNL     1      17.536  -4.547   4.569  1.00  0.00     0.173 A 
ATOM     74  F   UNL     1      15.636  -4.430   7.670  1.00  0.00    -0.203 F 
ATOM     75  C   UNL     1      17.674  -3.400   7.094  1.00  0.00     0.198 A 
ATOM     76  C   UNL     1      18.618  -3.742   4.913  1.00  0.00     0.198 A 
ATOM     77  F   UNL     1      17.494  -5.081   3.339  1.00  0.00    -0.203 F 
ATOM     78  F   UNL     1      17.725  -2.824   8.303  1.00  0.00    -0.200 F 
ATOM     79  C   UNL     1      18.684  -3.165   6.172  1.00  0.00     0.200 A 
ATOM     80  F   UNL     1      19.598  -3.524   4.025  1.00  0.00    -0.200 F 
ATOM     81  F   UNL     1      19.718  -2.376   6.496  1.00  0.00    -0.200 F 
ENDBRANCH  57  71
BRANCH  58  82
ATOM     82  C   UNL     1       8.693 -10.397   2.805  1.00  0.00     0.064 A 
ATOM     83  C   UNL     1       8.120 -11.344   3.664  1.00  0.00     0.173 A 
ATOM     84  C   UNL     1       8.151 -10.268   1.518  1.00  0.00     0.173 A 
ATOM     85  F   UNL     1       8.622 -11.522   4.895  1.00  0.00    -0.203 F 
ATOM     86  C   UNL     1       7.054 -12.139   3.248  1.00  0.00     0.198 A 
ATOM     87  C   UNL     1       7.069 -11.045   1.112  1.00  0.00     0.198 A 
ATOM     88  F   UNL     1       8.668  -9.378   0.658  1.00  0.00    -0.203 F 
ATOM     89  F   UNL     1       6.548 -13.064   4.075  1.00  0.00    -0.200 F 
ATOM     90  C   UNL     1       6.526 -11.984   1.974  1.00  0.00     0.200 A 
ATOM     91  F   UNL     1       6.556 -10.886  -0.116  1.00  0.00    -0.200 F 
ATOM     92  F   UNL     1       5.497 -12.746   1.577  1.00  0.00    -0.200 F 
ENDBRANCH  58  82
BRANCH  70  93
ATOM     93  C   UNL     1      15.382 -11.798   4.169  1.00  0.00     0.064 A 
ATOM     94  C   UNL     1      15.764 -12.417   2.970  1.00  0.00     0.173 A 
ATOM     95  C   UNL     1      15.802 -12.381   5.374  1.00  0.00     0.173 A 
ATOM     96  F   UNL     1      15.374 -11.906   1.793  1.00  0.00    -0.203 F 
ATOM     97  C   UNL     1      16.522 -13.585   2.979  1.00  0.00     0.198 A 
ATOM     98  C   UNL     1      16.581 -13.535   5.378  1.00  0.00     0.198 A 
ATOM     99  F   UNL     1      15.468 -11.824   6.547  1.00  0.00    -0.203 F 
ATOM    100  F   UNL     1      16.843 -14.182   1.822  1.00  0.00    -0.200 F 
ATOM    101  C   UNL     1      16.936 -14.139   4.181  1.00  0.00     0.200 A 
ATOM    102  F   UNL     1      16.989 -14.062   6.541  1.00  0.00    -0.200 F 
ATOM    103  F   UNL     1      17.671 -15.259   4.187  1.00  0.00    -0.200 F 
ENDBRANCH  70  93
ENDBRANCH  44  45
ENDBRANCH  37  39
ENDBRANCH  36  37
ENDBRANCH  35  36
ENDBRANCH  34  35
ENDBRANCH  33  34
ENDBRANCH   1  33
TORSDOF 18
