REMARK SMILES O=C1NC(=O)/C(=C/c2ccc(OCc3cn(-c4ccc(C(=O)OCCOCCOC(=O)c5ccc(-c6c7nc(c(-c8c(F)c(F)c(F)c(F)c8F)c8ccc([nH]8)c(-c8c(F)c(F)c(F)c(F)c8F)c8nc(c(-c9c(F)c(F)c(F)c(F)c9F)c9ccc6[nH]9)C=C8)C=C7)cc5)cc4)nn3)cc2)S1
REMARK SMILES IDX 24 1 23 2 21 3 22 4 20 5 17 6 18 7 96 8 19 9 95 10 16 11
REMARK SMILES IDX 14 12 15 13 98 14 97 15 13 16 12 17 11 18 8 19 9 20 100 21
REMARK SMILES IDX 10 22 99 23 7 24 1 25 2 26 3 27 101 28 4 29 6 31 5 32 25 33
REMARK SMILES IDX 26 34 27 35 28 36 29 37 30 38 31 39 32 40 33 41 94 42 34 43
REMARK SMILES IDX 93 44 35 45 36 46 37 47 87 48 38 49 92 50 86 51 88 52 39 53
REMARK SMILES IDX 91 54 85 55 84 56 40 58 72 59 52 60 71 61 53 62 56 63 70 64
REMARK SMILES IDX 89 65 54 66 55 67 69 69 90 70 57 71 41 72 42 73 50 74 43 75
REMARK SMILES IDX 44 76 48 77 51 78 45 79 46 80 49 81 47 82 73 83 74 84 82 85
REMARK SMILES IDX 75 86 76 87 80 88 83 89 77 90 78 91 81 92 79 93 58 94 59 95
REMARK SMILES IDX 67 96 60 97 61 98 65 99 68 100 62 101 63 102 66 103 64 104
REMARK H PARENT 3 30 88 57 56 68
REMARK Flexibility Score: inf
ROOT
ATOM      1  C   UNL     1      -9.604  10.358   0.512  1.00  0.00     0.261 C 
ENDROOT
BRANCH   1   2
ATOM      2  O   UNL     1      -8.268   9.886   0.283  1.00  0.00    -0.460 OA
BRANCH   2   3
ATOM      3  C   UNL     1      -7.545   9.732   1.418  1.00  0.00     0.338 C 
ATOM      4  O   UNL     1      -7.898   9.980   2.558  1.00  0.00    -0.246 OA
BRANCH   3   5
ATOM      5  C   UNL     1      -6.281   9.035   1.127  1.00  0.00     0.060 A 
ATOM      6  C   UNL     1      -3.762   7.894   0.918  1.00  0.00     0.066 A 
ATOM      7  C   UNL     1      -4.672   7.392   1.859  1.00  0.00     0.029 A 
ATOM      8  C   UNL     1      -4.149   8.892   0.012  1.00  0.00     0.029 A 
ATOM      9  C   UNL     1      -5.918   7.991   1.986  1.00  0.00     0.018 A 
ATOM     10  C   UNL     1      -5.428   9.447   0.100  1.00  0.00     0.018 A 
BRANCH   6  11
ATOM     11  N   UNL     1      -2.423   7.454   0.989  1.00  0.00    -0.220 N 
ATOM     12  C   UNL     1      -0.250   7.380   1.153  1.00  0.00     0.120 A 
ATOM     13  C   UNL     1      -1.282   8.154   0.665  1.00  0.00     0.144 A 
ATOM     14  N   UNL     1      -0.781   6.242   1.699  1.00  0.00    -0.131 NA
ATOM     15  N   UNL     1      -2.095   6.296   1.598  1.00  0.00    -0.062 NA
BRANCH  12  16
ATOM     16  C   UNL     1       1.212   7.661   1.263  1.00  0.00     0.289 C 
BRANCH  16  17
ATOM     17  O   UNL     1       2.038   6.999   0.291  1.00  0.00    -0.487 OA
BRANCH  17  18
ATOM     18  C   UNL     1       2.144   5.637   0.358  1.00  0.00     0.119 A 
ATOM     19  C   UNL     1       2.186   2.836   0.134  1.00  0.00    -0.024 A 
ATOM     20  C   UNL     1       2.688   3.631  -0.900  1.00  0.00     0.012 A 
ATOM     21  C   UNL     1       1.753   3.448   1.312  1.00  0.00     0.012 A 
ATOM     22  C   UNL     1       2.660   5.026  -0.786  1.00  0.00     0.047 A 
ATOM     23  C   UNL     1       1.758   4.838   1.433  1.00  0.00     0.047 A 
BRANCH  19  24
ATOM     24  C   UNL     1       2.128   1.379  -0.001  1.00  0.00     0.029 C 
ATOM     25  O   UNL     1      -2.449  -0.730   0.014  1.00  0.00    -0.261 OA
ATOM     26  C   UNL     1      -1.259  -0.444  -0.008  1.00  0.00     0.290 C 
ATOM     27  N   UNL     1      -0.234  -1.328  -0.049  1.00  0.00    -0.282 N 
ATOM     28  S   UNL     1      -0.634   1.190   0.007  1.00  0.00    -0.022 SA
ATOM     29  C   UNL     1       1.038  -0.838  -0.075  1.00  0.00     0.265 C 
ATOM     30  H   UNL     1      -0.403  -2.298  -0.059  1.00  0.00     0.174 HD
ATOM     31  C   UNL     1       1.005   0.648  -0.028  1.00  0.00     0.083 C 
ATOM     32  O   UNL     1       2.046  -1.522  -0.115  1.00  0.00    -0.268 OA
ENDBRANCH  19  24
ENDBRANCH  17  18
ENDBRANCH  16  17
ENDBRANCH  12  16
ENDBRANCH   6  11
ENDBRANCH   3   5
ENDBRANCH   2   3
ENDBRANCH   1   2
BRANCH   1  33
ATOM     33  C   UNL     1     -10.665   9.283   0.271  1.00  0.00     0.202 C 
BRANCH  33  34
ATOM     34  O   UNL     1     -10.667   8.109   1.082  1.00  0.00    -0.374 OA
BRANCH  34  35
ATOM     35  C   UNL     1      -9.605   7.166   1.004  1.00  0.00     0.202 C 
BRANCH  35  36
ATOM     36  C   UNL     1      -9.470   6.311  -0.247  1.00  0.00     0.261 C 
BRANCH  36  37
ATOM     37  O   UNL     1      -9.356   7.104  -1.414  1.00  0.00    -0.460 OA
BRANCH  37  38
ATOM     38  C   UNL     1     -10.520   7.237  -2.089  1.00  0.00     0.338 C 
ATOM     39  O   UNL     1     -11.638   6.933  -1.713  1.00  0.00    -0.246 OA
BRANCH  38  40
ATOM     40  C   UNL     1     -10.210   7.662  -3.456  1.00  0.00     0.060 A 
ATOM     41  C   UNL     1     -11.292   7.633  -4.336  1.00  0.00     0.016 A 
ATOM     42  C   UNL     1      -8.878   7.619  -3.890  1.00  0.00     0.016 A 
ATOM     43  C   UNL     1     -11.048   7.227  -5.622  1.00  0.00     0.010 A 
ATOM     44  C   UNL     1      -8.638   7.188  -5.166  1.00  0.00     0.010 A 
ATOM     45  C   UNL     1      -9.734   6.899  -5.973  1.00  0.00    -0.014 A 
BRANCH  45  46
ATOM     46  C   UNL     1      -9.507   6.360  -7.291  1.00  0.00     0.031 A 
ATOM     47  C   UNL     1      -9.617   7.416  -8.316  1.00  0.00     0.074 A 
ATOM     48  C   UNL     1      -9.150   5.078  -7.486  1.00  0.00     0.049 A 
ATOM     49  N   UNL     1     -10.536   7.549  -9.212  1.00  0.00    -0.248 NA
ATOM     50  C   UNL     1      -8.742   8.594  -8.170  1.00  0.00     0.031 C 
ATOM     51  C   UNL     1      -8.792   4.071  -6.484  1.00  0.00     0.029 A 
ATOM     52  N   UNL     1      -8.934   4.429  -8.661  1.00  0.00    -0.354 N 
ATOM     53  C   UNL     1     -10.213   8.719  -9.889  1.00  0.00     0.074 A 
ATOM     54  C   UNL     1      -9.282   9.427  -9.058  1.00  0.00     0.031 C 
ATOM     55  C   UNL     1      -8.188   3.025  -7.097  1.00  0.00     0.029 A 
ATOM     56  C   UNL     1      -8.232   3.234  -8.532  1.00  0.00     0.049 A 
ATOM     57  H   UNL     1      -9.248   4.774  -9.528  1.00  0.00     0.167 HD
ATOM     58  C   UNL     1     -10.470   8.824 -11.220  1.00  0.00     0.037 A 
ATOM     59  C   UNL     1      -7.659   2.551  -9.557  1.00  0.00     0.037 A 
ATOM     60  C   UNL     1     -11.506   7.893 -11.606  1.00  0.00     0.049 A 
ATOM     61  C   UNL     1      -8.298   3.031 -10.813  1.00  0.00     0.074 A 
ATOM     62  C   UNL     1     -12.825   7.702 -11.243  1.00  0.00     0.029 A 
ATOM     63  N   UNL     1     -11.113   6.725 -12.213  1.00  0.00    -0.354 N 
ATOM     64  N   UNL     1      -9.545   2.801 -11.120  1.00  0.00    -0.248 NA
ATOM     65  C   UNL     1      -7.692   4.175 -11.480  1.00  0.00     0.031 C 
ATOM     66  C   UNL     1     -13.014   6.288 -11.243  1.00  0.00     0.029 A 
ATOM     67  C   UNL     1     -11.828   5.692 -11.670  1.00  0.00     0.049 A 
ATOM     68  H   UNL     1     -10.433   6.645 -12.920  1.00  0.00     0.167 HD
ATOM     69  C   UNL     1     -10.002   3.996 -11.660  1.00  0.00     0.074 A 
ATOM     70  C   UNL     1      -8.797   4.781 -11.921  1.00  0.00     0.031 C 
ATOM     71  C   UNL     1     -11.318   4.346 -11.563  1.00  0.00     0.037 A 
BRANCH  58  72
ATOM     72  C   UNL     1      -9.469   9.386 -12.211  1.00  0.00     0.064 A 
ATOM     73  C   UNL     1      -9.823   9.389 -13.575  1.00  0.00     0.173 A 
ATOM     74  C   UNL     1      -8.096   9.608 -11.949  1.00  0.00     0.173 A 
ATOM     75  F   UNL     1     -11.098   9.209 -13.950  1.00  0.00    -0.203 F 
ATOM     76  C   UNL     1      -8.865   9.466 -14.588  1.00  0.00     0.198 A 
ATOM     77  C   UNL     1      -7.149   9.729 -12.963  1.00  0.00     0.198 A 
ATOM     78  F   UNL     1      -7.576   9.624 -10.719  1.00  0.00    -0.203 F 
ATOM     79  F   UNL     1      -9.238   9.312 -15.865  1.00  0.00    -0.200 F 
ATOM     80  C   UNL     1      -7.526   9.616 -14.281  1.00  0.00     0.200 A 
ATOM     81  F   UNL     1      -5.856   9.869 -12.639  1.00  0.00    -0.200 F 
ATOM     82  F   UNL     1      -6.598   9.609 -15.245  1.00  0.00    -0.200 F 
ENDBRANCH  58  72
BRANCH  59  83
ATOM     83  C   UNL     1      -6.372   1.813  -9.565  1.00  0.00     0.064 A 
ATOM     84  C   UNL     1      -6.044   0.939 -10.615  1.00  0.00     0.173 A 
ATOM     85  C   UNL     1      -5.319   2.166  -8.697  1.00  0.00     0.173 A 
ATOM     86  F   UNL     1      -6.974   0.593 -11.518  1.00  0.00    -0.203 F 
ATOM     87  C   UNL     1      -4.739   0.466 -10.800  1.00  0.00     0.198 A 
ATOM     88  C   UNL     1      -4.020   1.689  -8.878  1.00  0.00     0.198 A 
ATOM     89  F   UNL     1      -5.506   3.060  -7.716  1.00  0.00    -0.203 F 
ATOM     90  F   UNL     1      -4.452  -0.314 -11.851  1.00  0.00    -0.200 F 
ATOM     91  C   UNL     1      -3.727   0.850  -9.937  1.00  0.00     0.200 A 
ATOM     92  F   UNL     1      -3.041   2.103  -8.061  1.00  0.00    -0.200 F 
ATOM     93  F   UNL     1      -2.465   0.451 -10.149  1.00  0.00    -0.200 F 
ENDBRANCH  59  83
BRANCH  71  94
ATOM     94  C   UNL     1     -12.285   3.289 -11.107  1.00  0.00     0.064 A 
ATOM     95  C   UNL     1     -12.267   2.698  -9.831  1.00  0.00     0.173 A 
ATOM     96  C   UNL     1     -13.354   2.968 -11.952  1.00  0.00     0.173 A 
ATOM     97  F   UNL     1     -11.331   3.029  -8.932  1.00  0.00    -0.203 F 
ATOM     98  C   UNL     1     -13.254   1.793  -9.441  1.00  0.00     0.198 A 
ATOM     99  C   UNL     1     -14.358   2.094 -11.546  1.00  0.00     0.198 A 
ATOM    100  F   UNL     1     -13.451   3.544 -13.160  1.00  0.00    -0.203 F 
ATOM    101  F   UNL     1     -13.209   1.231  -8.224  1.00  0.00    -0.200 F 
ATOM    102  C   UNL     1     -14.303   1.499 -10.297  1.00  0.00     0.200 A 
ATOM    103  F   UNL     1     -15.396   1.852 -12.359  1.00  0.00    -0.200 F 
ATOM    104  F   UNL     1     -15.275   0.662  -9.908  1.00  0.00    -0.200 F 
ENDBRANCH  71  94
ENDBRANCH  45  46
ENDBRANCH  38  40
ENDBRANCH  37  38
ENDBRANCH  36  37
ENDBRANCH  35  36
ENDBRANCH  34  35
ENDBRANCH  33  34
ENDBRANCH   1  33
TORSDOF 19
