REMARK SMILES COc1ccc(-c2[nH]nc3nc(-c4ccc(C(F)(F)F)cc4)cc(C(=O)OCCOCCOC(=O)c4ccc(-c5c6nc(c(-c7c(F)c(F)c(F)c(F)c7F)c7ccc([nH]7)c(-c7c(F)c(F)c(F)c(F)c7F)c7nc(c(-c8c(F)c(F)c(F)c(F)c8F)c8ccc5[nH]8)C=C7)C=C6)cc4)c23)cc1
REMARK SMILES IDX 30 1 29 2 28 3 27 4 25 5 26 6 24 7 7 8 8 9 99 10 9 11 10 13
REMARK SMILES IDX 11 14 23 15 12 16 6 17 3 18 4 19 101 20 5 21 100 22 2 23
REMARK SMILES IDX 1 24 13 25 14 26 22 27 15 28 21 29 16 30 17 31 18 32 19 33
REMARK SMILES IDX 20 34 31 35 32 36 33 37 34 38 35 39 36 40 37 41 98 42 38 43
REMARK SMILES IDX 97 44 39 45 40 46 41 47 91 48 42 49 96 50 90 51 92 52 43 53
REMARK SMILES IDX 95 54 89 55 88 56 44 58 76 59 56 60 75 61 57 62 60 63 74 64
REMARK SMILES IDX 93 65 58 66 59 67 73 69 94 70 61 71 45 72 46 73 54 74 47 75
REMARK SMILES IDX 48 76 52 77 55 78 49 79 50 80 53 81 51 82 77 83 78 84 86 85
REMARK SMILES IDX 79 86 80 87 84 88 87 89 81 90 82 91 85 92 83 93 62 94 63 95
REMARK SMILES IDX 71 96 64 97 65 98 69 99 72 100 66 101 67 102 70 103 68 104
REMARK H PARENT 8 12 92 57 60 68
REMARK Flexibility Score: inf
ROOT
ATOM      1  O   UNL     1       4.082  -2.857   2.582  1.00  0.00    -0.374 OA
ENDROOT
BRANCH   1   2
ATOM      2  C   UNL     1       4.542  -2.815   3.934  1.00  0.00     0.202 C 
BRANCH   2   3
ATOM      3  C   UNL     1       3.769  -3.768   4.844  1.00  0.00     0.261 C 
BRANCH   3   4
ATOM      4  O   UNL     1       3.888  -5.113   4.342  1.00  0.00    -0.460 OA
BRANCH   4   5
ATOM      5  C   UNL     1       2.763  -5.635   3.787  1.00  0.00     0.339 C 
ATOM      6  O   UNL     1       1.627  -5.220   3.911  1.00  0.00    -0.246 OA
BRANCH   5   7
ATOM      7  C   UNL     1       3.142  -6.800   2.980  1.00  0.00     0.075 A 
ATOM      8  C   UNL     1       1.732  -6.535   0.882  1.00  0.00     0.075 A 
ATOM      9  N   UNL     1       1.519  -7.437  -0.136  1.00  0.00    -0.275 N 
ATOM     10  C   UNL     1       2.580  -7.202   1.758  1.00  0.00     0.061 A 
ATOM     11  N   UNL     1       2.266  -8.549  -0.070  1.00  0.00    -0.154 NA
ATOM     12  H   UNL     1       0.868  -7.278  -0.857  1.00  0.00     0.190 HD
ATOM     13  C   UNL     1       2.938  -8.410   1.071  1.00  0.00     0.182 A 
ATOM     14  N   UNL     1       3.882  -9.264   1.534  1.00  0.00    -0.226 NA
ATOM     15  C   UNL     1       4.132  -7.699   3.421  1.00  0.00     0.045 A 
ATOM     16  C   UNL     1       4.458  -8.880   2.708  1.00  0.00     0.074 A 
BRANCH   8  17
ATOM     17  C   UNL     1       1.225  -5.170   0.756  1.00  0.00     0.001 A 
ATOM     18  C   UNL     1       0.431  -2.468   0.590  1.00  0.00     0.118 A 
ATOM     19  C   UNL     1      -0.285  -3.382   1.369  1.00  0.00     0.047 A 
ATOM     20  C   UNL     1       1.510  -2.924  -0.162  1.00  0.00     0.047 A 
ATOM     21  C   UNL     1       0.107  -4.725   1.455  1.00  0.00     0.014 A 
ATOM     22  C   UNL     1       1.882  -4.272  -0.101  1.00  0.00     0.014 A 
BRANCH  18  23
ATOM     23  O   UNL     1      -0.019  -1.178   0.645  1.00  0.00    -0.497 OA
ATOM     24  C   UNL     1       0.800  -0.185   0.035  1.00  0.00     0.278 C 
ENDBRANCH  18  23
ENDBRANCH   8  17
BRANCH  16  25
ATOM     25  C   UNL     1       5.468  -9.830   3.234  1.00  0.00     0.000 A 
ATOM     26  C   UNL     1       6.334 -10.525   2.370  1.00  0.00     0.011 A 
ATOM     27  C   UNL     1       5.574 -10.105   4.610  1.00  0.00     0.011 A 
ATOM     28  C   UNL     1       7.257 -11.460   2.857  1.00  0.00     0.014 A 
ATOM     29  C   UNL     1       6.493 -11.040   5.101  1.00  0.00     0.014 A 
ATOM     30  C   UNL     1       7.339 -11.735   4.229  1.00  0.00     0.056 A 
BRANCH  30  31
ATOM     31  C   UNL     1       8.302 -12.778   4.742  1.00  0.00     0.416 C 
ATOM     32  F   UNL     1       8.064 -14.012   4.220  1.00  0.00    -0.166 F 
ATOM     33  F   UNL     1       9.597 -12.485   4.439  1.00  0.00    -0.166 F 
ATOM     34  F   UNL     1       8.264 -12.932   6.096  1.00  0.00    -0.166 F 
ENDBRANCH  30  31
ENDBRANCH  16  25
ENDBRANCH   5   7
ENDBRANCH   4   5
ENDBRANCH   3   4
ENDBRANCH   2   3
ENDBRANCH   1   2
BRANCH   1  35
ATOM     35  C   UNL     1       4.615  -3.928   1.808  1.00  0.00     0.202 C 
BRANCH  35  36
ATOM     36  C   UNL     1       5.261  -3.406   0.531  1.00  0.00     0.261 C 
BRANCH  36  37
ATOM     37  O   UNL     1       6.643  -3.202   0.788  1.00  0.00    -0.460 OA
BRANCH  37  38
ATOM     38  C   UNL     1       6.925  -2.250   1.712  1.00  0.00     0.338 C 
ATOM     39  O   UNL     1       6.332  -1.233   1.964  1.00  0.00    -0.246 OA
BRANCH  38  40
ATOM     40  C   UNL     1       8.189  -2.693   2.309  1.00  0.00     0.060 A 
ATOM     41  C   UNL     1       9.154  -1.708   2.471  1.00  0.00     0.016 A 
ATOM     42  C   UNL     1       8.480  -4.069   2.371  1.00  0.00     0.016 A 
ATOM     43  C   UNL     1      10.466  -2.104   2.394  1.00  0.00     0.010 A 
ATOM     44  C   UNL     1       9.789  -4.461   2.277  1.00  0.00     0.010 A 
ATOM     45  C   UNL     1      10.748  -3.460   2.180  1.00  0.00    -0.014 A 
BRANCH  45  46
ATOM     46  C   UNL     1      12.098  -3.789   1.797  1.00  0.00     0.031 A 
ATOM     47  C   UNL     1      13.046  -3.835   2.921  1.00  0.00     0.074 A 
ATOM     48  C   UNL     1      12.429  -4.062   0.524  1.00  0.00     0.049 A 
ATOM     49  N   UNL     1      14.030  -3.037   3.158  1.00  0.00    -0.248 NA
ATOM     50  C   UNL     1      12.774  -4.811   3.985  1.00  0.00     0.031 C 
ATOM     51  C   UNL     1      11.550  -4.345  -0.613  1.00  0.00     0.029 A 
ATOM     52  N   UNL     1      13.671  -4.237   0.008  1.00  0.00    -0.354 N 
ATOM     53  C   UNL     1      14.612  -3.507   4.327  1.00  0.00     0.074 A 
ATOM     54  C   UNL     1      13.709  -4.486   4.875  1.00  0.00     0.031 C 
ATOM     55  C   UNL     1      12.289  -4.871  -1.617  1.00  0.00     0.029 A 
ATOM     56  C   UNL     1      13.691  -4.848  -1.232  1.00  0.00     0.049 A 
ATOM     57  H   UNL     1      14.489  -3.953   0.477  1.00  0.00     0.167 HD
ATOM     58  C   UNL     1      15.904  -3.226   4.636  1.00  0.00     0.037 A 
ATOM     59  C   UNL     1      14.786  -5.386  -1.822  1.00  0.00     0.037 A 
ATOM     60  C   UNL     1      16.395  -2.090   3.901  1.00  0.00     0.049 A 
ATOM     61  C   UNL     1      15.987  -4.807  -1.158  1.00  0.00     0.074 A 
ATOM     62  C   UNL     1      16.017  -0.763   3.814  1.00  0.00     0.029 A 
ATOM     63  N   UNL     1      17.214  -2.311   2.820  1.00  0.00    -0.354 N 
ATOM     64  N   UNL     1      16.363  -3.563  -1.282  1.00  0.00    -0.248 NA
ATOM     65  C   UNL     1      16.520  -5.502   0.008  1.00  0.00     0.031 C 
ATOM     66  C   UNL     1      16.229  -0.402   2.451  1.00  0.00     0.029 A 
ATOM     67  C   UNL     1      16.753  -1.518   1.799  1.00  0.00     0.049 A 
ATOM     68  H   UNL     1      17.985  -2.921   2.785  1.00  0.00     0.167 HD
ATOM     69  C   UNL     1      16.828  -3.203  -0.024  1.00  0.00     0.074 A 
ATOM     70  C   UNL     1      16.985  -4.459   0.702  1.00  0.00     0.031 C 
ATOM     71  C   UNL     1      16.769  -1.909   0.410  1.00  0.00     0.037 A 
BRANCH  58  72
ATOM     72  C   UNL     1      16.807  -4.193   5.349  1.00  0.00     0.064 A 
ATOM     73  C   UNL     1      18.055  -3.750   5.821  1.00  0.00     0.173 A 
ATOM     74  C   UNL     1      16.616  -5.593   5.340  1.00  0.00     0.173 A 
ATOM     75  F   UNL     1      18.352  -2.442   5.840  1.00  0.00    -0.203 F 
ATOM     76  C   UNL     1      19.056  -4.647   6.198  1.00  0.00     0.198 A 
ATOM     77  C   UNL     1      17.593  -6.481   5.776  1.00  0.00     0.198 A 
ATOM     78  F   UNL     1      15.528  -6.162   4.805  1.00  0.00    -0.203 F 
ATOM     79  F   UNL     1      20.271  -4.186   6.522  1.00  0.00    -0.200 F 
ATOM     80  C   UNL     1      18.825  -6.011   6.175  1.00  0.00     0.200 A 
ATOM     81  F   UNL     1      17.354  -7.799   5.726  1.00  0.00    -0.200 F 
ATOM     82  F   UNL     1      19.802  -6.872   6.484  1.00  0.00    -0.200 F 
ENDBRANCH  58  72
BRANCH  59  83
ATOM     83  C   UNL     1      14.844  -6.597  -2.674  1.00  0.00     0.064 A 
ATOM     84  C   UNL     1      15.971  -6.875  -3.462  1.00  0.00     0.173 A 
ATOM     85  C   UNL     1      13.900  -7.636  -2.544  1.00  0.00     0.173 A 
ATOM     86  F   UNL     1      16.942  -5.961  -3.595  1.00  0.00    -0.203 F 
ATOM     87  C   UNL     1      16.148  -8.122  -4.073  1.00  0.00     0.198 A 
ATOM     88  C   UNL     1      14.070  -8.873  -3.164  1.00  0.00     0.198 A 
ATOM     89  F   UNL     1      12.838  -7.509  -1.736  1.00  0.00    -0.203 F 
ATOM     90  F   UNL     1      17.265  -8.372  -4.770  1.00  0.00    -0.200 F 
ATOM     91  C   UNL     1      15.200  -9.121  -3.919  1.00  0.00     0.200 A 
ATOM     92  F   UNL     1      13.162  -9.841  -2.976  1.00  0.00    -0.200 F 
ATOM     93  F   UNL     1      15.393 -10.331  -4.461  1.00  0.00    -0.200 F 
ENDBRANCH  59  83
BRANCH  71  94
ATOM     94  C   UNL     1      16.424  -0.849  -0.596  1.00  0.00     0.064 A 
ATOM     95  C   UNL     1      15.194  -0.795  -1.275  1.00  0.00     0.173 A 
ATOM     96  C   UNL     1      17.301   0.230  -0.766  1.00  0.00     0.173 A 
ATOM     97  F   UNL     1      14.256  -1.730  -1.076  1.00  0.00    -0.203 F 
ATOM     98  C   UNL     1      14.882   0.264  -2.125  1.00  0.00     0.198 A 
ATOM     99  C   UNL     1      16.972   1.307  -1.586  1.00  0.00     0.198 A 
ATOM    100  F   UNL     1      18.463   0.265  -0.093  1.00  0.00    -0.203 F 
ATOM    101  F   UNL     1      13.707   0.284  -2.771  1.00  0.00    -0.200 F 
ATOM    102  C   UNL     1      15.769   1.317  -2.274  1.00  0.00     0.200 A 
ATOM    103  F   UNL     1      17.808   2.349  -1.685  1.00  0.00    -0.200 F 
ATOM    104  F   UNL     1      15.451   2.358  -3.057  1.00  0.00    -0.200 F 
ENDBRANCH  71  94
ENDBRANCH  45  46
ENDBRANCH  38  40
ENDBRANCH  37  38
ENDBRANCH  36  37
ENDBRANCH  35  36
ENDBRANCH   1  35
TORSDOF 18
