REMARK SMILES CCc1ccc(NC(=O)c2c(C(=O)OCCOCCOC(=O)c3ccc(-c4c5nc(c(-c6c(F)c(F)c(F)c(F)c6F)c6ccc([nH]6)c(-c6c(F)c(F)c(F)c(F)c6F)c6nc(c(-c7c(F)c(F)c(F)c(F)c7F)c7ccc4[nH]7)C=C6)C=C5)cc3)cnn2C)cc1
REMARK SMILES IDX 16 1 15 2 14 3 12 4 13 5 11 6 10 7 88 8 86 9 87 10 89 11
REMARK SMILES IDX 8 12 7 13 9 15 6 16 3 17 4 18 91 19 5 20 90 21 2 22 1 23
REMARK SMILES IDX 17 24 18 25 19 26 20 27 21 28 22 29 23 30 24 31 85 32 25 33
REMARK SMILES IDX 84 34 26 35 27 36 28 37 78 38 29 39 83 40 77 41 79 42 30 43
REMARK SMILES IDX 82 44 76 45 75 46 31 48 63 49 43 50 62 51 44 52 47 53 61 54
REMARK SMILES IDX 80 55 45 56 46 57 60 59 81 60 48 61 32 62 33 63 41 64 34 65
REMARK SMILES IDX 35 66 39 67 42 68 36 69 37 70 40 71 38 72 64 73 65 74 73 75
REMARK SMILES IDX 66 76 67 77 71 78 74 79 68 80 69 81 72 82 70 83 49 84 50 85
REMARK SMILES IDX 58 86 51 87 52 88 56 89 59 90 53 91 54 92 57 93 55 94
REMARK H PARENT 7 14 79 47 47 58
REMARK Flexibility Score: inf
ROOT
ATOM      1  C   UNL     1       6.871   8.190   4.093  1.00  0.00     0.202 C 
ENDROOT
BRANCH   1   2
ATOM      2  C   UNL     1       7.157   8.438   2.613  1.00  0.00     0.261 C 
BRANCH   2   3
ATOM      3  O   UNL     1       6.417   7.510   1.804  1.00  0.00    -0.460 OA
BRANCH   3   4
ATOM      4  C   UNL     1       7.160   6.596   1.127  1.00  0.00     0.342 C 
ATOM      5  O   UNL     1       8.385   6.590   1.093  1.00  0.00    -0.246 OA
BRANCH   4   6
ATOM      6  C   UNL     1       6.383   5.543   0.496  1.00  0.00     0.111 A 
ATOM      7  C   UNL     1       5.023   5.439   0.189  1.00  0.00     0.140 A 
ATOM      8  N   UNL     1       4.946   4.293  -0.579  1.00  0.00    -0.262 N 
ATOM      9  C   UNL     1       6.940   4.316   0.075  1.00  0.00     0.151 A 
ATOM     10  N   UNL     1       6.052   3.527  -0.520  1.00  0.00    -0.180 NA
ATOM     11  C   UNL     1       3.908   3.876  -1.496  1.00  0.00     0.174 C 
BRANCH   7  12
ATOM     12  C   UNL     1       3.954   6.385   0.424  1.00  0.00     0.274 C 
ATOM     13  N   UNL     1       2.671   5.974   0.731  1.00  0.00    -0.321 N 
ATOM     14  H   UNL     1       2.009   6.701   0.700  1.00  0.00     0.170 HD
ATOM     15  O   UNL     1       4.115   7.597   0.275  1.00  0.00    -0.267 OA
BRANCH  13  16
ATOM     16  C   UNL     1       2.120   4.728   1.077  1.00  0.00     0.041 A 
ATOM     17  C   UNL     1       0.943   2.186   1.369  1.00  0.00    -0.048 A 
ATOM     18  C   UNL     1       2.262   2.415   1.779  1.00  0.00     0.006 A 
ATOM     19  C   UNL     1       0.186   3.266   0.903  1.00  0.00     0.006 A 
ATOM     20  C   UNL     1       2.843   3.682   1.646  1.00  0.00     0.026 A 
ATOM     21  C   UNL     1       0.766   4.532   0.778  1.00  0.00     0.026 A 
BRANCH  17  22
ATOM     22  C   UNL     1       0.373   0.789   1.363  1.00  0.00     0.032 C 
ATOM     23  C   UNL     1       0.861   0.000   0.153  1.00  0.00     0.009 C 
ENDBRANCH  17  22
ENDBRANCH  13  16
ENDBRANCH   7  12
ENDBRANCH   4   6
ENDBRANCH   3   4
ENDBRANCH   2   3
ENDBRANCH   1   2
BRANCH   1  24
ATOM     24  O   UNL     1       7.333   6.930   4.581  1.00  0.00    -0.374 OA
BRANCH  24  25
ATOM     25  C   UNL     1       6.453   5.816   4.403  1.00  0.00     0.202 C 
BRANCH  25  26
ATOM     26  C   UNL     1       5.358   5.689   5.466  1.00  0.00     0.261 C 
BRANCH  26  27
ATOM     27  O   UNL     1       4.350   6.702   5.285  1.00  0.00    -0.460 OA
BRANCH  27  28
ATOM     28  C   UNL     1       4.299   7.642   6.258  1.00  0.00     0.338 C 
ATOM     29  O   UNL     1       4.917   7.654   7.309  1.00  0.00    -0.246 OA
BRANCH  28  30
ATOM     30  C   UNL     1       3.491   8.792   5.803  1.00  0.00     0.060 A 
ATOM     31  C   UNL     1       4.016  10.072   6.021  1.00  0.00     0.016 A 
ATOM     32  C   UNL     1       2.229   8.634   5.223  1.00  0.00     0.016 A 
ATOM     33  C   UNL     1       3.259  11.201   5.712  1.00  0.00     0.010 A 
ATOM     34  C   UNL     1       1.466   9.768   4.922  1.00  0.00     0.010 A 
ATOM     35  C   UNL     1       1.965  11.054   5.197  1.00  0.00    -0.014 A 
BRANCH  35  36
ATOM     36  C   UNL     1       1.085  12.242   5.091  1.00  0.00     0.031 A 
ATOM     37  C   UNL     1       0.120  12.536   6.204  1.00  0.00     0.074 A 
ATOM     38  C   UNL     1       1.165  13.067   4.033  1.00  0.00     0.049 A 
ATOM     39  N   UNL     1      -0.747  13.510   6.319  1.00  0.00    -0.248 NA
ATOM     40  C   UNL     1       0.131  11.602   7.341  1.00  0.00     0.031 C 
ATOM     41  C   UNL     1       2.081  12.907   2.906  1.00  0.00     0.029 A 
ATOM     42  N   UNL     1       0.457  14.204   3.736  1.00  0.00    -0.354 N 
ATOM     43  C   UNL     1      -1.382  13.307   7.536  1.00  0.00     0.074 A 
ATOM     44  C   UNL     1      -0.824  12.101   8.111  1.00  0.00     0.031 C 
ATOM     45  C   UNL     1       1.871  13.906   2.031  1.00  0.00     0.029 A 
ATOM     46  C   UNL     1       0.793  14.760   2.527  1.00  0.00     0.049 A 
ATOM     47  H   UNL     1      -0.227  14.585   4.333  1.00  0.00     0.167 HD
ATOM     48  C   UNL     1      -2.339  14.062   8.126  1.00  0.00     0.037 A 
ATOM     49  C   UNL     1       0.276  15.828   1.889  1.00  0.00     0.037 A 
ATOM     50  C   UNL     1      -2.894  15.261   7.558  1.00  0.00     0.049 A 
ATOM     51  C   UNL     1      -0.827  16.620   2.540  1.00  0.00     0.074 A 
ATOM     52  C   UNL     1      -3.848  16.110   8.092  1.00  0.00     0.029 A 
ATOM     53  N   UNL     1      -2.548  15.777   6.318  1.00  0.00    -0.354 N 
ATOM     54  N   UNL     1      -1.401  16.440   3.704  1.00  0.00    -0.248 NA
ATOM     55  C   UNL     1      -1.352  17.768   1.786  1.00  0.00     0.031 C 
ATOM     56  C   UNL     1      -4.111  17.117   7.157  1.00  0.00     0.029 A 
ATOM     57  C   UNL     1      -3.289  16.919   6.058  1.00  0.00     0.049 A 
ATOM     58  H   UNL     1      -1.876  15.390   5.712  1.00  0.00     0.167 HD
ATOM     59  C   UNL     1      -2.335  17.459   3.833  1.00  0.00     0.074 A 
ATOM     60  C   UNL     1      -2.246  18.262   2.632  1.00  0.00     0.031 C 
ATOM     61  C   UNL     1      -3.188  17.708   4.857  1.00  0.00     0.037 A 
BRANCH  48  62
ATOM     62  C   UNL     1      -2.864  13.594   9.450  1.00  0.00     0.064 A 
ATOM     63  C   UNL     1      -2.102  13.703  10.623  1.00  0.00     0.173 A 
ATOM     64  C   UNL     1      -4.152  13.047   9.550  1.00  0.00     0.173 A 
ATOM     65  F   UNL     1      -0.859  14.204  10.576  1.00  0.00    -0.203 F 
ATOM     66  C   UNL     1      -2.602  13.257  11.844  1.00  0.00     0.198 A 
ATOM     67  C   UNL     1      -4.657  12.625  10.776  1.00  0.00     0.198 A 
ATOM     68  F   UNL     1      -4.920  12.924   8.457  1.00  0.00    -0.203 F 
ATOM     69  F   UNL     1      -1.840  13.329  12.944  1.00  0.00    -0.200 F 
ATOM     70  C   UNL     1      -3.880  12.724  11.920  1.00  0.00     0.200 A 
ATOM     71  F   UNL     1      -5.895  12.117  10.850  1.00  0.00    -0.200 F 
ATOM     72  F   UNL     1      -4.360  12.296  13.096  1.00  0.00    -0.200 F 
ENDBRANCH  48  62
BRANCH  49  73
ATOM     73  C   UNL     1       0.796  16.206   0.552  1.00  0.00     0.064 A 
ATOM     74  C   UNL     1       1.574  17.358   0.378  1.00  0.00     0.173 A 
ATOM     75  C   UNL     1       0.522  15.423  -0.579  1.00  0.00     0.173 A 
ATOM     76  F   UNL     1       1.838  18.152   1.425  1.00  0.00    -0.203 F 
ATOM     77  C   UNL     1       2.054  17.717  -0.881  1.00  0.00     0.198 A 
ATOM     78  C   UNL     1       1.021  15.770  -1.832  1.00  0.00     0.198 A 
ATOM     79  F   UNL     1      -0.223  14.314  -0.463  1.00  0.00    -0.203 F 
ATOM     80  F   UNL     1       2.766  18.842  -1.028  1.00  0.00    -0.200 F 
ATOM     81  C   UNL     1       1.782  16.920  -1.983  1.00  0.00     0.200 A 
ATOM     82  F   UNL     1       0.762  14.994  -2.893  1.00  0.00    -0.200 F 
ATOM     83  F   UNL     1       2.247  17.263  -3.192  1.00  0.00    -0.200 F 
ENDBRANCH  49  73
BRANCH  61  84
ATOM     84  C   UNL     1      -4.079  18.909   4.736  1.00  0.00     0.064 A 
ATOM     85  C   UNL     1      -5.190  18.914   3.881  1.00  0.00     0.173 A 
ATOM     86  C   UNL     1      -3.845  20.049   5.519  1.00  0.00     0.173 A 
ATOM     87  F   UNL     1      -5.447  17.853   3.101  1.00  0.00    -0.203 F 
ATOM     88  C   UNL     1      -6.025  20.025   3.801  1.00  0.00     0.198 A 
ATOM     89  C   UNL     1      -4.696  21.149   5.455  1.00  0.00     0.198 A 
ATOM     90  F   UNL     1      -2.798  20.090   6.357  1.00  0.00    -0.203 F 
ATOM     91  F   UNL     1      -7.061  20.023   2.950  1.00  0.00    -0.200 F 
ATOM     92  C   UNL     1      -5.782  21.138   4.592  1.00  0.00     0.200 A 
ATOM     93  F   UNL     1      -4.465  22.219   6.228  1.00  0.00    -0.200 F 
ATOM     94  F   UNL     1      -6.591  22.204   4.519  1.00  0.00    -0.200 F 
ENDBRANCH  61  84
ENDBRANCH  35  36
ENDBRANCH  28  30
ENDBRANCH  27  28
ENDBRANCH  26  27
ENDBRANCH  25  26
ENDBRANCH  24  25
ENDBRANCH   1  24
TORSDOF 17
