REMARK SMILES COC(=O)C[C@H](NC(=O)N1CC[N@H+]2CCC[C@@H]2C1)C(=O)OCCOCCOC(=O)c1ccc(-c2c3nc(c(-c4c(F)c(F)c(F)c(F)c4F)c4ccc([nH]4)c(-c4c(F)c(F)c(F)c(F)c4F)c4nc(c(-c5c(F)c(F)c(F)c(F)c5F)c5ccc2[nH]5)C=C4)C=C3)cc1
REMARK SMILES IDX 23 1 22 2 21 3 19 4 20 5 6 6 5 7 3 8 4 9 2 10 1 11 7 12 8 13
REMARK SMILES IDX 9 15 10 16 11 17 18 18 12 19 17 20 13 21 16 22 14 23 15 25
REMARK SMILES IDX 24 26 25 27 26 28 27 29 28 30 29 31 30 32 31 33 92 34 32 35
REMARK SMILES IDX 91 36 33 37 34 38 35 39 85 40 36 41 90 42 84 43 86 44 37 45
REMARK SMILES IDX 89 46 83 47 82 48 38 50 70 51 50 52 69 53 51 54 54 55 68 56
REMARK SMILES IDX 87 57 52 58 53 59 67 61 88 62 55 63 39 64 40 65 48 66 41 67
REMARK SMILES IDX 42 68 46 69 49 70 43 71 44 72 47 73 45 74 71 75 72 76 80 77
REMARK SMILES IDX 73 78 74 79 78 80 81 81 75 82 76 83 79 84 77 85 56 86 57 87
REMARK SMILES IDX 65 88 58 89 59 90 63 91 66 92 60 93 61 94 64 95 62 96
REMARK H PARENT 7 14 13 24 86 49 54 60
REMARK Flexibility Score: inf
ROOT
ATOM      1  C   UNL     1      -0.351   0.184  -8.496  1.00  0.00     0.202 C 
ENDROOT
BRANCH   1   2
ATOM      2  C   UNL     1      -0.310  -0.962  -7.441  1.00  0.00     0.261 C 
BRANCH   2   3
ATOM      3  O   UNL     1      -0.461  -0.476  -6.088  1.00  0.00    -0.462 OA
BRANCH   3   4
ATOM      4  C   UNL     1       0.644  -0.478  -5.286  1.00  0.00     0.329 C 
ATOM      5  O   UNL     1       1.689  -1.061  -5.558  1.00  0.00    -0.250 OA
BRANCH   4   6
ATOM      6  C   UNL     1       0.403   0.240  -3.936  1.00  0.00     0.204 C 
BRANCH   6   7
ATOM      7  C   UNL     1       0.185  -0.916  -2.963  1.00  0.00     0.159 C 
BRANCH   7   8
ATOM      8  C   UNL     1      -0.483  -0.527  -1.688  1.00  0.00     0.308 C 
ATOM      9  O   UNL     1      -1.702  -0.543  -1.546  1.00  0.00    -0.252 OA
BRANCH   8  10
ATOM     10  O   UNL     1       0.426  -0.157  -0.749  1.00  0.00    -0.469 OA
ATOM     11  C   UNL     1      -0.172   0.216   0.493  1.00  0.00     0.282 C 
ENDBRANCH   8  10
ENDBRANCH   7   8
ENDBRANCH   6   7
BRANCH   6  12
ATOM     12  N   UNL     1      -0.667   1.274  -4.008  1.00  0.00    -0.324 N 
ATOM     13  C   UNL     1      -0.243   2.595  -4.003  1.00  0.00     0.318 C 
ATOM     14  H   UNL     1      -1.621   1.034  -4.057  1.00  0.00     0.166 HD
ATOM     15  O   UNL     1       0.292   3.079  -3.008  1.00  0.00    -0.249 OA
BRANCH  13  16
ATOM     16  N   UNL     1      -0.417   3.276  -5.187  1.00  0.00    -0.313 N 
ATOM     17  C   UNL     1      -1.231   2.468  -6.658  1.00  0.00     0.183 C 
ATOM     18  C   UNL     1       0.284   5.016  -5.329  1.00  0.00     0.186 C 
ATOM     19  C   UNL     1      -1.093   3.412  -8.402  1.00  0.00     0.284 C 
ATOM     20  C   UNL     1       0.190   5.880  -7.067  1.00  0.00     0.204 C 
ATOM     21  N   UNL     1      -0.244   4.968  -8.528  1.00  0.00    -0.330 N 
ATOM     22  C   UNL     1       1.195   6.775  -7.745  1.00  0.00     0.073 C 
ATOM     23  C   UNL     1      -0.525   5.971  -9.512  1.00  0.00     0.262 C 
ATOM     24  H   UNL     1       0.506   4.378  -8.888  1.00  0.00     0.348 HD
ATOM     25  C   UNL     1       0.430   7.139  -9.082  1.00  0.00     0.068 C 
ENDBRANCH  13  16
ENDBRANCH   6  12
ENDBRANCH   4   6
ENDBRANCH   3   4
ENDBRANCH   2   3
ENDBRANCH   1   2
BRANCH   1  26
ATOM     26  O   UNL     1       0.717   1.151  -8.594  1.00  0.00    -0.374 OA
BRANCH  26  27
ATOM     27  C   UNL     1       1.189   1.920  -7.483  1.00  0.00     0.202 C 
BRANCH  27  28
ATOM     28  C   UNL     1       0.773   3.498  -7.110  1.00  0.00     0.261 C 
BRANCH  28  29
ATOM     29  O   UNL     1      -0.984   4.284  -6.727  1.00  0.00    -0.460 OA
BRANCH  29  30
ATOM     30  C   UNL     1      -2.232   4.889  -6.434  1.00  0.00     0.338 C 
ATOM     31  O   UNL     1      -2.385   6.019  -6.007  1.00  0.00    -0.246 OA
BRANCH  30  32
ATOM     32  C   UNL     1      -3.578   4.152  -6.449  1.00  0.00     0.060 A 
ATOM     33  C   UNL     1      -4.222   3.655  -7.591  1.00  0.00     0.016 A 
ATOM     34  C   UNL     1      -4.322   4.260  -5.255  1.00  0.00     0.016 A 
ATOM     35  C   UNL     1      -5.572   3.316  -7.559  1.00  0.00     0.010 A 
ATOM     36  C   UNL     1      -5.688   3.960  -5.230  1.00  0.00     0.010 A 
ATOM     37  C   UNL     1      -6.321   3.539  -6.403  1.00  0.00    -0.014 A 
BRANCH  37  38
ATOM     38  C   UNL     1      -7.789   3.501  -6.516  1.00  0.00     0.031 A 
ATOM     39  C   UNL     1      -8.538   4.791  -6.687  1.00  0.00     0.074 A 
ATOM     40  C   UNL     1      -8.412   2.314  -6.574  1.00  0.00     0.049 A 
ATOM     41  N   UNL     1      -9.826   4.995  -6.764  1.00  0.00    -0.248 NA
ATOM     42  C   UNL     1      -7.726   6.015  -6.799  1.00  0.00     0.031 C 
ATOM     43  C   UNL     1      -7.744   1.014  -6.522  1.00  0.00     0.029 A 
ATOM     44  N   UNL     1      -9.740   2.012  -6.695  1.00  0.00    -0.354 N 
ATOM     45  C   UNL     1      -9.982   6.369  -6.905  1.00  0.00     0.074 A 
ATOM     46  C   UNL     1      -8.658   6.952  -6.905  1.00  0.00     0.031 C 
ATOM     47  C   UNL     1      -8.673   0.047  -6.593  1.00  0.00     0.029 A 
ATOM     48  C   UNL     1      -9.994   0.666  -6.645  1.00  0.00     0.049 A 
ATOM     49  H   UNL     1     -10.443   2.692  -6.807  1.00  0.00     0.167 HD
ATOM     50  C   UNL     1     -11.134   7.070  -7.016  1.00  0.00     0.037 A 
ATOM     51  C   UNL     1     -11.171   0.017  -6.602  1.00  0.00     0.037 A 
ATOM     52  C   UNL     1     -12.438   6.460  -7.024  1.00  0.00     0.049 A 
ATOM     53  C   UNL     1     -12.437   0.824  -6.649  1.00  0.00     0.074 A 
ATOM     54  C   UNL     1     -13.677   7.064  -7.133  1.00  0.00     0.029 A 
ATOM     55  N   UNL     1     -12.665   5.094  -6.918  1.00  0.00    -0.354 N 
ATOM     56  N   UNL     1     -12.585   2.123  -6.751  1.00  0.00    -0.248 NA
ATOM     57  C   UNL     1     -13.698   0.078  -6.568  1.00  0.00     0.031 C 
ATOM     58  C   UNL     1     -14.656   6.067  -7.047  1.00  0.00     0.029 A 
ATOM     59  C   UNL     1     -14.026   4.837  -6.934  1.00  0.00     0.049 A 
ATOM     60  H   UNL     1     -11.962   4.409  -6.842  1.00  0.00     0.167 HD
ATOM     61  C   UNL     1     -13.952   2.353  -6.765  1.00  0.00     0.074 A 
ATOM     62  C   UNL     1     -14.590   1.053  -6.676  1.00  0.00     0.031 C 
ATOM     63  C   UNL     1     -14.624   3.529  -6.843  1.00  0.00     0.037 A 
BRANCH  50  64
ATOM     64  C   UNL     1     -11.041   8.566  -7.087  1.00  0.00     0.064 A 
ATOM     65  C   UNL     1     -10.577   9.230  -8.232  1.00  0.00     0.173 A 
ATOM     66  C   UNL     1     -11.460   9.350  -6.000  1.00  0.00     0.173 A 
ATOM     67  F   UNL     1     -10.148   8.529  -9.293  1.00  0.00    -0.203 F 
ATOM     68  C   UNL     1     -10.523  10.622  -8.281  1.00  0.00     0.198 A 
ATOM     69  C   UNL     1     -11.428  10.741  -6.061  1.00  0.00     0.198 A 
ATOM     70  F   UNL     1     -11.913   8.766  -4.879  1.00  0.00    -0.203 F 
ATOM     71  F   UNL     1     -10.045  11.235  -9.374  1.00  0.00    -0.200 F 
ATOM     72  C   UNL     1     -10.956  11.376  -7.199  1.00  0.00     0.200 A 
ATOM     73  F   UNL     1     -11.857  11.466  -5.017  1.00  0.00    -0.200 F 
ATOM     74  F   UNL     1     -10.914  12.715  -7.253  1.00  0.00    -0.200 F 
ENDBRANCH  50  64
BRANCH  51  75
ATOM     75  C   UNL     1     -11.186  -1.462  -6.478  1.00  0.00     0.064 A 
ATOM     76  C   UNL     1     -11.616  -2.273  -7.536  1.00  0.00     0.173 A 
ATOM     77  C   UNL     1     -10.735  -2.094  -5.308  1.00  0.00     0.173 A 
ATOM     78  F   UNL     1     -12.072  -1.714  -8.666  1.00  0.00    -0.203 F 
ATOM     79  C   UNL     1     -11.598  -3.662  -7.428  1.00  0.00     0.198 A 
ATOM     80  C   UNL     1     -10.691  -3.482  -5.212  1.00  0.00     0.198 A 
ATOM     81  F   UNL     1     -10.309  -1.361  -4.268  1.00  0.00    -0.203 F 
ATOM     82  F   UNL     1     -12.038  -4.416  -8.445  1.00  0.00    -0.200 F 
ATOM     83  C   UNL     1     -11.127  -4.265  -6.270  1.00  0.00     0.200 A 
ATOM     84  F   UNL     1     -10.218  -4.059  -4.098  1.00  0.00    -0.200 F 
ATOM     85  F   UNL     1     -11.093  -5.601  -6.175  1.00  0.00    -0.200 F 
ENDBRANCH  51  75
BRANCH  63  86
ATOM     86  C   UNL     1     -16.120   3.450  -6.864  1.00  0.00     0.064 A 
ATOM     87  C   UNL     1     -16.854   3.139  -5.709  1.00  0.00     0.173 A 
ATOM     88  C   UNL     1     -16.826   3.713  -8.048  1.00  0.00     0.173 A 
ATOM     89  F   UNL     1     -16.220   2.863  -4.560  1.00  0.00    -0.203 F 
ATOM     90  C   UNL     1     -18.243   3.068  -5.746  1.00  0.00     0.198 A 
ATOM     91  C   UNL     1     -18.217   3.669  -8.074  1.00  0.00     0.198 A 
ATOM     92  F   UNL     1     -16.168   4.021  -9.175  1.00  0.00    -0.203 F 
ATOM     93  F   UNL     1     -18.923   2.720  -4.644  1.00  0.00    -0.200 F 
ATOM     94  C   UNL     1     -18.923   3.338  -6.926  1.00  0.00     0.200 A 
ATOM     95  F   UNL     1     -18.872   3.940  -9.211  1.00  0.00    -0.200 F 
ATOM     96  F   UNL     1     -20.261   3.270  -6.959  1.00  0.00    -0.200 F 
ENDBRANCH  63  86
ENDBRANCH  37  38
ENDBRANCH  30  32
ENDBRANCH  29  30
ENDBRANCH  28  29
ENDBRANCH  27  28
ENDBRANCH  26  27
ENDBRANCH   1  26
TORSDOF 19
