REMARK SMILES CCCc1cc(C(N)=O)c(NC(=O)[C@H]2CC(C)=C(C)C[C@@H]2C(=O)OCCOCCOC(=O)c2ccc(-c3c4nc(c(-c5c(F)c(F)c(F)c(F)c5F)c5ccc([nH]5)c(-c5c(F)c(F)c(F)c(F)c5F)c5nc(c(-c6c(F)c(F)c(F)c(F)c6F)c6ccc3[nH]6)C=C5)C=C4)cc2)s1
REMARK SMILES IDX 26 1 25 2 24 3 22 4 23 5 21 6 14 7 15 8 16 9 20 10 17 11
REMARK SMILES IDX 18 12 19 13 12 14 11 15 13 17 10 18 4 19 5 20 96 21 6 22
REMARK SMILES IDX 3 23 2 24 1 25 7 26 8 27 9 28 27 31 28 32 29 33 30 34 31 35
REMARK SMILES IDX 32 36 33 37 34 38 95 39 35 40 94 41 36 42 37 43 38 44 88 45
REMARK SMILES IDX 39 46 93 47 87 48 89 49 40 50 92 51 86 52 85 53 41 55 73 56
REMARK SMILES IDX 53 57 72 58 54 59 57 60 71 61 90 62 55 63 56 64 70 66 91 67
REMARK SMILES IDX 58 68 42 69 43 70 51 71 44 72 45 73 49 74 52 75 46 76 47 77
REMARK SMILES IDX 50 78 48 79 74 80 75 81 83 82 76 83 77 84 81 85 84 86 78 87
REMARK SMILES IDX 79 88 82 89 80 90 59 91 60 92 68 93 61 94 62 95 66 96 69 97
REMARK SMILES IDX 63 98 64 99 67 100 65 101
REMARK H PARENT 11 16 8 29 8 30 89 54 57 65
REMARK Flexibility Score: inf
ROOT
ATOM      1  C   UNL     1      -7.909  -5.036  -2.139  1.00  0.00     0.202 C 
ENDROOT
BRANCH   1   2
ATOM      2  C   UNL     1      -7.168  -4.828  -3.462  1.00  0.00     0.261 C 
BRANCH   2   3
ATOM      3  O   UNL     1      -5.798  -4.431  -3.254  1.00  0.00    -0.463 OA
BRANCH   3   4
ATOM      4  C   UNL     1      -5.446  -3.216  -3.761  1.00  0.00     0.310 C 
ATOM      5  O   UNL     1      -6.210  -2.506  -4.402  1.00  0.00    -0.252 OA
BRANCH   4   6
ATOM      6  C   UNL     1      -3.966  -2.891  -3.493  1.00  0.00     0.116 C 
ATOM      7  C   UNL     1      -3.574  -3.142  -2.020  1.00  0.00     0.097 C 
ATOM      8  C   UNL     1      -3.258  -1.947  -1.112  1.00  0.00     0.045 C 
ATOM      9  C   UNL     1      -3.461  -0.568  -1.690  1.00  0.00    -0.074 C 
ATOM     10  C   UNL     1      -3.692  -1.469  -4.019  1.00  0.00     0.046 C 
ATOM     11  C   UNL     1      -3.303   0.538  -0.673  1.00  0.00     0.039 C 
ATOM     12  C   UNL     1      -3.683  -0.352  -3.003  1.00  0.00    -0.073 C 
ATOM     13  C   UNL     1      -3.874   1.024  -3.593  1.00  0.00     0.039 C 
BRANCH   7  14
ATOM     14  C   UNL     1      -2.662  -4.355  -1.833  1.00  0.00     0.229 C 
ATOM     15  N   UNL     1      -1.329  -4.466  -2.037  1.00  0.00    -0.317 N 
ATOM     16  H   UNL     1      -1.012  -5.383  -1.869  1.00  0.00     0.170 HD
ATOM     17  O   UNL     1      -3.190  -5.414  -1.447  1.00  0.00    -0.274 OA
BRANCH  15  18
ATOM     18  C   UNL     1      -0.299  -3.635  -2.416  1.00  0.00     0.108 A 
ATOM     19  C   UNL     1       1.075  -1.617  -2.705  1.00  0.00     0.008 A 
ATOM     20  C   UNL     1       1.845  -2.751  -2.575  1.00  0.00     0.031 A 
ATOM     21  S   UNL     1      -0.556  -2.046  -2.900  1.00  0.00    -0.122 S 
ATOM     22  C   UNL     1       1.056  -3.953  -2.453  1.00  0.00     0.074 A 
BRANCH  19  23
ATOM     23  C   UNL     1       1.493  -0.177  -2.709  1.00  0.00     0.046 C 
BRANCH  23  24
ATOM     24  C   UNL     1       0.884   0.632  -1.554  1.00  0.00     0.002 C 
ATOM     25  C   UNL     1       1.235   0.093  -0.173  1.00  0.00     0.004 C 
ENDBRANCH  23  24
ENDBRANCH  19  23
BRANCH  22  26
ATOM     26  C   UNL     1       1.638  -5.276  -2.274  1.00  0.00     0.251 C 
ATOM     27  N   UNL     1       0.882  -6.338  -2.672  1.00  0.00    -0.366 N 
ATOM     28  O   UNL     1       2.776  -5.453  -1.833  1.00  0.00    -0.269 OA
ATOM     29  H   UNL     1      -0.026  -6.191  -3.023  1.00  0.00     0.159 HD
ATOM     30  H   UNL     1       1.244  -7.251  -2.607  1.00  0.00     0.159 HD
ENDBRANCH  22  26
ENDBRANCH  15  18
ENDBRANCH   7  14
ENDBRANCH   4   6
ENDBRANCH   3   4
ENDBRANCH   2   3
ENDBRANCH   1   2
BRANCH   1  31
ATOM     31  O   UNL     1      -8.275  -3.865  -1.410  1.00  0.00    -0.374 OA
BRANCH  31  32
ATOM     32  C   UNL     1      -7.239  -3.173  -0.719  1.00  0.00     0.202 C 
BRANCH  32  33
ATOM     33  C   UNL     1      -6.767  -3.790   0.608  1.00  0.00     0.261 C 
BRANCH  33  34
ATOM     34  O   UNL     1      -6.335  -5.154   0.470  1.00  0.00    -0.460 OA
BRANCH  34  35
ATOM     35  C   UNL     1      -7.153  -6.066   1.047  1.00  0.00     0.338 C 
ATOM     36  O   UNL     1      -8.115  -5.846   1.771  1.00  0.00    -0.246 OA
BRANCH  35  37
ATOM     37  C   UNL     1      -6.855  -7.423   0.551  1.00  0.00     0.060 A 
ATOM     38  C   UNL     1      -7.919  -8.147  -0.004  1.00  0.00     0.016 A 
ATOM     39  C   UNL     1      -5.598  -8.013   0.697  1.00  0.00     0.016 A 
ATOM     40  C   UNL     1      -7.746  -9.482  -0.360  1.00  0.00     0.010 A 
ATOM     41  C   UNL     1      -5.429  -9.360   0.351  1.00  0.00     0.010 A 
ATOM     42  C   UNL     1      -6.513 -10.110  -0.141  1.00  0.00    -0.014 A 
BRANCH  42  43
ATOM     43  C   UNL     1      -6.429 -11.586  -0.272  1.00  0.00     0.031 A 
ATOM     44  C   UNL     1      -6.601 -12.435   0.958  1.00  0.00     0.074 A 
ATOM     45  C   UNL     1      -6.277 -12.169  -1.473  1.00  0.00     0.049 A 
ATOM     46  N   UNL     1      -6.622 -13.739   1.075  1.00  0.00    -0.248 NA
ATOM     47  C   UNL     1      -6.780 -11.713   2.227  1.00  0.00     0.031 C 
ATOM     48  C   UNL     1      -6.153 -11.461  -2.744  1.00  0.00     0.029 A 
ATOM     49  N   UNL     1      -6.215 -13.497  -1.816  1.00  0.00    -0.354 N 
ATOM     50  C   UNL     1      -6.824 -13.993   2.425  1.00  0.00     0.074 A 
ATOM     51  C   UNL     1      -6.880 -12.710   3.093  1.00  0.00     0.031 C 
ATOM     52  C   UNL     1      -6.039 -12.363  -3.734  1.00  0.00     0.029 A 
ATOM     53  C   UNL     1      -6.058 -13.709  -3.163  1.00  0.00     0.049 A 
ATOM     54  H   UNL     1      -6.277 -14.227  -1.159  1.00  0.00     0.167 HD
ATOM     55  C   UNL     1      -6.964 -15.186   3.052  1.00  0.00     0.037 A 
ATOM     56  C   UNL     1      -5.939 -14.861  -3.852  1.00  0.00     0.037 A 
ATOM     57  C   UNL     1      -6.897 -16.463   2.393  1.00  0.00     0.049 A 
ATOM     58  C   UNL     1      -5.997 -16.176  -3.120  1.00  0.00     0.074 A 
ATOM     59  C   UNL     1      -7.038 -17.727   2.939  1.00  0.00     0.029 A 
ATOM     60  N   UNL     1      -6.657 -16.638   1.038  1.00  0.00    -0.354 N 
ATOM     61  N   UNL     1      -6.213 -16.408  -1.848  1.00  0.00    -0.248 NA
ATOM     62  C   UNL     1      -5.793 -17.390  -3.924  1.00  0.00     0.031 C 
ATOM     63  C   UNL     1      -6.834 -18.668   1.923  1.00  0.00     0.029 A 
ATOM     64  C   UNL     1      -6.613 -17.990   0.734  1.00  0.00     0.049 A 
ATOM     65  H   UNL     1      -6.535 -15.909   0.387  1.00  0.00     0.167 HD
ATOM     66  C   UNL     1      -6.199 -17.789  -1.703  1.00  0.00     0.074 A 
ATOM     67  C   UNL     1      -5.960 -18.345  -3.019  1.00  0.00     0.031 C 
ATOM     68  C   UNL     1      -6.374 -18.530  -0.580  1.00  0.00     0.037 A 
BRANCH  55  69
ATOM     69  C   UNL     1      -7.172 -15.155   4.537  1.00  0.00     0.064 A 
ATOM     70  C   UNL     1      -8.378 -14.712   5.103  1.00  0.00     0.173 A 
ATOM     71  C   UNL     1      -6.152 -15.568   5.407  1.00  0.00     0.173 A 
ATOM     72  F   UNL     1      -9.379 -14.293   4.315  1.00  0.00    -0.203 F 
ATOM     73  C   UNL     1      -8.540 -14.649   6.485  1.00  0.00     0.198 A 
ATOM     74  C   UNL     1      -6.327 -15.530   6.787  1.00  0.00     0.198 A 
ATOM     75  F   UNL     1      -4.981 -16.003   4.917  1.00  0.00    -0.203 F 
ATOM     76  F   UNL     1      -9.679 -14.169   7.003  1.00  0.00    -0.200 F 
ATOM     77  C   UNL     1      -7.517 -15.061   7.325  1.00  0.00     0.200 A 
ATOM     78  F   UNL     1      -5.341 -15.937   7.598  1.00  0.00    -0.200 F 
ATOM     79  F   UNL     1      -7.672 -14.996   8.655  1.00  0.00    -0.200 F 
ENDBRANCH  55  69
BRANCH  56  80
ATOM     80  C   UNL     1      -5.764 -14.822  -5.326  1.00  0.00     0.064 A 
ATOM     81  C   UNL     1      -6.790 -15.243  -6.183  1.00  0.00     0.173 A 
ATOM     82  C   UNL     1      -4.574 -14.362  -5.907  1.00  0.00     0.173 A 
ATOM     83  F   UNL     1      -7.936 -15.717  -5.673  1.00  0.00    -0.203 F 
ATOM     84  C   UNL     1      -6.629 -15.211  -7.567  1.00  0.00     0.198 A 
ATOM     85  C   UNL     1      -4.422 -14.309  -7.291  1.00  0.00     0.198 A 
ATOM     86  F   UNL     1      -3.561 -13.954  -5.129  1.00  0.00    -0.203 F 
ATOM     87  F   UNL     1      -7.613 -15.649  -8.364  1.00  0.00    -0.200 F 
ATOM     88  C   UNL     1      -5.448 -14.737  -8.120  1.00  0.00     0.200 A 
ATOM     89  F   UNL     1      -3.283 -13.843  -7.820  1.00  0.00    -0.200 F 
ATOM     90  F   UNL     1      -5.297 -14.699  -9.450  1.00  0.00    -0.200 F 
ENDBRANCH  56  80
BRANCH  68  91
ATOM     91  C   UNL     1      -6.341 -20.023  -0.727  1.00  0.00     0.064 A 
ATOM     92  C   UNL     1      -5.142 -20.714  -0.955  1.00  0.00     0.173 A 
ATOM     93  C   UNL     1      -7.518 -20.777  -0.598  1.00  0.00     0.173 A 
ATOM     94  F   UNL     1      -3.992 -20.038  -1.101  1.00  0.00    -0.203 F 
ATOM     95  C   UNL     1      -5.125 -22.102  -1.069  1.00  0.00     0.198 A 
ATOM     96  C   UNL     1      -7.494 -22.166  -0.686  1.00  0.00     0.198 A 
ATOM     97  F   UNL     1      -8.691 -20.165  -0.374  1.00  0.00    -0.203 F 
ATOM     98  F   UNL     1      -3.974 -22.737  -1.329  1.00  0.00    -0.200 F 
ATOM     99  C   UNL     1      -6.299 -22.827  -0.928  1.00  0.00     0.200 A 
ATOM    100  F   UNL     1      -8.628 -22.865  -0.538  1.00  0.00    -0.200 F 
ATOM    101  F   UNL     1      -6.280 -24.163  -1.032  1.00  0.00    -0.200 F 
ENDBRANCH  68  91
ENDBRANCH  42  43
ENDBRANCH  35  37
ENDBRANCH  34  35
ENDBRANCH  33  34
ENDBRANCH  32  33
ENDBRANCH  31  32
ENDBRANCH   1  31
TORSDOF 19
