REMARK SMILES CC(C)[C@@H](NC(=O)[C@@H]1CC[C@H]2CCCC[C@@H]2[NH2+]1)C(=O)OCCOCCOC(=O)c1ccc(-c2c3nc(c(-c4c(F)c(F)c(F)c(F)c4F)c4ccc([nH]4)c(-c4c(F)c(F)c(F)c(F)c4F)c4nc(c(-c5c(F)c(F)c(F)c(F)c5F)c5ccc2[nH]5)C=C4)C=C3)cc1
REMARK SMILES IDX 23 1 22 2 21 3 20 4 18 5 19 6 4 7 2 8 1 9 3 10 5 11 6 12
REMARK SMILES IDX 7 14 8 15 9 16 17 17 10 18 16 19 11 22 15 23 12 24 14 25
REMARK SMILES IDX 13 26 24 27 25 28 26 29 27 30 28 31 29 32 30 33 91 34 31 35
REMARK SMILES IDX 90 36 32 37 33 38 34 39 84 40 35 41 89 42 83 43 85 44 36 45
REMARK SMILES IDX 88 46 82 47 81 48 37 50 69 51 49 52 68 53 50 54 53 55 67 56
REMARK SMILES IDX 86 57 51 58 52 59 66 61 87 62 54 63 38 64 39 65 47 66 40 67
REMARK SMILES IDX 41 68 45 69 48 70 42 71 43 72 46 73 44 74 70 75 71 76 79 77
REMARK SMILES IDX 72 78 73 79 77 80 80 81 74 82 75 83 78 84 76 85 55 86 56 87
REMARK SMILES IDX 64 88 57 89 58 90 62 91 65 92 59 93 60 94 63 95 61 96
REMARK H PARENT 5 13 17 20 17 21 85 49 53 60
REMARK Flexibility Score: inf
ROOT
ATOM      1  O   UNL     1      -0.954  -1.032   2.652  1.00  0.00    -0.374 OA
ENDROOT
BRANCH   1   2
ATOM      2  C   UNL     1      -0.577  -0.669   1.338  1.00  0.00     0.202 C 
BRANCH   2   3
ATOM      3  C   UNL     1      -1.475  -0.962   0.119  1.00  0.00     0.261 C 
BRANCH   3   4
ATOM      4  O   UNL     1      -2.906  -0.822   0.169  1.00  0.00    -0.462 OA
BRANCH   4   5
ATOM      5  C   UNL     1      -3.539  -1.807   0.847  1.00  0.00     0.328 C 
ATOM      6  O   UNL     1      -3.014  -2.467   1.739  1.00  0.00    -0.250 OA
BRANCH   5   7
ATOM      7  C   UNL     1      -4.915  -2.201   0.345  1.00  0.00     0.195 C 
BRANCH   7   8
ATOM      8  C   UNL     1      -5.943  -1.048   0.511  1.00  0.00     0.017 C 
ATOM      9  C   UNL     1      -7.377  -1.600   0.567  1.00  0.00     0.010 C 
ATOM     10  C   UNL     1      -5.712  -0.226   1.789  1.00  0.00     0.010 C 
ENDBRANCH   7   8
BRANCH   7  11
ATOM     11  N   UNL     1      -4.922  -2.795  -1.008  1.00  0.00    -0.337 N 
ATOM     12  C   UNL     1      -4.267  -3.925  -1.452  1.00  0.00     0.278 C 
ATOM     13  H   UNL     1      -5.465  -2.322  -1.679  1.00  0.00     0.164 HD
ATOM     14  O   UNL     1      -4.931  -4.689  -2.161  1.00  0.00    -0.268 OA
BRANCH  12  15
ATOM     15  C   UNL     1      -2.728  -4.093  -1.283  1.00  0.00     0.272 C 
ATOM     16  C   UNL     1      -2.093  -5.192  -2.173  1.00  0.00     0.076 C 
ATOM     17  N   UNL     1      -2.257  -4.303   0.073  1.00  0.00    -0.333 N 
ATOM     18  C   UNL     1      -1.804  -6.524  -1.440  1.00  0.00     0.016 C 
ATOM     19  C   UNL     1      -2.519  -5.561   0.729  1.00  0.00     0.186 C 
ATOM     20  H   UNL     1      -2.677  -3.575   0.650  1.00  0.00     0.347 HD
ATOM     21  H   UNL     1      -1.241  -4.290  -0.021  1.00  0.00     0.347 HD
ATOM     22  C   UNL     1      -2.763  -6.693  -0.265  1.00  0.00     0.048 C 
ATOM     23  C   UNL     1      -3.658  -5.513   1.752  1.00  0.00     0.065 C 
ATOM     24  C   UNL     1      -2.644  -8.005   0.511  1.00  0.00     0.010 C 
ATOM     25  C   UNL     1      -3.705  -6.827   2.529  1.00  0.00     0.006 C 
ATOM     26  C   UNL     1      -3.714  -8.054   1.613  1.00  0.00     0.001 C 
ENDBRANCH  12  15
ENDBRANCH   7  11
ENDBRANCH   5   7
ENDBRANCH   4   5
ENDBRANCH   3   4
ENDBRANCH   2   3
ENDBRANCH   1   2
BRANCH   1  27
ATOM     27  C   UNL     1      -1.998  -0.323   3.314  1.00  0.00     0.202 C 
BRANCH  27  28
ATOM     28  C   UNL     1      -1.923   1.200   3.366  1.00  0.00     0.261 C 
BRANCH  28  29
ATOM     29  O   UNL     1      -2.071   1.769   2.052  1.00  0.00    -0.460 OA
BRANCH  29  30
ATOM     30  C   UNL     1      -1.062   2.586   1.678  1.00  0.00     0.338 C 
ATOM     31  O   UNL     1      -0.130   2.981   2.369  1.00  0.00    -0.246 OA
BRANCH  30  32
ATOM     32  C   UNL     1      -1.081   2.769   0.219  1.00  0.00     0.060 A 
ATOM     33  C   UNL     1       0.075   2.420  -0.494  1.00  0.00     0.016 A 
ATOM     34  C   UNL     1      -2.173   3.347  -0.427  1.00  0.00     0.016 A 
ATOM     35  C   UNL     1       0.169   2.700  -1.851  1.00  0.00     0.010 A 
ATOM     36  C   UNL     1      -2.067   3.656  -1.785  1.00  0.00     0.010 A 
ATOM     37  C   UNL     1      -0.880   3.373  -2.487  1.00  0.00    -0.014 A 
BRANCH  37  38
ATOM     38  C   UNL     1      -0.649   3.963  -3.823  1.00  0.00     0.031 A 
ATOM     39  C   UNL     1      -0.217   5.400  -3.902  1.00  0.00     0.074 A 
ATOM     40  C   UNL     1      -0.780   3.226  -4.937  1.00  0.00     0.049 A 
ATOM     41  N   UNL     1      -0.021   6.154  -4.952  1.00  0.00    -0.248 NA
ATOM     42  C   UNL     1       0.033   6.075  -2.619  1.00  0.00     0.031 C 
ATOM     43  C   UNL     1      -1.109   1.804  -4.973  1.00  0.00     0.029 A 
ATOM     44  N   UNL     1      -0.654   3.582  -6.255  1.00  0.00    -0.354 N 
ATOM     45  C   UNL     1       0.371   7.391  -4.458  1.00  0.00     0.074 A 
ATOM     46  C   UNL     1       0.359   7.296  -3.014  1.00  0.00     0.031 C 
ATOM     47  C   UNL     1      -1.175   1.408  -6.256  1.00  0.00     0.029 A 
ATOM     48  C   UNL     1      -0.938   2.560  -7.125  1.00  0.00     0.049 A 
ATOM     49  H   UNL     1      -0.387   4.482  -6.549  1.00  0.00     0.167 HD
ATOM     50  C   UNL     1       0.714   8.503  -5.149  1.00  0.00     0.037 A 
ATOM     51  C   UNL     1      -1.030   2.570  -8.469  1.00  0.00     0.037 A 
ATOM     52  C   UNL     1       0.708   8.589  -6.585  1.00  0.00     0.049 A 
ATOM     53  C   UNL     1      -0.779   3.858  -9.212  1.00  0.00     0.074 A 
ATOM     54  C   UNL     1       1.040   9.665  -7.388  1.00  0.00     0.029 A 
ATOM     55  N   UNL     1       0.336   7.556  -7.434  1.00  0.00    -0.354 N 
ATOM     56  N   UNL     1      -0.405   5.025  -8.745  1.00  0.00    -0.248 NA
ATOM     57  C   UNL     1      -0.977   3.832 -10.668  1.00  0.00     0.031 C 
ATOM     58  C   UNL     1       0.806   9.304  -8.719  1.00  0.00     0.029 A 
ATOM     59  C   UNL     1       0.387   7.983  -8.750  1.00  0.00     0.049 A 
ATOM     60  H   UNL     1       0.073   6.652  -7.143  1.00  0.00     0.167 HD
ATOM     61  C   UNL     1      -0.299   5.863  -9.848  1.00  0.00     0.074 A 
ATOM     62  C   UNL     1      -0.636   5.067 -11.009  1.00  0.00     0.031 C 
ATOM     63  C   UNL     1       0.046   7.174  -9.894  1.00  0.00     0.037 A 
BRANCH  50  64
ATOM     64  C   UNL     1       1.077   9.725  -4.356  1.00  0.00     0.064 A 
ATOM     65  C   UNL     1       2.262   9.799  -3.608  1.00  0.00     0.173 A 
ATOM     66  C   UNL     1       0.229  10.843  -4.351  1.00  0.00     0.173 A 
ATOM     67  F   UNL     1       3.100   8.752  -3.566  1.00  0.00    -0.203 F 
ATOM     68  C   UNL     1       2.567  10.933  -2.858  1.00  0.00     0.198 A 
ATOM     69  C   UNL     1       0.552  11.986  -3.626  1.00  0.00     0.198 A 
ATOM     70  F   UNL     1      -0.916  10.826  -5.050  1.00  0.00    -0.203 F 
ATOM     71  F   UNL     1       3.676  10.958  -2.106  1.00  0.00    -0.200 F 
ATOM     72  C   UNL     1       1.715  12.027  -2.873  1.00  0.00     0.200 A 
ATOM     73  F   UNL     1      -0.266  13.047  -3.651  1.00  0.00    -0.200 F 
ATOM     74  F   UNL     1       2.010  13.118  -2.152  1.00  0.00    -0.200 F 
ENDBRANCH  50  64
BRANCH  51  75
ATOM     75  C   UNL     1      -1.406   1.330  -9.195  1.00  0.00     0.064 A 
ATOM     76  C   UNL     1      -0.493   0.682 -10.038  1.00  0.00     0.173 A 
ATOM     77  C   UNL     1      -2.687   0.770  -9.067  1.00  0.00     0.173 A 
ATOM     78  F   UNL     1       0.734   1.194 -10.214  1.00  0.00    -0.203 F 
ATOM     79  C   UNL     1      -0.850  -0.472 -10.733  1.00  0.00     0.198 A 
ATOM     80  C   UNL     1      -3.032  -0.400  -9.740  1.00  0.00     0.198 A 
ATOM     81  F   UNL     1      -3.600   1.354  -8.278  1.00  0.00    -0.203 F 
ATOM     82  F   UNL     1       0.029  -1.048 -11.565  1.00  0.00    -0.200 F 
ATOM     83  C   UNL     1      -2.116  -1.016 -10.578  1.00  0.00     0.200 A 
ATOM     84  F   UNL     1      -4.253  -0.927  -9.578  1.00  0.00    -0.200 F 
ATOM     85  F   UNL     1      -2.455  -2.129 -11.242  1.00  0.00    -0.200 F 
ENDBRANCH  51  75
BRANCH  63  86
ATOM     86  C   UNL     1       0.096   7.830 -11.244  1.00  0.00     0.064 A 
ATOM     87  C   UNL     1      -1.073   8.136 -11.955  1.00  0.00     0.173 A 
ATOM     88  C   UNL     1       1.325   8.218 -11.802  1.00  0.00     0.173 A 
ATOM     89  F   UNL     1      -2.271   7.773 -11.473  1.00  0.00    -0.203 F 
ATOM     90  C   UNL     1      -1.014   8.793 -13.182  1.00  0.00     0.198 A 
ATOM     91  C   UNL     1       1.378   8.903 -13.013  1.00  0.00     0.198 A 
ATOM     92  F   UNL     1       2.472   7.955 -11.159  1.00  0.00    -0.203 F 
ATOM     93  F   UNL     1      -2.141   9.042 -13.862  1.00  0.00    -0.200 F 
ATOM     94  C   UNL     1       0.210   9.185 -13.704  1.00  0.00     0.200 A 
ATOM     95  F   UNL     1       2.561   9.295 -13.507  1.00  0.00    -0.200 F 
ATOM     96  F   UNL     1       0.264   9.833 -14.876  1.00  0.00    -0.200 F 
ENDBRANCH  63  86
ENDBRANCH  37  38
ENDBRANCH  30  32
ENDBRANCH  29  30
ENDBRANCH  28  29
ENDBRANCH  27  28
ENDBRANCH   1  27
TORSDOF 17
