REMARK SMILES O=C(OCCOCCOC(=O)c1cc(NC(=O)c2ccccc2Cl)ccc1N1CCC[C@H](C[NH+]2CCCC2)C1)c1ccc(-c2c3nc(c(-c4c(F)c(F)c(F)c(F)c4F)c4ccc([nH]4)c(-c4c(F)c(F)c(F)c(F)c4F)c4nc(c(-c5c(F)c(F)c(F)c(F)c5F)c5ccc2[nH]5)C=C4)C=C3)cc1
REMARK SMILES IDX 7 1 6 2 5 3 4 4 3 5 2 6 1 7 40 8 41 9 102 10 42 11 101 12
REMARK SMILES IDX 43 13 44 14 45 15 95 16 46 17 100 18 94 19 96 20 47 21 99 22
REMARK SMILES IDX 93 23 92 24 48 26 80 27 60 28 79 29 61 30 64 31 78 32 97 33
REMARK SMILES IDX 62 34 63 35 77 37 98 38 65 39 49 40 50 41 58 42 51 43 52 44
REMARK SMILES IDX 56 45 59 46 53 47 54 48 57 49 55 50 81 51 82 52 90 53 83 54
REMARK SMILES IDX 84 55 88 56 91 57 85 58 86 59 89 60 87 61 66 62 67 63 75 64
REMARK SMILES IDX 68 65 69 66 73 67 76 68 70 69 71 70 74 71 72 72 8 73 9 74
REMARK SMILES IDX 10 75 11 76 12 77 13 78 27 79 14 80 26 81 25 82 28 83 29 84
REMARK SMILES IDX 39 85 30 86 32 87 31 88 33 89 34 90 35 91 38 92 36 94 37 95
REMARK SMILES IDX 15 96 16 97 17 99 18 100 19 101 23 102 20 103 22 104 24 105
REMARK SMILES IDX 21 106
REMARK H PARENT 96 25 64 36 34 93 15 98
REMARK Flexibility Score: inf
ROOT
ATOM      1  C   UNL     1       2.476  -0.681   1.692  1.00  0.00     0.202 C 
ENDROOT
BRANCH   1   2
ATOM      2  O   UNL     1       3.718  -0.247   1.139  1.00  0.00    -0.374 OA
BRANCH   2   3
ATOM      3  C   UNL     1       3.803   1.128   0.783  1.00  0.00     0.202 C 
BRANCH   3   4
ATOM      4  C   UNL     1       3.512   1.318  -0.704  1.00  0.00     0.261 C 
BRANCH   4   5
ATOM      5  O   UNL     1       2.188   0.856  -1.015  1.00  0.00    -0.460 OA
BRANCH   5   6
ATOM      6  C   UNL     1       1.817  -0.360  -1.475  1.00  0.00     0.338 C 
ATOM      7  O   UNL     1       0.615  -0.583  -1.625  1.00  0.00    -0.246 OA
BRANCH   6   8
ATOM      8  C   UNL     1       2.761  -1.479  -1.796  1.00  0.00     0.060 A 
ATOM      9  C   UNL     1       4.005  -1.688  -1.198  1.00  0.00     0.016 A 
ATOM     10  C   UNL     1       2.287  -2.478  -2.662  1.00  0.00     0.016 A 
ATOM     11  C   UNL     1       4.698  -2.872  -1.330  1.00  0.00     0.010 A 
ATOM     12  C   UNL     1       3.000  -3.666  -2.846  1.00  0.00     0.010 A 
ATOM     13  C   UNL     1       4.186  -3.873  -2.138  1.00  0.00    -0.014 A 
BRANCH  13  14
ATOM     14  C   UNL     1       5.021  -5.065  -2.293  1.00  0.00     0.031 A 
ATOM     15  C   UNL     1       5.886  -5.144  -3.502  1.00  0.00     0.074 A 
ATOM     16  C   UNL     1       5.116  -5.936  -1.272  1.00  0.00     0.049 A 
ATOM     17  N   UNL     1       6.647  -6.119  -3.909  1.00  0.00    -0.248 NA
ATOM     18  C   UNL     1       5.916  -3.948  -4.364  1.00  0.00     0.031 C 
ATOM     19  C   UNL     1       4.440  -5.797   0.022  1.00  0.00     0.029 A 
ATOM     20  N   UNL     1       5.841  -7.087  -1.146  1.00  0.00    -0.354 N 
ATOM     21  C   UNL     1       7.205  -5.676  -5.098  1.00  0.00     0.074 A 
ATOM     22  C   UNL     1       6.722  -4.337  -5.339  1.00  0.00     0.031 C 
ATOM     23  C   UNL     1       4.782  -6.830   0.810  1.00  0.00     0.029 A 
ATOM     24  C   UNL     1       5.628  -7.737   0.046  1.00  0.00     0.049 A 
ATOM     25  H   UNL     1       6.456  -7.418  -1.840  1.00  0.00     0.167 HD
ATOM     26  C   UNL     1       8.031  -6.362  -5.916  1.00  0.00     0.037 A 
ATOM     27  C   UNL     1       6.031  -8.962   0.429  1.00  0.00     0.037 A 
ATOM     28  C   UNL     1       8.485  -7.692  -5.619  1.00  0.00     0.049 A 
ATOM     29  C   UNL     1       6.852  -9.751  -0.560  1.00  0.00     0.074 A 
ATOM     30  C   UNL     1       9.267  -8.533  -6.384  1.00  0.00     0.029 A 
ATOM     31  N   UNL     1       8.185  -8.372  -4.443  1.00  0.00    -0.354 N 
ATOM     32  N   UNL     1       7.312  -9.382  -1.734  1.00  0.00    -0.248 NA
ATOM     33  C   UNL     1       7.190 -11.129  -0.189  1.00  0.00     0.031 C 
ATOM     34  C   UNL     1       9.392  -9.744  -5.695  1.00  0.00     0.029 A 
ATOM     35  C   UNL     1       8.744  -9.634  -4.472  1.00  0.00     0.049 A 
ATOM     36  H   UNL     1       7.652  -8.007  -3.700  1.00  0.00     0.167 HD
ATOM     37  C   UNL     1       8.010 -10.470  -2.232  1.00  0.00     0.074 A 
ATOM     38  C   UNL     1       7.934 -11.505  -1.219  1.00  0.00     0.031 C 
ATOM     39  C   UNL     1       8.649 -10.616  -3.420  1.00  0.00     0.037 A 
BRANCH  26  40
ATOM     40  C   UNL     1       8.387  -5.728  -7.224  1.00  0.00     0.064 A 
ATOM     41  C   UNL     1       9.258  -4.633  -7.316  1.00  0.00     0.173 A 
ATOM     42  C   UNL     1       7.816  -6.216  -8.409  1.00  0.00     0.173 A 
ATOM     43  F   UNL     1       9.796  -4.102  -6.208  1.00  0.00    -0.203 F 
ATOM     44  C   UNL     1       9.533  -4.041  -8.548  1.00  0.00     0.198 A 
ATOM     45  C   UNL     1       8.113  -5.639  -9.640  1.00  0.00     0.198 A 
ATOM     46  F   UNL     1       6.958  -7.247  -8.371  1.00  0.00    -0.203 F 
ATOM     47  F   UNL     1      10.325  -2.962  -8.608  1.00  0.00    -0.200 F 
ATOM     48  C   UNL     1       8.967  -4.550  -9.708  1.00  0.00     0.200 A 
ATOM     49  F   UNL     1       7.563  -6.131 -10.758  1.00  0.00    -0.200 F 
ATOM     50  F   UNL     1       9.232  -3.979 -10.891  1.00  0.00    -0.200 F 
ENDBRANCH  26  40
BRANCH  27  51
ATOM     51  C   UNL     1       5.595  -9.550   1.726  1.00  0.00     0.064 A 
ATOM     52  C   UNL     1       6.525  -9.950   2.697  1.00  0.00     0.173 A 
ATOM     53  C   UNL     1       4.238  -9.788   1.999  1.00  0.00     0.173 A 
ATOM     54  F   UNL     1       7.836  -9.765   2.484  1.00  0.00    -0.203 F 
ATOM     55  C   UNL     1       6.119 -10.599   3.864  1.00  0.00     0.198 A 
ATOM     56  C   UNL     1       3.830 -10.402   3.182  1.00  0.00     0.198 A 
ATOM     57  F   UNL     1       3.298  -9.433   1.110  1.00  0.00    -0.203 F 
ATOM     58  F   UNL     1       7.037 -11.037   4.737  1.00  0.00    -0.200 F 
ATOM     59  C   UNL     1       4.773 -10.823   4.106  1.00  0.00     0.200 A 
ATOM     60  F   UNL     1       2.526 -10.602   3.417  1.00  0.00    -0.200 F 
ATOM     61  F   UNL     1       4.385 -11.460   5.220  1.00  0.00    -0.200 F 
ENDBRANCH  27  51
BRANCH  39  62
ATOM     62  C   UNL     1       9.346 -11.922  -3.652  1.00  0.00     0.064 A 
ATOM     63  C   UNL     1       8.633 -13.103  -3.895  1.00  0.00     0.173 A 
ATOM     64  C   UNL     1      10.748 -11.972  -3.688  1.00  0.00     0.173 A 
ATOM     65  F   UNL     1       7.292 -13.104  -3.854  1.00  0.00    -0.203 F 
ATOM     66  C   UNL     1       9.301 -14.297  -4.142  1.00  0.00     0.198 A 
ATOM     67  C   UNL     1      11.410 -13.159  -3.974  1.00  0.00     0.198 A 
ATOM     68  F   UNL     1      11.470 -10.862  -3.470  1.00  0.00    -0.203 F 
ATOM     69  F   UNL     1       8.603 -15.427  -4.322  1.00  0.00    -0.200 F 
ATOM     70  C   UNL     1      10.687 -14.322  -4.193  1.00  0.00     0.200 A 
ATOM     71  F   UNL     1      12.748 -13.176  -4.043  1.00  0.00    -0.200 F 
ATOM     72  F   UNL     1      11.328 -15.470  -4.448  1.00  0.00    -0.200 F 
ENDBRANCH  39  62
ENDBRANCH  13  14
ENDBRANCH   6   8
ENDBRANCH   5   6
ENDBRANCH   4   5
ENDBRANCH   3   4
ENDBRANCH   2   3
ENDBRANCH   1   2
BRANCH   1  73
ATOM     73  C   UNL     1       2.796  -1.104   3.103  1.00  0.00     0.261 C 
BRANCH  73  74
ATOM     74  O   UNL     1       3.415   0.058   3.660  1.00  0.00    -0.460 OA
BRANCH  74  75
ATOM     75  C   UNL     1       4.748   0.079   3.866  1.00  0.00     0.340 C 
ATOM     76  O   UNL     1       5.532  -0.828   3.709  1.00  0.00    -0.246 OA
BRANCH  75  77
ATOM     77  C   UNL     1       5.101   1.484   4.208  1.00  0.00     0.085 A 
ATOM     78  C   UNL     1       6.308   1.933   3.623  1.00  0.00     0.044 A 
ATOM     79  C   UNL     1       4.286   2.345   4.983  1.00  0.00     0.051 A 
ATOM     80  C   UNL     1       6.742   3.241   3.800  1.00  0.00     0.042 A 
ATOM     81  C   UNL     1       4.776   3.652   5.166  1.00  0.00     0.029 A 
ATOM     82  C   UNL     1       5.983   4.088   4.604  1.00  0.00     0.028 A 
BRANCH  79  83
ATOM     83  N   UNL     1       3.085   2.017   5.614  1.00  0.00    -0.370 N 
ATOM     84  C   UNL     1       1.888   2.802   5.284  1.00  0.00     0.116 C 
ATOM     85  C   UNL     1       2.804   0.656   6.071  1.00  0.00     0.126 C 
ATOM     86  C   UNL     1       0.948   2.833   6.492  1.00  0.00     0.022 C 
ATOM     87  C   UNL     1       2.000   0.664   7.352  1.00  0.00     0.064 C 
ATOM     88  C   UNL     1       0.701   1.443   7.082  1.00  0.00     0.013 C 
BRANCH  87  89
ATOM     89  C   UNL     1       2.924   1.144   8.485  1.00  0.00     0.267 C 
BRANCH  89  90
ATOM     90  N   UNL     1       2.596   0.743   9.851  1.00  0.00    -0.335 N 
ATOM     91  C   UNL     1       2.496  -0.703  10.055  1.00  0.00     0.262 C 
ATOM     92  C   UNL     1       1.389   1.355  10.390  1.00  0.00     0.262 C 
ATOM     93  H   UNL     1       3.404   1.096  10.363  1.00  0.00     0.348 HD
ATOM     94  C   UNL     1       1.014  -1.024  10.044  1.00  0.00     0.067 C 
ATOM     95  C   UNL     1       0.343   0.255  10.513  1.00  0.00     0.067 C 
ENDBRANCH  89  90
ENDBRANCH  87  89
ENDBRANCH  79  83
BRANCH  80  96
ATOM     96  N   UNL     1       7.941   3.753   3.280  1.00  0.00    -0.322 N 
ATOM     97  C   UNL     1       8.727   3.354   2.225  1.00  0.00     0.257 C 
ATOM     98  H   UNL     1       8.283   4.542   3.759  1.00  0.00     0.170 HD
ATOM     99  O   UNL     1       9.879   3.771   2.112  1.00  0.00    -0.269 OA
BRANCH  97 100
ATOM    100  C   UNL     1       8.190   2.522   1.137  1.00  0.00     0.058 A 
ATOM    101  C   UNL     1       8.727   1.239   0.961  1.00  0.00     0.015 A 
ATOM    102  C   UNL     1       7.273   3.031   0.212  1.00  0.00     0.053 A 
ATOM    103  C   UNL     1       8.301   0.446  -0.106  1.00  0.00     0.001 A 
ATOM    104  C   UNL     1       6.881   2.244  -0.876  1.00  0.00     0.021 A 
ATOM    105  Cl  UNL     1       6.597   4.615   0.335  1.00  0.00    -0.083 Cl
ATOM    106  C   UNL     1       7.380   0.948  -1.025  1.00  0.00     0.002 A 
ENDBRANCH  97 100
ENDBRANCH  80  96
ENDBRANCH  75  77
ENDBRANCH  74  75
ENDBRANCH  73  74
ENDBRANCH   1  73
TORSDOF 19
