REMARK SMILES [NH3+][C@@]1(C(=O)OCCOCCOC(=O)c2ccc(-c3c4nc(c(-c5c(F)c(F)c(F)c(F)c5F)c5ccc([nH]5)c(-c5c(F)c(F)c(F)c(F)c5F)c5nc(c(-c6c(F)c(F)c(F)c(F)c6F)c6ccc3[nH]6)C=C5)C=C4)cc2)CCC[C@H]1CCOC1CCCCCC1
REMARK SMILES IDX 6 1 5 2 3 3 4 4 2 5 77 6 80 7 78 8 79 9 1 10 81 14 82 15
REMARK SMILES IDX 83 16 84 17 85 18 86 19 87 20 90 22 89 23 88 24 7 26 8 27
REMARK SMILES IDX 9 28 10 29 11 30 12 31 13 32 14 33 15 34 76 35 16 36 75 37
REMARK SMILES IDX 17 38 18 39 19 40 69 41 20 42 74 43 68 44 70 45 21 46 73 47
REMARK SMILES IDX 67 48 66 49 22 51 54 52 34 53 53 54 35 55 38 56 52 57 71 58
REMARK SMILES IDX 36 59 37 60 51 62 72 63 39 64 23 65 24 66 32 67 25 68 26 69
REMARK SMILES IDX 30 70 33 71 27 72 28 73 31 74 29 75 55 76 56 77 64 78 57 79
REMARK SMILES IDX 58 80 62 81 65 82 59 83 60 84 63 85 61 86 40 87 41 88 49 89
REMARK SMILES IDX 42 90 43 91 47 92 50 93 44 94 45 95 48 96 46 97
REMARK H PARENT 1 11 1 12 1 13 70 50 38 61
REMARK Flexibility Score: 80.00
ROOT
ATOM      1  C   UNL     1       2.295  -0.794  -4.019  1.00  0.00     0.261 C 
ENDROOT
BRANCH   1   2
ATOM      2  O   UNL     1       1.224  -0.449  -3.122  1.00  0.00    -0.459 OA
BRANCH   2   3
ATOM      3  C   UNL     1       1.093  -1.257  -2.031  1.00  0.00     0.368 C 
ATOM      4  O   UNL     1       1.863  -2.174  -1.759  1.00  0.00    -0.245 OA
BRANCH   3   5
ATOM      5  C   UNL     1      -0.180  -0.931  -1.167  1.00  0.00     0.195 C 
ATOM      6  C   UNL     1      -1.294  -1.885  -1.630  1.00  0.00     0.081 C 
ATOM      7  C   UNL     1      -0.751   0.498  -1.419  1.00  0.00     0.065 C 
ATOM      8  C   UNL     1      -1.885  -1.192  -2.839  1.00  0.00     0.008 C 
ATOM      9  C   UNL     1      -1.928   0.269  -2.415  1.00  0.00     0.011 C 
BRANCH   5  10
ATOM     10  N   UNL     1       0.130  -1.242   0.245  1.00  0.00    -0.343 N 
ATOM     11  H   UNL     1       0.496  -2.191   0.312  1.00  0.00     0.345 HD
ATOM     12  H   UNL     1      -0.720  -1.165   0.804  1.00  0.00     0.345 HD
ATOM     13  H   UNL     1       0.826  -0.583   0.594  1.00  0.00     0.345 HD
ENDBRANCH   5  10
BRANCH   7  14
ATOM     14  C   UNL     1      -1.271   1.350  -0.241  1.00  0.00     0.039 C 
BRANCH  14  15
ATOM     15  C   UNL     1      -0.306   1.887   0.827  1.00  0.00     0.161 C 
BRANCH  15  16
ATOM     16  O   UNL     1       0.619   2.898   0.431  1.00  0.00    -0.378 OA
BRANCH  16  17
ATOM     17  C   UNL     1       1.866   2.539  -0.181  1.00  0.00     0.118 C 
BRANCH  17  18
ATOM     18  C   UNL     1       2.698   3.840  -0.279  1.00  0.00     0.032 C 
BRANCH  18  19
ATOM     19  C   UNL     1       4.185   3.794   0.089  1.00  0.00     0.003 C 
BRANCH  19  20
ATOM     20  C   UNL     1       5.075   2.905  -0.772  1.00  0.00     0.000 CG0
ATOM     21  G   UNL     1       5.004   1.405  -0.499  1.00  0.00     0.000 G0
ENDBRANCH  19  20
ENDBRANCH  18  19
ENDBRANCH  17  18
BRANCH  17  22
ATOM     22  C   UNL     1       2.619   1.391   0.489  1.00  0.00     0.032 C 
BRANCH  22  23
ATOM     23  C   UNL     1       3.640   0.732  -0.432  1.00  0.00     0.003 C 
BRANCH  23  24
ATOM     24  C   UNL     1       5.004   1.405  -0.499  1.00  0.00     0.000 CG0
ATOM     25  G   UNL     1       5.075   2.905  -0.772  1.00  0.00     0.000 G0
ENDBRANCH  23  24
ENDBRANCH  22  23
ENDBRANCH  17  22
ENDBRANCH  16  17
ENDBRANCH  15  16
ENDBRANCH  14  15
ENDBRANCH   7  14
ENDBRANCH   3   5
ENDBRANCH   2   3
ENDBRANCH   1   2
BRANCH   1  26
ATOM     26  C   UNL     1       2.596   0.361  -4.979  1.00  0.00     0.202 C 
BRANCH  26  27
ATOM     27  O   UNL     1       3.513   1.329  -4.491  1.00  0.00    -0.374 OA
BRANCH  27  28
ATOM     28  C   UNL     1       3.076   2.414  -3.681  1.00  0.00     0.202 C 
BRANCH  28  29
ATOM     29  C   UNL     1       1.623   2.888  -3.699  1.00  0.00     0.261 C 
BRANCH  29  30
ATOM     30  O   UNL     1       1.131   3.219  -4.976  1.00  0.00    -0.460 OA
BRANCH  30  31
ATOM     31  C   UNL     1       1.882   4.073  -5.700  1.00  0.00     0.338 C 
ATOM     32  O   UNL     1       2.749   4.837  -5.362  1.00  0.00    -0.246 OA
BRANCH  31  33
ATOM     33  C   UNL     1       1.586   3.582  -7.037  1.00  0.00     0.060 A 
ATOM     34  C   UNL     1       2.594   2.896  -7.720  1.00  0.00     0.016 A 
ATOM     35  C   UNL     1       0.253   3.602  -7.458  1.00  0.00     0.016 A 
ATOM     36  C   UNL     1       2.270   2.261  -8.904  1.00  0.00     0.010 A 
ATOM     37  C   UNL     1      -0.075   2.943  -8.618  1.00  0.00     0.010 A 
ATOM     38  C   UNL     1       0.948   2.332  -9.362  1.00  0.00    -0.014 A 
BRANCH  38  39
ATOM     39  C   UNL     1       0.652   2.059 -10.767  1.00  0.00     0.031 A 
ATOM     40  C   UNL     1       0.566   3.261 -11.656  1.00  0.00     0.074 A 
ATOM     41  C   UNL     1       0.386   0.808 -11.161  1.00  0.00     0.049 A 
ATOM     42  N   UNL     1       0.136   3.357 -12.881  1.00  0.00    -0.248 NA
ATOM     43  C   UNL     1       0.976   4.548 -11.058  1.00  0.00     0.031 C 
ATOM     44  C   UNL     1       0.452  -0.381 -10.312  1.00  0.00     0.029 A 
ATOM     45  N   UNL     1      -0.026   0.341 -12.374  1.00  0.00    -0.354 N 
ATOM     46  C   UNL     1       0.199   4.710 -13.185  1.00  0.00     0.074 A 
ATOM     47  C   UNL     1       0.654   5.407 -12.009  1.00  0.00     0.031 C 
ATOM     48  C   UNL     1       0.076  -1.450 -11.034  1.00  0.00     0.029 A 
ATOM     49  C   UNL     1      -0.286  -1.005 -12.376  1.00  0.00     0.049 A 
ATOM     50  H   UNL     1      -0.126   0.913 -13.169  1.00  0.00     0.167 HD
ATOM     51  C   UNL     1      -0.090   5.304 -14.363  1.00  0.00     0.037 A 
ATOM     52  C   UNL     1      -0.786  -1.762 -13.367  1.00  0.00     0.037 A 
ATOM     53  C   UNL     1      -0.528   4.556 -15.506  1.00  0.00     0.049 A 
ATOM     54  C   UNL     1      -1.096  -1.077 -14.673  1.00  0.00     0.074 A 
ATOM     55  C   UNL     1      -0.822   5.003 -16.777  1.00  0.00     0.029 A 
ATOM     56  N   UNL     1      -0.733   3.179 -15.498  1.00  0.00    -0.354 N 
ATOM     57  N   UNL     1      -0.997   0.196 -14.983  1.00  0.00    -0.248 NA
ATOM     58  C   UNL     1      -1.577  -1.927 -15.766  1.00  0.00     0.031 C 
ATOM     59  C   UNL     1      -1.246   3.902 -17.528  1.00  0.00     0.029 A 
ATOM     60  C   UNL     1      -1.164   2.760 -16.741  1.00  0.00     0.049 A 
ATOM     61  H   UNL     1      -0.592   2.591 -14.722  1.00  0.00     0.167 HD
ATOM     62  C   UNL     1      -1.373   0.299 -16.314  1.00  0.00     0.074 A 
ATOM     63  C   UNL     1      -1.689  -1.048 -16.752  1.00  0.00     0.031 C 
ATOM     64  C   UNL     1      -1.454   1.396 -17.110  1.00  0.00     0.037 A 
BRANCH  51  65
ATOM     65  C   UNL     1       0.042   6.796 -14.441  1.00  0.00     0.064 A 
ATOM     66  C   UNL     1       1.289   7.437 -14.342  1.00  0.00     0.173 A 
ATOM     67  C   UNL     1      -1.094   7.603 -14.595  1.00  0.00     0.173 A 
ATOM     68  F   UNL     1       2.407   6.717 -14.164  1.00  0.00    -0.203 F 
ATOM     69  C   UNL     1       1.387   8.826 -14.364  1.00  0.00     0.198 A 
ATOM     70  C   UNL     1      -0.989   8.991 -14.650  1.00  0.00     0.198 A 
ATOM     71  F   UNL     1      -2.312   7.047 -14.680  1.00  0.00    -0.203 F 
ATOM     72  F   UNL     1       2.581   9.415 -14.205  1.00  0.00    -0.200 F 
ATOM     73  C   UNL     1       0.250   9.602 -14.527  1.00  0.00     0.200 A 
ATOM     74  F   UNL     1      -2.089   9.739 -14.812  1.00  0.00    -0.200 F 
ATOM     75  F   UNL     1       0.346  10.938 -14.551  1.00  0.00    -0.200 F 
ENDBRANCH  51  65
BRANCH  52  76
ATOM     76  C   UNL     1      -0.985  -3.220 -13.164  1.00  0.00     0.064 A 
ATOM     77  C   UNL     1      -0.183  -4.154 -13.834  1.00  0.00     0.173 A 
ATOM     78  C   UNL     1      -1.951  -3.713 -12.274  1.00  0.00     0.173 A 
ATOM     79  F   UNL     1       0.751  -3.734 -14.700  1.00  0.00    -0.203 F 
ATOM     80  C   UNL     1      -0.352  -5.523 -13.638  1.00  0.00     0.198 A 
ATOM     81  C   UNL     1      -2.101  -5.082 -12.058  1.00  0.00     0.198 A 
ATOM     82  F   UNL     1      -2.735  -2.864 -11.595  1.00  0.00    -0.203 F 
ATOM     83  F   UNL     1       0.406  -6.393 -14.319  1.00  0.00    -0.200 F 
ATOM     84  C   UNL     1      -1.306  -5.986 -12.745  1.00  0.00     0.200 A 
ATOM     85  F   UNL     1      -3.010  -5.524 -11.178  1.00  0.00    -0.200 F 
ATOM     86  F   UNL     1      -1.461  -7.303 -12.549  1.00  0.00    -0.200 F 
ENDBRANCH  52  76
BRANCH  64  87
ATOM     87  C   UNL     1      -1.866   1.162 -18.531  1.00  0.00     0.064 A 
ATOM     88  C   UNL     1      -3.188   0.845 -18.867  1.00  0.00     0.173 A 
ATOM     89  C   UNL     1      -0.933   1.317 -19.567  1.00  0.00     0.173 A 
ATOM     90  F   UNL     1      -4.109   0.676 -17.905  1.00  0.00    -0.203 F 
ATOM     91  C   UNL     1      -3.558   0.663 -20.195  1.00  0.00     0.198 A 
ATOM     92  C   UNL     1      -1.315   1.168 -20.895  1.00  0.00     0.198 A 
ATOM     93  F   UNL     1       0.341   1.633 -19.290  1.00  0.00    -0.203 F 
ATOM     94  F   UNL     1      -4.816   0.311 -20.495  1.00  0.00    -0.200 F 
ATOM     95  C   UNL     1      -2.624   0.833 -21.207  1.00  0.00     0.200 A 
ATOM     96  F   UNL     1      -0.417   1.352 -21.872  1.00  0.00    -0.200 F 
ATOM     97  F   UNL     1      -2.986   0.669 -22.486  1.00  0.00    -0.200 F 
ENDBRANCH  64  87
ENDBRANCH  38  39
ENDBRANCH  31  33
ENDBRANCH  30  31
ENDBRANCH  29  30
ENDBRANCH  28  29
ENDBRANCH  27  28
ENDBRANCH  26  27
ENDBRANCH   1  26
TORSDOF 19
