REMARK SMILES O=C(OCCOCCOC(=O)c1ccc(COc2cccc(Cl)c2Cl)o1)c1ccc(-c2c3nc(c(-c4c(F)c(F)c(F)c(F)c4F)c4ccc([nH]4)c(-c4c(F)c(F)c(F)c(F)c4F)c4nc(c(-c5c(F)c(F)c(F)c(F)c5F)c5ccc2[nH]5)C=C4)C=C3)cc1
REMARK SMILES IDX 7 1 6 2 5 3 4 4 3 5 2 6 1 7 27 8 28 9 89 10 29 11 88 12
REMARK SMILES IDX 30 13 31 14 32 15 82 16 33 17 87 18 81 19 83 20 34 21 86 22
REMARK SMILES IDX 80 23 79 24 35 26 67 27 47 28 66 29 48 30 51 31 65 32 84 33
REMARK SMILES IDX 49 34 50 35 64 37 85 38 52 39 36 40 37 41 45 42 38 43 39 44
REMARK SMILES IDX 43 45 46 46 40 47 41 48 44 49 42 50 68 51 69 52 77 53 70 54
REMARK SMILES IDX 71 55 75 56 78 57 72 58 73 59 76 60 74 61 53 62 54 63 62 64
REMARK SMILES IDX 55 65 56 66 60 67 63 68 57 69 58 70 61 71 59 72 8 73 9 74
REMARK SMILES IDX 10 75 11 76 12 77 13 78 26 79 14 80 15 81 16 82 17 83 18 84
REMARK SMILES IDX 19 85 24 86 20 87 22 88 25 89 21 90 23 91
REMARK H PARENT 83 25 51 36
REMARK Flexibility Score: inf
ROOT
ATOM      1  C   UNL     1       2.439   1.386  -2.021  1.00  0.00     0.202 C 
ENDROOT
BRANCH   1   2
ATOM      2  O   UNL     1       3.704   0.788  -1.705  1.00  0.00    -0.374 OA
BRANCH   2   3
ATOM      3  C   UNL     1       3.761  -0.631  -1.885  1.00  0.00     0.202 C 
BRANCH   3   4
ATOM      4  C   UNL     1       3.495  -1.388  -0.581  1.00  0.00     0.261 C 
BRANCH   4   5
ATOM      5  O   UNL     1       2.189  -1.052  -0.075  1.00  0.00    -0.460 OA
BRANCH   5   6
ATOM      6  C   UNL     1       1.860  -0.102   0.831  1.00  0.00     0.338 C 
ATOM      7  O   UNL     1       0.682   0.240   0.929  1.00  0.00    -0.246 OA
BRANCH   6   8
ATOM      8  C   UNL     1       2.832   0.484   1.801  1.00  0.00     0.060 A 
ATOM      9  C   UNL     1       4.127   0.904   1.492  1.00  0.00     0.016 A 
ATOM     10  C   UNL     1       2.346   0.735   3.097  1.00  0.00     0.016 A 
ATOM     11  C   UNL     1       4.947   1.483   2.470  1.00  0.00     0.010 A 
ATOM     12  C   UNL     1       3.144   1.359   4.063  1.00  0.00     0.010 A 
ATOM     13  C   UNL     1       4.461   1.720   3.762  1.00  0.00    -0.014 A 
BRANCH  13  14
ATOM     14  C   UNL     1       5.330   2.354   4.783  1.00  0.00     0.031 A 
ATOM     15  C   UNL     1       5.916   1.535   5.896  1.00  0.00     0.074 A 
ATOM     16  C   UNL     1       5.618   3.666   4.699  1.00  0.00     0.049 A 
ATOM     17  N   UNL     1       6.726   1.905   6.857  1.00  0.00    -0.248 NA
ATOM     18  C   UNL     1       5.542   0.114   5.937  1.00  0.00     0.031 C 
ATOM     19  C   UNL     1       5.115   4.578   3.672  1.00  0.00     0.029 A 
ATOM     20  N   UNL     1       6.423   4.454   5.483  1.00  0.00    -0.354 N 
ATOM     21  C   UNL     1       6.959   0.766   7.613  1.00  0.00     0.074 A 
ATOM     22  C   UNL     1       6.188  -0.304   7.017  1.00  0.00     0.031 C 
ATOM     23  C   UNL     1       5.656   5.793   3.865  1.00  0.00     0.029 A 
ATOM     24  C   UNL     1       6.530   5.746   5.034  1.00  0.00     0.049 A 
ATOM     25  H   UNL     1       6.880   4.124   6.290  1.00  0.00     0.167 HD
ATOM     26  C   UNL     1       7.754   0.619   8.699  1.00  0.00     0.037 A 
ATOM     27  C   UNL     1       7.265   6.771   5.502  1.00  0.00     0.037 A 
ATOM     28  C   UNL     1       8.536   1.665   9.299  1.00  0.00     0.049 A 
ATOM     29  C   UNL     1       8.134   6.585   6.710  1.00  0.00     0.074 A 
ATOM     30  C   UNL     1       9.358   1.603  10.411  1.00  0.00     0.029 A 
ATOM     31  N   UNL     1       8.598   2.965   8.827  1.00  0.00    -0.354 N 
ATOM     32  N   UNL     1       8.338   5.504   7.420  1.00  0.00    -0.248 NA
ATOM     33  C   UNL     1       8.870   7.766   7.185  1.00  0.00     0.031 C 
ATOM     34  C   UNL     1       9.921   2.869  10.611  1.00  0.00     0.029 A 
ATOM     35  C   UNL     1       9.448   3.716   9.622  1.00  0.00     0.049 A 
ATOM     36  H   UNL     1       8.110   3.306   8.042  1.00  0.00     0.167 HD
ATOM     37  C   UNL     1       9.229   5.869   8.418  1.00  0.00     0.074 A 
ATOM     38  C   UNL     1       9.532   7.271   8.223  1.00  0.00     0.031 C 
ATOM     39  C   UNL     1       9.744   5.106   9.411  1.00  0.00     0.037 A 
BRANCH  26  40
ATOM     40  C   UNL     1       7.824  -0.747   9.299  1.00  0.00     0.064 A 
ATOM     41  C   UNL     1       8.709  -1.708   8.792  1.00  0.00     0.173 A 
ATOM     42  C   UNL     1       7.011  -1.095  10.385  1.00  0.00     0.173 A 
ATOM     43  F   UNL     1       9.491  -1.419   7.742  1.00  0.00    -0.203 F 
ATOM     44  C   UNL     1       8.771  -2.981   9.350  1.00  0.00     0.198 A 
ATOM     45  C   UNL     1       7.080  -2.368  10.944  1.00  0.00     0.198 A 
ATOM     46  F   UNL     1       6.144  -0.207  10.893  1.00  0.00    -0.203 F 
ATOM     47  F   UNL     1       9.607  -3.895   8.838  1.00  0.00    -0.200 F 
ATOM     48  C   UNL     1       7.958  -3.309  10.425  1.00  0.00     0.200 A 
ATOM     49  F   UNL     1       6.289  -2.688  11.978  1.00  0.00    -0.200 F 
ATOM     50  F   UNL     1       8.013  -4.539  10.956  1.00  0.00    -0.200 F 
ENDBRANCH  26  40
BRANCH  27  51
ATOM     51  C   UNL     1       7.246   8.065   4.784  1.00  0.00     0.064 A 
ATOM     52  C   UNL     1       8.271   8.392   3.887  1.00  0.00     0.173 A 
ATOM     53  C   UNL     1       6.205   8.983   4.967  1.00  0.00     0.173 A 
ATOM     54  F   UNL     1       9.295   7.545   3.703  1.00  0.00    -0.203 F 
ATOM     55  C   UNL     1       8.256   9.598   3.194  1.00  0.00     0.198 A 
ATOM     56  C   UNL     1       6.188  10.187   4.268  1.00  0.00     0.198 A 
ATOM     57  F   UNL     1       5.210   8.709   5.822  1.00  0.00    -0.203 F 
ATOM     58  F   UNL     1       9.253   9.896   2.350  1.00  0.00    -0.200 F 
ATOM     59  C   UNL     1       7.212  10.493   3.382  1.00  0.00     0.200 A 
ATOM     60  F   UNL     1       5.181  11.052   4.452  1.00  0.00    -0.200 F 
ATOM     61  F   UNL     1       7.197  11.655   2.715  1.00  0.00    -0.200 F 
ENDBRANCH  27  51
BRANCH  39  62
ATOM     62  C   UNL     1      10.690   5.771  10.357  1.00  0.00     0.064 A 
ATOM     63  C   UNL     1      10.213   6.476  11.471  1.00  0.00     0.173 A 
ATOM     64  C   UNL     1      12.075   5.674  10.172  1.00  0.00     0.173 A 
ATOM     65  F   UNL     1       8.893   6.603  11.675  1.00  0.00    -0.203 F 
ATOM     66  C   UNL     1      11.096   7.066  12.370  1.00  0.00     0.198 A 
ATOM     67  C   UNL     1      12.955   6.262  11.076  1.00  0.00     0.198 A 
ATOM     68  F   UNL     1      12.572   5.014   9.116  1.00  0.00    -0.203 F 
ATOM     69  F   UNL     1      10.622   7.747  13.422  1.00  0.00    -0.200 F 
ATOM     70  C   UNL     1      12.465   6.956  12.173  1.00  0.00     0.200 A 
ATOM     71  F   UNL     1      14.278   6.161  10.884  1.00  0.00    -0.200 F 
ATOM     72  F   UNL     1      13.314   7.527  13.039  1.00  0.00    -0.200 F 
ENDBRANCH  39  62
ENDBRANCH  13  14
ENDBRANCH   6   8
ENDBRANCH   5   6
ENDBRANCH   4   5
ENDBRANCH   3   4
ENDBRANCH   2   3
ENDBRANCH   1   2
BRANCH   1  73
ATOM     73  C   UNL     1       2.608   2.416  -3.142  1.00  0.00     0.261 C 
BRANCH  73  74
ATOM     74  O   UNL     1       3.044   1.740  -4.332  1.00  0.00    -0.457 OA
BRANCH  74  75
ATOM     75  C   UNL     1       4.400   1.615  -4.449  1.00  0.00     0.374 C 
ATOM     76  O   UNL     1       5.225   2.320  -3.881  1.00  0.00    -0.242 OA
BRANCH  75  77
ATOM     77  C   UNL     1       4.687   0.449  -5.247  1.00  0.00     0.211 A 
ATOM     78  C   UNL     1       3.952  -0.254  -6.183  1.00  0.00     0.058 A 
ATOM     79  O   UNL     1       5.872  -0.196  -5.030  1.00  0.00    -0.450 OA
ATOM     80  C   UNL     1       4.733  -1.375  -6.558  1.00  0.00     0.050 A 
ATOM     81  C   UNL     1       5.896  -1.307  -5.818  1.00  0.00     0.142 A 
BRANCH  81  82
ATOM     82  C   UNL     1       7.084  -2.205  -5.722  1.00  0.00     0.304 C 
BRANCH  82  83
ATOM     83  O   UNL     1       8.163  -1.542  -5.042  1.00  0.00    -0.484 OA
BRANCH  83  84
ATOM     84  C   UNL     1       9.012  -0.898  -5.908  1.00  0.00     0.140 A 
ATOM     85  C   UNL     1       8.929   0.497  -5.943  1.00  0.00     0.048 A 
ATOM     86  C   UNL     1       9.982  -1.574  -6.662  1.00  0.00     0.101 A 
ATOM     87  C   UNL     1       9.768   1.226  -6.783  1.00  0.00     0.005 A 
ATOM     88  C   UNL     1      10.817  -0.833  -7.511  1.00  0.00     0.063 A 
ATOM     89  Cl  UNL     1      10.154  -3.293  -6.512  1.00  0.00    -0.079 Cl
ATOM     90  C   UNL     1      10.703   0.562  -7.574  1.00  0.00     0.022 A 
ATOM     91  Cl  UNL     1      12.014  -1.576  -8.514  1.00  0.00    -0.083 Cl
ENDBRANCH  83  84
ENDBRANCH  82  83
ENDBRANCH  81  82
ENDBRANCH  75  77
ENDBRANCH  74  75
ENDBRANCH  73  74
ENDBRANCH   1  73
TORSDOF 17
