REMARK SMILES C[C@@H]1CCC[C@](CCSc2ccccc2)(C(=O)OCCOCCOC(=O)c2ccc(-c3c4nc(c(-c5c(F)c(F)c(F)c(F)c5F)c5ccc([nH]5)c(-c5c(F)c(F)c(F)c(F)c5F)c5nc(c(-c6c(F)c(F)c(F)c(F)c6F)c6ccc3[nH]6)C=C5)C=C4)cc2)C1
REMARK SMILES IDX 20 1 19 2 18 3 16 4 17 5 6 6 1 7 2 8 3 9 90 10 4 11 5 12
REMARK SMILES IDX 7 13 8 14 9 15 10 16 11 17 15 18 12 19 14 20 13 21 21 22
REMARK SMILES IDX 22 23 23 24 24 25 25 26 26 27 27 28 28 29 89 30 29 31 88 32
REMARK SMILES IDX 30 33 31 34 32 35 82 36 33 37 87 38 81 39 83 40 34 41 86 42
REMARK SMILES IDX 80 43 79 44 35 46 67 47 47 48 66 49 48 50 51 51 65 52 84 53
REMARK SMILES IDX 49 54 50 55 64 57 85 58 52 59 36 60 37 61 45 62 38 63 39 64
REMARK SMILES IDX 43 65 46 66 40 67 41 68 44 69 42 70 68 71 69 72 77 73 70 74
REMARK SMILES IDX 71 75 75 76 78 77 72 78 73 79 76 80 74 81 53 82 54 83 62 84
REMARK SMILES IDX 55 85 56 86 60 87 63 88 57 89 58 90 61 91 59 92
REMARK H PARENT 83 45 51 56
REMARK Flexibility Score: inf
ROOT
ATOM      1  C   UNL     1      -2.670  -0.512   4.516  1.00  0.00     0.202 C 
ENDROOT
BRANCH   1   2
ATOM      2  C   UNL     1      -1.408   0.052   3.811  1.00  0.00     0.261 C 
BRANCH   2   3
ATOM      3  O   UNL     1      -1.373   0.120   2.382  1.00  0.00    -0.463 OA
BRANCH   3   4
ATOM      4  C   UNL     1      -1.224  -1.106   1.834  1.00  0.00     0.312 C 
ATOM      5  O   UNL     1      -1.368  -2.107   2.515  1.00  0.00    -0.252 OA
BRANCH   4   6
ATOM      6  C   UNL     1      -1.000  -1.155   0.326  1.00  0.00     0.069 C 
ATOM      7  C   UNL     1       1.484   0.746   1.420  1.00  0.00     0.007 C 
ATOM      8  C   UNL     1       1.114   0.358  -0.014  1.00  0.00    -0.013 C 
ATOM      9  C   UNL     1       0.257   1.418  -0.710  1.00  0.00     0.003 C 
ATOM     10  C   UNL     1       0.469  -1.032  -0.116  1.00  0.00     0.022 C 
ATOM     11  C   UNL     1      -1.211   1.372  -0.300  1.00  0.00     0.001 C 
ATOM     12  C   UNL     1      -1.817  -0.037  -0.391  1.00  0.00     0.019 C 
BRANCH   6  13
ATOM     13  C   UNL     1      -1.568  -2.571  -0.105  1.00  0.00     0.030 C 
BRANCH  13  14
ATOM     14  C   UNL     1      -0.746  -3.880   0.133  1.00  0.00     0.076 C 
BRANCH  14  15
ATOM     15  S   UNL     1      -0.560  -4.744   1.770  1.00  0.00    -0.126 SA
BRANCH  15  16
ATOM     16  C   UNL     1       0.780  -3.862   2.580  1.00  0.00     0.007 A 
ATOM     17  C   UNL     1       0.620  -3.400   3.898  1.00  0.00     0.015 A 
ATOM     18  C   UNL     1       1.965  -3.562   1.911  1.00  0.00     0.015 A 
ATOM     19  C   UNL     1       1.561  -2.539   4.475  1.00  0.00     0.001 A 
ATOM     20  C   UNL     1       2.906  -2.702   2.485  1.00  0.00     0.001 A 
ATOM     21  C   UNL     1       2.693  -2.170   3.756  1.00  0.00     0.000 A 
ENDBRANCH  15  16
ENDBRANCH  14  15
ENDBRANCH  13  14
ENDBRANCH   6  13
ENDBRANCH   4   6
ENDBRANCH   3   4
ENDBRANCH   2   3
ENDBRANCH   1   2
BRANCH   1  22
ATOM     22  O   UNL     1      -3.636  -1.334   3.884  1.00  0.00    -0.374 OA
BRANCH  22  23
ATOM     23  C   UNL     1      -4.259  -0.956   2.668  1.00  0.00     0.202 C 
BRANCH  23  24
ATOM     24  C   UNL     1      -4.945   0.404   2.558  1.00  0.00     0.261 C 
BRANCH  24  25
ATOM     25  O   UNL     1      -4.068   1.502   2.846  1.00  0.00    -0.460 OA
BRANCH  25  26
ATOM     26  C   UNL     1      -4.375   2.177   3.977  1.00  0.00     0.338 C 
ATOM     27  O   UNL     1      -5.315   1.980   4.732  1.00  0.00    -0.246 OA
BRANCH  26  28
ATOM     28  C   UNL     1      -3.296   3.118   4.309  1.00  0.00     0.060 A 
ATOM     29  C   UNL     1      -2.694   3.003   5.571  1.00  0.00     0.016 A 
ATOM     30  C   UNL     1      -2.958   4.160   3.447  1.00  0.00     0.016 A 
ATOM     31  C   UNL     1      -1.783   3.960   5.997  1.00  0.00     0.010 A 
ATOM     32  C   UNL     1      -2.068   5.141   3.889  1.00  0.00     0.010 A 
ATOM     33  C   UNL     1      -1.516   5.064   5.181  1.00  0.00    -0.014 A 
BRANCH  33  34
ATOM     34  C   UNL     1      -0.850   6.245   5.774  1.00  0.00     0.031 A 
ATOM     35  C   UNL     1      -1.716   7.362   6.288  1.00  0.00     0.074 A 
ATOM     36  C   UNL     1       0.486   6.300   5.893  1.00  0.00     0.049 A 
ATOM     37  N   UNL     1      -1.371   8.521   6.785  1.00  0.00    -0.248 NA
ATOM     38  C   UNL     1      -3.172   7.140   6.234  1.00  0.00     0.031 C 
ATOM     39  C   UNL     1       1.415   5.247   5.491  1.00  0.00     0.029 A 
ATOM     40  N   UNL     1       1.292   7.296   6.380  1.00  0.00    -0.354 N 
ATOM     41  C   UNL     1      -2.562   9.165   7.096  1.00  0.00     0.074 A 
ATOM     42  C   UNL     1      -3.640   8.285   6.706  1.00  0.00     0.031 C 
ATOM     43  C   UNL     1       2.671   5.663   5.728  1.00  0.00     0.029 A 
ATOM     44  C   UNL     1       2.632   7.023   6.263  1.00  0.00     0.049 A 
ATOM     45  H   UNL     1       0.944   8.127   6.777  1.00  0.00     0.167 HD
ATOM     46  C   UNL     1      -2.736  10.380   7.665  1.00  0.00     0.037 A 
ATOM     47  C   UNL     1       3.698   7.803   6.527  1.00  0.00     0.037 A 
ATOM     48  C   UNL     1      -1.656  11.251   8.047  1.00  0.00     0.049 A 
ATOM     49  C   UNL     1       3.471   9.192   7.072  1.00  0.00     0.074 A 
ATOM     50  C   UNL     1      -1.722  12.505   8.626  1.00  0.00     0.029 A 
ATOM     51  N   UNL     1      -0.311  10.955   7.882  1.00  0.00    -0.354 N 
ATOM     52  N   UNL     1       2.346   9.794   7.372  1.00  0.00    -0.248 NA
ATOM     53  C   UNL     1       4.668  10.010   7.318  1.00  0.00     0.031 C 
ATOM     54  C   UNL     1      -0.419  12.991   8.762  1.00  0.00     0.029 A 
ATOM     55  C   UNL     1       0.462  12.013   8.328  1.00  0.00     0.049 A 
ATOM     56  H   UNL     1       0.042  10.116   7.505  1.00  0.00     0.167 HD
ATOM     57  C   UNL     1       2.699  11.040   7.877  1.00  0.00     0.074 A 
ATOM     58  C   UNL     1       4.145  11.102   7.855  1.00  0.00     0.031 C 
ATOM     59  C   UNL     1       1.902  12.045   8.318  1.00  0.00     0.037 A 
BRANCH  46  60
ATOM     60  C   UNL     1      -4.142  10.853   7.888  1.00  0.00     0.064 A 
ATOM     61  C   UNL     1      -4.965  10.284   8.871  1.00  0.00     0.173 A 
ATOM     62  C   UNL     1      -4.656  11.926   7.143  1.00  0.00     0.173 A 
ATOM     63  F   UNL     1      -4.527   9.245   9.599  1.00  0.00    -0.203 F 
ATOM     64  C   UNL     1      -6.254  10.763   9.091  1.00  0.00     0.198 A 
ATOM     65  C   UNL     1      -5.934  12.421   7.386  1.00  0.00     0.198 A 
ATOM     66  F   UNL     1      -3.910  12.506   6.190  1.00  0.00    -0.203 F 
ATOM     67  F   UNL     1      -7.035  10.180  10.011  1.00  0.00    -0.200 F 
ATOM     68  C   UNL     1      -6.733  11.837   8.356  1.00  0.00     0.200 A 
ATOM     69  F   UNL     1      -6.390  13.468   6.683  1.00  0.00    -0.200 F 
ATOM     70  F   UNL     1      -7.968  12.307   8.581  1.00  0.00    -0.200 F 
ENDBRANCH  46  60
BRANCH  47  71
ATOM     71  C   UNL     1       5.076   7.312   6.256  1.00  0.00     0.064 A 
ATOM     72  C   UNL     1       5.997   7.122   7.296  1.00  0.00     0.173 A 
ATOM     73  C   UNL     1       5.518   7.077   4.945  1.00  0.00     0.173 A 
ATOM     74  F   UNL     1       5.631   7.357   8.565  1.00  0.00    -0.203 F 
ATOM     75  C   UNL     1       7.314   6.752   7.033  1.00  0.00     0.198 A 
ATOM     76  C   UNL     1       6.826   6.672   4.687  1.00  0.00     0.198 A 
ATOM     77  F   UNL     1       4.679   7.243   3.912  1.00  0.00    -0.203 F 
ATOM     78  F   UNL     1       8.191   6.646   8.041  1.00  0.00    -0.200 F 
ATOM     79  C   UNL     1       7.727   6.524   5.729  1.00  0.00     0.200 A 
ATOM     80  F   UNL     1       7.215   6.438   3.426  1.00  0.00    -0.200 F 
ATOM     81  F   UNL     1       8.996   6.175   5.477  1.00  0.00    -0.200 F 
ENDBRANCH  47  71
BRANCH  59  82
ATOM     82  C   UNL     1       2.574  13.272   8.866  1.00  0.00     0.064 A 
ATOM     83  C   UNL     1       3.261  14.172   8.040  1.00  0.00     0.173 A 
ATOM     84  C   UNL     1       2.488  13.571  10.236  1.00  0.00     0.173 A 
ATOM     85  F   UNL     1       3.382  13.927   6.727  1.00  0.00    -0.203 F 
ATOM     86  C   UNL     1       3.865  15.310   8.569  1.00  0.00     0.198 A 
ATOM     87  C   UNL     1       3.062  14.727  10.755  1.00  0.00     0.198 A 
ATOM     88  F   UNL     1       1.833  12.748  11.068  1.00  0.00    -0.203 F 
ATOM     89  F   UNL     1       4.564  16.128   7.770  1.00  0.00    -0.200 F 
ATOM     90  C   UNL     1       3.758  15.591   9.923  1.00  0.00     0.200 A 
ATOM     91  F   UNL     1       2.941  15.006  12.060  1.00  0.00    -0.200 F 
ATOM     92  F   UNL     1       4.332  16.692  10.428  1.00  0.00    -0.200 F 
ENDBRANCH  59  82
ENDBRANCH  33  34
ENDBRANCH  26  28
ENDBRANCH  25  26
ENDBRANCH  24  25
ENDBRANCH  23  24
ENDBRANCH  22  23
ENDBRANCH   1  22
TORSDOF 18
