REMARK SMILES O=C(OCCOCCOC(=O)[C@H](c1cnn(Cc2ccccc2)c1)[NH+]1CCOCC1)c1ccc(-c2c3nc(c(-c4c(F)c(F)c(F)c(F)c4F)c4ccc([nH]4)c(-c4c(F)c(F)c(F)c(F)c4F)c4nc(c(-c5c(F)c(F)c(F)c(F)c5F)c5ccc2[nH]5)C=C4)C=C3)cc1
REMARK SMILES IDX 7 1 6 2 5 3 4 4 3 5 2 6 1 7 31 8 32 9 93 10 33 11 92 12
REMARK SMILES IDX 34 13 35 14 36 15 86 16 37 17 91 18 85 19 87 20 38 21 90 22
REMARK SMILES IDX 84 23 83 24 39 26 71 27 51 28 70 29 52 30 55 31 69 32 88 33
REMARK SMILES IDX 53 34 54 35 68 37 89 38 56 39 40 40 41 41 49 42 42 43 43 44
REMARK SMILES IDX 47 45 50 46 44 47 45 48 48 49 46 50 72 51 73 52 81 53 74 54
REMARK SMILES IDX 75 55 79 56 82 57 76 58 77 59 80 60 78 61 57 62 58 63 66 64
REMARK SMILES IDX 59 65 60 66 64 67 67 68 61 69 62 70 65 71 63 72 8 73 9 74
REMARK SMILES IDX 10 75 11 76 12 77 25 78 26 79 30 80 27 82 29 83 28 84 13 85
REMARK SMILES IDX 14 86 24 87 15 88 16 89 17 90 18 91 19 92 23 93 20 94 22 95
REMARK SMILES IDX 21 96
REMARK H PARENT 87 25 55 36 25 81
REMARK Flexibility Score: inf
ROOT
ATOM      1  C   UNL     1       3.536  -0.269  -4.552  1.00  0.00     0.202 C 
ENDROOT
BRANCH   1   2
ATOM      2  O   UNL     1       2.342   0.262  -3.984  1.00  0.00    -0.374 OA
BRANCH   2   3
ATOM      3  C   UNL     1       2.346   0.862  -2.690  1.00  0.00     0.202 C 
BRANCH   3   4
ATOM      4  C   UNL     1       2.678   0.036  -1.431  1.00  0.00     0.261 C 
BRANCH   4   5
ATOM      5  O   UNL     1       3.861  -0.751  -1.585  1.00  0.00    -0.460 OA
BRANCH   5   6
ATOM      6  C   UNL     1       3.901  -2.030  -2.016  1.00  0.00     0.338 C 
ATOM      7  O   UNL     1       4.986  -2.589  -2.173  1.00  0.00    -0.246 OA
BRANCH   6   8
ATOM      8  C   UNL     1       2.650  -2.796  -2.246  1.00  0.00     0.060 A 
ATOM      9  C   UNL     1       1.383  -2.234  -2.423  1.00  0.00     0.016 A 
ATOM     10  C   UNL     1       2.764  -4.172  -2.091  1.00  0.00     0.016 A 
ATOM     11  C   UNL     1       0.295  -2.869  -1.902  1.00  0.00     0.010 A 
ATOM     12  C   UNL     1       1.638  -4.887  -1.774  1.00  0.00     0.010 A 
ATOM     13  C   UNL     1       0.466  -4.177  -1.505  1.00  0.00    -0.014 A 
BRANCH  13  14
ATOM     14  C   UNL     1      -0.665  -4.830  -0.890  1.00  0.00     0.031 A 
ATOM     15  C   UNL     1      -1.868  -4.889  -1.772  1.00  0.00     0.074 A 
ATOM     16  C   UNL     1      -0.438  -5.422   0.297  1.00  0.00     0.049 A 
ATOM     17  N   UNL     1      -3.115  -4.720  -1.471  1.00  0.00    -0.248 NA
ATOM     18  C   UNL     1      -1.625  -4.999  -3.231  1.00  0.00     0.031 C 
ATOM     19  C   UNL     1       0.819  -5.456   1.064  1.00  0.00     0.029 A 
ATOM     20  N   UNL     1      -1.214  -6.314   0.953  1.00  0.00    -0.354 N 
ATOM     21  C   UNL     1      -3.812  -4.910  -2.664  1.00  0.00     0.074 A 
ATOM     22  C   UNL     1      -2.852  -4.889  -3.729  1.00  0.00     0.031 C 
ATOM     23  C   UNL     1       0.813  -6.531   1.877  1.00  0.00     0.029 A 
ATOM     24  C   UNL     1      -0.484  -7.163   1.778  1.00  0.00     0.049 A 
ATOM     25  H   UNL     1      -2.193  -6.357   0.858  1.00  0.00     0.167 HD
ATOM     26  C   UNL     1      -5.090  -5.370  -2.674  1.00  0.00     0.037 A 
ATOM     27  C   UNL     1      -0.906  -8.395   2.150  1.00  0.00     0.037 A 
ATOM     28  C   UNL     1      -5.780  -5.042  -1.459  1.00  0.00     0.049 A 
ATOM     29  C   UNL     1      -2.381  -8.419   1.930  1.00  0.00     0.074 A 
ATOM     30  C   UNL     1      -6.131  -3.850  -0.856  1.00  0.00     0.029 A 
ATOM     31  N   UNL     1      -5.878  -5.999  -0.480  1.00  0.00    -0.354 N 
ATOM     32  N   UNL     1      -3.216  -7.652   2.585  1.00  0.00    -0.248 NA
ATOM     33  C   UNL     1      -2.861  -8.904   0.641  1.00  0.00     0.031 C 
ATOM     34  C   UNL     1      -5.933  -4.071   0.538  1.00  0.00     0.029 A 
ATOM     35  C   UNL     1      -5.534  -5.397   0.706  1.00  0.00     0.049 A 
ATOM     36  H   UNL     1      -6.144  -6.939  -0.603  1.00  0.00     0.167 HD
ATOM     37  C   UNL     1      -4.151  -7.246   1.639  1.00  0.00     0.074 A 
ATOM     38  C   UNL     1      -3.908  -8.091   0.472  1.00  0.00     0.031 C 
ATOM     39  C   UNL     1      -4.840  -6.074   1.775  1.00  0.00     0.037 A 
BRANCH  26  40
ATOM     40  C   UNL     1      -5.544  -6.442  -3.629  1.00  0.00     0.064 A 
ATOM     41  C   UNL     1      -6.911  -6.753  -3.721  1.00  0.00     0.173 A 
ATOM     42  C   UNL     1      -4.664  -7.370  -4.235  1.00  0.00     0.173 A 
ATOM     43  F   UNL     1      -7.830  -5.952  -3.160  1.00  0.00    -0.203 F 
ATOM     44  C   UNL     1      -7.356  -7.937  -4.315  1.00  0.00     0.198 A 
ATOM     45  C   UNL     1      -5.114  -8.521  -4.875  1.00  0.00     0.198 A 
ATOM     46  F   UNL     1      -3.333  -7.266  -4.138  1.00  0.00    -0.203 F 
ATOM     47  F   UNL     1      -8.657  -8.253  -4.274  1.00  0.00    -0.200 F 
ATOM     48  C   UNL     1      -6.457  -8.822  -4.886  1.00  0.00     0.200 A 
ATOM     49  F   UNL     1      -4.222  -9.371  -5.403  1.00  0.00    -0.200 F 
ATOM     50  F   UNL     1      -6.875  -9.986  -5.398  1.00  0.00    -0.200 F 
ENDBRANCH  26  40
BRANCH  27  51
ATOM     51  C   UNL     1      -0.052  -9.604   2.221  1.00  0.00     0.064 A 
ATOM     52  C   UNL     1      -0.444 -10.723   2.965  1.00  0.00     0.173 A 
ATOM     53  C   UNL     1       1.079  -9.769   1.390  1.00  0.00     0.173 A 
ATOM     54  F   UNL     1      -1.541 -10.665   3.734  1.00  0.00    -0.203 F 
ATOM     55  C   UNL     1       0.258 -11.932   2.893  1.00  0.00     0.198 A 
ATOM     56  C   UNL     1       1.786 -10.969   1.330  1.00  0.00     0.198 A 
ATOM     57  F   UNL     1       1.474  -8.795   0.557  1.00  0.00    -0.203 F 
ATOM     58  F   UNL     1      -0.170 -12.995   3.588  1.00  0.00    -0.200 F 
ATOM     59  C   UNL     1       1.371 -12.054   2.076  1.00  0.00     0.200 A 
ATOM     60  F   UNL     1       2.840 -11.079   0.508  1.00  0.00    -0.200 F 
ATOM     61  F   UNL     1       2.019 -13.223   1.979  1.00  0.00    -0.200 F 
ENDBRANCH  27  51
BRANCH  39  62
ATOM     62  C   UNL     1      -4.661  -5.300   3.054  1.00  0.00     0.064 A 
ATOM     63  C   UNL     1      -3.453  -4.676   3.414  1.00  0.00     0.173 A 
ATOM     64  C   UNL     1      -5.782  -5.022   3.843  1.00  0.00     0.173 A 
ATOM     65  F   UNL     1      -2.369  -4.790   2.641  1.00  0.00    -0.203 F 
ATOM     66  C   UNL     1      -3.359  -3.854   4.535  1.00  0.00     0.198 A 
ATOM     67  C   UNL     1      -5.696  -4.170   4.943  1.00  0.00     0.198 A 
ATOM     68  F   UNL     1      -6.979  -5.526   3.507  1.00  0.00    -0.203 F 
ATOM     69  F   UNL     1      -2.189  -3.277   4.850  1.00  0.00    -0.200 F 
ATOM     70  C   UNL     1      -4.484  -3.596   5.295  1.00  0.00     0.200 A 
ATOM     71  F   UNL     1      -6.800  -3.875   5.642  1.00  0.00    -0.200 F 
ATOM     72  F   UNL     1      -4.410  -2.765   6.345  1.00  0.00    -0.200 F 
ENDBRANCH  39  62
ENDBRANCH  13  14
ENDBRANCH   6   8
ENDBRANCH   5   6
ENDBRANCH   4   5
ENDBRANCH   3   4
ENDBRANCH   2   3
ENDBRANCH   1   2
BRANCH   1  73
ATOM     73  C   UNL     1       4.799   0.585  -4.705  1.00  0.00     0.261 C 
BRANCH  73  74
ATOM     74  O   UNL     1       5.100   1.434  -3.585  1.00  0.00    -0.459 OA
BRANCH  74  75
ATOM     75  C   UNL     1       4.728   2.736  -3.777  1.00  0.00     0.370 C 
ATOM     76  O   UNL     1       4.230   3.132  -4.830  1.00  0.00    -0.245 OA
BRANCH  75  77
ATOM     77  C   UNL     1       5.038   3.662  -2.563  1.00  0.00     0.329 C 
BRANCH  77  78
ATOM     78  N   UNL     1       4.495   4.998  -2.929  1.00  0.00    -0.315 N 
ATOM     79  C   UNL     1       5.536   5.988  -3.211  1.00  0.00     0.292 C 
ATOM     80  C   UNL     1       3.415   5.642  -2.180  1.00  0.00     0.292 C 
ATOM     81  H   UNL     1       3.998   4.678  -3.761  1.00  0.00     0.349 HD
ATOM     82  C   UNL     1       6.023   6.657  -1.919  1.00  0.00     0.221 C 
ATOM     83  C   UNL     1       3.913   6.321  -0.895  1.00  0.00     0.221 C 
ATOM     84  O   UNL     1       4.942   7.275  -1.203  1.00  0.00    -0.370 OA
ENDBRANCH  77  78
BRANCH  77  85
ATOM     85  C   UNL     1       4.625   3.178  -1.184  1.00  0.00     0.059 A 
ATOM     86  C   UNL     1       3.326   3.066  -0.629  1.00  0.00     0.145 A 
ATOM     87  C   UNL     1       5.434   2.801  -0.114  1.00  0.00     0.119 A 
ATOM     88  N   UNL     1       3.310   2.674   0.638  1.00  0.00    -0.181 NA
ATOM     89  N   UNL     1       4.611   2.585   0.966  1.00  0.00    -0.268 N 
BRANCH  89  90
ATOM     90  C   UNL     1       4.976   2.254   2.344  1.00  0.00     0.179 C 
BRANCH  90  91
ATOM     91  C   UNL     1       4.445   3.274   3.334  1.00  0.00    -0.027 A 
ATOM     92  C   UNL     1       5.312   4.144   4.007  1.00  0.00     0.005 A 
ATOM     93  C   UNL     1       3.063   3.387   3.576  1.00  0.00     0.005 A 
ATOM     94  C   UNL     1       4.806   5.121   4.870  1.00  0.00     0.000 A 
ATOM     95  C   UNL     1       2.558   4.374   4.423  1.00  0.00     0.000 A 
ATOM     96  C   UNL     1       3.431   5.244   5.068  1.00  0.00     0.000 A 
ENDBRANCH  90  91
ENDBRANCH  89  90
ENDBRANCH  77  85
ENDBRANCH  75  77
ENDBRANCH  74  75
ENDBRANCH  73  74
ENDBRANCH   1  73
TORSDOF 18
