REMARK SMILES CC1(C)[C@H](C(=O)Nc2ccccc2C(N)=O)[C@@H]1C(=O)OCCOCCOC(=O)c1ccc(-c2c3nc(c(-c4c(F)c(F)c(F)c(F)c4F)c4ccc([nH]4)c(-c4c(F)c(F)c(F)c(F)c4F)c4nc(c(-c5c(F)c(F)c(F)c(F)c5F)c5ccc2[nH]5)C=C4)C=C3)cc1
REMARK SMILES IDX 22 1 21 2 20 3 18 4 19 5 17 6 1 7 2 8 3 9 4 10 5 11 6 12
REMARK SMILES IDX 7 13 8 15 9 16 13 17 10 18 12 19 11 20 14 21 15 22 16 23
REMARK SMILES IDX 23 26 24 27 25 28 26 29 27 30 28 31 29 32 30 33 91 34 31 35
REMARK SMILES IDX 90 36 32 37 33 38 34 39 84 40 35 41 89 42 83 43 85 44 36 45
REMARK SMILES IDX 88 46 82 47 81 48 37 50 69 51 49 52 68 53 50 54 53 55 67 56
REMARK SMILES IDX 86 57 51 58 52 59 66 61 87 62 54 63 38 64 39 65 47 66 40 67
REMARK SMILES IDX 41 68 45 69 48 70 42 71 43 72 46 73 44 74 70 75 71 76 79 77
REMARK SMILES IDX 72 78 73 79 77 80 80 81 74 82 75 83 78 84 76 85 55 86 56 87
REMARK SMILES IDX 64 88 57 89 58 90 62 91 65 92 59 93 60 94 63 95 61 96
REMARK H PARENT 7 14 15 24 15 25 85 49 53 60
REMARK Flexibility Score: inf
ROOT
ATOM      1  C   UNL     1      -3.173   2.501   3.909  1.00  0.00     0.202 C 
ENDROOT
BRANCH   1   2
ATOM      2  C   UNL     1      -2.870   2.796   2.432  1.00  0.00     0.261 C 
BRANCH   2   3
ATOM      3  O   UNL     1      -2.672   1.650   1.595  1.00  0.00    -0.463 OA
BRANCH   3   4
ATOM      4  C   UNL     1      -1.366   1.279   1.523  1.00  0.00     0.310 C 
ATOM      5  O   UNL     1      -0.463   1.827   2.150  1.00  0.00    -0.252 OA
BRANCH   4   6
ATOM      6  C   UNL     1      -1.148   0.032   0.725  1.00  0.00     0.118 C 
ATOM      7  C   UNL     1       0.644  -1.776   0.143  1.00  0.00     0.013 C 
ATOM      8  C   UNL     1       0.241  -0.303   0.220  1.00  0.00    -0.009 C 
ATOM      9  C   UNL     1       1.402   0.491   0.750  1.00  0.00     0.013 C 
ATOM     10  C   UNL     1      -0.848   0.058  -0.782  1.00  0.00     0.100 C 
BRANCH  10  11
ATOM     11  C   UNL     1      -1.627   1.089  -1.520  1.00  0.00     0.228 C 
ATOM     12  O   UNL     1      -2.614   0.667  -2.135  1.00  0.00    -0.274 OA
ATOM     13  N   UNL     1      -1.520   2.446  -1.476  1.00  0.00    -0.325 N 
ATOM     14  H   UNL     1      -2.274   2.910  -1.907  1.00  0.00     0.169 HD
BRANCH  13  15
ATOM     15  C   UNL     1      -0.570   3.313  -0.949  1.00  0.00     0.053 A 
ATOM     16  C   UNL     1      -1.117   4.404  -0.253  1.00  0.00     0.027 A 
ATOM     17  C   UNL     1       0.818   3.167  -1.042  1.00  0.00     0.063 A 
ATOM     18  C   UNL     1      -0.308   5.220   0.528  1.00  0.00     0.002 A 
ATOM     19  C   UNL     1       1.628   4.006  -0.255  1.00  0.00     0.016 A 
ATOM     20  C   UNL     1       1.061   4.990   0.562  1.00  0.00     0.001 A 
BRANCH  17  21
ATOM     21  C   UNL     1       1.430   2.219  -2.025  1.00  0.00     0.250 C 
ATOM     22  N   UNL     1       2.713   1.799  -1.806  1.00  0.00    -0.366 N 
ATOM     23  O   UNL     1       0.829   1.813  -3.011  1.00  0.00    -0.269 OA
ATOM     24  H   UNL     1       3.208   2.118  -1.017  1.00  0.00     0.159 HD
ATOM     25  H   UNL     1       3.142   1.178  -2.438  1.00  0.00     0.159 HD
ENDBRANCH  17  21
ENDBRANCH  13  15
ENDBRANCH  10  11
ENDBRANCH   4   6
ENDBRANCH   3   4
ENDBRANCH   2   3
ENDBRANCH   1   2
BRANCH   1  26
ATOM     26  O   UNL     1      -2.440   1.506   4.605  1.00  0.00    -0.374 OA
BRANCH  26  27
ATOM     27  C   UNL     1      -2.556   0.139   4.226  1.00  0.00     0.202 C 
BRANCH  27  28
ATOM     28  C   UNL     1      -3.936  -0.517   4.086  1.00  0.00     0.261 C 
BRANCH  28  29
ATOM     29  O   UNL     1      -4.819   0.153   3.171  1.00  0.00    -0.460 OA
BRANCH  29  30
ATOM     30  C   UNL     1      -5.940   0.658   3.740  1.00  0.00     0.338 C 
ATOM     31  O   UNL     1      -6.274   0.598   4.912  1.00  0.00    -0.246 OA
BRANCH  30  32
ATOM     32  C   UNL     1      -6.676   1.478   2.767  1.00  0.00     0.060 A 
ATOM     33  C   UNL     1      -6.766   2.858   2.993  1.00  0.00     0.016 A 
ATOM     34  C   UNL     1      -7.385   0.876   1.728  1.00  0.00     0.016 A 
ATOM     35  C   UNL     1      -7.588   3.643   2.191  1.00  0.00     0.010 A 
ATOM     36  C   UNL     1      -8.225   1.662   0.937  1.00  0.00     0.010 A 
ATOM     37  C   UNL     1      -8.351   3.041   1.185  1.00  0.00    -0.014 A 
BRANCH  37  38
ATOM     38  C   UNL     1      -9.390   3.827   0.482  1.00  0.00     0.031 A 
ATOM     39  C   UNL     1     -10.820   3.696   0.919  1.00  0.00     0.074 A 
ATOM     40  C   UNL     1      -9.054   4.651  -0.524  1.00  0.00     0.049 A 
ATOM     41  N   UNL     1     -11.900   4.215   0.394  1.00  0.00    -0.248 NA
ATOM     42  C   UNL     1     -11.066   2.867   2.110  1.00  0.00     0.031 C 
ATOM     43  C   UNL     1      -7.692   4.895  -0.994  1.00  0.00     0.029 A 
ATOM     44  N   UNL     1      -9.839   5.422  -1.341  1.00  0.00    -0.354 N 
ATOM     45  C   UNL     1     -12.953   3.765   1.180  1.00  0.00     0.074 A 
ATOM     46  C   UNL     1     -12.386   2.914   2.204  1.00  0.00     0.031 C 
ATOM     47  C   UNL     1      -7.738   5.744  -2.034  1.00  0.00     0.029 A 
ATOM     48  C   UNL     1      -9.133   6.065  -2.327  1.00  0.00     0.049 A 
ATOM     49  H   UNL     1     -10.814   5.507  -1.232  1.00  0.00     0.167 HD
ATOM     50  C   UNL     1     -14.273   4.044   1.056  1.00  0.00     0.037 A 
ATOM     51  C   UNL     1      -9.572   6.796  -3.369  1.00  0.00     0.037 A 
ATOM     52  C   UNL     1     -14.825   4.888   0.029  1.00  0.00     0.049 A 
ATOM     53  C   UNL     1     -11.054   7.012  -3.541  1.00  0.00     0.074 A 
ATOM     54  C   UNL     1     -16.144   5.254  -0.172  1.00  0.00     0.029 A 
ATOM     55  N   UNL     1     -14.085   5.489  -0.980  1.00  0.00    -0.354 N 
ATOM     56  N   UNL     1     -12.045   6.606  -2.784  1.00  0.00    -0.248 NA
ATOM     57  C   UNL     1     -11.477   7.783  -4.718  1.00  0.00     0.031 C 
ATOM     58  C   UNL     1     -16.210   6.024  -1.339  1.00  0.00     0.029 A 
ATOM     59  C   UNL     1     -14.924   6.191  -1.830  1.00  0.00     0.049 A 
ATOM     60  H   UNL     1     -13.107   5.425  -1.077  1.00  0.00     0.167 HD
ATOM     61  C   UNL     1     -13.204   7.089  -3.378  1.00  0.00     0.074 A 
ATOM     62  C   UNL     1     -12.791   7.837  -4.548  1.00  0.00     0.031 C 
ATOM     63  C   UNL     1     -14.494   6.927  -2.993  1.00  0.00     0.037 A 
BRANCH  50  64
ATOM     64  C   UNL     1     -15.213   3.398   2.033  1.00  0.00     0.064 A 
ATOM     65  C   UNL     1     -15.247   3.769   3.386  1.00  0.00     0.173 A 
ATOM     66  C   UNL     1     -16.114   2.412   1.602  1.00  0.00     0.173 A 
ATOM     67  F   UNL     1     -14.399   4.698   3.853  1.00  0.00    -0.203 F 
ATOM     68  C   UNL     1     -16.127   3.157   4.275  1.00  0.00     0.198 A 
ATOM     69  C   UNL     1     -17.014   1.825   2.487  1.00  0.00     0.198 A 
ATOM     70  F   UNL     1     -16.127   2.022   0.319  1.00  0.00    -0.203 F 
ATOM     71  F   UNL     1     -16.107   3.492   5.573  1.00  0.00    -0.200 F 
ATOM     72  C   UNL     1     -17.014   2.191   3.824  1.00  0.00     0.200 A 
ATOM     73  F   UNL     1     -17.879   0.901   2.046  1.00  0.00    -0.200 F 
ATOM     74  F   UNL     1     -17.864   1.607   4.680  1.00  0.00    -0.200 F 
ENDBRANCH  50  64
BRANCH  51  75
ATOM     75  C   UNL     1      -8.601   7.354  -4.346  1.00  0.00     0.064 A 
ATOM     76  C   UNL     1      -8.402   8.737  -4.456  1.00  0.00     0.173 A 
ATOM     77  C   UNL     1      -7.861   6.518  -5.196  1.00  0.00     0.173 A 
ATOM     78  F   UNL     1      -9.103   9.578  -3.683  1.00  0.00    -0.203 F 
ATOM     79  C   UNL     1      -7.512   9.263  -5.391  1.00  0.00     0.198 A 
ATOM     80  C   UNL     1      -6.949   7.044  -6.108  1.00  0.00     0.198 A 
ATOM     81  F   UNL     1      -8.017   5.188  -5.132  1.00  0.00    -0.203 F 
ATOM     82  F   UNL     1      -7.374  10.591  -5.507  1.00  0.00    -0.200 F 
ATOM     83  C   UNL     1      -6.781   8.416  -6.211  1.00  0.00     0.200 A 
ATOM     84  F   UNL     1      -6.236   6.221  -6.889  1.00  0.00    -0.200 F 
ATOM     85  F   UNL     1      -5.921   8.923  -7.105  1.00  0.00    -0.200 F 
ENDBRANCH  51  75
BRANCH  63  86
ATOM     86  C   UNL     1     -15.552   7.587  -3.831  1.00  0.00     0.064 A 
ATOM     87  C   UNL     1     -15.870   7.120  -5.115  1.00  0.00     0.173 A 
ATOM     88  C   UNL     1     -16.284   8.673  -3.328  1.00  0.00     0.173 A 
ATOM     89  F   UNL     1     -15.190   6.094  -5.649  1.00  0.00    -0.203 F 
ATOM     90  C   UNL     1     -16.865   7.732  -5.874  1.00  0.00     0.198 A 
ATOM     91  C   UNL     1     -17.301   9.261  -4.076  1.00  0.00     0.198 A 
ATOM     92  F   UNL     1     -16.025   9.155  -2.103  1.00  0.00    -0.203 F 
ATOM     93  F   UNL     1     -17.117   7.301  -7.117  1.00  0.00    -0.200 F 
ATOM     94  C   UNL     1     -17.585   8.796  -5.350  1.00  0.00     0.200 A 
ATOM     95  F   UNL     1     -18.006  10.278  -3.562  1.00  0.00    -0.200 F 
ATOM     96  F   UNL     1     -18.548   9.378  -6.078  1.00  0.00    -0.200 F 
ENDBRANCH  63  86
ENDBRANCH  37  38
ENDBRANCH  30  32
ENDBRANCH  29  30
ENDBRANCH  28  29
ENDBRANCH  27  28
ENDBRANCH  26  27
ENDBRANCH   1  26
TORSDOF 17
