REMARK SMILES O=C(OCCOCCOC(=O)c1ccc2c(=O)n(CCC[NH+]3CCOCC3)c(=O)[nH]c2c1)c1ccc(-c2c3nc(c(-c4c(F)c(F)c(F)c(F)c4F)c4ccc([nH]4)c(-c4c(F)c(F)c(F)c(F)c4F)c4nc(c(-c5c(F)c(F)c(F)c(F)c5F)c5ccc2[nH]5)C=C4)C=C3)cc1
REMARK SMILES IDX 7 1 6 2 5 3 4 4 3 5 2 6 1 7 33 8 34 9 95 10 35 11 94 12
REMARK SMILES IDX 36 13 37 14 38 15 88 16 39 17 93 18 87 19 89 20 40 21 92 22
REMARK SMILES IDX 86 23 85 24 41 26 73 27 53 28 72 29 54 30 57 31 71 32 90 33
REMARK SMILES IDX 55 34 56 35 70 37 91 38 58 39 42 40 43 41 51 42 44 43 45 44
REMARK SMILES IDX 49 45 52 46 46 47 47 48 50 49 48 50 74 51 75 52 83 53 76 54
REMARK SMILES IDX 77 55 81 56 84 57 78 58 79 59 82 60 80 61 59 62 60 63 68 64
REMARK SMILES IDX 61 65 62 66 66 67 69 68 63 69 64 70 67 71 65 72 8 73 9 74
REMARK SMILES IDX 10 75 11 76 12 77 13 78 32 79 14 80 31 81 15 82 30 83 16 84
REMARK SMILES IDX 28 85 17 87 18 88 29 89 19 90 20 91 21 92 22 93 23 94 27 95
REMARK SMILES IDX 24 97 26 98 25 99
REMARK H PARENT 89 25 57 36 30 86 22 96
REMARK Flexibility Score: inf
ROOT
ATOM      1  C   UNL     1       2.857   1.559   1.507  1.00  0.00     0.202 C 
ENDROOT
BRANCH   1   2
ATOM      2  O   UNL     1       4.144   1.060   1.136  1.00  0.00    -0.374 OA
BRANCH   2   3
ATOM      3  C   UNL     1       4.462   1.154  -0.247  1.00  0.00     0.202 C 
BRANCH   3   4
ATOM      4  C   UNL     1       4.118  -0.006  -1.179  1.00  0.00     0.261 C 
BRANCH   4   5
ATOM      5  O   UNL     1       2.773  -0.472  -1.059  1.00  0.00    -0.460 OA
BRANCH   5   6
ATOM      6  C   UNL     1       2.336  -1.476  -0.261  1.00  0.00     0.338 C 
ATOM      7  O   UNL     1       1.262  -2.016  -0.515  1.00  0.00    -0.246 OA
BRANCH   6   8
ATOM      8  C   UNL     1       3.006  -1.800   1.035  1.00  0.00     0.060 A 
ATOM      9  C   UNL     1       2.165  -2.194   2.091  1.00  0.00     0.016 A 
ATOM     10  C   UNL     1       4.378  -1.714   1.281  1.00  0.00     0.016 A 
ATOM     11  C   UNL     1       2.680  -2.423   3.369  1.00  0.00     0.010 A 
ATOM     12  C   UNL     1       4.884  -1.844   2.565  1.00  0.00     0.010 A 
ATOM     13  C   UNL     1       4.042  -2.221   3.608  1.00  0.00    -0.014 A 
BRANCH  13  14
ATOM     14  C   UNL     1       4.688  -2.647   4.856  1.00  0.00     0.031 A 
ATOM     15  C   UNL     1       4.959  -1.690   5.967  1.00  0.00     0.074 A 
ATOM     16  C   UNL     1       5.169  -3.902   4.863  1.00  0.00     0.049 A 
ATOM     17  N   UNL     1       5.474  -1.939   7.141  1.00  0.00    -0.248 NA
ATOM     18  C   UNL     1       4.638  -0.274   5.733  1.00  0.00     0.031 C 
ATOM     19  C   UNL     1       5.056  -4.843   3.741  1.00  0.00     0.029 A 
ATOM     20  N   UNL     1       5.881  -4.588   5.803  1.00  0.00    -0.354 N 
ATOM     21  C   UNL     1       5.496  -0.724   7.808  1.00  0.00     0.074 A 
ATOM     22  C   UNL     1       5.004   0.278   6.886  1.00  0.00     0.031 C 
ATOM     23  C   UNL     1       5.693  -5.978   4.055  1.00  0.00     0.029 A 
ATOM     24  C   UNL     1       6.230  -5.853   5.403  1.00  0.00     0.049 A 
ATOM     25  H   UNL     1       6.120  -4.213   6.681  1.00  0.00     0.167 HD
ATOM     26  C   UNL     1       5.875  -0.499   9.087  1.00  0.00     0.037 A 
ATOM     27  C   UNL     1       6.888  -6.814   6.070  1.00  0.00     0.037 A 
ATOM     28  C   UNL     1       6.401  -1.529   9.949  1.00  0.00     0.049 A 
ATOM     29  C   UNL     1       7.276  -6.542   7.492  1.00  0.00     0.074 A 
ATOM     30  C   UNL     1       6.733  -1.446  11.289  1.00  0.00     0.029 A 
ATOM     31  N   UNL     1       6.694  -2.824   9.542  1.00  0.00    -0.354 N 
ATOM     32  N   UNL     1       7.118  -5.442   8.190  1.00  0.00    -0.248 NA
ATOM     33  C   UNL     1       7.898  -7.644   8.233  1.00  0.00     0.031 C 
ATOM     34  C   UNL     1       7.284  -2.670  11.676  1.00  0.00     0.029 A 
ATOM     35  C   UNL     1       7.237  -3.539  10.596  1.00  0.00     0.049 A 
ATOM     36  H   UNL     1       6.539  -3.181   8.638  1.00  0.00     0.167 HD
ATOM     37  C   UNL     1       7.594  -5.725   9.459  1.00  0.00     0.074 A 
ATOM     38  C   UNL     1       8.032  -7.107   9.438  1.00  0.00     0.031 C 
ATOM     39  C   UNL     1       7.663  -4.915  10.543  1.00  0.00     0.037 A 
BRANCH  26  40
ATOM     40  C   UNL     1       5.697   0.874   9.667  1.00  0.00     0.064 A 
ATOM     41  C   UNL     1       4.417   1.371   9.957  1.00  0.00     0.173 A 
ATOM     42  C   UNL     1       6.803   1.629  10.091  1.00  0.00     0.173 A 
ATOM     43  F   UNL     1       3.326   0.689   9.576  1.00  0.00    -0.203 F 
ATOM     44  C   UNL     1       4.250   2.563  10.657  1.00  0.00     0.198 A 
ATOM     45  C   UNL     1       6.632   2.809  10.811  1.00  0.00     0.198 A 
ATOM     46  F   UNL     1       8.049   1.196   9.850  1.00  0.00    -0.203 F 
ATOM     47  F   UNL     1       3.017   3.015  10.924  1.00  0.00    -0.200 F 
ATOM     48  C   UNL     1       5.357   3.273  11.097  1.00  0.00     0.200 A 
ATOM     49  F   UNL     1       7.703   3.483  11.255  1.00  0.00    -0.200 F 
ATOM     50  F   UNL     1       5.194   4.398  11.807  1.00  0.00    -0.200 F 
ENDBRANCH  26  40
BRANCH  27  51
ATOM     51  C   UNL     1       7.096  -8.132   5.423  1.00  0.00     0.064 A 
ATOM     52  C   UNL     1       6.358  -9.249   5.834  1.00  0.00     0.173 A 
ATOM     53  C   UNL     1       7.968  -8.286   4.336  1.00  0.00     0.173 A 
ATOM     54  F   UNL     1       5.505  -9.146   6.863  1.00  0.00    -0.203 F 
ATOM     55  C   UNL     1       6.502 -10.479   5.197  1.00  0.00     0.198 A 
ATOM     56  C   UNL     1       8.090  -9.509   3.681  1.00  0.00     0.198 A 
ATOM     57  F   UNL     1       8.671  -7.237   3.883  1.00  0.00    -0.203 F 
ATOM     58  F   UNL     1       5.806 -11.539   5.630  1.00  0.00    -0.200 F 
ATOM     59  C   UNL     1       7.363 -10.607   4.118  1.00  0.00     0.200 A 
ATOM     60  F   UNL     1       8.900  -9.621   2.620  1.00  0.00    -0.200 F 
ATOM     61  F   UNL     1       7.489 -11.787   3.496  1.00  0.00    -0.200 F 
ENDBRANCH  27  51
BRANCH  39  62
ATOM     62  C   UNL     1       8.233  -5.499  11.800  1.00  0.00     0.064 A 
ATOM     63  C   UNL     1       9.606  -5.753  11.926  1.00  0.00     0.173 A 
ATOM     64  C   UNL     1       7.414  -5.710  12.919  1.00  0.00     0.173 A 
ATOM     65  F   UNL     1      10.424  -5.581  10.877  1.00  0.00    -0.203 F 
ATOM     66  C   UNL     1      10.138  -6.204  13.129  1.00  0.00     0.198 A 
ATOM     67  C   UNL     1       7.956  -6.129  14.129  1.00  0.00     0.198 A 
ATOM     68  F   UNL     1       6.096  -5.473  12.848  1.00  0.00    -0.203 F 
ATOM     69  F   UNL     1      11.449  -6.468  13.221  1.00  0.00    -0.200 F 
ATOM     70  C   UNL     1       9.316  -6.377  14.233  1.00  0.00     0.200 A 
ATOM     71  F   UNL     1       7.164  -6.277  15.200  1.00  0.00    -0.200 F 
ATOM     72  F   UNL     1       9.837  -6.783  15.399  1.00  0.00    -0.200 F 
ENDBRANCH  39  62
ENDBRANCH  13  14
ENDBRANCH   6   8
ENDBRANCH   5   6
ENDBRANCH   4   5
ENDBRANCH   3   4
ENDBRANCH   2   3
ENDBRANCH   1   2
BRANCH   1  73
ATOM     73  C   UNL     1       2.801   3.070   1.786  1.00  0.00     0.261 C 
BRANCH  73  74
ATOM     74  O   UNL     1       3.250   3.851   0.668  1.00  0.00    -0.460 OA
BRANCH  74  75
ATOM     75  C   UNL     1       4.560   4.213   0.714  1.00  0.00     0.338 C 
ATOM     76  O   UNL     1       5.353   4.050   1.614  1.00  0.00    -0.246 OA
BRANCH  75  77
ATOM     77  C   UNL     1       4.945   4.638  -0.644  1.00  0.00     0.062 A 
ATOM     78  C   UNL     1       4.335   5.746  -1.241  1.00  0.00     0.016 A 
ATOM     79  C   UNL     1       5.891   3.857  -1.335  1.00  0.00     0.042 A 
ATOM     80  C   UNL     1       4.744   6.125  -2.512  1.00  0.00     0.017 A 
ATOM     81  C   UNL     1       6.152   4.139  -2.659  1.00  0.00     0.056 A 
ATOM     82  C   UNL     1       5.655   5.313  -3.188  1.00  0.00     0.064 A 
ATOM     83  N   UNL     1       6.860   3.273  -3.497  1.00  0.00    -0.307 N 
ATOM     84  C   UNL     1       6.247   5.702  -4.451  1.00  0.00     0.264 A 
ATOM     85  C   UNL     1       6.955   3.472  -4.861  1.00  0.00     0.328 A 
ATOM     86  H   UNL     1       7.308   2.491  -3.100  1.00  0.00     0.171 HD
ATOM     87  O   UNL     1       6.612   6.862  -4.560  1.00  0.00    -0.268 OA
ATOM     88  N   UNL     1       6.448   4.673  -5.341  1.00  0.00    -0.260 N 
ATOM     89  O   UNL     1       7.496   2.615  -5.556  1.00  0.00    -0.248 OA
BRANCH  88  90
ATOM     90  C   UNL     1       6.559   4.973  -6.761  1.00  0.00     0.137 C 
BRANCH  90  91
ATOM     91  C   UNL     1       5.374   5.733  -7.385  1.00  0.00     0.083 C 
BRANCH  91  92
ATOM     92  C   UNL     1       4.963   7.153  -6.932  1.00  0.00     0.264 C 
BRANCH  92  93
ATOM     93  N   UNL     1       5.859   8.312  -6.873  1.00  0.00    -0.331 N 
ATOM     94  C   UNL     1       5.353   9.499  -7.579  1.00  0.00     0.291 C 
ATOM     95  C   UNL     1       7.279   8.162  -7.196  1.00  0.00     0.291 C 
ATOM     96  H   UNL     1       5.838   8.429  -5.860  1.00  0.00     0.348 HD
ATOM     97  C   UNL     1       5.635   9.432  -9.089  1.00  0.00     0.221 C 
ATOM     98  C   UNL     1       7.526   8.058  -8.702  1.00  0.00     0.221 C 
ATOM     99  O   UNL     1       7.027   9.221  -9.377  1.00  0.00    -0.370 OA
ENDBRANCH  92  93
ENDBRANCH  91  92
ENDBRANCH  90  91
ENDBRANCH  88  90
ENDBRANCH  75  77
ENDBRANCH  74  75
ENDBRANCH  73  74
ENDBRANCH   1  73
TORSDOF 18
