REMARK SMILES O=C(CCC(=O)[C@H]1CSCCO1)OCCOCCOC(=O)c1ccc(-c2c3nc(c(-c4c(F)c(F)c(F)c(F)c4F)c4ccc([nH]4)c(-c4c(F)c(F)c(F)c(F)c4F)c4nc(c(-c5c(F)c(F)c(F)c(F)c5F)c5ccc2[nH]5)C=C4)C=C3)cc1
REMARK SMILES IDX 15 1 14 2 13 3 2 4 1 5 3 6 4 7 5 8 6 9 7 10 8 11 12 12 9 13
REMARK SMILES IDX 11 14 10 15 16 16 17 17 18 18 19 19 20 20 21 21 22 22 23 23
REMARK SMILES IDX 84 24 24 25 83 26 25 27 26 28 27 29 77 30 28 31 82 32 76 33
REMARK SMILES IDX 78 34 29 35 81 36 75 37 74 38 30 40 62 41 42 42 61 43 43 44
REMARK SMILES IDX 46 45 60 46 79 47 44 48 45 49 59 51 80 52 47 53 31 54 32 55
REMARK SMILES IDX 40 56 33 57 34 58 38 59 41 60 35 61 36 62 39 63 37 64 63 65
REMARK SMILES IDX 64 66 72 67 65 68 66 69 70 70 73 71 67 72 68 73 71 74 69 75
REMARK SMILES IDX 48 76 49 77 57 78 50 79 51 80 55 81 58 82 52 83 53 84 56 85
REMARK SMILES IDX 54 86
REMARK H PARENT 78 39 46 50
REMARK Flexibility Score: inf
ROOT
ATOM      1  C   UNL     1       4.986  -1.958   0.088  1.00  0.00     0.202 C 
ENDROOT
BRANCH   1   2
ATOM      2  C   UNL     1       4.686  -0.476  -0.151  1.00  0.00     0.261 C 
BRANCH   2   3
ATOM      3  O   UNL     1       5.771   0.325  -0.645  1.00  0.00    -0.463 OA
BRANCH   3   4
ATOM      4  C   UNL     1       6.770   0.855   0.091  1.00  0.00     0.306 C 
ATOM      5  O   UNL     1       7.564   1.636  -0.427  1.00  0.00    -0.252 OA
BRANCH   4   6
ATOM      6  C   UNL     1       6.833   0.547   1.561  1.00  0.00     0.130 C 
BRANCH   6   7
ATOM      7  C   UNL     1       6.413   1.756   2.388  1.00  0.00     0.090 C 
BRANCH   7   8
ATOM      8  C   UNL     1       4.902   1.878   2.437  1.00  0.00     0.162 C 
ATOM      9  O   UNL     1       4.254   1.214   3.250  1.00  0.00    -0.297 OA
BRANCH   8  10
ATOM     10  C   UNL     1       4.231   2.696   1.327  1.00  0.00     0.194 C 
ATOM     11  C   UNL     1       2.709   2.581   1.388  1.00  0.00     0.109 C 
ATOM     12  O   UNL     1       4.646   4.059   1.368  1.00  0.00    -0.369 OA
ATOM     13  S   UNL     1       1.994   3.249  -0.157  1.00  0.00    -0.156 SA
ATOM     14  C   UNL     1       4.367   4.714   0.122  1.00  0.00     0.172 C 
ATOM     15  C   UNL     1       2.868   4.853  -0.148  1.00  0.00     0.098 C 
ENDBRANCH   8  10
ENDBRANCH   7   8
ENDBRANCH   6   7
ENDBRANCH   4   6
ENDBRANCH   3   4
ENDBRANCH   2   3
ENDBRANCH   1   2
BRANCH   1  16
ATOM     16  O   UNL     1       6.283  -2.432  -0.225  1.00  0.00    -0.374 OA
BRANCH  16  17
ATOM     17  C   UNL     1       6.780  -2.277  -1.554  1.00  0.00     0.202 C 
BRANCH  17  18
ATOM     18  C   UNL     1       5.915  -2.780  -2.712  1.00  0.00     0.261 C 
BRANCH  18  19
ATOM     19  O   UNL     1       4.769  -1.939  -2.952  1.00  0.00    -0.460 OA
BRANCH  19  20
ATOM     20  C   UNL     1       3.572  -2.562  -2.878  1.00  0.00     0.338 C 
ATOM     21  O   UNL     1       3.363  -3.729  -2.574  1.00  0.00    -0.246 OA
BRANCH  20  22
ATOM     22  C   UNL     1       2.468  -1.615  -3.105  1.00  0.00     0.060 A 
ATOM     23  C   UNL     1       1.450  -1.554  -2.145  1.00  0.00     0.016 A 
ATOM     24  C   UNL     1       2.350  -0.927  -4.314  1.00  0.00     0.016 A 
ATOM     25  C   UNL     1       0.271  -0.867  -2.425  1.00  0.00     0.010 A 
ATOM     26  C   UNL     1       1.162  -0.248  -4.599  1.00  0.00     0.010 A 
ATOM     27  C   UNL     1       0.098  -0.264  -3.678  1.00  0.00    -0.014 A 
BRANCH  27  28
ATOM     28  C   UNL     1      -1.262   0.146  -4.105  1.00  0.00     0.031 A 
ATOM     29  C   UNL     1      -2.078  -0.815  -4.929  1.00  0.00     0.074 A 
ATOM     30  C   UNL     1      -1.780   1.332  -3.743  1.00  0.00     0.049 A 
ATOM     31  N   UNL     1      -3.281  -0.676  -5.426  1.00  0.00    -0.248 NA
ATOM     32  C   UNL     1      -1.447  -2.109  -5.235  1.00  0.00     0.031 C 
ATOM     33  C   UNL     1      -1.108   2.327  -2.913  1.00  0.00     0.029 A 
ATOM     34  N   UNL     1      -2.997   1.896  -4.033  1.00  0.00    -0.354 N 
ATOM     35  C   UNL     1      -3.546  -1.858  -6.107  1.00  0.00     0.074 A 
ATOM     36  C   UNL     1      -2.370  -2.691  -5.986  1.00  0.00     0.031 C 
ATOM     37  C   UNL     1      -1.921   3.387  -2.763  1.00  0.00     0.029 A 
ATOM     38  C   UNL     1      -3.158   3.153  -3.507  1.00  0.00     0.049 A 
ATOM     39  H   UNL     1      -3.688   1.442  -4.567  1.00  0.00     0.167 HD
ATOM     40  C   UNL     1      -4.672  -2.220  -6.767  1.00  0.00     0.037 A 
ATOM     41  C   UNL     1      -4.185   4.016  -3.627  1.00  0.00     0.037 A 
ATOM     42  C   UNL     1      -5.843  -1.393  -6.884  1.00  0.00     0.049 A 
ATOM     43  C   UNL     1      -5.401   3.615  -4.422  1.00  0.00     0.074 A 
ATOM     44  C   UNL     1      -7.044  -1.678  -7.511  1.00  0.00     0.029 A 
ATOM     45  N   UNL     1      -5.956  -0.111  -6.367  1.00  0.00    -0.354 N 
ATOM     46  N   UNL     1      -5.658   2.485  -5.035  1.00  0.00    -0.248 NA
ATOM     47  C   UNL     1      -6.474   4.614  -4.536  1.00  0.00     0.031 C 
ATOM     48  C   UNL     1      -7.866  -0.550  -7.414  1.00  0.00     0.029 A 
ATOM     49  C   UNL     1      -7.197   0.418  -6.683  1.00  0.00     0.049 A 
ATOM     50  H   UNL     1      -5.258   0.353  -5.852  1.00  0.00     0.167 HD
ATOM     51  C   UNL     1      -6.931   2.622  -5.574  1.00  0.00     0.074 A 
ATOM     52  C   UNL     1      -7.397   3.943  -5.211  1.00  0.00     0.031 C 
ATOM     53  C   UNL     1      -7.651   1.732  -6.302  1.00  0.00     0.037 A 
BRANCH  40  54
ATOM     54  C   UNL     1      -4.674  -3.561  -7.440  1.00  0.00     0.064 A 
ATOM     55  C   UNL     1      -4.729  -4.756  -6.707  1.00  0.00     0.173 A 
ATOM     56  C   UNL     1      -4.636  -3.652  -8.840  1.00  0.00     0.173 A 
ATOM     57  F   UNL     1      -4.751  -4.725  -5.365  1.00  0.00    -0.203 F 
ATOM     58  C   UNL     1      -4.716  -5.992  -7.349  1.00  0.00     0.198 A 
ATOM     59  C   UNL     1      -4.651  -4.888  -9.479  1.00  0.00     0.198 A 
ATOM     60  F   UNL     1      -4.586  -2.539  -9.588  1.00  0.00    -0.203 F 
ATOM     61  F   UNL     1      -4.717  -7.121  -6.626  1.00  0.00    -0.200 F 
ATOM     62  C   UNL     1      -4.682  -6.057  -8.734  1.00  0.00     0.200 A 
ATOM     63  F   UNL     1      -4.628  -4.949 -10.818  1.00  0.00    -0.200 F 
ATOM     64  F   UNL     1      -4.670  -7.247  -9.350  1.00  0.00    -0.200 F 
ENDBRANCH  40  54
BRANCH  41  65
ATOM     65  C   UNL     1      -4.116   5.347  -2.971  1.00  0.00     0.064 A 
ATOM     66  C   UNL     1      -4.944   5.659  -1.885  1.00  0.00     0.173 A 
ATOM     67  C   UNL     1      -3.237   6.340  -3.429  1.00  0.00     0.173 A 
ATOM     68  F   UNL     1      -5.821   4.752  -1.430  1.00  0.00    -0.203 F 
ATOM     69  C   UNL     1      -4.909   6.919  -1.291  1.00  0.00     0.198 A 
ATOM     70  C   UNL     1      -3.184   7.590  -2.818  1.00  0.00     0.198 A 
ATOM     71  F   UNL     1      -2.428   6.093  -4.469  1.00  0.00    -0.203 F 
ATOM     72  F   UNL     1      -5.745   7.206  -0.284  1.00  0.00    -0.200 F 
ATOM     73  C   UNL     1      -4.025   7.881  -1.754  1.00  0.00     0.200 A 
ATOM     74  F   UNL     1      -2.322   8.515  -3.263  1.00  0.00    -0.200 F 
ATOM     75  F   UNL     1      -3.990   9.093  -1.183  1.00  0.00    -0.200 F 
ENDBRANCH  41  65
BRANCH  53  76
ATOM     76  C   UNL     1      -9.036   2.138  -6.714  1.00  0.00     0.064 A 
ATOM     77  C   UNL     1      -9.258   3.100  -7.710  1.00  0.00     0.173 A 
ATOM     78  C   UNL     1     -10.156   1.530  -6.125  1.00  0.00     0.173 A 
ATOM     79  F   UNL     1      -8.221   3.720  -8.293  1.00  0.00    -0.203 F 
ATOM     80  C   UNL     1     -10.551   3.458  -8.082  1.00  0.00     0.198 A 
ATOM     81  C   UNL     1     -11.447   1.870  -6.521  1.00  0.00     0.198 A 
ATOM     82  F   UNL     1      -9.998   0.599  -5.173  1.00  0.00    -0.203 F 
ATOM     83  F   UNL     1     -10.741   4.415  -9.002  1.00  0.00    -0.200 F 
ATOM     84  C   UNL     1     -11.644   2.839  -7.492  1.00  0.00     0.200 A 
ATOM     85  F   UNL     1     -12.500   1.262  -5.959  1.00  0.00    -0.200 F 
ATOM     86  F   UNL     1     -12.887   3.183  -7.855  1.00  0.00    -0.200 F 
ENDBRANCH  53  76
ENDBRANCH  27  28
ENDBRANCH  20  22
ENDBRANCH  19  20
ENDBRANCH  18  19
ENDBRANCH  17  18
ENDBRANCH  16  17
ENDBRANCH   1  16
TORSDOF 17
