REMARK SMILES Cc1cc(=O)oc2cc(NC(=O)CC3(CC(=O)OCCOCCOC(=O)c4ccc(-c5c6nc(c(-c7c(F)c(F)c(F)c(F)c7F)c7ccc([nH]7)c(-c7c(F)c(F)c(F)c(F)c7F)c7nc(c(-c8c(F)c(F)c(F)c(F)c8F)c8ccc5[nH]8)C=C7)C=C6)cc4)CCCC3)ccc12
REMARK SMILES IDX 20 1 19 2 18 3 16 4 17 5 15 6 14 7 90 8 93 9 91 10 92 11
REMARK SMILES IDX 13 12 11 13 10 14 12 16 9 17 1 18 2 19 3 20 96 21 4 22 7 23
REMARK SMILES IDX 95 24 5 25 6 26 8 27 94 28 21 29 22 30 23 31 24 32 25 33
REMARK SMILES IDX 26 34 27 35 28 36 89 37 29 38 88 39 30 40 31 41 32 42 82 43
REMARK SMILES IDX 33 44 87 45 81 46 83 47 34 48 86 49 80 50 79 51 35 53 67 54
REMARK SMILES IDX 47 55 66 56 48 57 51 58 65 59 84 60 49 61 50 62 64 64 85 65
REMARK SMILES IDX 52 66 36 67 37 68 45 69 38 70 39 71 43 72 46 73 40 74 41 75
REMARK SMILES IDX 44 76 42 77 68 78 69 79 77 80 70 81 71 82 75 83 78 84 72 85
REMARK SMILES IDX 73 86 76 87 74 88 53 89 54 90 62 91 55 92 56 93 60 94 63 95
REMARK SMILES IDX 57 96 58 97 61 98 59 99
REMARK H PARENT 10 15 83 52 51 63
REMARK Flexibility Score: inf
ROOT
ATOM      1  C   UNL     1       9.803  -1.437   1.364  1.00  0.00     0.202 C 
ENDROOT
BRANCH   1   2
ATOM      2  C   UNL     1       9.175  -1.155   2.733  1.00  0.00     0.261 C 
BRANCH   2   3
ATOM      3  O   UNL     1       7.737  -1.002   2.655  1.00  0.00    -0.463 OA
BRANCH   3   4
ATOM      4  C   UNL     1       7.239   0.205   3.032  1.00  0.00     0.306 C 
ATOM      5  O   UNL     1       7.923   1.166   3.361  1.00  0.00    -0.252 OA
BRANCH   4   6
ATOM      6  C   UNL     1       5.725   0.214   3.128  1.00  0.00     0.130 C 
BRANCH   6   7
ATOM      7  C   UNL     1       4.832  -0.195   1.916  1.00  0.00    -0.011 C 
ATOM      8  C   UNL     1       3.366  -0.062   2.386  1.00  0.00     0.008 C 
ATOM      9  C   UNL     1       4.880  -1.712   1.615  1.00  0.00     0.008 C 
ATOM     10  C   UNL     1       3.068  -1.320   3.199  1.00  0.00     0.001 C 
ATOM     11  C   UNL     1       4.021  -2.390   2.678  1.00  0.00     0.001 C 
BRANCH   7  12
ATOM     12  C   UNL     1       5.181   0.598   0.628  1.00  0.00     0.108 C 
BRANCH  12  13
ATOM     13  C   UNL     1       4.552   1.951   0.360  1.00  0.00     0.224 C 
ATOM     14  N   UNL     1       3.333   2.126  -0.223  1.00  0.00    -0.326 N 
ATOM     15  H   UNL     1       3.123   3.066  -0.427  1.00  0.00     0.169 HD
ATOM     16  O   UNL     1       5.165   2.972   0.693  1.00  0.00    -0.275 OA
BRANCH  14  17
ATOM     17  C   UNL     1       2.318   1.230  -0.590  1.00  0.00     0.044 A 
ATOM     18  C   UNL     1      -0.683  -3.000  -0.272  1.00  0.00     0.045 C 
ATOM     19  C   UNL     1      -0.934  -1.522  -0.317  1.00  0.00    -0.033 A 
ATOM     20  C   UNL     1      -2.138  -1.004  -0.031  1.00  0.00     0.098 A 
ATOM     21  C   UNL     1       0.173  -0.597  -0.585  1.00  0.00     0.021 A 
ATOM     22  C   UNL     1      -2.403   0.442   0.034  1.00  0.00     0.336 A 
ATOM     23  C   UNL     1      -0.036   0.767  -0.395  1.00  0.00     0.140 A 
ATOM     24  C   UNL     1       1.455  -1.007  -0.958  1.00  0.00     0.014 A 
ATOM     25  O   UNL     1      -3.535   0.863   0.239  1.00  0.00    -0.246 OA
ATOM     26  O   UNL     1      -1.313   1.283  -0.107  1.00  0.00    -0.423 OA
ATOM     27  C   UNL     1       1.012   1.686  -0.413  1.00  0.00     0.074 A 
ATOM     28  C   UNL     1       2.518  -0.093  -0.982  1.00  0.00     0.027 A 
ENDBRANCH  14  17
ENDBRANCH  12  13
ENDBRANCH   7  12
ENDBRANCH   6   7
ENDBRANCH   4   6
ENDBRANCH   3   4
ENDBRANCH   2   3
ENDBRANCH   1   2
BRANCH   1  29
ATOM     29  O   UNL     1      10.032  -0.296   0.532  1.00  0.00    -0.374 OA
BRANCH  29  30
ATOM     30  C   UNL     1       8.868   0.281  -0.053  1.00  0.00     0.202 C 
BRANCH  30  31
ATOM     31  C   UNL     1       8.459  -0.312  -1.404  1.00  0.00     0.261 C 
BRANCH  31  32
ATOM     32  O   UNL     1       8.132  -1.709  -1.274  1.00  0.00    -0.460 OA
BRANCH  32  33
ATOM     33  C   UNL     1       9.035  -2.545  -1.840  1.00  0.00     0.338 C 
ATOM     34  O   UNL     1       9.963  -2.251  -2.572  1.00  0.00    -0.246 OA
BRANCH  33  35
ATOM     35  C   UNL     1       8.861  -3.909  -1.307  1.00  0.00     0.060 A 
ATOM     36  C   UNL     1       9.995  -4.521  -0.760  1.00  0.00     0.016 A 
ATOM     37  C   UNL     1       7.654  -4.605  -1.405  1.00  0.00     0.016 A 
ATOM     38  C   UNL     1       9.943  -5.854  -0.362  1.00  0.00     0.010 A 
ATOM     39  C   UNL     1       7.606  -5.948  -1.012  1.00  0.00     0.010 A 
ATOM     40  C   UNL     1       8.762  -6.588  -0.528  1.00  0.00    -0.014 A 
BRANCH  40  41
ATOM     41  C   UNL     1       8.807  -8.060  -0.345  1.00  0.00     0.031 A 
ATOM     42  C   UNL     1       8.965  -8.938  -1.556  1.00  0.00     0.074 A 
ATOM     43  C   UNL     1       8.786  -8.602   0.885  1.00  0.00     0.049 A 
ATOM     44  N   UNL     1       9.069 -10.241  -1.631  1.00  0.00    -0.248 NA
ATOM     45  C   UNL     1       9.018  -8.255  -2.859  1.00  0.00     0.031 C 
ATOM     46  C   UNL     1       8.679  -7.853   2.135  1.00  0.00     0.029 A 
ATOM     47  N   UNL     1       8.863  -9.914   1.282  1.00  0.00    -0.354 N 
ATOM     48  C   UNL     1       9.203 -10.531  -2.983  1.00  0.00     0.074 A 
ATOM     49  C   UNL     1       9.131  -9.275  -3.697  1.00  0.00     0.031 C 
ATOM     50  C   UNL     1       8.696  -8.718   3.163  1.00  0.00     0.029 A 
ATOM     51  C   UNL     1       8.790 -10.081   2.643  1.00  0.00     0.049 A 
ATOM     52  H   UNL     1       8.960 -10.663   0.652  1.00  0.00     0.167 HD
ATOM     53  C   UNL     1       9.385 -11.736  -3.574  1.00  0.00     0.037 A 
ATOM     54  C   UNL     1       8.789 -11.208   3.381  1.00  0.00     0.037 A 
ATOM     55  C   UNL     1       9.463 -12.985  -2.863  1.00  0.00     0.049 A 
ATOM     56  C   UNL     1       8.923 -12.542   2.692  1.00  0.00     0.074 A 
ATOM     57  C   UNL     1       9.662 -14.256  -3.371  1.00  0.00     0.029 A 
ATOM     58  N   UNL     1       9.340 -13.118  -1.488  1.00  0.00    -0.354 N 
ATOM     59  N   UNL     1       9.076 -12.805   1.417  1.00  0.00    -0.248 NA
ATOM     60  C   UNL     1       8.888 -13.738   3.548  1.00  0.00     0.031 C 
ATOM     61  C   UNL     1       9.611 -15.165  -2.309  1.00  0.00     0.029 A 
ATOM     62  C   UNL     1       9.431 -14.454  -1.133  1.00  0.00     0.049 A 
ATOM     63  H   UNL     1       9.207 -12.373  -0.858  1.00  0.00     0.167 HD
ATOM     64  C   UNL     1       9.183 -14.186   1.320  1.00  0.00     0.074 A 
ATOM     65  C   UNL     1       9.090 -14.708   2.667  1.00  0.00     0.031 C 
ATOM     66  C   UNL     1       9.343 -14.955   0.214  1.00  0.00     0.037 A 
BRANCH  53  67
ATOM     67  C   UNL     1       9.493 -11.766  -5.070  1.00  0.00     0.064 A 
ATOM     68  C   UNL     1      10.635 -11.296  -5.735  1.00  0.00     0.173 A 
ATOM     69  C   UNL     1       8.457 -12.308  -5.845  1.00  0.00     0.173 A 
ATOM     70  F   UNL     1      11.646 -10.755  -5.040  1.00  0.00    -0.203 F 
ATOM     71  C   UNL     1      10.727 -11.351  -7.124  1.00  0.00     0.198 A 
ATOM     72  C   UNL     1       8.563 -12.386  -7.230  1.00  0.00     0.198 A 
ATOM     73  F   UNL     1       7.344 -12.773  -5.256  1.00  0.00    -0.203 F 
ATOM     74  F   UNL     1      11.810 -10.860  -7.742  1.00  0.00    -0.200 F 
ATOM     75  C   UNL     1       9.695 -11.902  -7.869  1.00  0.00     0.200 A 
ATOM     76  F   UNL     1       7.570 -12.927  -7.948  1.00  0.00    -0.200 F 
ATOM     77  F   UNL     1       9.789 -11.961  -9.205  1.00  0.00    -0.200 F 
ENDBRANCH  53  67
BRANCH  54  78
ATOM     78  C   UNL     1       8.644 -11.130   4.858  1.00  0.00     0.064 A 
ATOM     79  C   UNL     1       9.697 -11.482   5.712  1.00  0.00     0.173 A 
ATOM     80  C   UNL     1       7.437 -10.720   5.445  1.00  0.00     0.173 A 
ATOM     81  F   UNL     1      10.862 -11.905   5.199  1.00  0.00    -0.203 F 
ATOM     82  C   UNL     1       9.544 -11.446   7.097  1.00  0.00     0.198 A 
ATOM     83  C   UNL     1       7.294 -10.658   6.829  1.00  0.00     0.198 A 
ATOM     84  F   UNL     1       6.397 -10.375   4.672  1.00  0.00    -0.203 F 
ATOM     85  F   UNL     1      10.551 -11.834   7.891  1.00  0.00    -0.200 F 
ATOM     86  C   UNL     1       8.344 -11.029   7.654  1.00  0.00     0.200 A 
ATOM     87  F   UNL     1       6.136 -10.244   7.362  1.00  0.00    -0.200 F 
ATOM     88  F   UNL     1       8.198 -10.993   8.986  1.00  0.00    -0.200 F 
ENDBRANCH  54  78
BRANCH  66  89
ATOM     89  C   UNL     1       9.456 -16.438   0.414  1.00  0.00     0.064 A 
ATOM     90  C   UNL     1       8.344 -17.219   0.762  1.00  0.00     0.173 A 
ATOM     91  C   UNL     1      10.681 -17.091   0.207  1.00  0.00     0.173 A 
ATOM     92  F   UNL     1       7.155 -16.640   0.984  1.00  0.00    -0.203 F 
ATOM     93  C   UNL     1       8.460 -18.598   0.916  1.00  0.00     0.198 A 
ATOM     94  C   UNL     1      10.786 -18.474   0.335  1.00  0.00     0.198 A 
ATOM     95  F   UNL     1      11.772 -16.390  -0.135  1.00  0.00    -0.203 F 
ATOM     96  F   UNL     1       7.394 -19.320   1.290  1.00  0.00    -0.200 F 
ATOM     97  C   UNL     1       9.678 -19.225   0.695  1.00  0.00     0.200 A 
ATOM     98  F   UNL     1      11.960 -19.079   0.107  1.00  0.00    -0.200 F 
ATOM     99  F   UNL     1       9.784 -20.553   0.836  1.00  0.00    -0.200 F 
ENDBRANCH  66  89
ENDBRANCH  40  41
ENDBRANCH  33  35
ENDBRANCH  32  33
ENDBRANCH  31  32
ENDBRANCH  30  31
ENDBRANCH  29  30
ENDBRANCH   1  29
TORSDOF 18
