REMARK SMILES COCC[C@@]1(C(=O)OCCOCCOC(=O)c2ccc(-c3c4nc(c(-c5c(F)c(F)c(F)c(F)c5F)c5ccc([nH]5)c(-c5c(F)c(F)c(F)c(F)c5F)c5nc(c(-c6c(F)c(F)c(F)c(F)c6F)c6ccc3[nH]6)C=C5)C=C4)cc2)CCCN(C(=O)NCc2ccc(OC)cc2)C1
REMARK SMILES IDX 10 1 9 2 8 3 6 4 7 5 5 6 80 7 96 8 81 9 83 10 82 11 4 12
REMARK SMILES IDX 3 13 2 14 1 15 84 16 85 17 86 18 87 20 88 21 89 22 95 23
REMARK SMILES IDX 90 24 94 25 91 26 92 27 93 28 11 29 12 30 13 31 14 32 15 33
REMARK SMILES IDX 16 34 17 35 18 36 79 37 19 38 78 39 20 40 21 41 22 42 72 43
REMARK SMILES IDX 23 44 77 45 71 46 73 47 24 48 76 49 70 50 69 51 25 53 57 54
REMARK SMILES IDX 37 55 56 56 38 57 41 58 55 59 74 60 39 61 40 62 54 64 75 65
REMARK SMILES IDX 42 66 26 67 27 68 35 69 28 70 29 71 33 72 36 73 30 74 31 75
REMARK SMILES IDX 34 76 32 77 58 78 59 79 67 80 60 81 61 82 65 83 68 84 62 85
REMARK SMILES IDX 63 86 66 87 64 88 43 89 44 90 52 91 45 92 46 93 50 94 53 95
REMARK SMILES IDX 47 96 48 97 51 98 49 99
REMARK H PARENT 86 19 73 52 41 63
REMARK Flexibility Score: inf
ROOT
ATOM      1  C   UNL     1      -0.280   4.138  -2.947  1.00  0.00     0.202 C 
ENDROOT
BRANCH   1   2
ATOM      2  C   UNL     1      -0.740   2.864  -2.247  1.00  0.00     0.261 C 
BRANCH   2   3
ATOM      3  O   UNL     1      -0.186   2.852  -0.916  1.00  0.00    -0.463 OA
BRANCH   3   4
ATOM      4  C   UNL     1       0.103   1.632  -0.400  1.00  0.00     0.314 C 
ATOM      5  O   UNL     1      -0.078   0.575  -0.994  1.00  0.00    -0.252 OA
BRANCH   4   6
ATOM      6  C   UNL     1       0.739   1.718   0.996  1.00  0.00     0.088 C 
ATOM      7  C   UNL     1       0.453   0.398   1.761  1.00  0.00     0.022 C 
ATOM      8  C   UNL     1       0.134   2.893   1.801  1.00  0.00     0.140 C 
ATOM      9  C   UNL     1      -1.031   0.247   2.133  1.00  0.00     0.023 C 
ATOM     10  N   UNL     1      -1.287   2.681   2.086  1.00  0.00    -0.324 N 
ATOM     11  C   UNL     1      -1.537   1.479   2.876  1.00  0.00     0.121 C 
BRANCH   6  12
ATOM     12  C   UNL     1       2.265   1.972   0.859  1.00  0.00     0.049 C 
BRANCH  12  13
ATOM     13  C   UNL     1       3.066   0.899   0.107  1.00  0.00     0.161 C 
BRANCH  13  14
ATOM     14  O   UNL     1       3.811   1.456  -0.979  1.00  0.00    -0.385 OA
ATOM     15  C   UNL     1       2.992   1.748  -2.104  1.00  0.00     0.194 C 
ENDBRANCH  13  14
ENDBRANCH  12  13
ENDBRANCH   6  12
BRANCH  10  16
ATOM     16  C   UNL     1      -2.161   3.644   1.673  1.00  0.00     0.317 C 
ATOM     17  O   UNL     1      -1.780   4.753   1.285  1.00  0.00    -0.249 OA
ATOM     18  N   UNL     1      -3.487   3.460   1.611  1.00  0.00    -0.334 N 
ATOM     19  H   UNL     1      -3.963   4.290   1.380  1.00  0.00     0.165 HD
BRANCH  18  20
ATOM     20  C   UNL     1      -4.395   2.351   1.798  1.00  0.00     0.153 C 
BRANCH  20  21
ATOM     21  C   UNL     1      -5.045   2.358   3.162  1.00  0.00    -0.028 A 
ATOM     22  C   UNL     1      -5.342   3.556   3.828  1.00  0.00     0.009 A 
ATOM     23  C   UNL     1      -5.421   1.150   3.767  1.00  0.00     0.009 A 
ATOM     24  C   UNL     1      -5.971   3.541   5.074  1.00  0.00     0.047 A 
ATOM     25  C   UNL     1      -6.053   1.139   5.017  1.00  0.00     0.047 A 
ATOM     26  C   UNL     1      -6.335   2.336   5.673  1.00  0.00     0.118 A 
BRANCH  26  27
ATOM     27  O   UNL     1      -6.949   2.467   6.887  1.00  0.00    -0.497 OA
ATOM     28  C   UNL     1      -7.514   1.290   7.448  1.00  0.00     0.278 C 
ENDBRANCH  26  27
ENDBRANCH  20  21
ENDBRANCH  18  20
ENDBRANCH  10  16
ENDBRANCH   4   6
ENDBRANCH   3   4
ENDBRANCH   2   3
ENDBRANCH   1   2
BRANCH   1  29
ATOM     29  O   UNL     1       1.144   4.122  -3.026  1.00  0.00    -0.374 OA
BRANCH  29  30
ATOM     30  C   UNL     1       1.806   5.370  -2.810  1.00  0.00     0.202 C 
BRANCH  30  31
ATOM     31  C   UNL     1       1.736   5.875  -1.355  1.00  0.00     0.261 C 
BRANCH  31  32
ATOM     32  O   UNL     1       0.454   6.429  -1.017  1.00  0.00    -0.460 OA
BRANCH  32  33
ATOM     33  C   UNL     1       0.106   7.528  -1.721  1.00  0.00     0.338 C 
ATOM     34  O   UNL     1       0.814   8.193  -2.457  1.00  0.00    -0.246 OA
BRANCH  33  35
ATOM     35  C   UNL     1      -1.355   7.666  -1.661  1.00  0.00     0.060 A 
ATOM     36  C   UNL     1      -2.071   7.542  -2.858  1.00  0.00     0.016 A 
ATOM     37  C   UNL     1      -2.001   7.963  -0.461  1.00  0.00     0.016 A 
ATOM     38  C   UNL     1      -3.441   7.782  -2.869  1.00  0.00     0.010 A 
ATOM     39  C   UNL     1      -3.373   8.221  -0.476  1.00  0.00     0.010 A 
ATOM     40  C   UNL     1      -4.084   8.177  -1.688  1.00  0.00    -0.014 A 
BRANCH  40  41
ATOM     41  C   UNL     1      -5.441   8.759  -1.774  1.00  0.00     0.031 A 
ATOM     42  C   UNL     1      -5.561  10.252  -1.905  1.00  0.00     0.074 A 
ATOM     43  C   UNL     1      -6.532   7.975  -1.790  1.00  0.00     0.049 A 
ATOM     44  N   UNL     1      -6.631  10.996  -2.016  1.00  0.00    -0.248 NA
ATOM     45  C   UNL     1      -4.298  11.010  -1.917  1.00  0.00     0.031 C 
ATOM     46  C   UNL     1      -6.525   6.516  -1.709  1.00  0.00     0.029 A 
ATOM     47  N   UNL     1      -7.860   8.304  -1.883  1.00  0.00    -0.354 N 
ATOM     48  C   UNL     1      -6.170  12.301  -2.126  1.00  0.00     0.074 A 
ATOM     49  C   UNL     1      -4.729  12.257  -2.025  1.00  0.00     0.031 C 
ATOM     50  C   UNL     1      -7.794   6.073  -1.750  1.00  0.00     0.029 A 
ATOM     51  C   UNL     1      -8.698   7.218  -1.839  1.00  0.00     0.049 A 
ATOM     52  H   UNL     1      -8.181   9.230  -1.973  1.00  0.00     0.167 HD
ATOM     53  C   UNL     1      -6.886  13.435  -2.311  1.00  0.00     0.037 A 
ATOM     54  C   UNL     1     -10.044   7.168  -1.859  1.00  0.00     0.037 A 
ATOM     55  C   UNL     1      -8.321  13.474  -2.388  1.00  0.00     0.049 A 
ATOM     56  C   UNL     1     -10.821   8.454  -1.988  1.00  0.00     0.074 A 
ATOM     57  C   UNL     1      -9.151  14.569  -2.544  1.00  0.00     0.029 A 
ATOM     58  N   UNL     1      -9.139  12.357  -2.308  1.00  0.00    -0.354 N 
ATOM     59  N   UNL     1     -10.378   9.683  -2.108  1.00  0.00    -0.248 NA
ATOM     60  C   UNL     1     -12.287   8.344  -1.992  1.00  0.00     0.031 C 
ATOM     61  C   UNL     1     -10.475  14.118  -2.522  1.00  0.00     0.029 A 
ATOM     62  C   UNL     1     -10.467  12.737  -2.400  1.00  0.00     0.049 A 
ATOM     63  H   UNL     1      -8.823  11.431  -2.202  1.00  0.00     0.167 HD
ATOM     64  C   UNL     1     -11.505  10.486  -2.232  1.00  0.00     0.074 A 
ATOM     65  C   UNL     1     -12.652   9.603  -2.189  1.00  0.00     0.031 C 
ATOM     66  C   UNL     1     -11.587  11.833  -2.368  1.00  0.00     0.037 A 
BRANCH  53  67
ATOM     67  C   UNL     1      -6.122  14.720  -2.429  1.00  0.00     0.064 A 
ATOM     68  C   UNL     1      -5.366  15.019  -3.573  1.00  0.00     0.173 A 
ATOM     69  C   UNL     1      -6.158  15.671  -1.399  1.00  0.00     0.173 A 
ATOM     70  F   UNL     1      -5.284  14.134  -4.578  1.00  0.00    -0.203 F 
ATOM     71  C   UNL     1      -4.659  16.214  -3.673  1.00  0.00     0.198 A 
ATOM     72  C   UNL     1      -5.470  16.876  -1.513  1.00  0.00     0.198 A 
ATOM     73  F   UNL     1      -6.864  15.434  -0.283  1.00  0.00    -0.203 F 
ATOM     74  F   UNL     1      -3.909  16.460  -4.757  1.00  0.00    -0.200 F 
ATOM     75  C   UNL     1      -4.716  17.144  -2.646  1.00  0.00     0.200 A 
ATOM     76  F   UNL     1      -5.533  17.778  -0.523  1.00  0.00    -0.200 F 
ATOM     77  F   UNL     1      -4.039  18.297  -2.745  1.00  0.00    -0.200 F 
ENDBRANCH  53  67
BRANCH  54  78
ATOM     78  C   UNL     1     -10.747   5.862  -1.757  1.00  0.00     0.064 A 
ATOM     79  C   UNL     1     -11.485   5.348  -2.833  1.00  0.00     0.173 A 
ATOM     80  C   UNL     1     -10.723   5.116  -0.569  1.00  0.00     0.173 A 
ATOM     81  F   UNL     1     -11.559   6.035  -3.982  1.00  0.00    -0.203 F 
ATOM     82  C   UNL     1     -12.191   4.152  -2.716  1.00  0.00     0.198 A 
ATOM     83  C   UNL     1     -11.405   3.906  -0.463  1.00  0.00     0.198 A 
ATOM     84  F   UNL     1     -10.032   5.562   0.491  1.00  0.00    -0.203 F 
ATOM     85  F   UNL     1     -12.930   3.711  -3.743  1.00  0.00    -0.200 F 
ATOM     86  C   UNL     1     -12.147   3.430  -1.534  1.00  0.00     0.200 A 
ATOM     87  F   UNL     1     -11.350   3.205   0.677  1.00  0.00    -0.200 F 
ATOM     88  F   UNL     1     -12.826   2.280  -1.422  1.00  0.00    -0.200 F 
ENDBRANCH  54  78
BRANCH  66  89
ATOM     89  C   UNL     1     -12.959  12.422  -2.519  1.00  0.00     0.064 A 
ATOM     90  C   UNL     1     -13.851  12.495  -1.440  1.00  0.00     0.173 A 
ATOM     91  C   UNL     1     -13.371  12.948  -3.753  1.00  0.00     0.173 A 
ATOM     92  F   UNL     1     -13.507  11.993  -0.244  1.00  0.00    -0.203 F 
ATOM     93  C   UNL     1     -15.119  13.047  -1.598  1.00  0.00     0.198 A 
ATOM     94  C   UNL     1     -14.629  13.525  -3.900  1.00  0.00     0.198 A 
ATOM     95  F   UNL     1     -12.550  12.910  -4.813  1.00  0.00    -0.203 F 
ATOM     96  F   UNL     1     -15.975  13.060  -0.567  1.00  0.00    -0.200 F 
ATOM     97  C   UNL     1     -15.505  13.566  -2.825  1.00  0.00     0.200 A 
ATOM     98  F   UNL     1     -14.995  14.039  -5.082  1.00  0.00    -0.200 F 
ATOM     99  F   UNL     1     -16.725  14.099  -2.975  1.00  0.00    -0.200 F 
ENDBRANCH  66  89
ENDBRANCH  40  41
ENDBRANCH  33  35
ENDBRANCH  32  33
ENDBRANCH  31  32
ENDBRANCH  30  31
ENDBRANCH  29  30
ENDBRANCH   1  29
TORSDOF 21
