REMARK SMILES CC(=O)NCCc1c[nH]c2ccc(C(=O)OCCOCCOC(=O)c3ccc(-c4c5nc(c(-c6c(F)c(F)c(F)c(F)c6F)c6ccc([nH]6)c(-c6c(F)c(F)c(F)c(F)c6F)c6nc(c(-c7c(F)c(F)c(F)c(F)c7F)c7ccc4[nH]7)C=C6)C=C5)cc3)cc12
REMARK SMILES IDX 18 1 17 2 16 3 14 4 15 5 13 6 7 7 8 8 89 9 9 10 10 11 88 12
REMARK SMILES IDX 11 14 12 15 6 16 5 17 4 18 1 19 2 20 3 21 19 23 20 24 21 25
REMARK SMILES IDX 22 26 23 27 24 28 25 29 26 30 87 31 27 32 86 33 28 34 29 35
REMARK SMILES IDX 30 36 80 37 31 38 85 39 79 40 81 41 32 42 84 43 78 44 77 45
REMARK SMILES IDX 33 47 65 48 45 49 64 50 46 51 49 52 63 53 82 54 47 55 48 56
REMARK SMILES IDX 62 58 83 59 50 60 34 61 35 62 43 63 36 64 37 65 41 66 44 67
REMARK SMILES IDX 38 68 39 69 42 70 40 71 66 72 67 73 75 74 68 75 69 76 73 77
REMARK SMILES IDX 76 78 70 79 71 80 74 81 72 82 51 83 52 84 60 85 53 86 54 87
REMARK SMILES IDX 58 88 61 89 55 90 56 91 59 92 57 93
REMARK H PARENT 9 13 4 22 81 46 49 57
REMARK Flexibility Score: inf
ROOT
ATOM      1  C   UNL     1       1.649   9.116  -5.595  1.00  0.00     0.202 C 
ENDROOT
BRANCH   1   2
ATOM      2  C   UNL     1       2.865   8.575  -6.351  1.00  0.00     0.261 C 
BRANCH   2   3
ATOM      3  O   UNL     1       2.663   7.218  -6.778  1.00  0.00    -0.460 OA
BRANCH   3   4
ATOM      4  C   UNL     1       3.427   6.307  -6.127  1.00  0.00     0.338 C 
ATOM      5  O   UNL     1       4.337   6.542  -5.347  1.00  0.00    -0.246 OA
BRANCH   4   6
ATOM      6  C   UNL     1       2.918   4.937  -6.359  1.00  0.00     0.060 A 
ATOM      7  C   UNL     1       2.554   1.586  -4.559  1.00  0.00    -0.021 A 
ATOM      8  C   UNL     1       2.131   0.514  -5.321  1.00  0.00     0.087 A 
ATOM      9  C   UNL     1       2.602   2.715  -5.435  1.00  0.00     0.003 A 
ATOM     10  N   UNL     1       1.862   0.962  -6.587  1.00  0.00    -0.361 N 
ATOM     11  C   UNL     1       2.119   2.311  -6.679  1.00  0.00     0.046 A 
ATOM     12  C   UNL     1       3.010   4.050  -5.276  1.00  0.00     0.026 A 
ATOM     13  H   UNL     1       1.531   0.400  -7.325  1.00  0.00     0.166 HD
ATOM     14  C   UNL     1       1.973   3.193  -7.760  1.00  0.00     0.027 A 
ATOM     15  C   UNL     1       2.377   4.523  -7.578  1.00  0.00     0.018 A 
BRANCH   7  16
ATOM     16  C   UNL     1       2.892   1.572  -3.096  1.00  0.00     0.059 C 
BRANCH  16  17
ATOM     17  C   UNL     1       1.660   1.800  -2.209  1.00  0.00     0.120 C 
BRANCH  17  18
ATOM     18  N   UNL     1       0.728   0.684  -2.273  1.00  0.00    -0.356 N 
ATOM     19  C   UNL     1       0.950  -0.013   0.076  1.00  0.00     0.114 C 
ATOM     20  C   UNL     1       0.387  -0.209  -1.304  1.00  0.00     0.216 C 
ATOM     21  O   UNL     1      -0.372  -1.138  -1.572  1.00  0.00    -0.275 OA
ATOM     22  H   UNL     1       0.281   0.556  -3.141  1.00  0.00     0.163 HD
ENDBRANCH  17  18
ENDBRANCH  16  17
ENDBRANCH   7  16
ENDBRANCH   4   6
ENDBRANCH   3   4
ENDBRANCH   2   3
ENDBRANCH   1   2
BRANCH   1  23
ATOM     23  O   UNL     1       1.275   8.419  -4.409  1.00  0.00    -0.374 OA
BRANCH  23  24
ATOM     24  C   UNL     1       0.489   7.235  -4.568  1.00  0.00     0.202 C 
BRANCH  24  25
ATOM     25  C   UNL     1      -0.998   7.443  -4.883  1.00  0.00     0.261 C 
BRANCH  25  26
ATOM     26  O   UNL     1      -1.197   7.954  -6.215  1.00  0.00    -0.460 OA
BRANCH  26  27
ATOM     27  C   UNL     1      -1.698   9.209  -6.285  1.00  0.00     0.338 C 
ATOM     28  O   UNL     1      -2.078   9.914  -5.360  1.00  0.00    -0.246 OA
BRANCH  27  29
ATOM     29  C   UNL     1      -1.551   9.718  -7.660  1.00  0.00     0.060 A 
ATOM     30  C   UNL     1      -0.838  10.911  -7.844  1.00  0.00     0.016 A 
ATOM     31  C   UNL     1      -2.137   9.067  -8.746  1.00  0.00     0.016 A 
ATOM     32  C   UNL     1      -0.728  11.470  -9.116  1.00  0.00     0.010 A 
ATOM     33  C   UNL     1      -2.038   9.637 -10.019  1.00  0.00     0.010 A 
ATOM     34  C   UNL     1      -1.352  10.851 -10.206  1.00  0.00    -0.014 A 
BRANCH  34  35
ATOM     35  C   UNL     1      -1.386  11.526 -11.525  1.00  0.00     0.031 A 
ATOM     36  C   UNL     1      -2.621  12.280 -11.930  1.00  0.00     0.074 A 
ATOM     37  C   UNL     1      -0.329  11.463 -12.353  1.00  0.00     0.049 A 
ATOM     38  N   UNL     1      -2.901  12.868 -13.064  1.00  0.00    -0.248 NA
ATOM     39  C   UNL     1      -3.684  12.382 -10.918  1.00  0.00     0.031 C 
ATOM     40  C   UNL     1       0.938  10.800 -12.055  1.00  0.00     0.029 A 
ATOM     41  N   UNL     1      -0.163  11.954 -13.624  1.00  0.00    -0.354 N 
ATOM     42  C   UNL     1      -4.172  13.403 -12.907  1.00  0.00     0.074 A 
ATOM     43  C   UNL     1      -4.620  13.049 -11.577  1.00  0.00     0.031 C 
ATOM     44  C   UNL     1       1.748  10.909 -13.121  1.00  0.00     0.029 A 
ATOM     45  C   UNL     1       1.042  11.615 -14.189  1.00  0.00     0.049 A 
ATOM     46  H   UNL     1      -0.842  12.497 -14.087  1.00  0.00     0.167 HD
ATOM     47  C   UNL     1      -4.896  14.130 -13.791  1.00  0.00     0.037 A 
ATOM     48  C   UNL     1       1.505  11.824 -15.437  1.00  0.00     0.037 A 
ATOM     49  C   UNL     1      -4.447  14.479 -15.113  1.00  0.00     0.049 A 
ATOM     50  C   UNL     1       0.643  12.556 -16.433  1.00  0.00     0.074 A 
ATOM     51  C   UNL     1      -5.095  15.235 -16.074  1.00  0.00     0.029 A 
ATOM     52  N   UNL     1      -3.237  14.084 -15.665  1.00  0.00    -0.354 N 
ATOM     53  N   UNL     1      -0.546  13.082 -16.270  1.00  0.00    -0.248 NA
ATOM     54  C   UNL     1       1.188  12.719 -17.789  1.00  0.00     0.031 C 
ATOM     55  C   UNL     1      -4.302  15.252 -17.226  1.00  0.00     0.029 A 
ATOM     56  C   UNL     1      -3.135  14.551 -16.965  1.00  0.00     0.049 A 
ATOM     57  H   UNL     1      -2.552  13.550 -15.201  1.00  0.00     0.167 HD
ATOM     58  C   UNL     1      -0.882  13.656 -17.489  1.00  0.00     0.074 A 
ATOM     59  C   UNL     1       0.235  13.426 -18.381  1.00  0.00     0.031 C 
ATOM     60  C   UNL     1      -2.014  14.315 -17.839  1.00  0.00     0.037 A 
BRANCH  47  61
ATOM     61  C   UNL     1      -6.265  14.573 -13.368  1.00  0.00     0.064 A 
ATOM     62  C   UNL     1      -6.450  15.581 -12.409  1.00  0.00     0.173 A 
ATOM     63  C   UNL     1      -7.407  14.008 -13.956  1.00  0.00     0.173 A 
ATOM     64  F   UNL     1      -5.391  16.144 -11.808  1.00  0.00    -0.203 F 
ATOM     65  C   UNL     1      -7.729  15.989 -12.038  1.00  0.00     0.198 A 
ATOM     66  C   UNL     1      -8.683  14.438 -13.602  1.00  0.00     0.198 A 
ATOM     67  F   UNL     1      -7.285  13.044 -14.880  1.00  0.00    -0.203 F 
ATOM     68  F   UNL     1      -7.883  16.922 -11.088  1.00  0.00    -0.200 F 
ATOM     69  C   UNL     1      -8.843  15.423 -12.639  1.00  0.00     0.200 A 
ATOM     70  F   UNL     1      -9.758  13.898 -14.192  1.00  0.00    -0.200 F 
ATOM     71  F   UNL     1     -10.073  15.822 -12.285  1.00  0.00    -0.200 F 
ENDBRANCH  47  61
BRANCH  48  72
ATOM     72  C   UNL     1       2.844  11.310 -15.827  1.00  0.00     0.064 A 
ATOM     73  C   UNL     1       3.902  12.187 -16.104  1.00  0.00     0.173 A 
ATOM     74  C   UNL     1       3.088   9.934 -15.947  1.00  0.00     0.173 A 
ATOM     75  F   UNL     1       3.710  13.512 -16.029  1.00  0.00    -0.203 F 
ATOM     76  C   UNL     1       5.148  11.707 -16.502  1.00  0.00     0.198 A 
ATOM     77  C   UNL     1       4.342   9.455 -16.318  1.00  0.00     0.198 A 
ATOM     78  F   UNL     1       2.108   9.053 -15.697  1.00  0.00    -0.203 F 
ATOM     79  F   UNL     1       6.129  12.568 -16.805  1.00  0.00    -0.200 F 
ATOM     80  C   UNL     1       5.369  10.341 -16.602  1.00  0.00     0.200 A 
ATOM     81  F   UNL     1       4.554   8.134 -16.403  1.00  0.00    -0.200 F 
ATOM     82  F   UNL     1       6.569   9.881 -16.982  1.00  0.00    -0.200 F 
ENDBRANCH  48  72
BRANCH  60  83
ATOM     83  C   UNL     1      -2.096  14.857 -19.237  1.00  0.00     0.064 A 
ATOM     84  C   UNL     1      -2.282  14.013 -20.342  1.00  0.00     0.173 A 
ATOM     85  C   UNL     1      -2.043  16.240 -19.468  1.00  0.00     0.173 A 
ATOM     86  F   UNL     1      -2.323  12.683 -20.175  1.00  0.00    -0.203 F 
ATOM     87  C   UNL     1      -2.394  14.534 -21.629  1.00  0.00     0.198 A 
ATOM     88  C   UNL     1      -2.184  16.759 -20.752  1.00  0.00     0.198 A 
ATOM     89  F   UNL     1      -1.872  17.090 -18.444  1.00  0.00    -0.203 F 
ATOM     90  F   UNL     1      -2.532  13.707 -22.674  1.00  0.00    -0.200 F 
ATOM     91  C   UNL     1      -2.354  15.905 -21.831  1.00  0.00     0.200 A 
ATOM     92  F   UNL     1      -2.159  18.085 -20.944  1.00  0.00    -0.200 F 
ATOM     93  F   UNL     1      -2.475  16.405 -23.069  1.00  0.00    -0.200 F 
ENDBRANCH  60  83
ENDBRANCH  34  35
ENDBRANCH  27  29
ENDBRANCH  26  27
ENDBRANCH  25  26
ENDBRANCH  24  25
ENDBRANCH  23  24
ENDBRANCH   1  23
TORSDOF 17
