REMARK SMILES O=C(OCCOCCOC(=O)c1ccccc1-c1ccc(/C=C2\C(=O)N(c3cccc(Br)c3)C(=O)N=C2O)o1)c1ccc(-c2c3nc(c(-c4c(F)c(F)c(F)c(F)c4F)c4ccc([nH]4)c(-c4c(F)c(F)c(F)c(F)c4F)c4nc(c(-c5c(F)c(F)c(F)c(F)c5F)c5ccc2[nH]5)C=C4)C=C3)cc1
REMARK SMILES IDX 7 1 6 2 5 3 4 4 3 5 2 6 1 7 40 8 41 9 102 10 42 11 101 12
REMARK SMILES IDX 43 13 44 14 45 15 95 16 46 17 100 18 94 19 96 20 47 21 99 22
REMARK SMILES IDX 93 23 92 24 48 26 80 27 60 28 79 29 61 30 64 31 78 32 97 33
REMARK SMILES IDX 62 34 63 35 77 37 98 38 65 39 49 40 50 41 58 42 51 43 52 44
REMARK SMILES IDX 56 45 59 46 53 47 54 48 57 49 55 50 81 51 82 52 90 53 83 54
REMARK SMILES IDX 84 55 88 56 91 57 85 58 86 59 89 60 87 61 66 62 67 63 75 64
REMARK SMILES IDX 68 65 69 66 73 67 76 68 70 69 71 70 74 71 72 72 8 73 9 74
REMARK SMILES IDX 10 75 11 76 12 77 13 78 17 79 14 80 16 81 15 82 18 83 19 84
REMARK SMILES IDX 39 85 20 86 21 87 22 88 23 89 24 90 37 91 25 92 26 93 36 94
REMARK SMILES IDX 34 95 35 96 38 97 27 99 28 100 33 101 29 102 31 103 30 104
REMARK SMILES IDX 32 105
REMARK H PARENT 96 25 64 36 38 98
REMARK Flexibility Score: inf
ROOT
ATOM      1  C   UNL     1       2.667   1.620  -1.087  1.00  0.00     0.202 C 
ENDROOT
BRANCH   1   2
ATOM      2  O   UNL     1       3.961   1.038  -0.894  1.00  0.00    -0.374 OA
BRANCH   2   3
ATOM      3  C   UNL     1       4.153  -0.236  -1.512  1.00  0.00     0.202 C 
BRANCH   3   4
ATOM      4  C   UNL     1       3.843  -1.404  -0.571  1.00  0.00     0.261 C 
BRANCH   4   5
ATOM      5  O   UNL     1       2.483  -1.342  -0.107  1.00  0.00    -0.460 OA
BRANCH   5   6
ATOM      6  C   UNL     1       1.989  -0.801   1.030  1.00  0.00     0.338 C 
ATOM      7  O   UNL     1       0.773  -0.843   1.213  1.00  0.00    -0.246 OA
BRANCH   6   8
ATOM      8  C   UNL     1       2.821  -0.159   2.098  1.00  0.00     0.060 A 
ATOM      9  C   UNL     1       4.095   0.381   1.921  1.00  0.00     0.016 A 
ATOM     10  C   UNL     1       2.227  -0.018   3.367  1.00  0.00     0.016 A 
ATOM     11  C   UNL     1       4.770   1.019   2.947  1.00  0.00     0.010 A 
ATOM     12  C   UNL     1       2.896   0.628   4.413  1.00  0.00     0.010 A 
ATOM     13  C   UNL     1       4.179   1.136   4.199  1.00  0.00    -0.014 A 
BRANCH  13  14
ATOM     14  C   UNL     1       5.031   1.651   5.279  1.00  0.00     0.031 A 
ATOM     15  C   UNL     1       5.716   0.654   6.158  1.00  0.00     0.074 A 
ATOM     16  C   UNL     1       5.333   2.960   5.310  1.00  0.00     0.049 A 
ATOM     17  N   UNL     1       6.557   0.849   7.136  1.00  0.00    -0.248 NA
ATOM     18  C   UNL     1       5.437  -0.764   5.873  1.00  0.00     0.031 C 
ATOM     19  C   UNL     1       4.825   3.962   4.371  1.00  0.00     0.029 A 
ATOM     20  N   UNL     1       6.181   3.662   6.123  1.00  0.00    -0.354 N 
ATOM     21  C   UNL     1       6.883  -0.417   7.601  1.00  0.00     0.074 A 
ATOM     22  C   UNL     1       6.159  -1.375   6.798  1.00  0.00     0.031 C 
ATOM     23  C   UNL     1       5.399   5.146   4.641  1.00  0.00     0.029 A 
ATOM     24  C   UNL     1       6.260   4.996   5.809  1.00  0.00     0.049 A 
ATOM     25  H   UNL     1       6.684   3.250   6.862  1.00  0.00     0.167 HD
ATOM     26  C   UNL     1       7.709  -0.738   8.623  1.00  0.00     0.037 A 
ATOM     27  C   UNL     1       6.941   5.979   6.425  1.00  0.00     0.037 A 
ATOM     28  C   UNL     1       8.411   0.246   9.399  1.00  0.00     0.049 A 
ATOM     29  C   UNL     1       7.766   5.607   7.629  1.00  0.00     0.074 A 
ATOM     30  C   UNL     1       9.214   0.069  10.509  1.00  0.00     0.029 A 
ATOM     31  N   UNL     1       8.385   1.611   9.133  1.00  0.00    -0.354 N 
ATOM     32  N   UNL     1       8.009   4.418   8.129  1.00  0.00    -0.248 NA
ATOM     33  C   UNL     1       8.393   6.709   8.365  1.00  0.00     0.031 C 
ATOM     34  C   UNL     1       9.634   1.332  10.943  1.00  0.00     0.029 A 
ATOM     35  C   UNL     1       9.139   2.292  10.070  1.00  0.00     0.049 A 
ATOM     36  H   UNL     1       7.900   2.031   8.385  1.00  0.00     0.167 HD
ATOM     37  C   UNL     1       8.831   4.623   9.226  1.00  0.00     0.074 A 
ATOM     38  C   UNL     1       9.061   6.053   9.305  1.00  0.00     0.031 C 
ATOM     39  C   UNL     1       9.347   3.719  10.098  1.00  0.00     0.037 A 
BRANCH  26  40
ATOM     40  C   UNL     1       7.793  -2.188   8.996  1.00  0.00     0.064 A 
ATOM     41  C   UNL     1       8.438  -3.135   8.185  1.00  0.00     0.173 A 
ATOM     42  C   UNL     1       7.151  -2.648  10.156  1.00  0.00     0.173 A 
ATOM     43  F   UNL     1       9.037  -2.753   7.047  1.00  0.00    -0.203 F 
ATOM     44  C   UNL     1       8.404  -4.492   8.503  1.00  0.00     0.198 A 
ATOM     45  C   UNL     1       7.143  -4.000  10.485  1.00  0.00     0.198 A 
ATOM     46  F   UNL     1       6.510  -1.786  10.959  1.00  0.00    -0.203 F 
ATOM     47  F   UNL     1       8.964  -5.386   7.677  1.00  0.00    -0.200 F 
ATOM     48  C   UNL     1       7.758  -4.923   9.652  1.00  0.00     0.200 A 
ATOM     49  F   UNL     1       6.518  -4.414  11.596  1.00  0.00    -0.200 F 
ATOM     50  F   UNL     1       7.711  -6.229   9.948  1.00  0.00    -0.200 F 
ENDBRANCH  26  40
BRANCH  27  51
ATOM     51  C   UNL     1       6.836   7.386   5.952  1.00  0.00     0.064 A 
ATOM     52  C   UNL     1       7.953   8.078   5.463  1.00  0.00     0.173 A 
ATOM     53  C   UNL     1       5.615   8.078   5.995  1.00  0.00     0.173 A 
ATOM     54  F   UNL     1       9.150   7.474   5.422  1.00  0.00    -0.203 F 
ATOM     55  C   UNL     1       7.856   9.408   5.053  1.00  0.00     0.198 A 
ATOM     56  C   UNL     1       5.512   9.397   5.555  1.00  0.00     0.198 A 
ATOM     57  F   UNL     1       4.513   7.471   6.460  1.00  0.00    -0.203 F 
ATOM     58  F   UNL     1       8.951  10.060   4.637  1.00  0.00    -0.200 F 
ATOM     59  C   UNL     1       6.635  10.064   5.093  1.00  0.00     0.200 A 
ATOM     60  F   UNL     1       4.327  10.021   5.586  1.00  0.00    -0.200 F 
ATOM     61  F   UNL     1       6.543  11.341   4.698  1.00  0.00    -0.200 F 
ENDBRANCH  27  51
BRANCH  39  62
ATOM     62  C   UNL     1      10.236   4.258  11.176  1.00  0.00     0.064 A 
ATOM     63  C   UNL     1       9.721   4.981  12.261  1.00  0.00     0.173 A 
ATOM     64  C   UNL     1      11.616   4.008  11.141  1.00  0.00     0.173 A 
ATOM     65  F   UNL     1       8.410   5.257  12.327  1.00  0.00    -0.203 F 
ATOM     66  C   UNL     1      10.562   5.458  13.261  1.00  0.00     0.198 A 
ATOM     67  C   UNL     1      12.448   4.459  12.159  1.00  0.00     0.198 A 
ATOM     68  F   UNL     1      12.152   3.314  10.126  1.00  0.00    -0.203 F 
ATOM     69  F   UNL     1      10.057   6.190  14.264  1.00  0.00    -0.200 F 
ATOM     70  C   UNL     1      11.922   5.190  13.213  1.00  0.00     0.200 A 
ATOM     71  F   UNL     1      13.760   4.187  12.119  1.00  0.00    -0.200 F 
ATOM     72  F   UNL     1      12.729   5.644  14.182  1.00  0.00    -0.200 F 
ENDBRANCH  39  62
ENDBRANCH  13  14
ENDBRANCH   6   8
ENDBRANCH   5   6
ENDBRANCH   4   5
ENDBRANCH   3   4
ENDBRANCH   2   3
ENDBRANCH   1   2
BRANCH   1  73
ATOM     73  C   UNL     1       2.828   2.892  -1.903  1.00  0.00     0.261 C 
BRANCH  73  74
ATOM     74  O   UNL     1       3.408   2.520  -3.153  1.00  0.00    -0.460 OA
BRANCH  74  75
ATOM     75  C   UNL     1       4.750   2.641  -3.294  1.00  0.00     0.338 C 
ATOM     76  O   UNL     1       5.543   3.163  -2.530  1.00  0.00    -0.246 OA
BRANCH  75  77
ATOM     77  C   UNL     1       5.116   1.863  -4.497  1.00  0.00     0.071 A 
ATOM     78  C   UNL     1       6.116   0.893  -4.344  1.00  0.00     0.016 A 
ATOM     79  C   UNL     1       4.392   1.980  -5.699  1.00  0.00     0.032 A 
ATOM     80  C   UNL     1       6.352  -0.022  -5.367  1.00  0.00     0.001 A 
ATOM     81  C   UNL     1       4.639   1.047  -6.714  1.00  0.00     0.013 A 
ATOM     82  C   UNL     1       5.605   0.047  -6.543  1.00  0.00     0.001 A 
BRANCH  79  83
ATOM     83  C   UNL     1       3.366   3.005  -5.854  1.00  0.00     0.135 A 
ATOM     84  C   UNL     1       3.292   4.339  -5.518  1.00  0.00     0.051 A 
ATOM     85  O   UNL     1       2.141   2.559  -6.235  1.00  0.00    -0.457 OA
ATOM     86  C   UNL     1       1.920   4.678  -5.579  1.00  0.00     0.051 A 
ATOM     87  C   UNL     1       1.220   3.552  -5.994  1.00  0.00     0.128 A 
BRANCH  87  88
ATOM     88  C   UNL     1      -0.178   3.416  -6.203  1.00  0.00     0.066 C 
ATOM     89  C   UNL     1      -0.823   2.241  -6.294  1.00  0.00     0.106 C 
ATOM     90  C   UNL     1      -0.269   0.885  -6.061  1.00  0.00     0.272 C 
ATOM     91  C   UNL     1      -2.187   2.225  -6.787  1.00  0.00     0.228 C 
ATOM     92  O   UNL     1       0.511   0.685  -5.134  1.00  0.00    -0.268 OA
ATOM     93  N   UNL     1      -0.781  -0.071  -6.945  1.00  0.00    -0.226 N 
ATOM     94  N   UNL     1      -2.749   1.252  -7.390  1.00  0.00    -0.156 NA
ATOM     95  C   UNL     1      -1.993   0.128  -7.646  1.00  0.00     0.358 C 
ATOM     96  O   UNL     1      -2.438  -0.688  -8.450  1.00  0.00    -0.245 OA
BRANCH  91  97
ATOM     97  O   UNL     1      -2.907   3.333  -6.573  1.00  0.00    -0.493 OA
ATOM     98  H   UNL     1      -2.521   4.064  -6.132  1.00  0.00     0.295 HD
ENDBRANCH  91  97
BRANCH  93  99
ATOM     99  C   UNL     1      -0.070  -1.315  -7.113  1.00  0.00     0.055 A 
ATOM    100  C   UNL     1       0.103  -1.871  -8.393  1.00  0.00     0.027 A 
ATOM    101  C   UNL     1       0.502  -1.991  -6.023  1.00  0.00     0.042 A 
ATOM    102  C   UNL     1       0.825  -3.053  -8.582  1.00  0.00     0.003 A 
ATOM    103  C   UNL     1       1.214  -3.179  -6.215  1.00  0.00     0.020 A 
ATOM    104  C   UNL     1       1.382  -3.711  -7.489  1.00  0.00     0.016 A 
ATOM    105  Br  UNL     1       1.954  -4.077  -4.723  1.00  0.00    -0.051 Br
ENDBRANCH  93  99
ENDBRANCH  87  88
ENDBRANCH  79  83
ENDBRANCH  75  77
ENDBRANCH  74  75
ENDBRANCH  73  74
ENDBRANCH   1  73
TORSDOF 18
