REMARK SMILES CC[C@@H](C)[C@H](NC(=O)[C@H](C)N1C(=O)N2CCC3=c4cc(OC)ccc4=N[C@@H]3[C@@]2(C)C1=O)C(=O)OCCOCCOC(=O)c1ccc(-c2c3nc(c(-c4c(F)c(F)c(F)c(F)c4F)c4ccc([nH]4)c(-c4c(F)c(F)c(F)c(F)c4F)c4nc(c(-c5c(F)c(F)c(F)c(F)c5F)c5ccc2[nH]5)C=C4)C=C3)cc1
REMARK SMILES IDX 36 1 35 2 34 3 32 4 33 5 5 6 3 7 4 8 2 9 1 10 6 11 7 12 8 14
REMARK SMILES IDX 9 15 10 16 11 17 12 18 30 19 14 20 13 21 28 22 31 23 15 24
REMARK SMILES IDX 27 25 29 26 16 27 17 28 26 29 18 30 25 31 19 32 24 33 20 34
REMARK SMILES IDX 23 35 21 36 22 37 37 38 38 39 39 40 40 41 41 42 42 43 43 44
REMARK SMILES IDX 44 45 105 46 45 47 104 48 46 49 47 50 48 51 98 52 49 53
REMARK SMILES IDX 103 54 97 55 99 56 50 57 102 58 96 59 95 60 51 62 83 63
REMARK SMILES IDX 63 64 82 65 64 66 67 67 81 68 100 69 65 70 66 71 80 73
REMARK SMILES IDX 101 74 68 75 52 76 53 77 61 78 54 79 55 80 59 81 62 82 56 83
REMARK SMILES IDX 57 84 60 85 58 86 84 87 85 88 93 89 86 90 87 91 91 92 94 93
REMARK SMILES IDX 88 94 89 95 92 96 90 97 69 98 70 99 78 100 71 101 72 102
REMARK SMILES IDX 76 103 79 104 73 105 74 106 77 107 75 108
REMARK H PARENT 6 13 99 61 67 72
REMARK Flexibility Score: inf
ROOT
ATOM      1  C   UNL     1       6.616  -3.347  -1.004  1.00  0.00     0.202 C 
ENDROOT
BRANCH   1   2
ATOM      2  C   UNL     1       6.445  -3.547  -2.520  1.00  0.00     0.261 C 
BRANCH   2   3
ATOM      3  O   UNL     1       5.113  -3.717  -3.063  1.00  0.00    -0.462 OA
BRANCH   3   4
ATOM      4  C   UNL     1       4.708  -4.960  -3.498  1.00  0.00     0.328 C 
ATOM      5  O   UNL     1       5.268  -5.999  -3.158  1.00  0.00    -0.250 OA
BRANCH   4   6
ATOM      6  C   UNL     1       3.408  -4.925  -4.785  1.00  0.00     0.195 C 
BRANCH   6   7
ATOM      7  C   UNL     1       4.656  -4.851  -6.039  1.00  0.00     0.019 C 
ATOM      8  C   UNL     1       5.634  -6.091  -5.971  1.00  0.00     0.010 C 
BRANCH   7   9
ATOM      9  C   UNL     1       5.597  -3.616  -6.039  1.00  0.00     0.002 C 
ATOM     10  C   UNL     1       6.256  -3.403  -7.406  1.00  0.00     0.004 C 
ENDBRANCH   7   9
ENDBRANCH   6   7
BRANCH   6  11
ATOM     11  N   UNL     1       1.371  -4.391  -4.580  1.00  0.00    -0.341 N 
ATOM     12  C   UNL     1       0.458  -3.248  -3.951  1.00  0.00     0.243 C 
ATOM     13  H   UNL     1       0.804  -5.068  -5.014  1.00  0.00     0.164 HD
ATOM     14  O   UNL     1      -0.740  -3.560  -3.882  1.00  0.00    -0.273 OA
BRANCH  12  15
ATOM     15  C   UNL     1       1.038  -1.683  -3.265  1.00  0.00     0.181 C 
ATOM     16  C   UNL     1      -0.183  -0.942  -2.703  1.00  0.00     0.042 C 
BRANCH  15  17
ATOM     17  N   UNL     1       1.790  -0.807  -4.265  1.00  0.00    -0.250 N 
ATOM     18  C   UNL     1       3.110  -0.363  -4.591  1.00  0.00     0.328 C 
ATOM     19  C   UNL     1       1.100  -0.821  -5.382  1.00  0.00     0.259 C 
ATOM     20  N   UNL     1       3.440  -0.284  -6.011  1.00  0.00    -0.307 N 
ATOM     21  O   UNL     1       4.008  -0.252  -3.760  1.00  0.00    -0.248 OA
ATOM     22  C   UNL     1       2.218  -0.784  -6.353  1.00  0.00     0.147 C 
ATOM     23  O   UNL     1      -0.089  -0.981  -5.586  1.00  0.00    -0.271 OA
ATOM     24  C   UNL     1       3.611  -0.267  -7.681  1.00  0.00     0.127 C 
ATOM     25  C   UNL     1       3.133  -2.469  -6.883  1.00  0.00     0.168 C 
ATOM     26  C   UNL     1       1.518   0.705  -6.920  1.00  0.00     0.048 C 
ATOM     27  C   UNL     1       2.262  -1.379  -8.380  1.00  0.00     0.055 C 
ATOM     28  C   UNL     1       1.807  -2.531  -7.102  1.00  0.00    -0.032 C 
ATOM     29  N   UNL     1       2.676  -4.124  -7.557  1.00  0.00    -0.274 NA
ATOM     30  C   UNL     1       2.058  -3.089  -5.766  1.00  0.00     0.005 A 
ATOM     31  C   UNL     1       2.018  -4.590  -6.501  1.00  0.00     0.066 A 
ATOM     32  C   UNL     1       2.802  -3.210  -3.981  1.00  0.00     0.056 A 
ATOM     33  C   UNL     1       1.735  -6.209  -5.485  1.00  0.00     0.032 A 
ATOM     34  C   UNL     1       2.409  -4.546  -2.985  1.00  0.00     0.119 A 
ATOM     35  C   UNL     1       1.866  -6.168  -3.855  1.00  0.00     0.048 A 
BRANCH  34  36
ATOM     36  O   UNL     1       2.451  -4.667  -1.630  1.00  0.00    -0.497 OA
ATOM     37  C   UNL     1       1.216  -4.271  -1.020  1.00  0.00     0.278 C 
ENDBRANCH  34  36
ENDBRANCH  15  17
ENDBRANCH  12  15
ENDBRANCH   6  11
ENDBRANCH   4   6
ENDBRANCH   3   4
ENDBRANCH   2   3
ENDBRANCH   1   2
BRANCH   1  38
ATOM     38  O   UNL     1       6.378  -4.467  -0.161  1.00  0.00    -0.374 OA
BRANCH  38  39
ATOM     39  C   UNL     1       5.016  -4.850   0.007  1.00  0.00     0.202 C 
BRANCH  39  40
ATOM     40  C   UNL     1       4.126  -3.804   0.694  1.00  0.00     0.261 C 
BRANCH  40  41
ATOM     41  O   UNL     1       3.986  -2.602  -0.101  1.00  0.00    -0.460 OA
BRANCH  41  42
ATOM     42  C   UNL     1       3.463  -1.546   0.566  1.00  0.00     0.338 C 
ATOM     43  O   UNL     1       2.950  -1.573   1.671  1.00  0.00    -0.246 OA
BRANCH  42  44
ATOM     44  C   UNL     1       3.503  -0.320  -0.266  1.00  0.00     0.060 A 
ATOM     45  C   UNL     1       2.294   0.234  -0.672  1.00  0.00     0.016 A 
ATOM     46  C   UNL     1       4.689   0.354  -0.560  1.00  0.00     0.016 A 
ATOM     47  C   UNL     1       2.275   1.401  -1.451  1.00  0.00     0.010 A 
ATOM     48  C   UNL     1       4.649   1.593  -1.239  1.00  0.00     0.010 A 
ATOM     49  C   UNL     1       3.443   2.138  -1.724  1.00  0.00    -0.014 A 
BRANCH  49  50
ATOM     50  C   UNL     1       3.379   3.449  -2.483  1.00  0.00     0.031 A 
ATOM     51  C   UNL     1       4.299   3.756  -3.654  1.00  0.00     0.074 A 
ATOM     52  C   UNL     1       2.479   4.406  -2.151  1.00  0.00     0.049 A 
ATOM     53  N   UNL     1       4.427   4.868  -4.348  1.00  0.00    -0.248 NA
ATOM     54  C   UNL     1       5.191   2.685  -4.108  1.00  0.00     0.031 C 
ATOM     55  C   UNL     1       1.494   4.311  -1.074  1.00  0.00     0.029 A 
ATOM     56  N   UNL     1       2.236   5.652  -2.697  1.00  0.00    -0.354 N 
ATOM     57  C   UNL     1       5.429   4.633  -5.285  1.00  0.00     0.074 A 
ATOM     58  C   UNL     1       5.886   3.279  -5.067  1.00  0.00     0.031 C 
ATOM     59  C   UNL     1       0.712   5.399  -1.087  1.00  0.00     0.029 A 
ATOM     60  C   UNL     1       1.208   6.336  -2.089  1.00  0.00     0.049 A 
ATOM     61  H   UNL     1       2.751   6.017  -3.452  1.00  0.00     0.167 HD
ATOM     62  C   UNL     1       5.934   5.453  -6.242  1.00  0.00     0.037 A 
ATOM     63  C   UNL     1       0.729   7.586  -2.260  1.00  0.00     0.037 A 
ATOM     64  C   UNL     1       5.497   6.803  -6.500  1.00  0.00     0.049 A 
ATOM     65  C   UNL     1       1.359   8.514  -3.260  1.00  0.00     0.074 A 
ATOM     66  C   UNL     1       5.954   7.684  -7.466  1.00  0.00     0.029 A 
ATOM     67  N   UNL     1       4.513   7.471  -5.790  1.00  0.00    -0.354 N 
ATOM     68  N   UNL     1       2.322   8.277  -4.114  1.00  0.00    -0.248 NA
ATOM     69  C   UNL     1       0.853   9.896  -3.300  1.00  0.00     0.031 C 
ATOM     70  C   UNL     1       5.291   8.904  -7.304  1.00  0.00     0.029 A 
ATOM     71  C   UNL     1       4.374   8.764  -6.277  1.00  0.00     0.049 A 
ATOM     72  H   UNL     1       3.989   7.086  -5.051  1.00  0.00     0.167 HD
ATOM     73  C   UNL     1       2.533   9.470  -4.794  1.00  0.00     0.074 A 
ATOM     74  C   UNL     1       1.584  10.427  -4.271  1.00  0.00     0.031 C 
ATOM     75  C   UNL     1       3.443   9.736  -5.762  1.00  0.00     0.037 A 
BRANCH  62  76
ATOM     76  C   UNL     1       7.064   4.924  -7.084  1.00  0.00     0.064 A 
ATOM     77  C   UNL     1       6.866   3.927  -8.050  1.00  0.00     0.173 A 
ATOM     78  C   UNL     1       8.356   5.461  -6.953  1.00  0.00     0.173 A 
ATOM     79  F   UNL     1       5.654   3.373  -8.212  1.00  0.00    -0.203 F 
ATOM     80  C   UNL     1       7.924   3.464  -8.829  1.00  0.00     0.198 A 
ATOM     81  C   UNL     1       9.403   5.020  -7.758  1.00  0.00     0.198 A 
ATOM     82  F   UNL     1       8.600   6.428  -6.055  1.00  0.00    -0.203 F 
ATOM     83  F   UNL     1       7.720   2.474  -9.709  1.00  0.00    -0.200 F 
ATOM     84  C   UNL     1       9.189   4.016  -8.688  1.00  0.00     0.200 A 
ATOM     85  F   UNL     1      10.620   5.568  -7.633  1.00  0.00    -0.200 F 
ATOM     86  F   UNL     1      10.202   3.574  -9.446  1.00  0.00    -0.200 F 
ENDBRANCH  62  76
BRANCH  63  87
ATOM     87  C   UNL     1      -0.410   8.048  -1.418  1.00  0.00     0.064 A 
ATOM     88  C   UNL     1      -1.676   8.268  -1.977  1.00  0.00     0.173 A 
ATOM     89  C   UNL     1      -0.268   8.230  -0.034  1.00  0.00     0.173 A 
ATOM     90  F   UNL     1      -1.855   8.147  -3.301  1.00  0.00    -0.203 F 
ATOM     91  C   UNL     1      -2.760   8.633  -1.180  1.00  0.00     0.198 A 
ATOM     92  C   UNL     1      -1.359   8.561   0.766  1.00  0.00     0.198 A 
ATOM     93  F   UNL     1       0.925   8.042   0.548  1.00  0.00    -0.203 F 
ATOM     94  F   UNL     1      -3.956   8.859  -1.742  1.00  0.00    -0.200 F 
ATOM     95  C   UNL     1      -2.605   8.762   0.192  1.00  0.00     0.200 A 
ATOM     96  F   UNL     1      -1.207   8.666   2.093  1.00  0.00    -0.200 F 
ATOM     97  F   UNL     1      -3.655   9.080   0.961  1.00  0.00    -0.200 F 
ENDBRANCH  63  87
BRANCH  75  98
ATOM     98  C   UNL     1       3.470  11.120  -6.346  1.00  0.00     0.064 A 
ATOM     99  C   UNL     1       3.959  12.216  -5.618  1.00  0.00     0.173 A 
ATOM    100  C   UNL     1       3.071  11.345  -7.673  1.00  0.00     0.173 A 
ATOM    101  F   UNL     1       4.341  12.061  -4.341  1.00  0.00    -0.203 F 
ATOM    102  C   UNL     1       4.037  13.483  -6.192  1.00  0.00     0.198 A 
ATOM    103  C   UNL     1       3.176  12.607  -8.253  1.00  0.00     0.198 A 
ATOM    104  F   UNL     1       2.600  10.333  -8.418  1.00  0.00    -0.203 F 
ATOM    105  F   UNL     1       4.478  14.520  -5.466  1.00  0.00    -0.200 F 
ATOM    106  C   UNL     1       3.656  13.675  -7.511  1.00  0.00     0.200 A 
ATOM    107  F   UNL     1       2.822  12.787  -9.533  1.00  0.00    -0.200 F 
ATOM    108  F   UNL     1       3.748  14.891  -8.068  1.00  0.00    -0.200 F 
ENDBRANCH  75  98
ENDBRANCH  49  50
ENDBRANCH  42  44
ENDBRANCH  41  42
ENDBRANCH  40  41
ENDBRANCH  39  40
ENDBRANCH  38  39
ENDBRANCH   1  38
TORSDOF 20
