REMARK SMILES CCC(C)(C)[C@@H]([NH3+])C(C)(C)C(=O)OCCOCCOC(=O)c1ccc(-c2c3nc(c(-c4c(F)c(F)c(F)c(F)c4F)c4ccc([nH]4)c(-c4c(F)c(F)c(F)c(F)c4F)c4nc(c(-c5c(F)c(F)c(F)c(F)c5F)c5ccc2[nH]5)C=C4)C=C3)cc1
REMARK SMILES IDX 15 1 14 2 13 3 11 4 12 5 8 6 9 7 10 8 6 9 3 10 4 11 5 12
REMARK SMILES IDX 2 13 1 14 7 15 16 19 17 20 18 21 19 22 20 23 21 24 22 25
REMARK SMILES IDX 23 26 84 27 24 28 83 29 25 30 26 31 27 32 77 33 28 34 82 35
REMARK SMILES IDX 76 36 78 37 29 38 81 39 75 40 74 41 30 43 62 44 42 45 61 46
REMARK SMILES IDX 43 47 46 48 60 49 79 50 44 51 45 52 59 54 80 55 47 56 31 57
REMARK SMILES IDX 32 58 40 59 33 60 34 61 38 62 41 63 35 64 36 65 39 66 37 67
REMARK SMILES IDX 63 68 64 69 72 70 65 71 66 72 70 73 73 74 67 75 68 76 71 77
REMARK SMILES IDX 69 78 48 79 49 80 57 81 50 82 51 83 55 84 58 85 52 86 53 87
REMARK SMILES IDX 56 88 54 89
REMARK H PARENT 7 16 7 17 7 18 78 42 46 53
REMARK Flexibility Score: inf
ROOT
ATOM      1  C   UNL     1       2.672   2.402  -1.719  1.00  0.00     0.202 C 
ENDROOT
BRANCH   1   2
ATOM      2  C   UNL     1       2.499   2.194  -0.198  1.00  0.00     0.261 C 
BRANCH   2   3
ATOM      3  O   UNL     1       3.131   1.052   0.395  1.00  0.00    -0.463 OA
BRANCH   3   4
ATOM      4  C   UNL     1       2.377  -0.067   0.203  1.00  0.00     0.317 C 
ATOM      5  O   UNL     1       1.402  -0.039  -0.528  1.00  0.00    -0.251 OA
BRANCH   4   6
ATOM      6  C   UNL     1       2.854  -1.297   0.972  1.00  0.00     0.114 C 
ATOM      7  C   UNL     1       2.515  -1.104   2.457  1.00  0.00     0.030 C 
ATOM      8  C   UNL     1       4.410  -1.377   0.902  1.00  0.00     0.030 C 
BRANCH   6   9
ATOM      9  C   UNL     1       2.218  -2.625   0.350  1.00  0.00     0.203 C 
BRANCH   9  10
ATOM     10  C   UNL     1       0.630  -2.962   0.410  1.00  0.00     0.017 C 
ATOM     11  C   UNL     1       0.171  -3.196   1.865  1.00  0.00     0.017 C 
ATOM     12  C   UNL     1       0.404  -4.338  -0.303  1.00  0.00     0.017 C 
BRANCH  10  13
ATOM     13  C   UNL     1      -0.367  -1.997  -0.309  1.00  0.00     0.009 C 
ATOM     14  C   UNL     1      -0.923  -0.818   0.497  1.00  0.00     0.005 C 
ENDBRANCH  10  13
ENDBRANCH   9  10
BRANCH   9  15
ATOM     15  N   UNL     1       2.780  -2.815  -1.013  1.00  0.00    -0.354 N 
ATOM     16  H   UNL     1       2.441  -2.074  -1.627  1.00  0.00     0.344 HD
ATOM     17  H   UNL     1       2.487  -3.720  -1.379  1.00  0.00     0.344 HD
ATOM     18  H   UNL     1       3.799  -2.780  -0.969  1.00  0.00     0.344 HD
ENDBRANCH   9  15
ENDBRANCH   6   9
ENDBRANCH   4   6
ENDBRANCH   3   4
ENDBRANCH   2   3
ENDBRANCH   1   2
BRANCH   1  19
ATOM     19  O   UNL     1       2.652   1.333  -2.654  1.00  0.00    -0.374 OA
BRANCH  19  20
ATOM     20  C   UNL     1       3.673   0.340  -2.637  1.00  0.00     0.202 C 
BRANCH  20  21
ATOM     21  C   UNL     1       5.109   0.754  -2.955  1.00  0.00     0.261 C 
BRANCH  21  22
ATOM     22  O   UNL     1       5.608   1.710  -2.007  1.00  0.00    -0.460 OA
BRANCH  22  23
ATOM     23  C   UNL     1       5.851   2.929  -2.539  1.00  0.00     0.338 C 
ATOM     24  O   UNL     1       5.817   3.251  -3.713  1.00  0.00    -0.246 OA
BRANCH  23  25
ATOM     25  C   UNL     1       5.971   3.927  -1.463  1.00  0.00     0.060 A 
ATOM     26  C   UNL     1       5.195   5.088  -1.590  1.00  0.00     0.016 A 
ATOM     27  C   UNL     1       6.892   3.786  -0.424  1.00  0.00     0.016 A 
ATOM     28  C   UNL     1       5.412   6.161  -0.742  1.00  0.00     0.010 A 
ATOM     29  C   UNL     1       7.128   4.875   0.417  1.00  0.00     0.010 A 
ATOM     30  C   UNL     1       6.439   6.084   0.206  1.00  0.00    -0.014 A 
BRANCH  30  31
ATOM     31  C   UNL     1       6.975   7.356   0.734  1.00  0.00     0.031 A 
ATOM     32  C   UNL     1       8.151   7.968   0.020  1.00  0.00     0.074 A 
ATOM     33  C   UNL     1       6.366   7.997   1.742  1.00  0.00     0.049 A 
ATOM     34  N   UNL     1       8.781   9.088   0.260  1.00  0.00    -0.248 NA
ATOM     35  C   UNL     1       8.686   7.214  -1.128  1.00  0.00     0.031 C 
ATOM     36  C   UNL     1       5.180   7.522   2.450  1.00  0.00     0.029 A 
ATOM     37  N   UNL     1       6.660   9.197   2.334  1.00  0.00    -0.354 N 
ATOM     38  C   UNL     1       9.783   9.167  -0.699  1.00  0.00     0.074 A 
ATOM     39  C   UNL     1       9.703   7.971  -1.505  1.00  0.00     0.031 C 
ATOM     40  C   UNL     1       4.847   8.423   3.391  1.00  0.00     0.029 A 
ATOM     41  C   UNL     1       5.812   9.521   3.362  1.00  0.00     0.049 A 
ATOM     42  H   UNL     1       7.407   9.771   2.049  1.00  0.00     0.167 HD
ATOM     43  C   UNL     1      10.683  10.158  -0.895  1.00  0.00     0.037 A 
ATOM     44  C   UNL     1       5.832  10.582   4.190  1.00  0.00     0.037 A 
ATOM     45  C   UNL     1      10.748  11.348  -0.092  1.00  0.00     0.049 A 
ATOM     46  C   UNL     1       6.885  11.641   3.992  1.00  0.00     0.074 A 
ATOM     47  C   UNL     1      11.621  12.415  -0.195  1.00  0.00     0.029 A 
ATOM     48  N   UNL     1       9.897  11.624   0.969  1.00  0.00    -0.354 N 
ATOM     49  N   UNL     1       7.830  11.712   3.084  1.00  0.00    -0.248 NA
ATOM     50  C   UNL     1       6.868  12.773   4.928  1.00  0.00     0.031 C 
ATOM     51  C   UNL     1      11.328  13.316   0.834  1.00  0.00     0.029 A 
ATOM     52  C   UNL     1      10.237  12.837   1.543  1.00  0.00     0.049 A 
ATOM     53  H   UNL     1       9.161  11.043   1.270  1.00  0.00     0.167 HD
ATOM     54  C   UNL     1       8.497  12.908   3.317  1.00  0.00     0.074 A 
ATOM     55  C   UNL     1       7.841  13.535   4.447  1.00  0.00     0.031 C 
ATOM     56  C   UNL     1       9.555  13.443   2.658  1.00  0.00     0.037 A 
BRANCH  43  57
ATOM     57  C   UNL     1      11.684   9.975  -1.998  1.00  0.00     0.064 A 
ATOM     58  C   UNL     1      11.319  10.045  -3.351  1.00  0.00     0.173 A 
ATOM     59  C   UNL     1      13.033   9.737  -1.694  1.00  0.00     0.173 A 
ATOM     60  F   UNL     1      10.038  10.249  -3.694  1.00  0.00    -0.203 F 
ATOM     61  C   UNL     1      12.262   9.860  -4.358  1.00  0.00     0.198 A 
ATOM     62  C   UNL     1      13.979   9.581  -2.704  1.00  0.00     0.198 A 
ATOM     63  F   UNL     1      13.435   9.658  -0.417  1.00  0.00    -0.203 F 
ATOM     64  F   UNL     1      11.882   9.882  -5.643  1.00  0.00    -0.200 F 
ATOM     65  C   UNL     1      13.592   9.636  -4.035  1.00  0.00     0.200 A 
ATOM     66  F   UNL     1      15.265   9.373  -2.389  1.00  0.00    -0.200 F 
ATOM     67  F   UNL     1      14.500   9.462  -5.005  1.00  0.00    -0.200 F 
ENDBRANCH  43  57
BRANCH  44  68
ATOM     68  C   UNL     1       4.828  10.691   5.279  1.00  0.00     0.064 A 
ATOM     69  C   UNL     1       3.842  11.686   5.264  1.00  0.00     0.173 A 
ATOM     70  C   UNL     1       4.843   9.804   6.367  1.00  0.00     0.173 A 
ATOM     71  F   UNL     1       3.800  12.571   4.257  1.00  0.00    -0.203 F 
ATOM     72  C   UNL     1       2.921  11.803   6.303  1.00  0.00     0.198 A 
ATOM     73  C   UNL     1       3.904   9.904   7.391  1.00  0.00     0.198 A 
ATOM     74  F   UNL     1       5.765   8.833   6.430  1.00  0.00    -0.203 F 
ATOM     75  F   UNL     1       2.017  12.792   6.286  1.00  0.00    -0.200 F 
ATOM     76  C   UNL     1       2.949  10.909   7.363  1.00  0.00     0.200 A 
ATOM     77  F   UNL     1       3.927   9.029   8.406  1.00  0.00    -0.200 F 
ATOM     78  F   UNL     1       2.061  11.020   8.360  1.00  0.00    -0.200 F 
ENDBRANCH  44  68
BRANCH  56  79
ATOM     79  C   UNL     1      10.035  14.791   3.109  1.00  0.00     0.064 A 
ATOM     80  C   UNL     1      10.723  14.963   4.319  1.00  0.00     0.173 A 
ATOM     81  C   UNL     1       9.840  15.918   2.296  1.00  0.00     0.173 A 
ATOM     82  F   UNL     1      10.923  13.917   5.136  1.00  0.00    -0.203 F 
ATOM     83  C   UNL     1      11.172  16.220   4.712  1.00  0.00     0.198 A 
ATOM     84  C   UNL     1      10.319  17.167   2.678  1.00  0.00     0.198 A 
ATOM     85  F   UNL     1       9.197  15.804   1.124  1.00  0.00    -0.203 F 
ATOM     86  F   UNL     1      11.783  16.371   5.895  1.00  0.00    -0.200 F 
ATOM     87  C   UNL     1      10.976  17.319   3.889  1.00  0.00     0.200 A 
ATOM     88  F   UNL     1      10.143  18.225   1.873  1.00  0.00    -0.200 F 
ATOM     89  F   UNL     1      11.416  18.527   4.266  1.00  0.00    -0.200 F 
ENDBRANCH  56  79
ENDBRANCH  30  31
ENDBRANCH  23  25
ENDBRANCH  22  23
ENDBRANCH  21  22
ENDBRANCH  20  21
ENDBRANCH  19  20
ENDBRANCH   1  19
TORSDOF 18
