REMARK SMILES O=C(OCCOCCOC(=O)[C@H]1CC=CC[C@H]1C(=O)N[C@@H]1CCN(c2cccc(Cl)c2)C1)c1ccc(-c2c3nc(c(-c4c(F)c(F)c(F)c(F)c4F)c4ccc([nH]4)c(-c4c(F)c(F)c(F)c(F)c4F)c4nc(c(-c5c(F)c(F)c(F)c(F)c5F)c5ccc2[nH]5)C=C4)C=C3)cc1
REMARK SMILES IDX 7 1 6 2 5 3 4 4 3 5 2 6 1 7 33 8 34 9 95 10 35 11 94 12
REMARK SMILES IDX 36 13 37 14 38 15 88 16 39 17 93 18 87 19 89 20 40 21 92 22
REMARK SMILES IDX 86 23 85 24 41 26 73 27 53 28 72 29 54 30 57 31 71 32 90 33
REMARK SMILES IDX 55 34 56 35 70 37 91 38 58 39 42 40 43 41 51 42 44 43 45 44
REMARK SMILES IDX 49 45 52 46 46 47 47 48 50 49 48 50 74 51 75 52 83 53 76 54
REMARK SMILES IDX 77 55 81 56 84 57 78 58 79 59 82 60 80 61 59 62 60 63 68 64
REMARK SMILES IDX 61 65 62 66 66 67 69 68 63 69 64 70 67 71 65 72 8 73 9 74
REMARK SMILES IDX 10 75 11 76 12 77 13 78 17 79 14 80 16 81 15 82 18 83 19 84
REMARK SMILES IDX 20 85 21 87 22 88 32 89 23 90 24 91 25 92 26 93 31 94 27 95
REMARK SMILES IDX 29 96 28 97 30 98
REMARK H PARENT 89 25 57 36 20 86
REMARK Flexibility Score: inf
ROOT
ATOM      1  C   UNL     1       4.181  -1.467  -2.395  1.00  0.00     0.202 C 
ENDROOT
BRANCH   1   2
ATOM      2  O   UNL     1       5.399  -0.860  -1.908  1.00  0.00    -0.374 OA
BRANCH   2   3
ATOM      3  C   UNL     1       5.612  -0.752  -0.481  1.00  0.00     0.202 C 
BRANCH   3   4
ATOM      4  C   UNL     1       5.714   0.692   0.152  1.00  0.00     0.261 C 
BRANCH   4   5
ATOM      5  O   UNL     1       4.527   1.135   0.938  1.00  0.00    -0.460 OA
BRANCH   5   6
ATOM      6  C   UNL     1       3.571   2.094   0.690  1.00  0.00     0.338 C 
ATOM      7  O   UNL     1       2.886   2.576   1.585  1.00  0.00    -0.246 OA
BRANCH   6   8
ATOM      8  C   UNL     1       3.290   2.478  -0.711  1.00  0.00     0.060 A 
ATOM      9  C   UNL     1       3.698   1.598  -1.675  1.00  0.00     0.016 A 
ATOM     10  C   UNL     1       2.672   3.648  -1.133  1.00  0.00     0.016 A 
ATOM     11  C   UNL     1       3.972   1.976  -2.954  1.00  0.00     0.010 A 
ATOM     12  C   UNL     1       2.774   4.008  -2.488  1.00  0.00     0.010 A 
ATOM     13  C   UNL     1       3.571   3.231  -3.352  1.00  0.00    -0.014 A 
BRANCH  13  14
ATOM     14  C   UNL     1       4.344   3.818  -4.458  1.00  0.00     0.031 A 
ATOM     15  C   UNL     1       5.261   4.946  -4.093  1.00  0.00     0.074 A 
ATOM     16  C   UNL     1       4.429   3.221  -5.658  1.00  0.00     0.049 A 
ATOM     17  N   UNL     1       5.810   5.851  -4.848  1.00  0.00    -0.248 NA
ATOM     18  C   UNL     1       5.588   5.084  -2.661  1.00  0.00     0.031 C 
ATOM     19  C   UNL     1       3.813   1.940  -6.024  1.00  0.00     0.029 A 
ATOM     20  N   UNL     1       5.097   3.602  -6.787  1.00  0.00    -0.354 N 
ATOM     21  C   UNL     1       6.427   6.735  -3.971  1.00  0.00     0.074 A 
ATOM     22  C   UNL     1       6.221   6.243  -2.633  1.00  0.00     0.031 C 
ATOM     23  C   UNL     1       4.135   1.645  -7.291  1.00  0.00     0.029 A 
ATOM     24  C   UNL     1       4.839   2.785  -7.859  1.00  0.00     0.049 A 
ATOM     25  H   UNL     1       5.700   4.379  -6.828  1.00  0.00     0.167 HD
ATOM     26  C   UNL     1       7.071   7.878  -4.292  1.00  0.00     0.037 A 
ATOM     27  C   UNL     1       5.048   3.010  -9.167  1.00  0.00     0.037 A 
ATOM     28  C   UNL     1       7.296   8.248  -5.661  1.00  0.00     0.049 A 
ATOM     29  C   UNL     1       5.676   4.324  -9.536  1.00  0.00     0.074 A 
ATOM     30  C   UNL     1       7.865   9.391  -6.180  1.00  0.00     0.029 A 
ATOM     31  N   UNL     1       6.964   7.430  -6.739  1.00  0.00    -0.354 N 
ATOM     32  N   UNL     1       6.088   5.288  -8.743  1.00  0.00    -0.248 NA
ATOM     33  C   UNL     1       5.841   4.605 -10.963  1.00  0.00     0.031 C 
ATOM     34  C   UNL     1       7.827   9.285  -7.576  1.00  0.00     0.029 A 
ATOM     35  C   UNL     1       7.298   8.047  -7.925  1.00  0.00     0.049 A 
ATOM     36  H   UNL     1       6.551   6.540  -6.665  1.00  0.00     0.167 HD
ATOM     37  C   UNL     1       6.582   6.285  -9.569  1.00  0.00     0.074 A 
ATOM     38  C   UNL     1       6.415   5.801 -10.929  1.00  0.00     0.031 C 
ATOM     39  C   UNL     1       7.123   7.487  -9.245  1.00  0.00     0.037 A 
BRANCH  26  40
ATOM     40  C   UNL     1       7.412   8.812  -3.166  1.00  0.00     0.064 A 
ATOM     41  C   UNL     1       8.355   8.506  -2.173  1.00  0.00     0.173 A 
ATOM     42  C   UNL     1       6.685  10.007  -3.022  1.00  0.00     0.173 A 
ATOM     43  F   UNL     1       9.055   7.363  -2.236  1.00  0.00    -0.203 F 
ATOM     44  C   UNL     1       8.516   9.326  -1.055  1.00  0.00     0.198 A 
ATOM     45  C   UNL     1       6.875  10.843  -1.924  1.00  0.00     0.198 A 
ATOM     46  F   UNL     1       5.761  10.350  -3.932  1.00  0.00    -0.203 F 
ATOM     47  F   UNL     1       9.353   8.961  -0.074  1.00  0.00    -0.200 F 
ATOM     48  C   UNL     1       7.777  10.493  -0.932  1.00  0.00     0.200 A 
ATOM     49  F   UNL     1       6.160  11.971  -1.812  1.00  0.00    -0.200 F 
ATOM     50  F   UNL     1       7.916  11.267   0.152  1.00  0.00    -0.200 F 
ENDBRANCH  26  40
BRANCH  27  51
ATOM     51  C   UNL     1       4.537   2.036 -10.168  1.00  0.00     0.064 A 
ATOM     52  C   UNL     1       5.404   1.286 -10.970  1.00  0.00     0.173 A 
ATOM     53  C   UNL     1       3.158   1.778 -10.288  1.00  0.00     0.173 A 
ATOM     54  F   UNL     1       6.726   1.499 -10.907  1.00  0.00    -0.203 F 
ATOM     55  C   UNL     1       4.916   0.313 -11.845  1.00  0.00     0.198 A 
ATOM     56  C   UNL     1       2.675   0.785 -11.137  1.00  0.00     0.198 A 
ATOM     57  F   UNL     1       2.279   2.461  -9.539  1.00  0.00    -0.203 F 
ATOM     58  F   UNL     1       5.767  -0.380 -12.613  1.00  0.00    -0.200 F 
ATOM     59  C   UNL     1       3.555   0.055 -11.918  1.00  0.00     0.200 A 
ATOM     60  F   UNL     1       1.361   0.523 -11.179  1.00  0.00    -0.200 F 
ATOM     61  F   UNL     1       3.092  -0.899 -12.737  1.00  0.00    -0.200 F 
ENDBRANCH  27  51
BRANCH  39  62
ATOM     62  C   UNL     1       7.633   8.321 -10.376  1.00  0.00     0.064 A 
ATOM     63  C   UNL     1       6.766   9.044 -11.203  1.00  0.00     0.173 A 
ATOM     64  C   UNL     1       9.015   8.483 -10.546  1.00  0.00     0.173 A 
ATOM     65  F   UNL     1       5.438   8.903 -11.078  1.00  0.00    -0.203 F 
ATOM     66  C   UNL     1       7.269   9.905 -12.171  1.00  0.00     0.198 A 
ATOM     67  C   UNL     1       9.514   9.368 -11.493  1.00  0.00     0.198 A 
ATOM     68  F   UNL     1       9.877   7.814  -9.765  1.00  0.00    -0.203 F 
ATOM     69  F   UNL     1       6.428  10.575 -12.970  1.00  0.00    -0.200 F 
ATOM     70  C   UNL     1       8.641  10.078 -12.304  1.00  0.00     0.200 A 
ATOM     71  F   UNL     1      10.836   9.548 -11.607  1.00  0.00    -0.200 F 
ATOM     72  F   UNL     1       9.122  10.932 -13.216  1.00  0.00    -0.200 F 
ENDBRANCH  39  62
ENDBRANCH  13  14
ENDBRANCH   6   8
ENDBRANCH   5   6
ENDBRANCH   4   5
ENDBRANCH   3   4
ENDBRANCH   2   3
ENDBRANCH   1   2
BRANCH   1  73
ATOM     73  C   UNL     1       4.104  -2.983  -2.603  1.00  0.00     0.261 C 
BRANCH  73  74
ATOM     74  O   UNL     1       4.034  -3.696  -1.362  1.00  0.00    -0.463 OA
BRANCH  74  75
ATOM     75  C   UNL     1       5.241  -3.882  -0.777  1.00  0.00     0.310 C 
ATOM     76  O   UNL     1       6.293  -3.591  -1.328  1.00  0.00    -0.252 OA
BRANCH  75  77
ATOM     77  C   UNL     1       5.097  -4.530   0.597  1.00  0.00     0.115 C 
ATOM     78  C   UNL     1       6.252  -5.568   0.656  1.00  0.00     0.043 C 
ATOM     79  C   UNL     1       5.211  -3.626   1.843  1.00  0.00     0.096 C 
ATOM     80  C   UNL     1       7.596  -4.894   0.774  1.00  0.00    -0.030 C 
ATOM     81  C   UNL     1       6.599  -2.948   1.988  1.00  0.00     0.041 C 
ATOM     82  C   UNL     1       7.735  -3.682   1.333  1.00  0.00    -0.030 C 
BRANCH  79  83
ATOM     83  C   UNL     1       4.098  -2.688   2.370  1.00  0.00     0.224 C 
ATOM     84  O   UNL     1       4.342  -1.936   3.321  1.00  0.00    -0.275 OA
ATOM     85  N   UNL     1       2.782  -2.779   2.002  1.00  0.00    -0.351 N 
ATOM     86  H   UNL     1       2.152  -3.214   2.621  1.00  0.00     0.163 HD
BRANCH  85  87
ATOM     87  C   UNL     1       2.270  -2.264   0.742  1.00  0.00     0.103 C 
ATOM     88  C   UNL     1       1.980  -0.761   0.766  1.00  0.00     0.048 C 
ATOM     89  C   UNL     1       0.977  -2.843   0.155  1.00  0.00     0.141 C 
ATOM     90  C   UNL     1       0.902  -0.493  -0.283  1.00  0.00     0.119 C 
ATOM     91  N   UNL     1       0.619  -1.811  -0.828  1.00  0.00    -0.369 N 
BRANCH  91  92
ATOM     92  C   UNL     1       0.140  -2.048  -2.089  1.00  0.00     0.038 A 
ATOM     93  C   UNL     1       0.456  -1.218  -3.181  1.00  0.00     0.026 A 
ATOM     94  C   UNL     1      -0.675  -3.154  -2.355  1.00  0.00     0.046 A 
ATOM     95  C   UNL     1       0.007  -1.492  -4.480  1.00  0.00     0.004 A 
ATOM     96  C   UNL     1      -1.149  -3.417  -3.644  1.00  0.00     0.043 A 
ATOM     97  C   UNL     1      -0.802  -2.596  -4.712  1.00  0.00     0.020 A 
ATOM     98  Cl  UNL     1      -2.179  -4.770  -3.911  1.00  0.00    -0.084 Cl
ENDBRANCH  91  92
ENDBRANCH  85  87
ENDBRANCH  79  83
ENDBRANCH  75  77
ENDBRANCH  74  75
ENDBRANCH  73  74
ENDBRANCH   1  73
TORSDOF 17
