REMARK SMILES C[C@H]1[C@H](C(=O)OCCOCCOC(=O)c2ccc(-c3c4nc(c(-c5c(F)c(F)c(F)c(F)c5F)c5ccc([nH]5)c(-c5c(F)c(F)c(F)c(F)c5F)c5nc(c(-c6c(F)c(F)c(F)c(F)c6F)c6ccc3[nH]6)C=C5)C=C4)cc2)CC[N@@H+]1Cc1nnnn1-c1ccccc1
REMARK SMILES IDX 8 1 7 2 6 3 4 4 5 5 3 6 1 7 2 8 80 9 78 10 79 11 81 13 82 14
REMARK SMILES IDX 83 15 86 16 84 17 85 18 87 19 88 20 92 21 89 22 91 23 90 24
REMARK SMILES IDX 9 25 10 26 11 27 12 28 13 29 14 30 15 31 16 32 77 33 17 34
REMARK SMILES IDX 76 35 18 36 19 37 20 38 70 39 21 40 75 41 69 42 71 43 22 44
REMARK SMILES IDX 74 45 68 46 67 47 23 49 55 50 35 51 54 52 36 53 39 54 53 55
REMARK SMILES IDX 72 56 37 57 38 58 52 60 73 61 40 62 24 63 25 64 33 65 26 66
REMARK SMILES IDX 27 67 31 68 34 69 28 70 29 71 32 72 30 73 56 74 57 75 65 76
REMARK SMILES IDX 58 77 59 78 63 79 66 80 60 81 61 82 64 83 62 84 41 85 42 86
REMARK SMILES IDX 50 87 43 88 44 89 48 90 51 91 45 92 46 93 49 94 47 95
REMARK H PARENT 80 12 71 48 39 59
REMARK Flexibility Score: inf
ROOT
ATOM      1  C   UNL     1       0.579   3.934   3.357  1.00  0.00     0.202 C 
ENDROOT
BRANCH   1   2
ATOM      2  C   UNL     1      -0.670   3.627   2.528  1.00  0.00     0.261 C 
BRANCH   2   3
ATOM      3  O   UNL     1      -0.448   2.429   1.766  1.00  0.00    -0.463 OA
BRANCH   3   4
ATOM      4  C   UNL     1      -0.728   2.482   0.447  1.00  0.00     0.315 C 
ATOM      5  O   UNL     1      -1.331   3.396  -0.106  1.00  0.00    -0.252 OA
BRANCH   4   6
ATOM      6  C   UNL     1      -0.185   1.291  -0.322  1.00  0.00     0.162 C 
ATOM      7  C   UNL     1       1.994   0.021  -0.182  1.00  0.00     0.076 C 
ATOM      8  C   UNL     1       0.614   0.231   0.464  1.00  0.00     0.195 C 
ATOM      9  N   UNL     1      -0.115  -1.036   0.321  1.00  0.00    -0.326 N 
ATOM     10  C   UNL     1      -1.343   0.540  -0.962  1.00  0.00     0.083 C 
ATOM     11  C   UNL     1      -0.989  -0.925  -0.835  1.00  0.00     0.263 C 
ATOM     12  H   UNL     1       0.551  -1.784   0.128  1.00  0.00     0.348 HD
BRANCH   9  13
ATOM     13  C   UNL     1      -0.656  -1.631   1.549  1.00  0.00     0.343 C 
BRANCH  13  14
ATOM     14  C   UNL     1      -1.491  -0.780   2.447  1.00  0.00     0.210 A 
ATOM     15  N   UNL     1      -1.051  -0.164   3.532  1.00  0.00    -0.107 NA
ATOM     16  N   UNL     1      -2.817  -0.420   2.266  1.00  0.00    -0.192 N 
ATOM     17  N   UNL     1      -2.062   0.652   3.954  1.00  0.00    -0.023 NA
ATOM     18  N   UNL     1      -3.108   0.564   3.149  1.00  0.00    -0.040 NA
BRANCH  16  19
ATOM     19  C   UNL     1      -3.761  -0.847   1.310  1.00  0.00     0.069 A 
ATOM     20  C   UNL     1      -4.590   0.110   0.710  1.00  0.00     0.028 A 
ATOM     21  C   UNL     1      -3.820  -2.183   0.901  1.00  0.00     0.028 A 
ATOM     22  C   UNL     1      -5.373  -0.250  -0.388  1.00  0.00     0.002 A 
ATOM     23  C   UNL     1      -4.633  -2.541  -0.175  1.00  0.00     0.002 A 
ATOM     24  C   UNL     1      -5.383  -1.570  -0.837  1.00  0.00     0.000 A 
ENDBRANCH  16  19
ENDBRANCH  13  14
ENDBRANCH   9  13
ENDBRANCH   4   6
ENDBRANCH   3   4
ENDBRANCH   2   3
ENDBRANCH   1   2
BRANCH   1  25
ATOM     25  O   UNL     1       1.720   4.367   2.608  1.00  0.00    -0.374 OA
BRANCH  25  26
ATOM     26  C   UNL     1       2.418   3.385   1.844  1.00  0.00     0.202 C 
BRANCH  26  27
ATOM     27  C   UNL     1       3.395   2.491   2.615  1.00  0.00     0.261 C 
BRANCH  27  28
ATOM     28  O   UNL     1       2.747   1.712   3.635  1.00  0.00    -0.460 OA
BRANCH  28  29
ATOM     29  C   UNL     1       3.028   2.115   4.895  1.00  0.00     0.338 C 
ATOM     30  O   UNL     1       3.824   2.987   5.230  1.00  0.00    -0.246 OA
BRANCH  29  31
ATOM     31  C   UNL     1       2.158   1.459   5.885  1.00  0.00     0.060 A 
ATOM     32  C   UNL     1       1.565   2.286   6.846  1.00  0.00     0.016 A 
ATOM     33  C   UNL     1       2.040   0.069   5.975  1.00  0.00     0.016 A 
ATOM     34  C   UNL     1       0.933   1.728   7.952  1.00  0.00     0.010 A 
ATOM     35  C   UNL     1       1.403  -0.492   7.091  1.00  0.00     0.010 A 
ATOM     36  C   UNL     1       0.901   0.337   8.111  1.00  0.00    -0.014 A 
BRANCH  36  37
ATOM     37  C   UNL     1       0.514  -0.209   9.437  1.00  0.00     0.031 A 
ATOM     38  C   UNL     1       1.596  -0.590  10.413  1.00  0.00     0.074 A 
ATOM     39  C   UNL     1      -0.777  -0.266   9.808  1.00  0.00     0.049 A 
ATOM     40  N   UNL     1       1.494  -0.995  11.654  1.00  0.00    -0.248 NA
ATOM     41  C   UNL     1       2.981  -0.498   9.925  1.00  0.00     0.031 C 
ATOM     42  C   UNL     1      -1.912   0.106   8.967  1.00  0.00     0.029 A 
ATOM     43  N   UNL     1      -1.344  -0.643  10.999  1.00  0.00    -0.354 N 
ATOM     44  C   UNL     1       2.795  -1.201  12.093  1.00  0.00     0.074 A 
ATOM     45  C   UNL     1       3.670  -0.915  10.977  1.00  0.00     0.031 C 
ATOM     46  C   UNL     1      -3.045  -0.053   9.674  1.00  0.00     0.029 A 
ATOM     47  C   UNL     1      -2.713  -0.552  11.008  1.00  0.00     0.049 A 
ATOM     48  H   UNL     1      -0.819  -0.950  11.773  1.00  0.00     0.167 HD
ATOM     49  C   UNL     1       3.226  -1.579  13.321  1.00  0.00     0.037 A 
ATOM     50  C   UNL     1      -3.596  -0.839  11.984  1.00  0.00     0.037 A 
ATOM     51  C   UNL     1       2.360  -1.856  14.436  1.00  0.00     0.049 A 
ATOM     52  C   UNL     1      -3.094  -1.298  13.328  1.00  0.00     0.074 A 
ATOM     53  C   UNL     1       2.702  -2.234  15.723  1.00  0.00     0.029 A 
ATOM     54  N   UNL     1       0.976  -1.787  14.394  1.00  0.00    -0.354 N 
ATOM     55  N   UNL     1      -1.861  -1.461  13.742  1.00  0.00    -0.248 NA
ATOM     56  C   UNL     1      -4.111  -1.601  14.345  1.00  0.00     0.031 C 
ATOM     57  C   UNL     1       1.522  -2.435  16.449  1.00  0.00     0.029 A 
ATOM     58  C   UNL     1       0.448  -2.135  15.627  1.00  0.00     0.049 A 
ATOM     59  H   UNL     1       0.447  -1.530  13.605  1.00  0.00     0.167 HD
ATOM     60  C   UNL     1      -1.952  -1.858  15.070  1.00  0.00     0.074 A 
ATOM     61  C   UNL     1      -3.362  -1.895  15.398  1.00  0.00     0.031 C 
ATOM     62  C   UNL     1      -0.958  -2.163  15.940  1.00  0.00     0.037 A 
BRANCH  49  63
ATOM     63  C   UNL     1       4.706  -1.731  13.517  1.00  0.00     0.064 A 
ATOM     64  C   UNL     1       5.558  -0.618  13.583  1.00  0.00     0.173 A 
ATOM     65  C   UNL     1       5.275  -3.004  13.668  1.00  0.00     0.173 A 
ATOM     66  F   UNL     1       5.065   0.620  13.430  1.00  0.00    -0.203 F 
ATOM     67  C   UNL     1       6.929  -0.776  13.770  1.00  0.00     0.198 A 
ATOM     68  C   UNL     1       6.642  -3.157  13.881  1.00  0.00     0.198 A 
ATOM     69  F   UNL     1       4.503  -4.100  13.617  1.00  0.00    -0.203 F 
ATOM     70  F   UNL     1       7.731   0.298  13.787  1.00  0.00    -0.200 F 
ATOM     71  C   UNL     1       7.469  -2.045  13.925  1.00  0.00     0.200 A 
ATOM     72  F   UNL     1       7.161  -4.383  14.042  1.00  0.00    -0.200 F 
ATOM     73  F   UNL     1       8.788  -2.195  14.110  1.00  0.00    -0.200 F 
ENDBRANCH  49  63
BRANCH  50  74
ATOM     74  C   UNL     1      -5.053  -0.691  11.730  1.00  0.00     0.064 A 
ATOM     75  C   UNL     1      -5.801   0.311  12.361  1.00  0.00     0.173 A 
ATOM     76  C   UNL     1      -5.728  -1.565  10.865  1.00  0.00     0.173 A 
ATOM     77  F   UNL     1      -5.205   1.153  13.219  1.00  0.00    -0.203 F 
ATOM     78  C   UNL     1      -7.174   0.423  12.151  1.00  0.00     0.198 A 
ATOM     79  C   UNL     1      -7.095  -1.435  10.635  1.00  0.00     0.198 A 
ATOM     80  F   UNL     1      -5.057  -2.544  10.242  1.00  0.00    -0.203 F 
ATOM     81  F   UNL     1      -7.876   1.360  12.804  1.00  0.00    -0.200 F 
ATOM     82  C   UNL     1      -7.819  -0.446  11.284  1.00  0.00     0.200 A 
ATOM     83  F   UNL     1      -7.713  -2.273   9.791  1.00  0.00    -0.200 F 
ATOM     84  F   UNL     1      -9.139  -0.339  11.083  1.00  0.00    -0.200 F 
ENDBRANCH  50  74
BRANCH  62  85
ATOM     85  C   UNL     1      -1.358  -2.532  17.340  1.00  0.00     0.064 A 
ATOM     86  C   UNL     1      -1.972  -3.759  17.630  1.00  0.00     0.173 A 
ATOM     87  C   UNL     1      -1.098  -1.659  18.407  1.00  0.00     0.173 A 
ATOM     88  F   UNL     1      -2.253  -4.623  16.643  1.00  0.00    -0.203 F 
ATOM     89  C   UNL     1      -2.340  -4.085  18.933  1.00  0.00     0.198 A 
ATOM     90  C   UNL     1      -1.441  -2.000  19.712  1.00  0.00     0.198 A 
ATOM     91  F   UNL     1      -0.505  -0.476  18.184  1.00  0.00    -0.203 F 
ATOM     92  F   UNL     1      -2.971  -5.241  19.180  1.00  0.00    -0.200 F 
ATOM     93  C   UNL     1      -2.069  -3.208  19.973  1.00  0.00     0.200 A 
ATOM     94  F   UNL     1      -1.168  -1.157  20.718  1.00  0.00    -0.200 F 
ATOM     95  F   UNL     1      -2.422  -3.524  21.227  1.00  0.00    -0.200 F 
ENDBRANCH  62  85
ENDBRANCH  36  37
ENDBRANCH  29  31
ENDBRANCH  28  29
ENDBRANCH  27  28
ENDBRANCH  26  27
ENDBRANCH  25  26
ENDBRANCH   1  25
TORSDOF 17
