REMARK SMILES C[C@H](C(=O)OCCOCCOC(=O)c1ccc(-c2c3nc(c(-c4c(F)c(F)c(F)c(F)c4F)c4ccc([nH]4)c(-c4c(F)c(F)c(F)c(F)c4F)c4nc(c(-c5c(F)c(F)c(F)c(F)c5F)c5ccc2[nH]5)C=C4)C=C3)cc1)[C@@H](C(=O)c1ccccc1)c1ccc(F)cc1
REMARK SMILES IDX 7 1 6 2 5 3 3 4 4 5 2 6 1 7 77 8 78 9 79 10 80 11 81 12
REMARK SMILES IDX 85 13 82 14 84 15 83 16 86 17 87 18 92 19 88 20 91 21 89 22
REMARK SMILES IDX 90 23 8 24 9 25 10 26 11 27 12 28 13 29 14 30 15 31 76 32
REMARK SMILES IDX 16 33 75 34 17 35 18 36 19 37 69 38 20 39 74 40 68 41 70 42
REMARK SMILES IDX 21 43 73 44 67 45 66 46 22 48 54 49 34 50 53 51 35 52 38 53
REMARK SMILES IDX 52 54 71 55 36 56 37 57 51 59 72 60 39 61 23 62 24 63 32 64
REMARK SMILES IDX 25 65 26 66 30 67 33 68 27 69 28 70 31 71 29 72 55 73 56 74
REMARK SMILES IDX 64 75 57 76 58 77 62 78 65 79 59 80 60 81 63 82 61 83 40 84
REMARK SMILES IDX 41 85 49 86 42 87 43 88 47 89 50 90 44 91 45 92 48 93 46 94
REMARK H PARENT 70 47 38 58
REMARK Flexibility Score: inf
ROOT
ATOM      1  C   UNL     1       1.368   1.464   2.639  1.00  0.00     0.202 C 
ENDROOT
BRANCH   1   2
ATOM      2  C   UNL     1       1.774   1.450   1.162  1.00  0.00     0.261 C 
BRANCH   2   3
ATOM      3  O   UNL     1       0.965   0.558   0.366  1.00  0.00    -0.463 OA
BRANCH   3   4
ATOM      4  C   UNL     1       1.535   0.232  -0.826  1.00  0.00     0.309 C 
ATOM      5  O   UNL     1       2.578   0.721  -1.248  1.00  0.00    -0.252 OA
BRANCH   4   6
ATOM      6  C   UNL     1       0.830  -0.904  -1.554  1.00  0.00     0.111 C 
ATOM      7  C   UNL     1       1.421  -2.166  -0.901  1.00  0.00     0.021 C 
BRANCH   6   8
ATOM      8  C   UNL     1      -0.732  -0.843  -1.633  1.00  0.00     0.105 C 
BRANCH   8   9
ATOM      9  C   UNL     1      -1.281   0.474  -2.279  1.00  0.00     0.171 C 
ATOM     10  O   UNL     1      -2.226   0.549  -3.064  1.00  0.00    -0.293 OA
BRANCH   9  11
ATOM     11  C   UNL     1      -0.854   1.794  -1.802  1.00  0.00     0.018 A 
ATOM     12  C   UNL     1      -1.709   2.441  -0.916  1.00  0.00     0.012 A 
ATOM     13  C   UNL     1       0.261   2.452  -2.325  1.00  0.00     0.012 A 
ATOM     14  C   UNL     1      -1.405   3.729  -0.500  1.00  0.00     0.001 A 
ATOM     15  C   UNL     1       0.575   3.736  -1.875  1.00  0.00     0.001 A 
ATOM     16  C   UNL     1      -0.261   4.376  -0.961  1.00  0.00     0.000 A 
ENDBRANCH   9  11
ENDBRANCH   8   9
BRANCH   8  17
ATOM     17  C   UNL     1      -1.330  -2.129  -2.299  1.00  0.00    -0.036 A 
ATOM     18  C   UNL     1      -1.911  -2.148  -3.584  1.00  0.00     0.007 A 
ATOM     19  C   UNL     1      -1.307  -3.361  -1.611  1.00  0.00     0.007 A 
ATOM     20  C   UNL     1      -2.453  -3.313  -4.141  1.00  0.00     0.039 A 
ATOM     21  C   UNL     1      -1.769  -4.546  -2.200  1.00  0.00     0.039 A 
ATOM     22  C   UNL     1      -2.352  -4.509  -3.456  1.00  0.00     0.123 A 
ATOM     23  F   UNL     1      -2.821  -5.635  -4.009  1.00  0.00    -0.207 F 
ENDBRANCH   8  17
ENDBRANCH   6   8
ENDBRANCH   4   6
ENDBRANCH   3   4
ENDBRANCH   2   3
ENDBRANCH   1   2
BRANCH   1  24
ATOM     24  O   UNL     1       1.509   0.238   3.353  1.00  0.00    -0.374 OA
BRANCH  24  25
ATOM     25  C   UNL     1       0.755  -0.878   2.895  1.00  0.00     0.202 C 
BRANCH  25  26
ATOM     26  C   UNL     1      -0.763  -0.846   3.125  1.00  0.00     0.261 C 
BRANCH  26  27
ATOM     27  O   UNL     1      -1.434   0.321   2.607  1.00  0.00    -0.460 OA
BRANCH  27  28
ATOM     28  C   UNL     1      -1.917   1.157   3.557  1.00  0.00     0.338 C 
ATOM     29  O   UNL     1      -1.824   1.027   4.777  1.00  0.00    -0.246 OA
BRANCH  28  30
ATOM     30  C   UNL     1      -2.533   2.361   2.971  1.00  0.00     0.060 A 
ATOM     31  C   UNL     1      -2.023   3.615   3.337  1.00  0.00     0.016 A 
ATOM     32  C   UNL     1      -3.704   2.272   2.217  1.00  0.00     0.016 A 
ATOM     33  C   UNL     1      -2.706   4.785   2.988  1.00  0.00     0.010 A 
ATOM     34  C   UNL     1      -4.385   3.446   1.867  1.00  0.00     0.010 A 
ATOM     35  C   UNL     1      -3.912   4.709   2.280  1.00  0.00    -0.014 A 
BRANCH  35  36
ATOM     36  C   UNL     1      -4.766   5.913   2.093  1.00  0.00     0.031 A 
ATOM     37  C   UNL     1      -5.966   6.095   2.982  1.00  0.00     0.074 A 
ATOM     38  C   UNL     1      -4.515   6.825   1.135  1.00  0.00     0.049 A 
ATOM     39  N   UNL     1      -6.886   7.026   2.953  1.00  0.00    -0.248 NA
ATOM     40  C   UNL     1      -6.139   5.109   4.060  1.00  0.00     0.031 C 
ATOM     41  C   UNL     1      -3.354   6.837   0.255  1.00  0.00     0.029 A 
ATOM     42  N   UNL     1      -5.257   7.902   0.712  1.00  0.00    -0.354 N 
ATOM     43  C   UNL     1      -7.726   6.758   4.024  1.00  0.00     0.074 A 
ATOM     44  C   UNL     1      -7.247   5.541   4.645  1.00  0.00     0.031 C 
ATOM     45  C   UNL     1      -3.510   7.791  -0.676  1.00  0.00     0.029 A 
ATOM     46  C   UNL     1      -4.771   8.482  -0.435  1.00  0.00     0.049 A 
ATOM     47  H   UNL     1      -6.058   8.226   1.185  1.00  0.00     0.167 HD
ATOM     48  C   UNL     1      -8.778   7.481   4.473  1.00  0.00     0.037 A 
ATOM     49  C   UNL     1      -5.285   9.452  -1.213  1.00  0.00     0.037 A 
ATOM     50  C   UNL     1      -9.266   8.685   3.854  1.00  0.00     0.049 A 
ATOM     51  C   UNL     1      -6.539  10.157  -0.783  1.00  0.00     0.074 A 
ATOM     52  C   UNL     1     -10.295   9.513   4.266  1.00  0.00     0.029 A 
ATOM     53  N   UNL     1      -8.768   9.222   2.676  1.00  0.00    -0.354 N 
ATOM     54  N   UNL     1      -7.282   9.944   0.275  1.00  0.00    -0.248 NA
ATOM     55  C   UNL     1      -7.002  11.265  -1.629  1.00  0.00     0.031 C 
ATOM     56  C   UNL     1     -10.452  10.525   3.312  1.00  0.00     0.029 A 
ATOM     57  C   UNL     1      -9.492  10.352   2.328  1.00  0.00     0.049 A 
ATOM     58  H   UNL     1      -8.012   8.855   2.163  1.00  0.00     0.167 HD
ATOM     59  C   UNL     1      -8.265  10.922   0.253  1.00  0.00     0.074 A 
ATOM     60  C   UNL     1      -8.034  11.721  -0.932  1.00  0.00     0.031 C 
ATOM     61  C   UNL     1      -9.254  11.148   1.152  1.00  0.00     0.037 A 
BRANCH  48  62
ATOM     62  C   UNL     1      -9.470   6.988   5.708  1.00  0.00     0.064 A 
ATOM     63  C   UNL     1      -8.869   7.098   6.972  1.00  0.00     0.173 A 
ATOM     64  C   UNL     1     -10.754   6.431   5.635  1.00  0.00     0.173 A 
ATOM     65  F   UNL     1      -7.636   7.613   7.091  1.00  0.00    -0.203 F 
ATOM     66  C   UNL     1      -9.521   6.646   8.115  1.00  0.00     0.198 A 
ATOM     67  C   UNL     1     -11.413   6.002   6.784  1.00  0.00     0.198 A 
ATOM     68  F   UNL     1     -11.371   6.307   4.450  1.00  0.00    -0.203 F 
ATOM     69  F   UNL     1      -8.913   6.723   9.307  1.00  0.00    -0.200 F 
ATOM     70  C   UNL     1     -10.794   6.104   8.021  1.00  0.00     0.200 A 
ATOM     71  F   UNL     1     -12.646   5.485   6.693  1.00  0.00    -0.200 F 
ATOM     72  F   UNL     1     -11.423   5.672   9.123  1.00  0.00    -0.200 F 
ENDBRANCH  48  62
BRANCH  49  73
ATOM     73  C   UNL     1      -4.595   9.826  -2.472  1.00  0.00     0.064 A 
ATOM     74  C   UNL     1      -3.870  11.020  -2.575  1.00  0.00     0.173 A 
ATOM     75  C   UNL     1      -4.646   8.990  -3.597  1.00  0.00     0.173 A 
ATOM     76  F   UNL     1      -3.811  11.858  -1.530  1.00  0.00    -0.203 F 
ATOM     77  C   UNL     1      -3.233  11.372  -3.763  1.00  0.00     0.198 A 
ATOM     78  C   UNL     1      -3.994   9.334  -4.779  1.00  0.00     0.198 A 
ATOM     79  F   UNL     1      -5.329   7.837  -3.545  1.00  0.00    -0.203 F 
ATOM     80  F   UNL     1      -2.573  12.535  -3.847  1.00  0.00    -0.200 F 
ATOM     81  C   UNL     1      -3.292  10.527  -4.862  1.00  0.00     0.200 A 
ATOM     82  F   UNL     1      -4.048   8.514  -5.837  1.00  0.00    -0.200 F 
ATOM     83  F   UNL     1      -2.677  10.867  -6.003  1.00  0.00    -0.200 F 
ENDBRANCH  49  73
BRANCH  61  84
ATOM     84  C   UNL     1     -10.134  12.339   0.919  1.00  0.00     0.064 A 
ATOM     85  C   UNL     1     -11.104  12.353  -0.093  1.00  0.00     0.173 A 
ATOM     86  C   UNL     1     -10.024  13.471   1.741  1.00  0.00     0.173 A 
ATOM     87  F   UNL     1     -11.234  11.302  -0.917  1.00  0.00    -0.203 F 
ATOM     88  C   UNL     1     -11.917  13.466  -0.288  1.00  0.00     0.198 A 
ATOM     89  C   UNL     1     -10.856  14.572   1.560  1.00  0.00     0.198 A 
ATOM     90  F   UNL     1      -9.113  13.506   2.725  1.00  0.00    -0.203 F 
ATOM     91  F   UNL     1     -12.807  13.476  -1.290  1.00  0.00    -0.200 F 
ATOM     92  C   UNL     1     -11.798  14.571   0.542  1.00  0.00     0.200 A 
ATOM     93  F   UNL     1     -10.746  15.634   2.370  1.00  0.00    -0.200 F 
ATOM     94  F   UNL     1     -12.585  15.639   0.356  1.00  0.00    -0.200 F 
ENDBRANCH  61  84
ENDBRANCH  35  36
ENDBRANCH  28  30
ENDBRANCH  27  28
ENDBRANCH  26  27
ENDBRANCH  25  26
ENDBRANCH  24  25
ENDBRANCH   1  24
TORSDOF 18
