REMARK SMILES C[C@H]1[C@H](C(=O)OCCOCCOC(=O)c2ccc(-c3c4nc(c(-c5c(F)c(F)c(F)c(F)c5F)c5ccc([nH]5)c(-c5c(F)c(F)c(F)c(F)c5F)c5nc(c(-c6c(F)c(F)c(F)c(F)c6F)c6ccc3[nH]6)C=C5)C=C4)cc2)CC[N@@H+]1Cc1cnn(-c2ccccc2)c1
REMARK SMILES IDX 8 1 7 2 6 3 4 4 5 5 3 6 1 7 2 8 80 9 78 10 79 11 81 13 82 14
REMARK SMILES IDX 83 15 92 16 84 17 85 18 86 19 87 20 91 21 88 22 90 23 89 24
REMARK SMILES IDX 9 25 10 26 11 27 12 28 13 29 14 30 15 31 16 32 77 33 17 34
REMARK SMILES IDX 76 35 18 36 19 37 20 38 70 39 21 40 75 41 69 42 71 43 22 44
REMARK SMILES IDX 74 45 68 46 67 47 23 49 55 50 35 51 54 52 36 53 39 54 53 55
REMARK SMILES IDX 72 56 37 57 38 58 52 60 73 61 40 62 24 63 25 64 33 65 26 66
REMARK SMILES IDX 27 67 31 68 34 69 28 70 29 71 32 72 30 73 56 74 57 75 65 76
REMARK SMILES IDX 58 77 59 78 63 79 66 80 60 81 61 82 64 83 62 84 41 85 42 86
REMARK SMILES IDX 50 87 43 88 44 89 48 90 51 91 45 92 46 93 49 94 47 95
REMARK H PARENT 80 12 71 48 39 59
REMARK Flexibility Score: inf
ROOT
ATOM      1  C   UNL     1       0.616   3.794   3.385  1.00  0.00     0.202 C 
ENDROOT
BRANCH   1   2
ATOM      2  C   UNL     1      -0.684   3.650   2.584  1.00  0.00     0.261 C 
BRANCH   2   3
ATOM      3  O   UNL     1      -0.649   2.436   1.808  1.00  0.00    -0.463 OA
BRANCH   3   4
ATOM      4  C   UNL     1      -0.794   2.564   0.465  1.00  0.00     0.315 C 
ATOM      5  O   UNL     1      -1.093   3.605  -0.109  1.00  0.00    -0.252 OA
BRANCH   4   6
ATOM      6  C   UNL     1      -0.563   1.268  -0.284  1.00  0.00     0.162 C 
ATOM      7  C   UNL     1       1.679   0.095  -0.409  1.00  0.00     0.076 C 
ATOM      8  C   UNL     1       0.369   0.238   0.380  1.00  0.00     0.195 C 
ATOM      9  N   UNL     1      -0.324  -1.056   0.316  1.00  0.00    -0.328 N 
ATOM     10  C   UNL     1      -1.878   0.541  -0.503  1.00  0.00     0.083 C 
ATOM     11  C   UNL     1      -1.484  -0.921  -0.557  1.00  0.00     0.263 C 
ATOM     12  H   UNL     1       0.308  -1.736  -0.107  1.00  0.00     0.348 HD
BRANCH   9  13
ATOM     13  C   UNL     1      -0.548  -1.729   1.596  1.00  0.00     0.302 C 
BRANCH  13  14
ATOM     14  C   UNL     1      -1.435  -1.001   2.550  1.00  0.00     0.045 A 
ATOM     15  C   UNL     1      -2.843  -1.019   2.612  1.00  0.00     0.145 A 
ATOM     16  C   UNL     1      -1.082  -0.227   3.640  1.00  0.00     0.124 A 
ATOM     17  N   UNL     1      -3.333  -0.339   3.647  1.00  0.00    -0.176 NA
ATOM     18  N   UNL     1      -2.245   0.198   4.251  1.00  0.00    -0.240 N 
BRANCH  18  19
ATOM     19  C   UNL     1      -2.389   1.089   5.351  1.00  0.00     0.065 A 
ATOM     20  C   UNL     1      -3.627   1.207   5.999  1.00  0.00     0.028 A 
ATOM     21  C   UNL     1      -1.316   1.870   5.789  1.00  0.00     0.028 A 
ATOM     22  C   UNL     1      -3.778   2.093   7.071  1.00  0.00     0.002 A 
ATOM     23  C   UNL     1      -1.484   2.786   6.832  1.00  0.00     0.002 A 
ATOM     24  C   UNL     1      -2.709   2.887   7.482  1.00  0.00     0.000 A 
ENDBRANCH  18  19
ENDBRANCH  13  14
ENDBRANCH   9  13
ENDBRANCH   4   6
ENDBRANCH   3   4
ENDBRANCH   2   3
ENDBRANCH   1   2
BRANCH   1  25
ATOM     25  O   UNL     1       1.761   4.185   2.624  1.00  0.00    -0.374 OA
BRANCH  25  26
ATOM     26  C   UNL     1       2.368   3.168   1.831  1.00  0.00     0.202 C 
BRANCH  26  27
ATOM     27  C   UNL     1       3.379   2.267   2.551  1.00  0.00     0.261 C 
BRANCH  27  28
ATOM     28  O   UNL     1       2.812   1.564   3.675  1.00  0.00    -0.460 OA
BRANCH  28  29
ATOM     29  C   UNL     1       3.215   2.027   4.884  1.00  0.00     0.338 C 
ATOM     30  O   UNL     1       4.007   2.934   5.093  1.00  0.00    -0.246 OA
BRANCH  29  31
ATOM     31  C   UNL     1       2.475   1.369   5.986  1.00  0.00     0.060 A 
ATOM     32  C   UNL     1       2.142   2.165   7.088  1.00  0.00     0.016 A 
ATOM     33  C   UNL     1       2.144   0.008   5.985  1.00  0.00     0.016 A 
ATOM     34  C   UNL     1       1.502   1.605   8.193  1.00  0.00     0.010 A 
ATOM     35  C   UNL     1       1.505  -0.557   7.103  1.00  0.00     0.010 A 
ATOM     36  C   UNL     1       1.201   0.235   8.222  1.00  0.00    -0.014 A 
BRANCH  36  37
ATOM     37  C   UNL     1       0.759  -0.349   9.517  1.00  0.00     0.031 A 
ATOM     38  C   UNL     1       1.810  -0.694  10.528  1.00  0.00     0.074 A 
ATOM     39  C   UNL     1      -0.540  -0.484   9.839  1.00  0.00     0.049 A 
ATOM     40  N   UNL     1       1.678  -1.028  11.785  1.00  0.00    -0.248 NA
ATOM     41  C   UNL     1       3.200  -0.665  10.049  1.00  0.00     0.031 C 
ATOM     42  C   UNL     1      -1.650  -0.230   8.937  1.00  0.00     0.029 A 
ATOM     43  N   UNL     1      -1.147  -0.837  11.021  1.00  0.00    -0.354 N 
ATOM     44  C   UNL     1       2.966  -1.240  12.250  1.00  0.00     0.074 A 
ATOM     45  C   UNL     1       3.864  -1.023  11.136  1.00  0.00     0.031 C 
ATOM     46  C   UNL     1      -2.808  -0.366   9.605  1.00  0.00     0.029 A 
ATOM     47  C   UNL     1      -2.520  -0.748  10.984  1.00  0.00     0.049 A 
ATOM     48  H   UNL     1      -0.647  -1.126  11.818  1.00  0.00     0.167 HD
ATOM     49  C   UNL     1       3.365  -1.590  13.495  1.00  0.00     0.037 A 
ATOM     50  C   UNL     1      -3.436  -0.942  11.954  1.00  0.00     0.037 A 
ATOM     51  C   UNL     1       2.470  -1.862  14.587  1.00  0.00     0.049 A 
ATOM     52  C   UNL     1      -2.964  -1.343  13.330  1.00  0.00     0.074 A 
ATOM     53  C   UNL     1       2.776  -2.256  15.878  1.00  0.00     0.029 A 
ATOM     54  N   UNL     1       1.086  -1.790  14.509  1.00  0.00    -0.354 N 
ATOM     55  N   UNL     1      -1.741  -1.486  13.779  1.00  0.00    -0.248 NA
ATOM     56  C   UNL     1      -4.004  -1.619  14.333  1.00  0.00     0.031 C 
ATOM     57  C   UNL     1       1.576  -2.474  16.564  1.00  0.00     0.029 A 
ATOM     58  C   UNL     1       0.523  -2.152  15.723  1.00  0.00     0.049 A 
ATOM     59  H   UNL     1       0.579  -1.520  13.709  1.00  0.00     0.167 HD
ATOM     60  C   UNL     1      -1.863  -1.857  15.112  1.00  0.00     0.074 A 
ATOM     61  C   UNL     1      -3.279  -1.878  15.411  1.00  0.00     0.031 C 
ATOM     62  C   UNL     1      -0.890  -2.168  16.005  1.00  0.00     0.037 A 
BRANCH  49  63
ATOM     63  C   UNL     1       4.840  -1.749  13.708  1.00  0.00     0.064 A 
ATOM     64  C   UNL     1       5.707  -0.644  13.711  1.00  0.00     0.173 A 
ATOM     65  C   UNL     1       5.398  -3.024  13.880  1.00  0.00     0.173 A 
ATOM     66  F   UNL     1       5.223   0.593  13.524  1.00  0.00    -0.203 F 
ATOM     67  C   UNL     1       7.082  -0.815  13.845  1.00  0.00     0.198 A 
ATOM     68  C   UNL     1       6.771  -3.188  14.043  1.00  0.00     0.198 A 
ATOM     69  F   UNL     1       4.614  -4.112  13.877  1.00  0.00    -0.203 F 
ATOM     70  F   UNL     1       7.896   0.247  13.780  1.00  0.00    -0.200 F 
ATOM     71  C   UNL     1       7.612  -2.085  14.014  1.00  0.00     0.200 A 
ATOM     72  F   UNL     1       7.281  -4.415  14.211  1.00  0.00    -0.200 F 
ATOM     73  F   UNL     1       8.936  -2.249  14.135  1.00  0.00    -0.200 F 
ENDBRANCH  49  63
BRANCH  50  74
ATOM     74  C   UNL     1      -4.890  -0.755  11.683  1.00  0.00     0.064 A 
ATOM     75  C   UNL     1      -5.625   0.247  12.336  1.00  0.00     0.173 A 
ATOM     76  C   UNL     1      -5.589  -1.602  10.810  1.00  0.00     0.173 A 
ATOM     77  F   UNL     1      -5.015   1.068  13.203  1.00  0.00    -0.203 F 
ATOM     78  C   UNL     1      -7.002   0.374  12.150  1.00  0.00     0.198 A 
ATOM     79  C   UNL     1      -6.959  -1.451  10.597  1.00  0.00     0.198 A 
ATOM     80  F   UNL     1      -4.942  -2.582  10.163  1.00  0.00    -0.203 F 
ATOM     81  F   UNL     1      -7.687   1.297  12.839  1.00  0.00    -0.200 F 
ATOM     82  C   UNL     1      -7.667  -0.472  11.276  1.00  0.00     0.200 A 
ATOM     83  F   UNL     1      -7.595  -2.264   9.742  1.00  0.00    -0.200 F 
ATOM     84  F   UNL     1      -8.990  -0.353  11.101  1.00  0.00    -0.200 F 
ENDBRANCH  50  74
BRANCH  62  85
ATOM     85  C   UNL     1      -1.325  -2.533  17.396  1.00  0.00     0.064 A 
ATOM     86  C   UNL     1      -2.002  -3.731  17.670  1.00  0.00     0.173 A 
ATOM     87  C   UNL     1      -1.035  -1.684  18.476  1.00  0.00     0.173 A 
ATOM     88  F   UNL     1      -2.315  -4.573  16.673  1.00  0.00    -0.203 F 
ATOM     89  C   UNL     1      -2.404  -4.048  18.965  1.00  0.00     0.198 A 
ATOM     90  C   UNL     1      -1.407  -2.020  19.774  1.00  0.00     0.198 A 
ATOM     91  F   UNL     1      -0.382  -0.529  18.272  1.00  0.00    -0.203 F 
ATOM     92  F   UNL     1      -3.101  -5.170  19.193  1.00  0.00    -0.200 F 
ATOM     93  C   UNL     1      -2.100  -3.196  20.017  1.00  0.00     0.200 A 
ATOM     94  F   UNL     1      -1.098  -1.203  20.791  1.00  0.00    -0.200 F 
ATOM     95  F   UNL     1      -2.484  -3.504  21.263  1.00  0.00    -0.200 F 
ENDBRANCH  62  85
ENDBRANCH  36  37
ENDBRANCH  29  31
ENDBRANCH  28  29
ENDBRANCH  27  28
ENDBRANCH  26  27
ENDBRANCH  25  26
ENDBRANCH   1  25
TORSDOF 17
