REMARK SMILES COc1c(C)cccc1C(=O)NC(=S)Nc1ccc(C(=O)OCCOCCOC(=O)c2ccc(-c3c4nc(c(-c5c(F)c(F)c(F)c(F)c5F)c5ccc([nH]5)c(-c5c(F)c(F)c(F)c(F)c5F)c5nc(c(-c6c(F)c(F)c(F)c(F)c6F)c6ccc3[nH]6)C=C5)C=C4)cc2)cc1C
REMARK SMILES IDX 23 1 22 2 20 3 21 4 19 5 16 6 17 7 95 8 18 9 94 10 96 11
REMARK SMILES IDX 15 12 13 14 14 15 12 16 10 17 11 18 9 20 3 21 4 22 5 23 6 24
REMARK SMILES IDX 8 25 7 26 2 27 1 28 24 29 25 30 26 31 27 32 28 33 29 34
REMARK SMILES IDX 30 35 31 36 32 37 93 38 33 39 92 40 34 41 35 42 36 43 86 44
REMARK SMILES IDX 37 45 91 46 85 47 87 48 38 49 90 50 84 51 83 52 39 54 71 55
REMARK SMILES IDX 51 56 70 57 52 58 55 59 69 60 88 61 53 62 54 63 68 65 89 66
REMARK SMILES IDX 56 67 40 68 41 69 49 70 42 71 43 72 47 73 50 74 44 75 45 76
REMARK SMILES IDX 48 77 46 78 72 79 73 80 81 81 74 82 75 83 79 84 82 85 76 86
REMARK SMILES IDX 77 87 80 88 78 89 57 90 58 91 66 92 59 93 60 94 64 95 67 96
REMARK SMILES IDX 61 97 62 98 65 99 63 100
REMARK H PARENT 15 13 12 19 87 53 55 64
REMARK Flexibility Score: inf
ROOT
ATOM      1  C   UNL     1       1.002   1.937  -7.217  1.00  0.00     0.261 C 
ENDROOT
BRANCH   1   2
ATOM      2  O   UNL     1       0.523   0.880  -6.378  1.00  0.00    -0.460 OA
BRANCH   2   3
ATOM      3  C   UNL     1       1.241  -0.262  -6.277  1.00  0.00     0.338 C 
ATOM      4  O   UNL     1       2.005  -0.834  -7.022  1.00  0.00    -0.246 OA
BRANCH   3   5
ATOM      5  C   UNL     1       1.111  -0.573  -4.882  1.00  0.00     0.060 A 
ATOM      6  C   UNL     1       1.623  -0.991  -0.782  1.00  0.00     0.043 A 
ATOM      7  C   UNL     1       1.223   0.805  -1.631  1.00  0.00     0.027 A 
ATOM      8  C   UNL     1       1.861  -2.423  -2.120  1.00  0.00    -0.027 A 
ATOM      9  C   UNL     1       0.944   0.918  -3.576  1.00  0.00     0.018 A 
ATOM     10  C   UNL     1       1.626  -2.288  -4.063  1.00  0.00     0.021 A 
ATOM     11  C   UNL     1       2.787  -3.537  -1.645  1.00  0.00     0.046 C 
BRANCH   6  12
ATOM     12  N   UNL     1       0.865  -1.527   0.355  1.00  0.00    -0.332 N 
ATOM     13  H   UNL     1       1.310  -1.374   1.220  1.00  0.00     0.169 HD
BRANCH  12  14
ATOM     14  C   UNL     1      -0.340  -2.201   0.477  1.00  0.00     0.177 C 
ATOM     15  S   UNL     1      -0.680  -2.854   1.990  1.00  0.00    -0.040 S 
BRANCH  14  16
ATOM     16  N   UNL     1      -1.361  -2.325  -0.468  1.00  0.00    -0.299 N 
ATOM     17  C   UNL     1      -1.584  -2.046  -1.834  1.00  0.00     0.261 C 
ATOM     18  O   UNL     1      -2.658  -2.094  -2.410  1.00  0.00    -0.269 OA
ATOM     19  H   UNL     1      -2.163  -2.724  -0.060  1.00  0.00     0.172 HD
BRANCH  17  20
ATOM     20  C   UNL     1      -0.356  -1.758  -2.476  1.00  0.00     0.082 A 
ATOM     21  C   UNL     1       0.459  -0.820  -2.168  1.00  0.00     0.134 A 
ATOM     22  C   UNL     1       2.470  -0.415  -2.345  1.00  0.00    -0.008 A 
ATOM     23  C   UNL     1       3.469   0.603  -1.191  1.00  0.00     0.048 C 
ATOM     24  C   UNL     1       3.502  -0.786  -3.033  1.00  0.00     0.007 A 
ATOM     25  C   UNL     1       0.354  -1.036  -3.235  1.00  0.00     0.018 A 
ATOM     26  C   UNL     1       2.319  -0.568  -3.454  1.00  0.00     0.001 A 
BRANCH  21  27
ATOM     27  O   UNL     1      -0.740   0.161  -1.404  1.00  0.00    -0.496 OA
ATOM     28  C   UNL     1      -0.749   0.747  -0.066  1.00  0.00     0.278 C 
ENDBRANCH  21  27
ENDBRANCH  17  20
ENDBRANCH  14  16
ENDBRANCH  12  14
ENDBRANCH   6  12
ENDBRANCH   3   5
ENDBRANCH   2   3
ENDBRANCH   1   2
BRANCH   1  29
ATOM     29  C   UNL     1       2.251   2.544  -6.658  1.00  0.00     0.202 C 
BRANCH  29  30
ATOM     30  O   UNL     1       3.258   1.562  -6.822  1.00  0.00    -0.374 OA
BRANCH  30  31
ATOM     31  C   UNL     1       4.551   1.903  -6.376  1.00  0.00     0.202 C 
BRANCH  31  32
ATOM     32  C   UNL     1       5.060   3.200  -7.014  1.00  0.00     0.261 C 
BRANCH  32  33
ATOM     33  O   UNL     1       5.242   3.005  -8.439  1.00  0.00    -0.460 OA
BRANCH  33  34
ATOM     34  C   UNL     1       4.237   3.422  -9.265  1.00  0.00     0.338 C 
ATOM     35  O   UNL     1       3.795   4.558  -9.309  1.00  0.00    -0.246 OA
BRANCH  34  36
ATOM     36  C   UNL     1       3.591   2.247  -9.933  1.00  0.00     0.060 A 
ATOM     37  C   UNL     1       2.365   2.380 -10.619  1.00  0.00     0.016 A 
ATOM     38  C   UNL     1       4.041   0.979  -9.594  1.00  0.00     0.016 A 
ATOM     39  C   UNL     1       1.517   1.265 -10.790  1.00  0.00     0.010 A 
ATOM     40  C   UNL     1       3.151  -0.074  -9.644  1.00  0.00     0.010 A 
ATOM     41  C   UNL     1       1.861   0.056 -10.194  1.00  0.00    -0.014 A 
BRANCH  41  42
ATOM     42  C   UNL     1       0.972  -1.096  -9.932  1.00  0.00     0.031 A 
ATOM     43  C   UNL     1       1.481  -2.442 -10.296  1.00  0.00     0.074 A 
ATOM     44  C   UNL     1      -0.060  -1.008  -9.046  1.00  0.00     0.049 A 
ATOM     45  N   UNL     1       0.882  -3.533  -9.989  1.00  0.00    -0.248 NA
ATOM     46  C   UNL     1       2.706  -2.689 -11.057  1.00  0.00     0.031 C 
ATOM     47  C   UNL     1      -0.558  -2.048  -8.124  1.00  0.00     0.029 A 
ATOM     48  N   UNL     1      -0.838   0.096  -8.675  1.00  0.00    -0.354 N 
ATOM     49  C   UNL     1       1.742  -4.579 -10.190  1.00  0.00     0.074 A 
ATOM     50  C   UNL     1       2.823  -4.019 -10.958  1.00  0.00     0.031 C 
ATOM     51  C   UNL     1      -1.675  -1.626  -7.506  1.00  0.00     0.029 A 
ATOM     52  C   UNL     1      -2.052  -0.375  -8.129  1.00  0.00     0.049 A 
ATOM     53  H   UNL     1      -0.581   1.041  -8.777  1.00  0.00     0.167 HD
ATOM     54  C   UNL     1       1.433  -5.762  -9.588  1.00  0.00     0.037 A 
ATOM     55  C   UNL     1      -3.212  -0.065  -8.766  1.00  0.00     0.037 A 
ATOM     56  C   UNL     1       0.066  -5.708  -9.028  1.00  0.00     0.049 A 
ATOM     57  C   UNL     1      -3.729  -1.309  -9.450  1.00  0.00     0.074 A 
ATOM     58  C   UNL     1      -0.498  -5.689  -7.766  1.00  0.00     0.029 A 
ATOM     59  N   UNL     1      -0.962  -5.341  -9.891  1.00  0.00    -0.354 N 
ATOM     60  N   UNL     1      -3.126  -2.464  -9.349  1.00  0.00    -0.248 NA
ATOM     61  C   UNL     1      -4.902  -1.391 -10.303  1.00  0.00     0.031 C 
ATOM     62  C   UNL     1      -1.870  -5.270  -7.901  1.00  0.00     0.029 A 
ATOM     63  C   UNL     1      -2.153  -5.083  -9.245  1.00  0.00     0.049 A 
ATOM     64  H   UNL     1      -0.850  -5.272 -10.867  1.00  0.00     0.167 HD
ATOM     65  C   UNL     1      -3.758  -3.421 -10.063  1.00  0.00     0.074 A 
ATOM     66  C   UNL     1      -4.845  -2.679 -10.699  1.00  0.00     0.031 C 
ATOM     67  C   UNL     1      -3.324  -4.722 -10.055  1.00  0.00     0.037 A 
BRANCH  54  68
ATOM     68  C   UNL     1       2.359  -6.951  -9.437  1.00  0.00     0.064 A 
ATOM     69  C   UNL     1       1.858  -8.172  -8.934  1.00  0.00     0.173 A 
ATOM     70  C   UNL     1       3.750  -6.949  -9.685  1.00  0.00     0.173 A 
ATOM     71  F   UNL     1       0.558  -8.319  -8.644  1.00  0.00    -0.203 F 
ATOM     72  C   UNL     1       2.676  -9.284  -8.700  1.00  0.00     0.198 A 
ATOM     73  C   UNL     1       4.558  -8.077  -9.496  1.00  0.00     0.198 A 
ATOM     74  F   UNL     1       4.406  -5.849 -10.067  1.00  0.00    -0.203 F 
ATOM     75  F   UNL     1       2.147 -10.400  -8.177  1.00  0.00    -0.200 F 
ATOM     76  C   UNL     1       4.023  -9.242  -8.992  1.00  0.00     0.200 A 
ATOM     77  F   UNL     1       5.866  -8.014  -9.786  1.00  0.00    -0.200 F 
ATOM     78  F   UNL     1       4.806 -10.307  -8.771  1.00  0.00    -0.200 F 
ENDBRANCH  54  68
BRANCH  55  79
ATOM     79  C   UNL     1      -3.147   1.368  -9.222  1.00  0.00     0.064 A 
ATOM     80  C   UNL     1      -3.044   2.333  -8.184  1.00  0.00     0.173 A 
ATOM     81  C   UNL     1      -2.570   1.705 -10.455  1.00  0.00     0.173 A 
ATOM     82  F   UNL     1      -3.555   2.069  -6.971  1.00  0.00    -0.203 F 
ATOM     83  C   UNL     1      -2.230   3.461  -8.313  1.00  0.00     0.198 A 
ATOM     84  C   UNL     1      -1.770   2.851 -10.581  1.00  0.00     0.198 A 
ATOM     85  F   UNL     1      -2.612   0.839 -11.477  1.00  0.00    -0.203 F 
ATOM     86  F   UNL     1      -1.977   4.233  -7.244  1.00  0.00    -0.200 F 
ATOM     87  C   UNL     1      -1.554   3.690  -9.496  1.00  0.00     0.200 A 
ATOM     88  F   UNL     1      -1.097   3.075 -11.720  1.00  0.00    -0.200 F 
ATOM     89  F   UNL     1      -0.630   4.662  -9.564  1.00  0.00    -0.200 F 
ENDBRANCH  55  79
BRANCH  67  90
ATOM     90  C   UNL     1      -3.973  -5.774 -10.908  1.00  0.00     0.064 A 
ATOM     91  C   UNL     1      -5.352  -5.796 -11.143  1.00  0.00     0.173 A 
ATOM     92  C   UNL     1      -3.230  -6.808 -11.521  1.00  0.00     0.173 A 
ATOM     93  F   UNL     1      -6.184  -5.007 -10.448  1.00  0.00    -0.203 F 
ATOM     94  C   UNL     1      -5.914  -6.645 -12.092  1.00  0.00     0.198 A 
ATOM     95  C   UNL     1      -3.806  -7.707 -12.408  1.00  0.00     0.198 A 
ATOM     96  F   UNL     1      -1.918  -6.978 -11.316  1.00  0.00    -0.203 F 
ATOM     97  F   UNL     1      -7.215  -6.530 -12.391  1.00  0.00    -0.200 F 
ATOM     98  C   UNL     1      -5.138  -7.589 -12.736  1.00  0.00     0.200 A 
ATOM     99  F   UNL     1      -3.048  -8.661 -12.966  1.00  0.00    -0.200 F 
ATOM    100  F   UNL     1      -5.672  -8.391 -13.665  1.00  0.00    -0.200 F 
ENDBRANCH  67  90
ENDBRANCH  41  42
ENDBRANCH  34  36
ENDBRANCH  33  34
ENDBRANCH  32  33
ENDBRANCH  31  32
ENDBRANCH  30  31
ENDBRANCH  29  30
ENDBRANCH   1  29
TORSDOF 19
