REMARK SMILES C[C@@H](C(=O)OCCOCCOC(=O)c1ccc(-c2c3nc(c(-c4c(F)c(F)c(F)c(F)c4F)c4ccc([nH]4)c(-c4c(F)c(F)c(F)c(F)c4F)c4nc(c(-c5c(F)c(F)c(F)c(F)c5F)c5ccc2[nH]5)C=C4)C=C3)cc1)[N@@H+]1CCc2n[nH]c(C(c3ccccc3)c3ccccc3)c2C1
REMARK SMILES IDX 7 1 6 2 5 3 3 4 4 5 2 6 1 7 77 8 78 9 98 10 79 12 97 13
REMARK SMILES IDX 80 14 83 15 81 16 82 17 84 19 85 20 86 21 90 22 87 23 89 24
REMARK SMILES IDX 88 25 91 26 92 27 96 28 93 29 95 30 94 31 8 32 9 33 10 34
REMARK SMILES IDX 11 35 12 36 13 37 14 38 15 39 76 40 16 41 75 42 17 43 18 44
REMARK SMILES IDX 19 45 69 46 20 47 74 48 68 49 70 50 21 51 73 52 67 53 66 54
REMARK SMILES IDX 22 56 54 57 34 58 53 59 35 60 38 61 52 62 71 63 36 64 37 65
REMARK SMILES IDX 51 67 72 68 39 69 23 70 24 71 32 72 25 73 26 74 30 75 33 76
REMARK SMILES IDX 27 77 28 78 31 79 29 80 55 81 56 82 64 83 57 84 58 85 62 86
REMARK SMILES IDX 65 87 59 88 60 89 63 90 61 91 40 92 41 93 49 94 42 95 43 96
REMARK SMILES IDX 47 97 50 98 44 99 45 100 48 101 46 102
REMARK H PARENT 77 11 82 18 70 55 38 66
REMARK Flexibility Score: inf
ROOT
ATOM      1  C   UNL     1       0.156  -5.653  -0.262  1.00  0.00     0.202 C 
ENDROOT
BRANCH   1   2
ATOM      2  C   UNL     1       0.221  -5.065  -1.772  1.00  0.00     0.261 C 
BRANCH   2   3
ATOM      3  O   UNL     1       0.951  -3.819  -1.928  1.00  0.00    -0.459 OA
BRANCH   3   4
ATOM      4  C   UNL     1       0.471  -2.895  -2.816  1.00  0.00     0.364 C 
ATOM      5  O   UNL     1       0.223  -3.175  -3.985  1.00  0.00    -0.245 OA
BRANCH   4   6
ATOM      6  C   UNL     1       0.275  -1.448  -2.216  1.00  0.00     0.292 C 
ATOM      7  C   UNL     1       1.551  -0.593  -2.313  1.00  0.00     0.088 C 
BRANCH   6   8
ATOM      8  N   UNL     1      -0.488  -1.428  -0.920  1.00  0.00    -0.319 N 
ATOM      9  C   UNL     1      -0.468  -0.160  -0.160  1.00  0.00     0.269 C 
ATOM     10  C   UNL     1      -0.143  -2.531  -0.006  1.00  0.00     0.303 C 
ATOM     11  H   UNL     1      -1.441  -1.549  -1.263  1.00  0.00     0.349 HD
ATOM     12  C   UNL     1       0.552  -0.110   1.028  1.00  0.00     0.120 C 
ATOM     13  C   UNL     1       1.343  -2.436   0.354  1.00  0.00     0.052 A 
ATOM     14  C   UNL     1       1.640  -1.138   0.850  1.00  0.00     0.077 A 
ATOM     15  C   UNL     1       2.568  -3.193   0.435  1.00  0.00     0.056 A 
ATOM     16  N   UNL     1       2.938  -0.963   1.034  1.00  0.00    -0.180 NA
ATOM     17  N   UNL     1       3.463  -2.150   0.664  1.00  0.00    -0.281 N 
ATOM     18  H   UNL     1       4.434  -2.274   0.560  1.00  0.00     0.190 HD
BRANCH  15  19
ATOM     19  C   UNL     1       3.258  -4.761   0.308  1.00  0.00     0.098 C 
BRANCH  19  20
ATOM     20  C   UNL     1       3.331  -5.899   1.477  1.00  0.00    -0.035 A 
ATOM     21  C   UNL     1       4.585  -6.334   1.965  1.00  0.00     0.005 A 
ATOM     22  C   UNL     1       2.308  -6.726   1.948  1.00  0.00     0.005 A 
ATOM     23  C   UNL     1       4.728  -7.143   3.114  1.00  0.00     0.000 A 
ATOM     24  C   UNL     1       2.409  -7.568   3.072  1.00  0.00     0.000 A 
ATOM     25  C   UNL     1       3.618  -7.712   3.712  1.00  0.00     0.000 A 
ENDBRANCH  19  20
BRANCH  19  26
ATOM     26  C   UNL     1       3.529  -5.359  -1.087  1.00  0.00    -0.035 A 
ATOM     27  C   UNL     1       3.583  -6.761  -1.271  1.00  0.00     0.005 A 
ATOM     28  C   UNL     1       3.950  -4.554  -2.152  1.00  0.00     0.005 A 
ATOM     29  C   UNL     1       4.050  -7.334  -2.450  1.00  0.00     0.000 A 
ATOM     30  C   UNL     1       4.405  -5.130  -3.344  1.00  0.00     0.000 A 
ATOM     31  C   UNL     1       4.464  -6.516  -3.489  1.00  0.00     0.000 A 
ENDBRANCH  19  26
ENDBRANCH  15  19
ENDBRANCH   6   8
ENDBRANCH   4   6
ENDBRANCH   3   4
ENDBRANCH   2   3
ENDBRANCH   1   2
BRANCH   1  32
ATOM     32  O   UNL     1       0.504  -4.760   0.822  1.00  0.00    -0.374 OA
BRANCH  32  33
ATOM     33  C   UNL     1       0.166  -4.789   2.227  1.00  0.00     0.202 C 
BRANCH  33  34
ATOM     34  C   UNL     1       1.026  -3.786   3.233  1.00  0.00     0.261 C 
BRANCH  34  35
ATOM     35  O   UNL     1       2.507  -3.674   3.167  1.00  0.00    -0.460 OA
BRANCH  35  36
ATOM     36  C   UNL     1       3.151  -2.632   3.846  1.00  0.00     0.338 C 
ATOM     37  O   UNL     1       2.598  -1.902   4.652  1.00  0.00    -0.246 OA
BRANCH  36  38
ATOM     38  C   UNL     1       4.653  -2.444   3.490  1.00  0.00     0.060 A 
ATOM     39  C   UNL     1       5.331  -3.467   2.856  1.00  0.00     0.016 A 
ATOM     40  C   UNL     1       5.438  -1.310   3.729  1.00  0.00     0.016 A 
ATOM     41  C   UNL     1       6.665  -3.425   2.397  1.00  0.00     0.010 A 
ATOM     42  C   UNL     1       6.822  -1.247   3.314  1.00  0.00     0.010 A 
ATOM     43  C   UNL     1       7.461  -2.315   2.640  1.00  0.00    -0.014 A 
BRANCH  43  44
ATOM     44  C   UNL     1       8.959  -2.460   2.435  1.00  0.00     0.031 A 
ATOM     45  C   UNL     1       9.826  -2.660   3.662  1.00  0.00     0.074 A 
ATOM     46  C   UNL     1       9.562  -2.657   1.236  1.00  0.00     0.049 A 
ATOM     47  N   UNL     1      11.130  -2.758   3.775  1.00  0.00    -0.248 NA
ATOM     48  C   UNL     1       9.106  -2.802   4.934  1.00  0.00     0.031 C 
ATOM     49  C   UNL     1       8.889  -2.705  -0.060  1.00  0.00     0.029 A 
ATOM     50  N   UNL     1      10.890  -2.900   0.914  1.00  0.00    -0.354 N 
ATOM     51  C   UNL     1      11.383  -2.915   5.133  1.00  0.00     0.074 A 
ATOM     52  C   UNL     1      10.099  -2.919   5.800  1.00  0.00     0.031 C 
ATOM     53  C   UNL     1       9.790  -2.988  -1.021  1.00  0.00     0.029 A 
ATOM     54  C   UNL     1      11.128  -3.081  -0.433  1.00  0.00     0.049 A 
ATOM     55  H   UNL     1      11.604  -2.939   1.591  1.00  0.00     0.167 HD
ATOM     56  C   UNL     1      12.568  -3.038   5.780  1.00  0.00     0.037 A 
ATOM     57  C   UNL     1      12.280  -3.271  -1.123  1.00  0.00     0.037 A 
ATOM     58  C   UNL     1      13.856  -3.096   5.145  1.00  0.00     0.049 A 
ATOM     59  C   UNL     1      13.607  -3.299  -0.391  1.00  0.00     0.074 A 
ATOM     60  C   UNL     1      15.110  -3.138   5.732  1.00  0.00     0.029 A 
ATOM     61  N   UNL     1      14.056  -3.150   3.776  1.00  0.00    -0.354 N 
ATOM     62  N   UNL     1      13.844  -3.287   0.897  1.00  0.00    -0.248 NA
ATOM     63  C   UNL     1      14.831  -3.340  -1.214  1.00  0.00     0.031 C 
ATOM     64  C   UNL     1      16.071  -3.185   4.715  1.00  0.00     0.029 A 
ATOM     65  C   UNL     1      15.412  -3.214   3.498  1.00  0.00     0.049 A 
ATOM     66  H   UNL     1      13.340  -3.144   3.100  1.00  0.00     0.167 HD
ATOM     67  C   UNL     1      15.228  -3.323   1.037  1.00  0.00     0.074 A 
ATOM     68  C   UNL     1      15.785  -3.389  -0.295  1.00  0.00     0.031 C 
ATOM     69  C   UNL     1      15.968  -3.291   2.173  1.00  0.00     0.037 A 
BRANCH  56  70
ATOM     70  C   UNL     1      12.520  -3.032   7.280  1.00  0.00     0.064 A 
ATOM     71  C   UNL     1      12.073  -4.135   8.021  1.00  0.00     0.173 A 
ATOM     72  C   UNL     1      12.908  -1.880   7.982  1.00  0.00     0.173 A 
ATOM     73  F   UNL     1      11.668  -5.250   7.394  1.00  0.00    -0.203 F 
ATOM     74  C   UNL     1      11.980  -4.071   9.409  1.00  0.00     0.198 A 
ATOM     75  C   UNL     1      12.841  -1.830   9.370  1.00  0.00     0.198 A 
ATOM     76  F   UNL     1      13.345  -0.800   7.318  1.00  0.00    -0.203 F 
ATOM     77  F   UNL     1      11.490  -5.113  10.095  1.00  0.00    -0.200 F 
ATOM     78  C   UNL     1      12.367  -2.921  10.082  1.00  0.00     0.200 A 
ATOM     79  F   UNL     1      13.223  -0.720  10.018  1.00  0.00    -0.200 F 
ATOM     80  F   UNL     1      12.268  -2.858  11.417  1.00  0.00    -0.200 F 
ENDBRANCH  56  70
BRANCH  57  81
ATOM     81  C   UNL     1      12.273  -3.383  -2.616  1.00  0.00     0.064 A 
ATOM     82  C   UNL     1      12.715  -4.545  -3.272  1.00  0.00     0.173 A 
ATOM     83  C   UNL     1      11.897  -2.297  -3.423  1.00  0.00     0.173 A 
ATOM     84  F   UNL     1      13.141  -5.597  -2.558  1.00  0.00    -0.203 F 
ATOM     85  C   UNL     1      12.784  -4.611  -4.666  1.00  0.00     0.198 A 
ATOM     86  C   UNL     1      11.935  -2.376  -4.816  1.00  0.00     0.198 A 
ATOM     87  F   UNL     1      11.500  -1.148  -2.858  1.00  0.00    -0.203 F 
ATOM     88  F   UNL     1      13.263  -5.712  -5.262  1.00  0.00    -0.200 F 
ATOM     89  C   UNL     1      12.385  -3.530  -5.437  1.00  0.00     0.200 A 
ATOM     90  F   UNL     1      11.548  -1.327  -5.554  1.00  0.00    -0.200 F 
ATOM     91  F   UNL     1      12.449  -3.594  -6.774  1.00  0.00    -0.200 F 
ENDBRANCH  57  81
BRANCH  69  92
ATOM     92  C   UNL     1      17.463  -3.341   2.042  1.00  0.00     0.064 A 
ATOM     93  C   UNL     1      18.198  -2.231   1.599  1.00  0.00     0.173 A 
ATOM     94  C   UNL     1      18.176  -4.488   2.427  1.00  0.00     0.173 A 
ATOM     95  F   UNL     1      17.564  -1.115   1.211  1.00  0.00    -0.203 F 
ATOM     96  C   UNL     1      19.589  -2.272   1.532  1.00  0.00     0.198 A 
ATOM     97  C   UNL     1      19.568  -4.517   2.379  1.00  0.00     0.198 A 
ATOM     98  F   UNL     1      17.523  -5.574   2.865  1.00  0.00    -0.203 F 
ATOM     99  F   UNL     1      20.268  -1.210   1.077  1.00  0.00    -0.200 F 
ATOM    100  C   UNL     1      20.273  -3.412   1.929  1.00  0.00     0.200 A 
ATOM    101  F   UNL     1      20.228  -5.615   2.774  1.00  0.00    -0.200 F 
ATOM    102  F   UNL     1      21.612  -3.446   1.872  1.00  0.00    -0.200 F 
ENDBRANCH  69  92
ENDBRANCH  43  44
ENDBRANCH  36  38
ENDBRANCH  35  36
ENDBRANCH  34  35
ENDBRANCH  33  34
ENDBRANCH  32  33
ENDBRANCH   1  32
TORSDOF 18
