REMARK SMILES CC(C)[C@@H](Sc1cc(F)ccc1N)C(=O)OCCOCCOC(=O)c1ccc(-c2c3nc(c(-c4c(F)c(F)c(F)c(F)c4F)c4ccc([nH]4)c(-c4c(F)c(F)c(F)c(F)c4F)c4nc(c(-c5c(F)c(F)c(F)c(F)c5F)c5ccc2[nH]5)C=C4)C=C3)cc1
REMARK SMILES IDX 18 1 17 2 16 3 14 4 15 5 4 6 2 7 1 8 3 9 5 10 6 11 7 12
REMARK SMILES IDX 12 13 8 14 11 15 9 16 10 17 13 18 19 21 20 22 21 23 22 24
REMARK SMILES IDX 23 25 24 26 25 27 26 28 87 29 27 30 86 31 28 32 29 33 30 34
REMARK SMILES IDX 80 35 31 36 85 37 79 38 81 39 32 40 84 41 78 42 77 43 33 45
REMARK SMILES IDX 65 46 45 47 64 48 46 49 49 50 63 51 82 52 47 53 48 54 62 56
REMARK SMILES IDX 83 57 50 58 34 59 35 60 43 61 36 62 37 63 41 64 44 65 38 66
REMARK SMILES IDX 39 67 42 68 40 69 66 70 67 71 75 72 68 73 69 74 73 75 76 76
REMARK SMILES IDX 70 77 71 78 74 79 72 80 51 81 52 82 60 83 53 84 54 85 58 86
REMARK SMILES IDX 61 87 55 88 56 89 59 90 57 91
REMARK H PARENT 13 19 13 20 81 44 49 55
REMARK Flexibility Score: inf
ROOT
ATOM      1  C   UNL     1      -1.941   2.973  -4.834  1.00  0.00     0.202 C 
ENDROOT
BRANCH   1   2
ATOM      2  C   UNL     1      -2.236   3.193  -3.345  1.00  0.00     0.261 C 
BRANCH   2   3
ATOM      3  O   UNL     1      -1.338   2.521  -2.442  1.00  0.00    -0.462 OA
BRANCH   3   4
ATOM      4  C   UNL     1      -1.855   1.404  -1.856  1.00  0.00     0.319 C 
ATOM      5  O   UNL     1      -2.935   0.903  -2.162  1.00  0.00    -0.251 OA
BRANCH   4   6
ATOM      6  C   UNL     1      -1.014   0.858  -0.696  1.00  0.00     0.164 C 
BRANCH   6   7
ATOM      7  C   UNL     1       0.534   0.969  -0.802  1.00  0.00     0.007 C 
ATOM      8  C   UNL     1       1.263   0.166   0.285  1.00  0.00     0.009 C 
ATOM      9  C   UNL     1       1.056   0.436  -2.140  1.00  0.00     0.009 C 
ENDBRANCH   6   7
BRANCH   6  10
ATOM     10  S   UNL     1      -1.765   1.676   0.804  1.00  0.00    -0.108 SA
BRANCH  10  11
ATOM     11  C   UNL     1      -1.327   0.543   2.116  1.00  0.00     0.034 A 
ATOM     12  C   UNL     1      -0.589   1.091   3.174  1.00  0.00     0.056 A 
ATOM     13  C   UNL     1      -1.642  -0.834   2.113  1.00  0.00     0.045 A 
ATOM     14  C   UNL     1      -0.064   0.259   4.151  1.00  0.00     0.124 A 
ATOM     15  C   UNL     1      -1.060  -1.654   3.089  1.00  0.00     0.029 A 
ATOM     16  F   UNL     1       0.694   0.782   5.123  1.00  0.00    -0.207 F 
ATOM     17  C   UNL     1      -0.274  -1.111   4.106  1.00  0.00     0.041 A 
BRANCH  13  18
ATOM     18  N   UNL     1      -2.385  -1.427   1.094  1.00  0.00    -0.398 N 
ATOM     19  H   UNL     1      -2.802  -0.868   0.399  1.00  0.00     0.156 HD
ATOM     20  H   UNL     1      -2.494  -2.405   1.069  1.00  0.00     0.156 HD
ENDBRANCH  13  18
ENDBRANCH  10  11
ENDBRANCH   6  10
ENDBRANCH   4   6
ENDBRANCH   3   4
ENDBRANCH   2   3
ENDBRANCH   1   2
BRANCH   1  21
ATOM     21  O   UNL     1      -2.012   1.648  -5.346  1.00  0.00    -0.374 OA
BRANCH  21  22
ATOM     22  C   UNL     1      -0.945   0.756  -5.033  1.00  0.00     0.202 C 
BRANCH  22  23
ATOM     23  C   UNL     1       0.423   1.053  -5.667  1.00  0.00     0.261 C 
BRANCH  23  24
ATOM     24  O   UNL     1       1.015   2.266  -5.152  1.00  0.00    -0.460 OA
BRANCH  24  25
ATOM     25  C   UNL     1       1.278   3.222  -6.074  1.00  0.00     0.338 C 
ATOM     26  O   UNL     1       1.169   3.126  -7.288  1.00  0.00    -0.246 OA
BRANCH  25  27
ATOM     27  C   UNL     1       1.519   4.519  -5.406  1.00  0.00     0.060 A 
ATOM     28  C   UNL     1       2.534   4.699  -4.465  1.00  0.00     0.016 A 
ATOM     29  C   UNL     1       0.719   5.602  -5.795  1.00  0.00     0.016 A 
ATOM     30  C   UNL     1       2.769   5.980  -3.945  1.00  0.00     0.010 A 
ATOM     31  C   UNL     1       0.956   6.875  -5.277  1.00  0.00     0.010 A 
ATOM     32  C   UNL     1       1.998   7.083  -4.362  1.00  0.00    -0.014 A 
BRANCH  32  33
ATOM     33  C   UNL     1       2.340   8.467  -3.933  1.00  0.00     0.031 A 
ATOM     34  C   UNL     1       1.460   9.239  -2.993  1.00  0.00     0.074 A 
ATOM     35  C   UNL     1       3.437   9.058  -4.448  1.00  0.00     0.049 A 
ATOM     36  N   UNL     1       1.633  10.441  -2.499  1.00  0.00    -0.248 NA
ATOM     37  C   UNL     1       0.217   8.586  -2.557  1.00  0.00     0.031 C 
ATOM     38  C   UNL     1       4.341   8.443  -5.419  1.00  0.00     0.029 A 
ATOM     39  N   UNL     1       3.977  10.303  -4.231  1.00  0.00    -0.354 N 
ATOM     40  C   UNL     1       0.538  10.680  -1.681  1.00  0.00     0.074 A 
ATOM     41  C   UNL     1      -0.327   9.523  -1.792  1.00  0.00     0.031 C 
ATOM     42  C   UNL     1       5.341   9.297  -5.689  1.00  0.00     0.029 A 
ATOM     43  C   UNL     1       5.135  10.531  -4.935  1.00  0.00     0.049 A 
ATOM     44  H   UNL     1       3.573  10.968  -3.628  1.00  0.00     0.167 HD
ATOM     45  C   UNL     1       0.292  11.751  -0.889  1.00  0.00     0.037 A 
ATOM     46  C   UNL     1       5.943  11.609  -4.969  1.00  0.00     0.037 A 
ATOM     47  C   UNL     1       1.149  12.906  -0.784  1.00  0.00     0.049 A 
ATOM     48  C   UNL     1       5.619  12.809  -4.118  1.00  0.00     0.074 A 
ATOM     49  C   UNL     1       1.007  14.011   0.038  1.00  0.00     0.029 A 
ATOM     50  N   UNL     1       2.297  13.113  -1.534  1.00  0.00    -0.354 N 
ATOM     51  N   UNL     1       4.638  12.976  -3.266  1.00  0.00    -0.248 NA
ATOM     52  C   UNL     1       6.516  13.969  -4.233  1.00  0.00     0.031 C 
ATOM     53  C   UNL     1       2.033  14.913  -0.256  1.00  0.00     0.029 A 
ATOM     54  C   UNL     1       2.849  14.347  -1.222  1.00  0.00     0.049 A 
ATOM     55  H   UNL     1       2.666  12.479  -2.191  1.00  0.00     0.167 HD
ATOM     56  C   UNL     1       4.808  14.248  -2.733  1.00  0.00     0.074 A 
ATOM     57  C   UNL     1       6.000  14.801  -3.339  1.00  0.00     0.031 C 
ATOM     58  C   UNL     1       4.035  14.897  -1.828  1.00  0.00     0.037 A 
BRANCH  45  59
ATOM     59  C   UNL     1      -0.945  11.727  -0.037  1.00  0.00     0.064 A 
ATOM     60  C   UNL     1      -1.050  10.867   1.066  1.00  0.00     0.173 A 
ATOM     61  C   UNL     1      -1.992  12.635  -0.263  1.00  0.00     0.173 A 
ATOM     62  F   UNL     1      -0.077   9.981   1.326  1.00  0.00    -0.203 F 
ATOM     63  C   UNL     1      -2.163  10.903   1.901  1.00  0.00     0.198 A 
ATOM     64  C   UNL     1      -3.090  12.688   0.592  1.00  0.00     0.198 A 
ATOM     65  F   UNL     1      -1.936  13.490  -1.295  1.00  0.00    -0.203 F 
ATOM     66  F   UNL     1      -2.254  10.050   2.931  1.00  0.00    -0.200 F 
ATOM     67  C   UNL     1      -3.177  11.820   1.670  1.00  0.00     0.200 A 
ATOM     68  F   UNL     1      -4.060  13.589   0.379  1.00  0.00    -0.200 F 
ATOM     69  F   UNL     1      -4.239  11.868   2.487  1.00  0.00    -0.200 F 
ENDBRANCH  45  59
BRANCH  46  70
ATOM     70  C   UNL     1       7.166  11.586  -5.814  1.00  0.00     0.064 A 
ATOM     71  C   UNL     1       8.440  11.555  -5.230  1.00  0.00     0.173 A 
ATOM     72  C   UNL     1       7.090  11.580  -7.215  1.00  0.00     0.173 A 
ATOM     73  F   UNL     1       8.564  11.583  -3.895  1.00  0.00    -0.203 F 
ATOM     74  C   UNL     1       9.591  11.529  -6.013  1.00  0.00     0.198 A 
ATOM     75  C   UNL     1       8.242  11.523  -7.997  1.00  0.00     0.198 A 
ATOM     76  F   UNL     1       5.896  11.607  -7.823  1.00  0.00    -0.203 F 
ATOM     77  F   UNL     1      10.797  11.539  -5.429  1.00  0.00    -0.200 F 
ATOM     78  C   UNL     1       9.491  11.504  -7.396  1.00  0.00     0.200 A 
ATOM     79  F   UNL     1       8.141  11.484  -9.333  1.00  0.00    -0.200 F 
ATOM     80  F   UNL     1      10.599  11.466  -8.149  1.00  0.00    -0.200 F 
ENDBRANCH  46  70
BRANCH  58  81
ATOM     81  C   UNL     1       4.436  16.289  -1.429  1.00  0.00     0.064 A 
ATOM     82  C   UNL     1       4.280  17.372  -2.307  1.00  0.00     0.173 A 
ATOM     83  C   UNL     1       4.885  16.561  -0.127  1.00  0.00     0.173 A 
ATOM     84  F   UNL     1       3.869  17.165  -3.567  1.00  0.00    -0.203 F 
ATOM     85  C   UNL     1       4.560  18.673  -1.897  1.00  0.00     0.198 A 
ATOM     86  C   UNL     1       5.135  17.866   0.289  1.00  0.00     0.198 A 
ATOM     87  F   UNL     1       5.046  15.562   0.755  1.00  0.00    -0.203 F 
ATOM     88  F   UNL     1       4.426  19.688  -2.762  1.00  0.00    -0.200 F 
ATOM     89  C   UNL     1       4.973  18.921  -0.597  1.00  0.00     0.200 A 
ATOM     90  F   UNL     1       5.517  18.105   1.551  1.00  0.00    -0.200 F 
ATOM     91  F   UNL     1       5.215  20.177  -0.197  1.00  0.00    -0.200 F 
ENDBRANCH  58  81
ENDBRANCH  32  33
ENDBRANCH  25  27
ENDBRANCH  24  25
ENDBRANCH  23  24
ENDBRANCH  22  23
ENDBRANCH  21  22
ENDBRANCH   1  21
TORSDOF 18
