REMARK SMILES O=C(OCCOCCOC(=O)c1cc(F)c(F)cc1NS(=O)(=O)c1ccc2c(c1)CCC2)c1ccc(-c2c3nc(c(-c4c(F)c(F)c(F)c(F)c4F)c4ccc([nH]4)c(-c4c(F)c(F)c(F)c(F)c4F)c4nc(c(-c5c(F)c(F)c(F)c(F)c5F)c5ccc2[nH]5)C=C4)C=C3)cc1
REMARK SMILES IDX 7 1 6 2 5 3 4 4 3 5 2 6 1 7 33 8 34 9 95 10 35 11 94 12
REMARK SMILES IDX 36 13 37 14 38 15 88 16 39 17 93 18 87 19 89 20 40 21 92 22
REMARK SMILES IDX 86 23 85 24 41 26 73 27 53 28 72 29 54 30 57 31 71 32 90 33
REMARK SMILES IDX 55 34 56 35 70 37 91 38 58 39 42 40 43 41 51 42 44 43 45 44
REMARK SMILES IDX 49 45 52 46 46 47 47 48 50 49 48 50 74 51 75 52 83 53 76 54
REMARK SMILES IDX 77 55 81 56 84 57 78 58 79 59 82 60 80 61 59 62 60 63 68 64
REMARK SMILES IDX 61 65 62 66 66 67 69 68 63 69 64 70 67 71 65 72 8 73 9 74
REMARK SMILES IDX 10 75 11 76 12 77 13 78 19 79 14 80 18 81 15 82 16 83 17 84
REMARK SMILES IDX 20 85 21 87 22 88 23 89 24 90 25 91 29 92 26 93 28 94 27 95
REMARK SMILES IDX 30 96 32 97 31 98
REMARK H PARENT 89 25 57 36 20 86
REMARK Flexibility Score: inf
ROOT
ATOM      1  C   UNL     1       2.745   1.341  -1.956  1.00  0.00     0.202 C 
ENDROOT
BRANCH   1   2
ATOM      2  O   UNL     1       3.982   0.879  -1.416  1.00  0.00    -0.374 OA
BRANCH   2   3
ATOM      3  C   UNL     1       4.227  -0.522  -1.529  1.00  0.00     0.202 C 
BRANCH   3   4
ATOM      4  C   UNL     1       3.829  -1.332  -0.294  1.00  0.00     0.261 C 
BRANCH   4   5
ATOM      5  O   UNL     1       2.460  -1.069   0.054  1.00  0.00    -0.460 OA
BRANCH   5   6
ATOM      6  C   UNL     1       1.987  -0.195   0.972  1.00  0.00     0.338 C 
ATOM      7  O   UNL     1       0.769  -0.107   1.123  1.00  0.00    -0.246 OA
BRANCH   6   8
ATOM      8  C   UNL     1       2.853   0.659   1.845  1.00  0.00     0.060 A 
ATOM      9  C   UNL     1       4.137   1.101   1.523  1.00  0.00     0.016 A 
ATOM     10  C   UNL     1       2.292   1.112   3.053  1.00  0.00     0.016 A 
ATOM     11  C   UNL     1       4.865   1.913   2.376  1.00  0.00     0.010 A 
ATOM     12  C   UNL     1       3.006   1.957   3.911  1.00  0.00     0.010 A 
ATOM     13  C   UNL     1       4.306   2.341   3.575  1.00  0.00    -0.014 A 
BRANCH  13  14
ATOM     14  C   UNL     1       5.191   3.072   4.495  1.00  0.00     0.031 A 
ATOM     15  C   UNL     1       5.821   2.309   5.617  1.00  0.00     0.074 A 
ATOM     16  C   UNL     1       5.567   4.327   4.188  1.00  0.00     0.049 A 
ATOM     17  N   UNL     1       6.665   2.718   6.524  1.00  0.00    -0.248 NA
ATOM     18  C   UNL     1       5.473   0.880   5.716  1.00  0.00     0.031 C 
ATOM     19  C   UNL     1       5.105   5.076   3.017  1.00  0.00     0.029 A 
ATOM     20  N   UNL     1       6.462   5.168   4.791  1.00  0.00    -0.354 N 
ATOM     21  C   UNL     1       6.938   1.604   7.306  1.00  0.00     0.074 A 
ATOM     22  C   UNL     1       6.166   0.503   6.779  1.00  0.00     0.031 C 
ATOM     23  C   UNL     1       5.751   6.252   2.967  1.00  0.00     0.029 A 
ATOM     24  C   UNL     1       6.620   6.364   4.134  1.00  0.00     0.049 A 
ATOM     25  H   UNL     1       6.946   4.939   5.617  1.00  0.00     0.167 HD
ATOM     26  C   UNL     1       7.766   1.523   8.369  1.00  0.00     0.037 A 
ATOM     27  C   UNL     1       7.368   7.434   4.463  1.00  0.00     0.037 A 
ATOM     28  C   UNL     1       8.527   2.638   8.859  1.00  0.00     0.049 A 
ATOM     29  C   UNL     1       8.191   7.353   5.722  1.00  0.00     0.074 A 
ATOM     30  C   UNL     1       9.337   2.709   9.975  1.00  0.00     0.029 A 
ATOM     31  N   UNL     1       8.572   3.882   8.242  1.00  0.00    -0.354 N 
ATOM     32  N   UNL     1       8.376   6.327   6.519  1.00  0.00    -0.248 NA
ATOM     33  C   UNL     1       8.884   8.576   6.146  1.00  0.00     0.031 C 
ATOM     34  C   UNL     1       9.841   4.010  10.056  1.00  0.00     0.029 A 
ATOM     35  C   UNL     1       9.381   4.737   8.966  1.00  0.00     0.049 A 
ATOM     36  H   UNL     1       8.099   4.119   7.411  1.00  0.00     0.167 HD
ATOM     37  C   UNL     1       9.202   6.776   7.538  1.00  0.00     0.074 A 
ATOM     38  C   UNL     1       9.507   8.163   7.242  1.00  0.00     0.031 C 
ATOM     39  C   UNL     1       9.657   6.111   8.627  1.00  0.00     0.037 A 
BRANCH  26  40
ATOM     40  C   UNL     1       7.837   0.213   9.092  1.00  0.00     0.064 A 
ATOM     41  C   UNL     1       7.217   0.063  10.341  1.00  0.00     0.173 A 
ATOM     42  C   UNL     1       8.514  -0.892   8.557  1.00  0.00     0.173 A 
ATOM     43  F   UNL     1       6.548   1.088  10.891  1.00  0.00    -0.203 F 
ATOM     44  C   UNL     1       7.278  -1.143  11.032  1.00  0.00     0.198 A 
ATOM     45  C   UNL     1       8.555  -2.105   9.241  1.00  0.00     0.198 A 
ATOM     46  F   UNL     1       9.099  -0.807   7.353  1.00  0.00    -0.203 F 
ATOM     47  F   UNL     1       6.688  -1.259  12.230  1.00  0.00    -0.200 F 
ATOM     48  C   UNL     1       7.943  -2.228  10.479  1.00  0.00     0.200 A 
ATOM     49  F   UNL     1       9.171  -3.162   8.693  1.00  0.00    -0.200 F 
ATOM     50  F   UNL     1       7.984  -3.395  11.137  1.00  0.00    -0.200 F 
ENDBRANCH  26  40
BRANCH  27  51
ATOM     51  C   UNL     1       7.330   8.662   3.624  1.00  0.00     0.064 A 
ATOM     52  C   UNL     1       6.146   9.404   3.477  1.00  0.00     0.173 A 
ATOM     53  C   UNL     1       8.465   9.118   2.939  1.00  0.00     0.173 A 
ATOM     54  F   UNL     1       5.029   9.022   4.115  1.00  0.00    -0.203 F 
ATOM     55  C   UNL     1       6.091  10.531   2.659  1.00  0.00     0.198 A 
ATOM     56  C   UNL     1       8.417  10.264   2.145  1.00  0.00     0.198 A 
ATOM     57  F   UNL     1       9.629   8.463   3.063  1.00  0.00    -0.203 F 
ATOM     58  F   UNL     1       4.936  11.194   2.511  1.00  0.00    -0.200 F 
ATOM     59  C   UNL     1       7.229  10.963   1.997  1.00  0.00     0.200 A 
ATOM     60  F   UNL     1       9.526  10.696   1.528  1.00  0.00    -0.200 F 
ATOM     61  F   UNL     1       7.181  12.057   1.224  1.00  0.00    -0.200 F 
ENDBRANCH  27  51
BRANCH  39  62
ATOM     62  C   UNL     1      10.523   6.870   9.584  1.00  0.00     0.064 A 
ATOM     63  C   UNL     1      11.892   6.583   9.684  1.00  0.00     0.173 A 
ATOM     64  C   UNL     1       9.967   7.789  10.484  1.00  0.00     0.173 A 
ATOM     65  F   UNL     1      12.461   5.701   8.849  1.00  0.00    -0.203 F 
ATOM     66  C   UNL     1      12.670   7.171  10.676  1.00  0.00     0.198 A 
ATOM     67  C   UNL     1      10.754   8.394  11.458  1.00  0.00     0.198 A 
ATOM     68  F   UNL     1       8.664   8.100  10.414  1.00  0.00    -0.203 F 
ATOM     69  F   UNL     1      13.965   6.848  10.787  1.00  0.00    -0.200 F 
ATOM     70  C   UNL     1      12.101   8.074  11.562  1.00  0.00     0.200 A 
ATOM     71  F   UNL     1      10.209   9.280  12.302  1.00  0.00    -0.200 F 
ATOM     72  F   UNL     1      12.850   8.634  12.521  1.00  0.00    -0.200 F 
ENDBRANCH  39  62
ENDBRANCH  13  14
ENDBRANCH   6   8
ENDBRANCH   5   6
ENDBRANCH   4   5
ENDBRANCH   3   4
ENDBRANCH   2   3
ENDBRANCH   1   2
BRANCH   1  73
ATOM     73  C   UNL     1       3.043   2.317  -3.095  1.00  0.00     0.261 C 
BRANCH  73  74
ATOM     74  O   UNL     1       3.599   1.589  -4.203  1.00  0.00    -0.460 OA
BRANCH  74  75
ATOM     75  C   UNL     1       4.943   1.408  -4.220  1.00  0.00     0.340 C 
ATOM     76  O   UNL     1       5.794   1.969  -3.553  1.00  0.00    -0.246 OA
BRANCH  75  77
ATOM     77  C   UNL     1       5.190   0.211  -5.054  1.00  0.00     0.087 A 
ATOM     78  C   UNL     1       4.425   0.050  -6.223  1.00  0.00     0.060 A 
ATOM     79  C   UNL     1       6.060  -0.806  -4.601  1.00  0.00     0.066 A 
ATOM     80  C   UNL     1       4.489  -1.143  -6.921  1.00  0.00     0.159 A 
ATOM     81  C   UNL     1       6.028  -2.025  -5.285  1.00  0.00     0.070 A 
ATOM     82  F   UNL     1       3.774  -1.292  -8.042  1.00  0.00    -0.204 F 
ATOM     83  C   UNL     1       5.266  -2.182  -6.441  1.00  0.00     0.160 A 
ATOM     84  F   UNL     1       5.311  -3.349  -7.097  1.00  0.00    -0.204 F 
BRANCH  79  85
ATOM     85  N   UNL     1       7.033  -0.520  -3.579  1.00  0.00    -0.279 N 
ATOM     86  H   UNL     1       7.238   0.429  -3.419  1.00  0.00     0.180 HD
BRANCH  85  87
ATOM     87  S   UNL     1       7.857  -1.638  -2.630  1.00  0.00     0.261 S 
ATOM     88  O   UNL     1       8.784  -0.897  -1.805  1.00  0.00    -0.201 OA
ATOM     89  O   UNL     1       6.861  -2.515  -2.046  1.00  0.00    -0.201 OA
BRANCH  87  90
ATOM     90  C   UNL     1       8.818  -2.590  -3.788  1.00  0.00     0.088 A 
ATOM     91  C   UNL     1       8.743  -3.997  -3.698  1.00  0.00     0.022 A 
ATOM     92  C   UNL     1       9.299  -1.951  -4.936  1.00  0.00     0.026 A 
ATOM     93  C   UNL     1       9.030  -4.782  -4.815  1.00  0.00     0.005 A 
ATOM     94  C   UNL     1       9.519  -2.742  -6.048  1.00  0.00    -0.043 A 
ATOM     95  C   UNL     1       9.355  -4.134  -5.995  1.00  0.00    -0.045 A 
ATOM     96  C   UNL     1       9.828  -2.297  -7.443  1.00  0.00     0.036 C 
ATOM     97  C   UNL     1       9.511  -4.735  -7.358  1.00  0.00     0.036 C 
ATOM     98  C   UNL     1       9.300  -3.496  -8.243  1.00  0.00     0.010 C 
ENDBRANCH  87  90
ENDBRANCH  85  87
ENDBRANCH  79  85
ENDBRANCH  75  77
ENDBRANCH  74  75
ENDBRANCH  73  74
ENDBRANCH   1  73
TORSDOF 17
