REMARK SMILES CC(C)c1ccc(NC(=O)C(=O)N/N=C/c2ccccc2C(=O)OCCOCCOC(=O)c2ccc(-c3c4nc(c(-c5c(F)c(F)c(F)c(F)c5F)c5ccc([nH]5)c(-c5c(F)c(F)c(F)c(F)c5F)c5nc(c(-c6c(F)c(F)c(F)c(F)c6F)c6ccc3[nH]6)C=C5)C=C4)cc2)cc1
REMARK SMILES IDX 25 1 24 2 22 3 23 4 21 5 16 6 17 7 18 8 20 9 19 10 15 11
REMARK SMILES IDX 14 12 13 13 11 14 12 15 9 17 8 18 10 20 7 21 4 22 5 23 97 24
REMARK SMILES IDX 6 25 96 26 2 27 1 28 3 29 26 30 27 31 28 32 29 33 30 34
REMARK SMILES IDX 31 35 32 36 33 37 34 38 95 39 35 40 94 41 36 42 37 43 38 44
REMARK SMILES IDX 88 45 39 46 93 47 87 48 89 49 40 50 92 51 86 52 85 53 41 55
REMARK SMILES IDX 73 56 53 57 72 58 54 59 57 60 71 61 90 62 55 63 56 64 70 66
REMARK SMILES IDX 91 67 58 68 42 69 43 70 51 71 44 72 45 73 49 74 52 75 46 76
REMARK SMILES IDX 47 77 50 78 48 79 74 80 75 81 83 82 76 83 77 84 81 85 84 86
REMARK SMILES IDX 78 87 79 88 82 89 80 90 59 91 60 92 68 93 61 94 62 95 66 96
REMARK SMILES IDX 69 97 63 98 64 99 67 100 65 101
REMARK H PARENT 13 16 8 19 89 54 57 65
REMARK Flexibility Score: inf
ROOT
ATOM      1  C   UNL     1      -8.304   5.075  -2.185  1.00  0.00     0.261 C 
ENDROOT
BRANCH   1   2
ATOM      2  O   UNL     1      -8.820   3.981  -1.409  1.00  0.00    -0.460 OA
BRANCH   2   3
ATOM      3  C   UNL     1     -10.111   4.059  -1.019  1.00  0.00     0.338 C 
ATOM      4  O   UNL     1     -10.832   5.041  -1.129  1.00  0.00    -0.246 OA
BRANCH   3   5
ATOM      5  C   UNL     1     -10.622   2.738  -0.557  1.00  0.00     0.068 A 
ATOM      6  C   UNL     1      -9.835   1.698  -0.041  1.00  0.00     0.009 A 
ATOM      7  C   UNL     1     -10.412   0.497   0.388  1.00  0.00     0.010 A 
ATOM      8  C   UNL     1     -11.788   0.310   0.261  1.00  0.00     0.001 A 
ATOM      9  C   UNL     1     -12.005   2.528  -0.680  1.00  0.00     0.016 A 
ATOM     10  C   UNL     1     -12.581   1.317  -0.289  1.00  0.00     0.001 A 
BRANCH   6  11
ATOM     11  C   UNL     1      -8.377   1.740  -0.112  1.00  0.00     0.142 C 
ATOM     12  N   UNL     1      -7.609   1.818   0.930  1.00  0.00    -0.180 NA
BRANCH  12  13
ATOM     13  N   UNL     1      -6.278   1.899   0.607  1.00  0.00    -0.239 N 
ATOM     14  C   UNL     1      -5.617   1.069  -0.283  1.00  0.00     0.329 C 
ATOM     15  O   UNL     1      -4.766   1.523  -1.037  1.00  0.00    -0.262 OA
ATOM     16  H   UNL     1      -5.750   2.605   1.044  1.00  0.00     0.194 HD
BRANCH  14  17
ATOM     17  C   UNL     1      -5.989  -0.426  -0.290  1.00  0.00     0.315 C 
ATOM     18  N   UNL     1      -5.020  -1.408  -0.310  1.00  0.00    -0.318 N 
ATOM     19  H   UNL     1      -5.393  -2.318  -0.349  1.00  0.00     0.170 HD
ATOM     20  O   UNL     1      -7.168  -0.772  -0.365  1.00  0.00    -0.263 OA
BRANCH  18  21
ATOM     21  C   UNL     1      -3.616  -1.388  -0.287  1.00  0.00     0.041 A 
ATOM     22  C   UNL     1      -0.775  -1.537  -0.432  1.00  0.00    -0.045 A 
ATOM     23  C   UNL     1      -1.429  -0.369  -0.022  1.00  0.00     0.006 A 
ATOM     24  C   UNL     1      -1.577  -2.641  -0.751  1.00  0.00     0.006 A 
ATOM     25  C   UNL     1      -2.827  -0.302   0.068  1.00  0.00     0.026 A 
ATOM     26  C   UNL     1      -2.973  -2.572  -0.663  1.00  0.00     0.026 A 
BRANCH  22  27
ATOM     27  C   UNL     1       0.742  -1.634  -0.562  1.00  0.00     0.013 C 
ATOM     28  C   UNL     1       1.509  -0.372  -0.152  1.00  0.00     0.012 C 
ATOM     29  C   UNL     1       1.304  -2.819   0.232  1.00  0.00     0.012 C 
ENDBRANCH  22  27
ENDBRANCH  18  21
ENDBRANCH  14  17
ENDBRANCH  12  13
ENDBRANCH   6  11
ENDBRANCH   3   5
ENDBRANCH   2   3
ENDBRANCH   1   2
BRANCH   1  30
ATOM     30  C   UNL     1      -7.924   4.587  -3.586  1.00  0.00     0.202 C 
BRANCH  30  31
ATOM     31  O   UNL     1      -9.024   4.183  -4.403  1.00  0.00    -0.374 OA
BRANCH  31  32
ATOM     32  C   UNL     1      -9.515   2.857  -4.207  1.00  0.00     0.202 C 
BRANCH  32  33
ATOM     33  C   UNL     1      -8.761   1.750  -4.952  1.00  0.00     0.261 C 
BRANCH  33  34
ATOM     34  O   UNL     1      -7.408   1.607  -4.486  1.00  0.00    -0.460 OA
BRANCH  34  35
ATOM     35  C   UNL     1      -6.463   2.070  -5.337  1.00  0.00     0.338 C 
ATOM     36  O   UNL     1      -6.633   2.535  -6.457  1.00  0.00    -0.246 OA
BRANCH  35  37
ATOM     37  C   UNL     1      -5.151   2.090  -4.671  1.00  0.00     0.060 A 
ATOM     38  C   UNL     1      -4.468   3.311  -4.611  1.00  0.00     0.016 A 
ATOM     39  C   UNL     1      -4.566   0.922  -4.179  1.00  0.00     0.016 A 
ATOM     40  C   UNL     1      -3.183   3.365  -4.077  1.00  0.00     0.010 A 
ATOM     41  C   UNL     1      -3.274   0.980  -3.644  1.00  0.00     0.010 A 
ATOM     42  C   UNL     1      -2.567   2.196  -3.607  1.00  0.00    -0.014 A 
BRANCH  42  43
ATOM     43  C   UNL     1      -1.142   2.225  -3.190  1.00  0.00     0.031 A 
ATOM     44  C   UNL     1      -0.108   1.597  -4.083  1.00  0.00     0.074 A 
ATOM     45  C   UNL     1      -0.769   2.806  -2.035  1.00  0.00     0.049 A 
ATOM     46  N   UNL     1       1.175   1.427  -3.885  1.00  0.00    -0.248 NA
ATOM     47  C   UNL     1      -0.590   1.083  -5.375  1.00  0.00     0.031 C 
ATOM     48  C   UNL     1      -1.671   3.439  -1.076  1.00  0.00     0.029 A 
ATOM     49  N   UNL     1       0.472   2.929  -1.459  1.00  0.00    -0.354 N 
ATOM     50  C   UNL     1       1.648   0.782  -5.020  1.00  0.00     0.074 A 
ATOM     51  C   UNL     1       0.511   0.551  -5.884  1.00  0.00     0.031 C 
ATOM     52  C   UNL     1      -0.959   3.853  -0.014  1.00  0.00     0.029 A 
ATOM     53  C   UNL     1       0.442   3.481  -0.203  1.00  0.00     0.049 A 
ATOM     54  H   UNL     1       1.304   2.648  -1.905  1.00  0.00     0.167 HD
ATOM     55  C   UNL     1       2.920   0.432  -5.326  1.00  0.00     0.037 A 
ATOM     56  C   UNL     1       1.426   3.625   0.708  1.00  0.00     0.037 A 
ATOM     57  C   UNL     1       4.053   0.668  -4.472  1.00  0.00     0.049 A 
ATOM     58  C   UNL     1       2.821   3.157   0.380  1.00  0.00     0.074 A 
ATOM     59  C   UNL     1       5.387   0.390  -4.710  1.00  0.00     0.029 A 
ATOM     60  N   UNL     1       3.982   1.235  -3.208  1.00  0.00    -0.354 N 
ATOM     61  N   UNL     1       3.271   2.591  -0.713  1.00  0.00    -0.248 NA
ATOM     62  C   UNL     1       3.845   3.345   1.419  1.00  0.00     0.031 C 
ATOM     63  C   UNL     1       6.117   0.739  -3.570  1.00  0.00     0.029 A 
ATOM     64  C   UNL     1       5.246   1.288  -2.643  1.00  0.00     0.049 A 
ATOM     65  H   UNL     1       3.156   1.552  -2.776  1.00  0.00     0.167 HD
ATOM     66  C   UNL     1       4.629   2.381  -0.506  1.00  0.00     0.074 A 
ATOM     67  C   UNL     1       4.934   2.893   0.813  1.00  0.00     0.031 C 
ATOM     68  C   UNL     1       5.541   1.816  -1.335  1.00  0.00     0.037 A 
BRANCH  55  69
ATOM     69  C   UNL     1       3.153  -0.256  -6.641  1.00  0.00     0.064 A 
ATOM     70  C   UNL     1       3.026   0.425  -7.861  1.00  0.00     0.173 A 
ATOM     71  C   UNL     1       3.540  -1.603  -6.679  1.00  0.00     0.173 A 
ATOM     72  F   UNL     1       2.647   1.712  -7.881  1.00  0.00    -0.203 F 
ATOM     73  C   UNL     1       3.249  -0.226  -9.072  1.00  0.00     0.198 A 
ATOM     74  C   UNL     1       3.793  -2.243  -7.890  1.00  0.00     0.198 A 
ATOM     75  F   UNL     1       3.682  -2.300  -5.541  1.00  0.00    -0.203 F 
ATOM     76  F   UNL     1       3.074   0.431 -10.227  1.00  0.00    -0.200 F 
ATOM     77  C   UNL     1       3.640  -1.556  -9.085  1.00  0.00     0.200 A 
ATOM     78  F   UNL     1       4.184  -3.525  -7.900  1.00  0.00    -0.200 F 
ATOM     79  F   UNL     1       3.862  -2.180 -10.250  1.00  0.00    -0.200 F 
ENDBRANCH  55  69
BRANCH  56  80
ATOM     80  C   UNL     1       1.123   4.210   2.040  1.00  0.00     0.064 A 
ATOM     81  C   UNL     1       1.627   5.464   2.410  1.00  0.00     0.173 A 
ATOM     82  C   UNL     1       0.347   3.514   2.979  1.00  0.00     0.173 A 
ATOM     83  F   UNL     1       2.399   6.152   1.557  1.00  0.00    -0.203 F 
ATOM     84  C   UNL     1       1.383   5.992   3.676  1.00  0.00     0.198 A 
ATOM     85  C   UNL     1       0.080   4.056   4.234  1.00  0.00     0.198 A 
ATOM     86  F   UNL     1      -0.155   2.308   2.675  1.00  0.00    -0.203 F 
ATOM     87  F   UNL     1       1.919   7.171   4.022  1.00  0.00    -0.200 F 
ATOM     88  C   UNL     1       0.605   5.291   4.585  1.00  0.00     0.200 A 
ATOM     89  F   UNL     1      -0.681   3.380   5.106  1.00  0.00    -0.200 F 
ATOM     90  F   UNL     1       0.369   5.801   5.801  1.00  0.00    -0.200 F 
ENDBRANCH  56  80
BRANCH  68  91
ATOM     91  C   UNL     1       6.968   1.771  -0.869  1.00  0.00     0.064 A 
ATOM     92  C   UNL     1       7.386   0.902   0.150  1.00  0.00     0.173 A 
ATOM     93  C   UNL     1       7.939   2.579  -1.482  1.00  0.00     0.173 A 
ATOM     94  F   UNL     1       6.496   0.120   0.778  1.00  0.00    -0.203 F 
ATOM     95  C   UNL     1       8.719   0.864   0.555  1.00  0.00     0.198 A 
ATOM     96  C   UNL     1       9.275   2.514  -1.096  1.00  0.00     0.198 A 
ATOM     97  F   UNL     1       7.594   3.421  -2.467  1.00  0.00    -0.203 F 
ATOM     98  F   UNL     1       9.087   0.061   1.564  1.00  0.00    -0.200 F 
ATOM     99  C   UNL     1       9.662   1.663  -0.073  1.00  0.00     0.200 A 
ATOM    100  F   UNL     1      10.188   3.276  -1.715  1.00  0.00    -0.200 F 
ATOM    101  F   UNL     1      10.945   1.617   0.313  1.00  0.00    -0.200 F 
ENDBRANCH  68  91
ENDBRANCH  42  43
ENDBRANCH  35  37
ENDBRANCH  34  35
ENDBRANCH  33  34
ENDBRANCH  32  33
ENDBRANCH  31  32
ENDBRANCH  30  31
ENDBRANCH   1  30
TORSDOF 19
