REMARK SMILES CCc1cc(OC(F)(F)F)cc2c1O[C@@H](C(F)(F)F)C(C(=O)OCCOCCOC(=O)c1ccc(-c3c4nc(c(-c5c(F)c(F)c(F)c(F)c5F)c5ccc([nH]5)c(-c5c(F)c(F)c(F)c(F)c5F)c5nc(c(-c6c(F)c(F)c(F)c(F)c6F)c6ccc3[nH]6)C=C5)C=C4)cc1)=C2
REMARK SMILES IDX 26 1 25 2 24 3 23 4 21 5 22 6 20 7 3 8 4 9 13 10 5 11 12 12
REMARK SMILES IDX 14 13 11 14 95 15 15 16 2 17 1 18 6 19 7 20 8 21 9 22 10 23
REMARK SMILES IDX 16 24 17 25 18 26 19 27 27 28 28 29 29 30 30 31 31 32 32 33
REMARK SMILES IDX 33 34 94 35 34 36 93 37 35 38 36 39 37 40 87 41 38 42 92 43
REMARK SMILES IDX 86 44 88 45 39 46 91 47 85 48 84 49 40 51 72 52 52 53 71 54
REMARK SMILES IDX 53 55 56 56 70 57 89 58 54 59 55 60 69 62 90 63 57 64 41 65
REMARK SMILES IDX 42 66 50 67 43 68 44 69 48 70 51 71 45 72 46 73 49 74 47 75
REMARK SMILES IDX 73 76 74 77 82 78 75 79 76 80 80 81 83 82 77 83 78 84 81 85
REMARK SMILES IDX 79 86 58 87 59 88 67 89 60 90 61 91 65 92 68 93 62 94 63 95
REMARK SMILES IDX 66 96 64 97
REMARK H PARENT 88 50 56 61
REMARK Flexibility Score: inf
ROOT
ATOM      1  O   UNL     1      -1.334   9.851  -1.209  1.00  0.00    -0.374 OA
ENDROOT
BRANCH   1   2
ATOM      2  C   UNL     1      -0.245  10.416  -1.934  1.00  0.00     0.202 C 
BRANCH   2   3
ATOM      3  C   UNL     1       1.140   9.816  -1.681  1.00  0.00     0.261 C 
BRANCH   3   4
ATOM      4  O   UNL     1       1.164   8.407  -1.956  1.00  0.00    -0.460 OA
BRANCH   4   5
ATOM      5  C   UNL     1       1.450   7.627  -0.887  1.00  0.00     0.338 C 
ATOM      6  O   UNL     1       1.830   8.009   0.210  1.00  0.00    -0.246 OA
BRANCH   5   7
ATOM      7  C   UNL     1       1.143   6.218  -1.169  1.00  0.00     0.087 C 
ATOM      8  C   UNL     1       1.047   2.042  -1.210  1.00  0.00    -0.002 A 
ATOM      9  C   UNL     1       1.412   1.367  -2.386  1.00  0.00     0.054 A 
ATOM     10  C   UNL     1       1.065   3.447  -1.222  1.00  0.00     0.131 A 
ATOM     11  C   UNL     1       1.822   2.069  -3.525  1.00  0.00     0.130 A 
ATOM     12  C   UNL     1       1.488   4.166  -2.351  1.00  0.00     0.021 A 
ATOM     13  O   UNL     1       0.725   4.085  -0.054  1.00  0.00    -0.475 OA
ATOM     14  C   UNL     1       1.850   3.469  -3.504  1.00  0.00     0.058 A 
ATOM     15  C   UNL     1       1.671   5.615  -2.246  1.00  0.00     0.027 C 
ATOM     16  C   UNL     1       0.263   5.448  -0.213  1.00  0.00     0.316 C 
BRANCH   8  17
ATOM     17  C   UNL     1       0.605   1.317   0.047  1.00  0.00     0.036 C 
ATOM     18  C   UNL     1       1.042  -0.135   0.190  1.00  0.00     0.009 C 
ENDBRANCH   8  17
BRANCH  11  19
ATOM     19  O   UNL     1       2.224   1.514  -4.708  1.00  0.00    -0.406 OA
BRANCH  19  20
ATOM     20  C   UNL     1       2.514   0.124  -4.718  1.00  0.00     0.573 C 
ATOM     21  F   UNL     1       3.416  -0.196  -3.766  1.00  0.00    -0.132 F 
ATOM     22  F   UNL     1       1.391  -0.604  -4.540  1.00  0.00    -0.132 F 
ATOM     23  F   UNL     1       3.038  -0.200  -5.920  1.00  0.00    -0.132 F 
ENDBRANCH  19  20
ENDBRANCH  11  19
BRANCH  16  24
ATOM     24  C   UNL     1      -0.000   6.034   1.184  1.00  0.00     0.430 C 
ATOM     25  F   UNL     1      -0.599   7.246   1.102  1.00  0.00    -0.167 F 
ATOM     26  F   UNL     1      -0.868   5.238   1.865  1.00  0.00    -0.167 F 
ATOM     27  F   UNL     1       1.111   6.141   1.938  1.00  0.00    -0.167 F 
ENDBRANCH  16  24
ENDBRANCH   5   7
ENDBRANCH   4   5
ENDBRANCH   3   4
ENDBRANCH   2   3
ENDBRANCH   1   2
BRANCH   1  28
ATOM     28  C   UNL     1      -1.847   8.591  -1.641  1.00  0.00     0.202 C 
BRANCH  28  29
ATOM     29  C   UNL     1      -2.665   8.573  -2.938  1.00  0.00     0.261 C 
BRANCH  29  30
ATOM     30  O   UNL     1      -1.864   8.870  -4.096  1.00  0.00    -0.460 OA
BRANCH  30  31
ATOM     31  C   UNL     1      -2.170  10.032  -4.719  1.00  0.00     0.338 C 
ATOM     32  O   UNL     1      -3.073  10.811  -4.441  1.00  0.00    -0.246 OA
BRANCH  31  33
ATOM     33  C   UNL     1      -1.132  10.354  -5.710  1.00  0.00     0.060 A 
ATOM     34  C   UNL     1      -0.471  11.585  -5.594  1.00  0.00     0.016 A 
ATOM     35  C   UNL     1      -0.864   9.501  -6.781  1.00  0.00     0.016 A 
ATOM     36  C   UNL     1       0.439  11.985  -6.571  1.00  0.00     0.010 A 
ATOM     37  C   UNL     1       0.038   9.908  -7.767  1.00  0.00     0.010 A 
ATOM     38  C   UNL     1       0.670  11.163  -7.682  1.00  0.00    -0.014 A 
BRANCH  38  39
ATOM     39  C   UNL     1       1.460  11.668  -8.828  1.00  0.00     0.031 A 
ATOM     40  C   UNL     1       0.733  12.194 -10.034  1.00  0.00     0.074 A 
ATOM     41  C   UNL     1       2.804  11.652  -8.798  1.00  0.00     0.049 A 
ATOM     42  N   UNL     1       1.210  12.584 -11.188  1.00  0.00    -0.248 NA
ATOM     43  C   UNL     1      -0.731  12.287  -9.923  1.00  0.00     0.031 C 
ATOM     44  C   UNL     1       3.617  11.211  -7.668  1.00  0.00     0.029 A 
ATOM     45  N   UNL     1       3.720  12.001  -9.759  1.00  0.00    -0.354 N 
ATOM     46  C   UNL     1       0.106  12.956 -11.944  1.00  0.00     0.074 A 
ATOM     47  C   UNL     1      -1.066  12.724 -11.128  1.00  0.00     0.031 C 
ATOM     48  C   UNL     1       4.915  11.296  -8.006  1.00  0.00     0.029 A 
ATOM     49  C   UNL     1       5.019  11.760  -9.389  1.00  0.00     0.049 A 
ATOM     50  H   UNL     1       3.469  12.387 -10.629  1.00  0.00     0.167 HD
ATOM     51  C   UNL     1       0.077  13.452 -13.204  1.00  0.00     0.037 A 
ATOM     52  C   UNL     1       6.158  11.871 -10.100  1.00  0.00     0.037 A 
ATOM     53  C   UNL     1       1.247  13.683 -14.009  1.00  0.00     0.049 A 
ATOM     54  C   UNL     1       6.092  12.350 -11.527  1.00  0.00     0.074 A 
ATOM     55  C   UNL     1       1.325  14.197 -15.291  1.00  0.00     0.029 A 
ATOM     56  N   UNL     1       2.546  13.406 -13.608  1.00  0.00    -0.354 N 
ATOM     57  N   UNL     1       5.048  12.716 -12.232  1.00  0.00    -0.248 NA
ATOM     58  C   UNL     1       7.365  12.431 -12.260  1.00  0.00     0.031 C 
ATOM     59  C   UNL     1       2.667  14.185 -15.684  1.00  0.00     0.029 A 
ATOM     60  C   UNL     1       3.431  13.716 -14.628  1.00  0.00     0.049 A 
ATOM     61  H   UNL     1       2.801  13.044 -12.729  1.00  0.00     0.167 HD
ATOM     62  C   UNL     1       5.539  13.099 -13.473  1.00  0.00     0.074 A 
ATOM     63  C   UNL     1       6.976  12.928 -13.425  1.00  0.00     0.031 C 
ATOM     64  C   UNL     1       4.861  13.554 -14.556  1.00  0.00     0.037 A 
BRANCH  51  65
ATOM     65  C   UNL     1      -1.266  13.753 -13.800  1.00  0.00     0.064 A 
ATOM     66  C   UNL     1      -2.040  14.840 -13.366  1.00  0.00     0.173 A 
ATOM     67  C   UNL     1      -1.770  12.964 -14.845  1.00  0.00     0.173 A 
ATOM     68  F   UNL     1      -1.609  15.616 -12.360  1.00  0.00    -0.203 F 
ATOM     69  C   UNL     1      -3.279  15.111 -13.942  1.00  0.00     0.198 A 
ATOM     70  C   UNL     1      -2.996  13.256 -15.437  1.00  0.00     0.198 A 
ATOM     71  F   UNL     1      -1.069  11.915 -15.300  1.00  0.00    -0.203 F 
ATOM     72  F   UNL     1      -4.021  16.128 -13.481  1.00  0.00    -0.200 F 
ATOM     73  C   UNL     1      -3.752  14.324 -14.981  1.00  0.00     0.200 A 
ATOM     74  F   UNL     1      -3.447  12.501 -16.449  1.00  0.00    -0.200 F 
ATOM     75  F   UNL     1      -4.941  14.592 -15.538  1.00  0.00    -0.200 F 
ENDBRANCH  51  65
BRANCH  52  76
ATOM     76  C   UNL     1       7.459  11.503  -9.483  1.00  0.00     0.064 A 
ATOM     77  C   UNL     1       8.430  12.476  -9.210  1.00  0.00     0.173 A 
ATOM     78  C   UNL     1       7.765  10.170  -9.171  1.00  0.00     0.173 A 
ATOM     79  F   UNL     1       8.194  13.760  -9.514  1.00  0.00    -0.203 F 
ATOM     80  C   UNL     1       9.665  12.127  -8.667  1.00  0.00     0.198 A 
ATOM     81  C   UNL     1       8.989   9.826  -8.601  1.00  0.00     0.198 A 
ATOM     82  F   UNL     1       6.871   9.200  -9.413  1.00  0.00    -0.203 F 
ATOM     83  F   UNL     1      10.594  13.071  -8.460  1.00  0.00    -0.200 F 
ATOM     84  C   UNL     1       9.942  10.804  -8.357  1.00  0.00     0.200 A 
ATOM     85  F   UNL     1       9.247   8.548  -8.293  1.00  0.00    -0.200 F 
ATOM     86  F   UNL     1      11.129  10.470  -7.833  1.00  0.00    -0.200 F 
ENDBRANCH  52  76
BRANCH  64  87
ATOM     87  C   UNL     1       5.663  13.946 -15.763  1.00  0.00     0.064 A 
ATOM     88  C   UNL     1       6.266  12.989 -16.590  1.00  0.00     0.173 A 
ATOM     89  C   UNL     1       5.778  15.297 -16.127  1.00  0.00     0.173 A 
ATOM     90  F   UNL     1       6.197  11.686 -16.277  1.00  0.00    -0.203 F 
ATOM     91  C   UNL     1       6.971  13.371 -17.729  1.00  0.00     0.198 A 
ATOM     92  C   UNL     1       6.458  15.673 -17.281  1.00  0.00     0.198 A 
ATOM     93  F   UNL     1       5.213  16.251 -15.372  1.00  0.00    -0.203 F 
ATOM     94  F   UNL     1       7.573  12.442 -18.485  1.00  0.00    -0.200 F 
ATOM     95  C   UNL     1       7.059  14.710 -18.078  1.00  0.00     0.200 A 
ATOM     96  F   UNL     1       6.529  16.966 -17.624  1.00  0.00    -0.200 F 
ATOM     97  F   UNL     1       7.727  15.075 -19.181  1.00  0.00    -0.200 F 
ENDBRANCH  64  87
ENDBRANCH  38  39
ENDBRANCH  31  33
ENDBRANCH  30  31
ENDBRANCH  29  30
ENDBRANCH  28  29
ENDBRANCH   1  28
TORSDOF 18
