REMARK SMILES COCC[C@H](NC(=O)c1ccc(C)cc1F)C(=O)OCCOCCOC(=O)c1ccc(-c2c3nc(c(-c4c(F)c(F)c(F)c(F)c4F)c4ccc([nH]4)c(-c4c(F)c(F)c(F)c(F)c4F)c4nc(c(-c5c(F)c(F)c(F)c(F)c5F)c5ccc2[nH]5)C=C4)C=C3)cc1
REMARK SMILES IDX 21 1 20 2 19 3 17 4 18 5 5 6 4 7 3 8 2 9 1 10 6 11 7 12 8 14
REMARK SMILES IDX 9 15 10 16 15 17 11 18 14 19 16 20 12 21 13 22 22 23 23 24
REMARK SMILES IDX 24 25 25 26 26 27 27 28 28 29 29 30 90 31 30 32 89 33 31 34
REMARK SMILES IDX 32 35 33 36 83 37 34 38 88 39 82 40 84 41 35 42 87 43 81 44
REMARK SMILES IDX 80 45 36 47 68 48 48 49 67 50 49 51 52 52 66 53 85 54 50 55
REMARK SMILES IDX 51 56 65 58 86 59 53 60 37 61 38 62 46 63 39 64 40 65 44 66
REMARK SMILES IDX 47 67 41 68 42 69 45 70 43 71 69 72 70 73 78 74 71 75 72 76
REMARK SMILES IDX 76 77 79 78 73 79 74 80 77 81 75 82 54 83 55 84 63 85 56 86
REMARK SMILES IDX 57 87 61 88 64 89 58 90 59 91 62 92 60 93
REMARK H PARENT 6 13 84 46 52 57
REMARK Flexibility Score: inf
ROOT
ATOM      1  C   UNL     1      -1.074  -5.423   2.784  1.00  0.00     0.202 C 
ENDROOT
BRANCH   1   2
ATOM      2  C   UNL     1       0.418  -5.179   3.087  1.00  0.00     0.261 C 
BRANCH   2   3
ATOM      3  O   UNL     1       0.844  -3.811   2.992  1.00  0.00    -0.462 OA
BRANCH   3   4
ATOM      4  C   UNL     1       1.331  -3.501   1.766  1.00  0.00     0.328 C 
ATOM      5  O   UNL     1       1.423  -4.316   0.853  1.00  0.00    -0.250 OA
BRANCH   4   6
ATOM      6  C   UNL     1       1.786  -2.040   1.612  1.00  0.00     0.194 C 
BRANCH   6   7
ATOM      7  C   UNL     1       3.304  -2.086   1.401  1.00  0.00     0.065 C 
BRANCH   7   8
ATOM      8  C   UNL     1       3.722  -2.735   0.075  1.00  0.00     0.162 C 
BRANCH   8   9
ATOM      9  O   UNL     1       3.122  -2.098  -1.052  1.00  0.00    -0.385 OA
ATOM     10  C   UNL     1       2.046  -2.821  -1.645  1.00  0.00     0.194 C 
ENDBRANCH   8   9
ENDBRANCH   7   8
ENDBRANCH   6   7
BRANCH   6  11
ATOM     11  N   UNL     1       1.364  -1.099   2.665  1.00  0.00    -0.338 N 
ATOM     12  C   UNL     1       1.399   0.287   2.631  1.00  0.00     0.254 C 
ATOM     13  H   UNL     1       1.015  -1.503   3.492  1.00  0.00     0.164 HD
ATOM     14  O   UNL     1       0.840   0.948   3.499  1.00  0.00    -0.269 OA
BRANCH  12  15
ATOM     15  C   UNL     1       2.146   0.961   1.546  1.00  0.00     0.075 A 
ATOM     16  C   UNL     1       1.746   0.841   0.212  1.00  0.00     0.017 A 
ATOM     17  C   UNL     1       3.370   1.553   1.851  1.00  0.00     0.136 A 
ATOM     18  C   UNL     1       2.646   1.161  -0.810  1.00  0.00     0.004 A 
ATOM     19  C   UNL     1       4.261   1.892   0.833  1.00  0.00     0.043 A 
ATOM     20  F   UNL     1       3.769   1.697   3.123  1.00  0.00    -0.206 F 
ATOM     21  C   UNL     1       3.928   1.637  -0.505  1.00  0.00    -0.048 A 
ATOM     22  C   UNL     1       4.965   1.799  -1.579  1.00  0.00     0.044 C 
ENDBRANCH  12  15
ENDBRANCH   6  11
ENDBRANCH   4   6
ENDBRANCH   3   4
ENDBRANCH   2   3
ENDBRANCH   1   2
BRANCH   1  23
ATOM     23  O   UNL     1      -1.672  -4.875   1.618  1.00  0.00    -0.374 OA
BRANCH  23  24
ATOM     24  C   UNL     1      -1.820  -3.474   1.404  1.00  0.00     0.202 C 
BRANCH  24  25
ATOM     25  C   UNL     1      -2.292  -2.540   2.519  1.00  0.00     0.261 C 
BRANCH  25  26
ATOM     26  O   UNL     1      -1.382  -2.561   3.615  1.00  0.00    -0.460 OA
BRANCH  26  27
ATOM     27  C   UNL     1      -1.904  -3.140   4.712  1.00  0.00     0.338 C 
ATOM     28  O   UNL     1      -3.065  -3.461   4.903  1.00  0.00    -0.246 OA
BRANCH  27  29
ATOM     29  C   UNL     1      -0.825  -3.404   5.697  1.00  0.00     0.060 A 
ATOM     30  C   UNL     1      -1.112  -4.555   6.455  1.00  0.00     0.016 A 
ATOM     31  C   UNL     1      -0.441  -2.209   6.296  1.00  0.00     0.016 A 
ATOM     32  C   UNL     1      -1.595  -4.365   7.728  1.00  0.00     0.010 A 
ATOM     33  C   UNL     1      -0.925  -2.010   7.561  1.00  0.00     0.010 A 
ATOM     34  C   UNL     1      -1.617  -3.057   8.193  1.00  0.00    -0.014 A 
BRANCH  34  35
ATOM     35  C   UNL     1      -2.477  -2.646   9.272  1.00  0.00     0.031 A 
ATOM     36  C   UNL     1      -1.919  -2.624  10.620  1.00  0.00     0.074 A 
ATOM     37  C   UNL     1      -3.707  -2.188   8.961  1.00  0.00     0.049 A 
ATOM     38  N   UNL     1      -2.622  -2.633  11.695  1.00  0.00    -0.248 NA
ATOM     39  C   UNL     1      -0.480  -2.669  10.857  1.00  0.00     0.031 C 
ATOM     40  C   UNL     1      -4.579  -1.363   9.785  1.00  0.00     0.029 A 
ATOM     41  N   UNL     1      -4.488  -2.530   7.850  1.00  0.00    -0.354 N 
ATOM     42  C   UNL     1      -1.764  -2.360  12.732  1.00  0.00     0.074 A 
ATOM     43  C   UNL     1      -0.436  -2.498  12.179  1.00  0.00     0.031 C 
ATOM     44  C   UNL     1      -5.827  -1.422   9.292  1.00  0.00     0.029 A 
ATOM     45  C   UNL     1      -5.832  -2.437   8.249  1.00  0.00     0.049 A 
ATOM     46  H   UNL     1      -4.157  -2.786   6.959  1.00  0.00     0.167 HD
ATOM     47  C   UNL     1      -2.284  -1.870  13.891  1.00  0.00     0.037 A 
ATOM     48  C   UNL     1      -6.623  -3.550   8.283  1.00  0.00     0.037 A 
ATOM     49  C   UNL     1      -3.742  -1.807  13.811  1.00  0.00     0.049 A 
ATOM     50  C   UNL     1      -7.095  -3.894   9.677  1.00  0.00     0.074 A 
ATOM     51  C   UNL     1      -4.600  -0.781  13.446  1.00  0.00     0.029 A 
ATOM     52  N   UNL     1      -4.479  -2.985  13.729  1.00  0.00    -0.354 N 
ATOM     53  N   UNL     1      -6.445  -3.591  10.767  1.00  0.00    -0.248 NA
ATOM     54  C   UNL     1      -8.348  -4.593   9.944  1.00  0.00     0.031 C 
ATOM     55  C   UNL     1      -5.849  -1.352  13.104  1.00  0.00     0.029 A 
ATOM     56  C   UNL     1      -5.759  -2.722  13.278  1.00  0.00     0.049 A 
ATOM     57  H   UNL     1      -4.138  -3.879  13.961  1.00  0.00     0.167 HD
ATOM     58  C   UNL     1      -7.169  -4.004  11.857  1.00  0.00     0.074 A 
ATOM     59  C   UNL     1      -8.350  -4.628  11.288  1.00  0.00     0.031 C 
ATOM     60  C   UNL     1      -6.748  -3.779  13.139  1.00  0.00     0.037 A 
BRANCH  47  61
ATOM     61  C   UNL     1      -1.450  -1.117  14.896  1.00  0.00     0.064 A 
ATOM     62  C   UNL     1      -1.983  -0.009  15.587  1.00  0.00     0.173 A 
ATOM     63  C   UNL     1      -0.098  -1.393  15.169  1.00  0.00     0.173 A 
ATOM     64  F   UNL     1      -3.280   0.311  15.507  1.00  0.00    -0.203 F 
ATOM     65  C   UNL     1      -1.197   0.824  16.386  1.00  0.00     0.198 A 
ATOM     66  C   UNL     1       0.703  -0.529  15.924  1.00  0.00     0.198 A 
ATOM     67  F   UNL     1       0.477  -2.527  14.748  1.00  0.00    -0.203 F 
ATOM     68  F   UNL     1      -1.759   1.870  17.008  1.00  0.00    -0.200 F 
ATOM     69  C   UNL     1       0.154   0.586  16.524  1.00  0.00     0.200 A 
ATOM     70  F   UNL     1       2.011  -0.787  16.064  1.00  0.00    -0.200 F 
ATOM     71  F   UNL     1       0.917   1.411  17.253  1.00  0.00    -0.200 F 
ENDBRANCH  47  61
BRANCH  48  72
ATOM     72  C   UNL     1      -6.296  -4.548   7.229  1.00  0.00     0.064 A 
ATOM     73  C   UNL     1      -6.559  -4.225   5.884  1.00  0.00     0.173 A 
ATOM     74  C   UNL     1      -5.441  -5.630   7.477  1.00  0.00     0.173 A 
ATOM     75  F   UNL     1      -7.372  -3.197   5.590  1.00  0.00    -0.203 F 
ATOM     76  C   UNL     1      -5.933  -4.900   4.836  1.00  0.00     0.198 A 
ATOM     77  C   UNL     1      -4.809  -6.298   6.426  1.00  0.00     0.198 A 
ATOM     78  F   UNL     1      -5.147  -5.989   8.735  1.00  0.00    -0.203 F 
ATOM     79  F   UNL     1      -6.155  -4.524   3.568  1.00  0.00    -0.200 F 
ATOM     80  C   UNL     1      -5.039  -5.922   5.110  1.00  0.00     0.200 A 
ATOM     81  F   UNL     1      -3.928  -7.276   6.689  1.00  0.00    -0.200 F 
ATOM     82  F   UNL     1      -4.377  -6.527   4.112  1.00  0.00    -0.200 F 
ENDBRANCH  48  72
BRANCH  60  83
ATOM     83  C   UNL     1      -7.311  -4.403  14.397  1.00  0.00     0.064 A 
ATOM     84  C   UNL     1      -8.011  -5.620  14.426  1.00  0.00     0.173 A 
ATOM     85  C   UNL     1      -7.029  -3.841  15.670  1.00  0.00     0.173 A 
ATOM     86  F   UNL     1      -8.224  -6.332  13.313  1.00  0.00    -0.203 F 
ATOM     87  C   UNL     1      -8.467  -6.185  15.622  1.00  0.00     0.198 A 
ATOM     88  C   UNL     1      -7.426  -4.442  16.863  1.00  0.00     0.198 A 
ATOM     89  F   UNL     1      -6.330  -2.705  15.804  1.00  0.00    -0.203 F 
ATOM     90  F   UNL     1      -9.179  -7.320  15.587  1.00  0.00    -0.200 F 
ATOM     91  C   UNL     1      -8.166  -5.603  16.838  1.00  0.00     0.200 A 
ATOM     92  F   UNL     1      -7.067  -3.897  18.034  1.00  0.00    -0.200 F 
ATOM     93  F   UNL     1      -8.566  -6.173  17.982  1.00  0.00    -0.200 F 
ENDBRANCH  60  83
ENDBRANCH  34  35
ENDBRANCH  27  29
ENDBRANCH  26  27
ENDBRANCH  25  26
ENDBRANCH  24  25
ENDBRANCH  23  24
ENDBRANCH   1  23
TORSDOF 19
