REMARK SMILES O=C(OCCOCCOC(=O)c1cccc(Nc2ccc([N+](=O)[O-])cc2)c1)c1ccc(-c2c3nc(c(-c4c(F)c(F)c(F)c(F)c4F)c4ccc([nH]4)c(-c4c(F)c(F)c(F)c(F)c4F)c4nc(c(-c5c(F)c(F)c(F)c(F)c5F)c5ccc2[nH]5)C=C4)C=C3)cc1
REMARK SMILES IDX 7 1 6 2 5 3 4 4 3 5 2 6 1 7 28 8 29 9 90 10 30 11 89 12
REMARK SMILES IDX 31 13 32 14 33 15 83 16 34 17 88 18 82 19 84 20 35 21 87 22
REMARK SMILES IDX 81 23 80 24 36 26 68 27 48 28 67 29 49 30 52 31 66 32 85 33
REMARK SMILES IDX 50 34 51 35 65 37 86 38 53 39 37 40 38 41 46 42 39 43 40 44
REMARK SMILES IDX 44 45 47 46 41 47 42 48 45 49 43 50 69 51 70 52 78 53 71 54
REMARK SMILES IDX 72 55 76 56 79 57 73 58 74 59 77 60 75 61 54 62 55 63 63 64
REMARK SMILES IDX 56 65 57 66 61 67 64 68 58 69 59 70 62 71 60 72 8 73 9 74
REMARK SMILES IDX 10 75 11 76 12 77 13 78 27 79 14 80 16 81 15 82 17 83 18 85
REMARK SMILES IDX 19 86 26 87 20 88 25 89 21 90 22 91 23 92 24 93
REMARK H PARENT 84 25 52 36 17 84
REMARK Flexibility Score: inf
ROOT
ATOM      1  C   UNL     1       2.582  -1.038  -1.858  1.00  0.00     0.202 C 
ENDROOT
BRANCH   1   2
ATOM      2  O   UNL     1       3.916  -0.898  -1.357  1.00  0.00    -0.374 OA
BRANCH   2   3
ATOM      3  C   UNL     1       4.203  -1.578  -0.135  1.00  0.00     0.202 C 
BRANCH   3   4
ATOM      4  C   UNL     1       3.916  -0.751   1.120  1.00  0.00     0.261 C 
BRANCH   4   5
ATOM      5  O   UNL     1       2.534  -0.361   1.155  1.00  0.00    -0.460 OA
BRANCH   5   6
ATOM      6  C   UNL     1       1.988   0.827   0.808  1.00  0.00     0.338 C 
ATOM      7  O   UNL     1       0.769   0.962   0.902  1.00  0.00    -0.246 OA
BRANCH   6   8
ATOM      8  C   UNL     1       2.778   2.000   0.325  1.00  0.00     0.060 A 
ATOM      9  C   UNL     1       3.986   1.927  -0.371  1.00  0.00     0.016 A 
ATOM     10  C   UNL     1       2.201   3.269   0.506  1.00  0.00     0.016 A 
ATOM     11  C   UNL     1       4.631   3.061  -0.835  1.00  0.00     0.010 A 
ATOM     12  C   UNL     1       2.827   4.419   0.018  1.00  0.00     0.010 A 
ATOM     13  C   UNL     1       4.054   4.310  -0.643  1.00  0.00    -0.014 A 
BRANCH  13  14
ATOM     14  C   UNL     1       4.835   5.489  -1.044  1.00  0.00     0.031 A 
ATOM     15  C   UNL     1       5.562   6.242   0.021  1.00  0.00     0.074 A 
ATOM     16  C   UNL     1       4.989   5.767  -2.349  1.00  0.00     0.049 A 
ATOM     17  N   UNL     1       6.271   7.332  -0.071  1.00  0.00    -0.248 NA
ATOM     18  C   UNL     1       5.493   5.676   1.379  1.00  0.00     0.031 C 
ATOM     19  C   UNL     1       4.425   4.982  -3.450  1.00  0.00     0.029 A 
ATOM     20  N   UNL     1       5.687   6.764  -2.973  1.00  0.00    -0.354 N 
ATOM     21  C   UNL     1       6.705   7.602   1.219  1.00  0.00     0.074 A 
ATOM     22  C   UNL     1       6.184   6.563   2.077  1.00  0.00     0.031 C 
ATOM     23  C   UNL     1       4.812   5.522  -4.616  1.00  0.00     0.029 A 
ATOM     24  C   UNL     1       5.587   6.727  -4.341  1.00  0.00     0.049 A 
ATOM     25  H   UNL     1       6.211   7.442  -2.488  1.00  0.00     0.167 HD
ATOM     26  C   UNL     1       7.463   8.641   1.637  1.00  0.00     0.037 A 
ATOM     27  C   UNL     1       6.041   7.603  -5.256  1.00  0.00     0.037 A 
ATOM     28  C   UNL     1       7.955   9.656   0.747  1.00  0.00     0.049 A 
ATOM     29  C   UNL     1       6.795   8.806  -4.755  1.00  0.00     0.074 A 
ATOM     30  C   UNL     1       8.669  10.801   1.042  1.00  0.00     0.029 A 
ATOM     31  N   UNL     1       7.774   9.636  -0.633  1.00  0.00    -0.354 N 
ATOM     32  N   UNL     1       7.137   9.113  -3.525  1.00  0.00    -0.248 NA
ATOM     33  C   UNL     1       7.211   9.792  -5.759  1.00  0.00     0.031 C 
ATOM     34  C   UNL     1       8.878  11.498  -0.154  1.00  0.00     0.029 A 
ATOM     35  C   UNL     1       8.347  10.759  -1.202  1.00  0.00     0.049 A 
ATOM     36  H   UNL     1       7.307   8.927  -1.131  1.00  0.00     0.167 HD
ATOM     37  C   UNL     1       7.823  10.315  -3.605  1.00  0.00     0.074 A 
ATOM     38  C   UNL     1       7.863  10.672  -5.011  1.00  0.00     0.031 C 
ATOM     39  C   UNL     1       8.368  11.063  -2.613  1.00  0.00     0.037 A 
BRANCH  26  40
ATOM     40  C   UNL     1       7.705   8.755   3.113  1.00  0.00     0.064 A 
ATOM     41  C   UNL     1       8.532   7.859   3.807  1.00  0.00     0.173 A 
ATOM     42  C   UNL     1       7.045   9.746   3.856  1.00  0.00     0.173 A 
ATOM     43  F   UNL     1       9.160   6.872   3.150  1.00  0.00    -0.203 F 
ATOM     44  C   UNL     1       8.657   7.926   5.193  1.00  0.00     0.198 A 
ATOM     45  C   UNL     1       7.195   9.828   5.238  1.00  0.00     0.198 A 
ATOM     46  F   UNL     1       6.234  10.622   3.244  1.00  0.00    -0.203 F 
ATOM     47  F   UNL     1       9.394   7.014   5.843  1.00  0.00    -0.200 F 
ATOM     48  C   UNL     1       7.991   8.911   5.907  1.00  0.00     0.200 A 
ATOM     49  F   UNL     1       6.551  10.782   5.924  1.00  0.00    -0.200 F 
ATOM     50  F   UNL     1       8.100   8.965   7.242  1.00  0.00    -0.200 F 
ENDBRANCH  26  40
BRANCH  27  51
ATOM     51  C   UNL     1       5.748   7.401  -6.700  1.00  0.00     0.064 A 
ATOM     52  C   UNL     1       6.771   7.162  -7.627  1.00  0.00     0.173 A 
ATOM     53  C   UNL     1       4.430   7.439  -7.186  1.00  0.00     0.173 A 
ATOM     54  F   UNL     1       8.049   7.136  -7.222  1.00  0.00    -0.203 F 
ATOM     55  C   UNL     1       6.490   6.983  -8.982  1.00  0.00     0.198 A 
ATOM     56  C   UNL     1       4.148   7.229  -8.534  1.00  0.00     0.198 A 
ATOM     57  F   UNL     1       3.410   7.667  -6.346  1.00  0.00    -0.203 F 
ATOM     58  F   UNL     1       7.492   6.799  -9.853  1.00  0.00    -0.200 F 
ATOM     59  C   UNL     1       5.179   7.008  -9.433  1.00  0.00     0.200 A 
ATOM     60  F   UNL     1       2.878   7.240  -8.961  1.00  0.00    -0.200 F 
ATOM     61  F   UNL     1       4.910   6.830 -10.734  1.00  0.00    -0.200 F 
ENDBRANCH  27  51
BRANCH  39  62
ATOM     62  C   UNL     1       9.084  12.313  -3.025  1.00  0.00     0.064 A 
ATOM     63  C   UNL     1       8.388  13.451  -3.455  1.00  0.00     0.173 A 
ATOM     64  C   UNL     1      10.481  12.387  -2.928  1.00  0.00     0.173 A 
ATOM     65  F   UNL     1       7.052  13.420  -3.578  1.00  0.00    -0.203 F 
ATOM     66  C   UNL     1       9.069  14.615  -3.795  1.00  0.00     0.198 A 
ATOM     67  C   UNL     1      11.156  13.562  -3.238  1.00  0.00     0.198 A 
ATOM     68  F   UNL     1      11.188  11.324  -2.514  1.00  0.00    -0.203 F 
ATOM     69  F   UNL     1       8.390  15.679  -4.245  1.00  0.00    -0.200 F 
ATOM     70  C   UNL     1      10.451  14.673  -3.676  1.00  0.00     0.200 A 
ATOM     71  F   UNL     1      12.488  13.621  -3.108  1.00  0.00    -0.200 F 
ATOM     72  F   UNL     1      11.104  15.800  -3.990  1.00  0.00    -0.200 F 
ENDBRANCH  39  62
ENDBRANCH  13  14
ENDBRANCH   6   8
ENDBRANCH   5   6
ENDBRANCH   4   5
ENDBRANCH   3   4
ENDBRANCH   2   3
ENDBRANCH   1   2
BRANCH   1  73
ATOM     73  C   UNL     1       2.639  -1.450  -3.332  1.00  0.00     0.261 C 
BRANCH  73  74
ATOM     74  O   UNL     1       3.279  -2.731  -3.416  1.00  0.00    -0.460 OA
BRANCH  74  75
ATOM     75  C   UNL     1       4.636  -2.686  -3.449  1.00  0.00     0.338 C 
ATOM     76  O   UNL     1       5.342  -1.755  -3.798  1.00  0.00    -0.246 OA
BRANCH  75  77
ATOM     77  C   UNL     1       5.135  -3.898  -2.768  1.00  0.00     0.062 A 
ATOM     78  C   UNL     1       6.263  -3.796  -1.949  1.00  0.00     0.016 A 
ATOM     79  C   UNL     1       4.452  -5.113  -2.882  1.00  0.00     0.041 A 
ATOM     80  C   UNL     1       6.683  -4.902  -1.218  1.00  0.00     0.003 A 
ATOM     81  C   UNL     1       4.904  -6.248  -2.205  1.00  0.00     0.039 A 
ATOM     82  C   UNL     1       6.007  -6.119  -1.350  1.00  0.00     0.026 A 
BRANCH  81  83
ATOM     83  N   UNL     1       4.232  -7.468  -2.421  1.00  0.00    -0.355 N 
ATOM     84  H   UNL     1       3.297  -7.412  -2.724  1.00  0.00     0.167 HD
BRANCH  83  85
ATOM     85  C   UNL     1       4.765  -8.754  -2.248  1.00  0.00     0.039 A 
ATOM     86  C   UNL     1       5.229  -9.455  -3.369  1.00  0.00     0.033 A 
ATOM     87  C   UNL     1       4.917  -9.312  -0.975  1.00  0.00     0.033 A 
ATOM     88  C   UNL     1       5.847 -10.697  -3.225  1.00  0.00     0.088 A 
ATOM     89  C   UNL     1       5.526 -10.558  -0.817  1.00  0.00     0.088 A 
ATOM     90  C   UNL     1       5.995 -11.243  -1.945  1.00  0.00     0.269 A 
BRANCH  90  91
ATOM     91  N   UNL     1       6.663 -12.540  -1.785  1.00  0.00     0.062 N 
ATOM     92  O   UNL     1       7.044 -13.122  -2.811  1.00  0.00    -0.258 OA
ATOM     93  O   UNL     1       6.808 -12.975  -0.634  1.00  0.00    -0.258 OA
ENDBRANCH  90  91
ENDBRANCH  83  85
ENDBRANCH  81  83
ENDBRANCH  75  77
ENDBRANCH  74  75
ENDBRANCH  73  74
ENDBRANCH   1  73
TORSDOF 17
