REMARK SMILES O=C(/C=C/c1ccc(Br)cc1-n1ccnc1)OCCOCCOC(=O)c1ccc(-c2c3nc(c(-c4c(F)c(F)c(F)c(F)c4F)c4ccc([nH]4)c(-c4c(F)c(F)c(F)c(F)c4F)c4nc(c(-c5c(F)c(F)c(F)c(F)c5F)c5ccc2[nH]5)C=C4)C=C3)cc1
REMARK SMILES IDX 20 1 19 2 18 3 17 4 2 5 1 6 3 7 4 8 5 9 6 10 11 11 7 12
REMARK SMILES IDX 10 13 8 14 9 15 12 16 13 17 16 18 14 19 15 20 21 21 22 22
REMARK SMILES IDX 23 23 24 24 25 25 26 26 27 27 88 28 28 29 87 30 29 31 30 32
REMARK SMILES IDX 31 33 81 34 32 35 86 36 80 37 82 38 33 39 85 40 79 41 78 42
REMARK SMILES IDX 34 44 66 45 46 46 65 47 47 48 50 49 64 50 83 51 48 52 49 53
REMARK SMILES IDX 63 55 84 56 51 57 35 58 36 59 44 60 37 61 38 62 42 63 45 64
REMARK SMILES IDX 39 65 40 66 43 67 41 68 67 69 68 70 76 71 69 72 70 73 74 74
REMARK SMILES IDX 77 75 71 76 72 77 75 78 73 79 52 80 53 81 61 82 54 83 55 84
REMARK SMILES IDX 59 85 62 86 56 87 57 88 60 89 58 90
REMARK H PARENT 82 43 50 54
REMARK Flexibility Score: inf
ROOT
ATOM      1  O   UNL     1       3.972   0.314   1.352  1.00  0.00    -0.374 OA
ENDROOT
BRANCH   1   2
ATOM      2  C   UNL     1       4.207   1.299   0.345  1.00  0.00     0.202 C 
BRANCH   2   3
ATOM      3  C   UNL     1       4.154   0.785  -1.091  1.00  0.00     0.261 C 
BRANCH   3   4
ATOM      4  O   UNL     1       2.943   0.085  -1.415  1.00  0.00    -0.460 OA
BRANCH   4   5
ATOM      5  C   UNL     1       2.586  -1.167  -1.062  1.00  0.00     0.330 C 
ATOM      6  O   UNL     1       1.469  -1.581  -1.372  1.00  0.00    -0.247 OA
BRANCH   5   7
ATOM      7  C   UNL     1       3.416  -2.042  -0.205  1.00  0.00     0.094 C 
ATOM      8  C   UNL     1       4.735  -2.059   0.047  1.00  0.00     0.018 C 
BRANCH   8   9
ATOM      9  C   UNL     1       5.379  -2.965   1.012  1.00  0.00    -0.001 A 
ATOM     10  C   UNL     1       5.062  -4.331   0.953  1.00  0.00     0.011 A 
ATOM     11  C   UNL     1       6.394  -2.564   1.905  1.00  0.00     0.055 A 
ATOM     12  C   UNL     1       5.763  -5.266   1.719  1.00  0.00     0.016 A 
ATOM     13  C   UNL     1       7.108  -3.501   2.666  1.00  0.00     0.043 A 
ATOM     14  C   UNL     1       6.798  -4.850   2.551  1.00  0.00     0.020 A 
ATOM     15  Br  UNL     1       7.802  -6.126   3.513  1.00  0.00    -0.051 Br
BRANCH  11  16
ATOM     16  N   UNL     1       6.717  -1.211   2.137  1.00  0.00    -0.306 N 
ATOM     17  C   UNL     1       6.293  -0.479   3.219  1.00  0.00     0.113 A 
ATOM     18  C   UNL     1       7.824  -0.556   1.648  1.00  0.00     0.204 A 
ATOM     19  C   UNL     1       7.124   0.617   3.277  1.00  0.00     0.131 A 
ATOM     20  N   UNL     1       8.064   0.570   2.284  1.00  0.00    -0.245 NA
ENDBRANCH  11  16
ENDBRANCH   8   9
ENDBRANCH   5   7
ENDBRANCH   4   5
ENDBRANCH   3   4
ENDBRANCH   2   3
ENDBRANCH   1   2
BRANCH   1  21
ATOM     21  C   UNL     1       2.625   0.198   1.829  1.00  0.00     0.202 C 
BRANCH  21  22
ATOM     22  C   UNL     1       2.386   0.984   3.106  1.00  0.00     0.261 C 
BRANCH  22  23
ATOM     23  O   UNL     1       2.647   2.342   2.806  1.00  0.00    -0.460 OA
BRANCH  23  24
ATOM     24  C   UNL     1       3.915   2.737   3.024  1.00  0.00     0.338 C 
ATOM     25  O   UNL     1       4.752   2.172   3.731  1.00  0.00    -0.246 OA
BRANCH  24  26
ATOM     26  C   UNL     1       4.108   4.055   2.401  1.00  0.00     0.060 A 
ATOM     27  C   UNL     1       5.200   4.756   2.910  1.00  0.00     0.016 A 
ATOM     28  C   UNL     1       2.928   4.691   2.005  1.00  0.00     0.016 A 
ATOM     29  C   UNL     1       4.936   5.977   3.476  1.00  0.00     0.010 A 
ATOM     30  C   UNL     1       2.628   5.843   2.667  1.00  0.00     0.010 A 
ATOM     31  C   UNL     1       3.614   6.424   3.463  1.00  0.00    -0.014 A 
BRANCH  31  32
ATOM     32  C   UNL     1       3.278   7.614   4.198  1.00  0.00     0.031 A 
ATOM     33  C   UNL     1       3.427   8.813   3.357  1.00  0.00     0.074 A 
ATOM     34  C   UNL     1       2.725   7.590   5.420  1.00  0.00     0.049 A 
ATOM     35  N   UNL     1       4.416   9.642   3.340  1.00  0.00    -0.248 NA
ATOM     36  C   UNL     1       2.511   8.939   2.209  1.00  0.00     0.031 C 
ATOM     37  C   UNL     1       2.211   6.449   6.176  1.00  0.00     0.029 A 
ATOM     38  N   UNL     1       2.411   8.650   6.205  1.00  0.00    -0.354 N 
ATOM     39  C   UNL     1       4.109  10.517   2.307  1.00  0.00     0.074 A 
ATOM     40  C   UNL     1       3.164   9.835   1.472  1.00  0.00     0.031 C 
ATOM     41  C   UNL     1       1.458   6.907   7.205  1.00  0.00     0.029 A 
ATOM     42  C   UNL     1       1.533   8.359   7.236  1.00  0.00     0.049 A 
ATOM     43  H   UNL     1       2.776   9.552   6.054  1.00  0.00     0.167 HD
ATOM     44  C   UNL     1       4.338  11.851   2.433  1.00  0.00     0.037 A 
ATOM     45  C   UNL     1       0.856   9.290   7.956  1.00  0.00     0.037 A 
ATOM     46  C   UNL     1       5.267  12.109   3.509  1.00  0.00     0.049 A 
ATOM     47  C   UNL     1       1.529  10.602   7.728  1.00  0.00     0.074 A 
ATOM     48  C   UNL     1       6.553  11.690   3.799  1.00  0.00     0.029 A 
ATOM     49  N   UNL     1       4.759  12.594   4.691  1.00  0.00    -0.354 N 
ATOM     50  N   UNL     1       2.720  10.900   8.171  1.00  0.00    -0.248 NA
ATOM     51  C   UNL     1       1.065  11.415   6.610  1.00  0.00     0.031 C 
ATOM     52  C   UNL     1       6.581  11.517   5.215  1.00  0.00     0.029 A 
ATOM     53  C   UNL     1       5.335  11.894   5.719  1.00  0.00     0.049 A 
ATOM     54  H   UNL     1       4.098  13.317   4.783  1.00  0.00     0.167 HD
ATOM     55  C   UNL     1       3.313  11.627   7.146  1.00  0.00     0.074 A 
ATOM     56  C   UNL     1       2.219  11.987   6.250  1.00  0.00     0.031 C 
ATOM     57  C   UNL     1       4.667  11.610   6.967  1.00  0.00     0.037 A 
BRANCH  44  58
ATOM     58  C   UNL     1       3.407  12.913   1.883  1.00  0.00     0.064 A 
ATOM     59  C   UNL     1       3.805  14.258   1.989  1.00  0.00     0.173 A 
ATOM     60  C   UNL     1       2.052  12.717   1.517  1.00  0.00     0.173 A 
ATOM     61  F   UNL     1       5.064  14.571   2.330  1.00  0.00    -0.203 F 
ATOM     62  C   UNL     1       2.899  15.311   1.844  1.00  0.00     0.198 A 
ATOM     63  C   UNL     1       1.167  13.771   1.316  1.00  0.00     0.198 A 
ATOM     64  F   UNL     1       1.478  11.514   1.435  1.00  0.00    -0.203 F 
ATOM     65  F   UNL     1       3.298  16.565   2.091  1.00  0.00    -0.200 F 
ATOM     66  C   UNL     1       1.578  15.067   1.517  1.00  0.00     0.200 A 
ATOM     67  F   UNL     1      -0.111  13.504   1.009  1.00  0.00    -0.200 F 
ATOM     68  F   UNL     1       0.694  16.068   1.443  1.00  0.00    -0.200 F 
ENDBRANCH  44  58
BRANCH  45  69
ATOM     69  C   UNL     1      -0.505   9.194   8.536  1.00  0.00     0.064 A 
ATOM     70  C   UNL     1      -0.951  10.134   9.479  1.00  0.00     0.173 A 
ATOM     71  C   UNL     1      -1.488   8.347   7.986  1.00  0.00     0.173 A 
ATOM     72  F   UNL     1      -0.089  11.009  10.018  1.00  0.00    -0.203 F 
ATOM     73  C   UNL     1      -2.301  10.239   9.831  1.00  0.00     0.198 A 
ATOM     74  C   UNL     1      -2.832   8.445   8.346  1.00  0.00     0.198 A 
ATOM     75  F   UNL     1      -1.183   7.473   7.017  1.00  0.00    -0.203 F 
ATOM     76  F   UNL     1      -2.697  11.193  10.684  1.00  0.00    -0.200 F 
ATOM     77  C   UNL     1      -3.242   9.400   9.257  1.00  0.00     0.200 A 
ATOM     78  F   UNL     1      -3.737   7.651   7.755  1.00  0.00    -0.200 F 
ATOM     79  F   UNL     1      -4.543   9.539   9.547  1.00  0.00    -0.200 F 
ENDBRANCH  45  69
BRANCH  57  80
ATOM     80  C   UNL     1       5.507  11.028   8.070  1.00  0.00     0.064 A 
ATOM     81  C   UNL     1       5.437   9.687   8.488  1.00  0.00     0.173 A 
ATOM     82  C   UNL     1       6.512  11.826   8.631  1.00  0.00     0.173 A 
ATOM     83  F   UNL     1       4.573   8.834   7.924  1.00  0.00    -0.203 F 
ATOM     84  C   UNL     1       6.302   9.188   9.461  1.00  0.00     0.198 A 
ATOM     85  C   UNL     1       7.400  11.314   9.572  1.00  0.00     0.198 A 
ATOM     86  F   UNL     1       6.662  13.098   8.229  1.00  0.00    -0.203 F 
ATOM     87  F   UNL     1       6.202   7.910   9.857  1.00  0.00    -0.200 F 
ATOM     88  C   UNL     1       7.287  10.000   9.996  1.00  0.00     0.200 A 
ATOM     89  F   UNL     1       8.383  12.089  10.050  1.00  0.00    -0.200 F 
ATOM     90  F   UNL     1       8.146   9.509  10.901  1.00  0.00    -0.200 F 
ENDBRANCH  57  80
ENDBRANCH  31  32
ENDBRANCH  24  26
ENDBRANCH  23  24
ENDBRANCH  22  23
ENDBRANCH  21  22
ENDBRANCH   1  21
TORSDOF 16
