REMARK SMILES O=C(CSc1nnnn1C1CC1)N[C@H](CO)C(=O)OCCOCCOC(=O)c1ccc(-c2c3nc(c(-c4c(F)c(F)c(F)c(F)c4F)c4ccc([nH]4)c(-c4c(F)c(F)c(F)c(F)c4F)c4nc(c(-c5c(F)c(F)c(F)c(F)c5F)c5ccc2[nH]5)C=C4)C=C3)cc1
REMARK SMILES IDX 20 1 19 2 17 3 18 4 14 5 13 6 1 7 2 8 3 10 4 11 5 12 6 13
REMARK SMILES IDX 9 14 7 15 8 16 10 17 11 18 12 19 15 20 16 21 21 23 22 24
REMARK SMILES IDX 23 25 24 26 25 27 26 28 27 29 28 30 29 31 90 32 30 33 89 34
REMARK SMILES IDX 31 35 32 36 33 37 83 38 34 39 88 40 82 41 84 42 35 43 87 44
REMARK SMILES IDX 81 45 80 46 36 48 68 49 48 50 67 51 49 52 52 53 66 54 85 55
REMARK SMILES IDX 50 56 51 57 65 59 86 60 53 61 37 62 38 63 46 64 39 65 40 66
REMARK SMILES IDX 44 67 47 68 41 69 42 70 45 71 43 72 69 73 70 74 78 75 71 76
REMARK SMILES IDX 72 77 76 78 79 79 73 80 74 81 77 82 75 83 54 84 55 85 63 86
REMARK SMILES IDX 56 87 57 88 61 89 64 90 58 91 59 92 62 93 60 94
REMARK H PARENT 13 9 16 22 84 47 52 58
REMARK Flexibility Score: inf
ROOT
ATOM      1  C   UNL     1       4.114   5.332  -0.098  1.00  0.00     0.261 C 
ENDROOT
BRANCH   1   2
ATOM      2  O   UNL     1       3.855   3.980   0.428  1.00  0.00    -0.462 OA
BRANCH   2   3
ATOM      3  C   UNL     1       2.594   3.691   0.906  1.00  0.00     0.331 C 
ATOM      4  O   UNL     1       1.702   4.531   0.977  1.00  0.00    -0.250 OA
BRANCH   3   5
ATOM      5  C   UNL     1       2.404   2.199   1.324  1.00  0.00     0.218 C 
BRANCH   5   6
ATOM      6  N   UNL     1       2.653   2.235   2.781  1.00  0.00    -0.340 N 
ATOM      7  O   UNL     1       3.251   0.040   3.047  1.00  0.00    -0.274 OA
ATOM      8  C   UNL     1       3.169   1.181   3.496  1.00  0.00     0.231 C 
ATOM      9  H   UNL     1       2.437   3.062   3.268  1.00  0.00     0.164 HD
BRANCH   8  10
ATOM     10  C   UNL     1       3.580   1.360   4.919  1.00  0.00     0.178 C 
BRANCH  10  11
ATOM     11  S   UNL     1       5.176   2.128   5.297  1.00  0.00    -0.075 SA
BRANCH  11  12
ATOM     12  C   UNL     1       6.381   1.641   4.134  1.00  0.00     0.210 A 
ATOM     13  N   UNL     1       7.224   0.649   4.332  1.00  0.00    -0.102 NA
ATOM     14  N   UNL     1       6.831   2.347   3.025  1.00  0.00    -0.217 N 
ATOM     15  N   UNL     1       8.160   0.716   3.325  1.00  0.00    -0.023 NA
ATOM     16  N   UNL     1       7.904   1.720   2.501  1.00  0.00    -0.044 NA
BRANCH  14  17
ATOM     17  C   UNL     1       6.267   3.503   2.356  1.00  0.00     0.112 C 
ATOM     18  C   UNL     1       4.979   4.104   2.865  1.00  0.00     0.029 C 
ATOM     19  C   UNL     1       6.199   4.919   2.920  1.00  0.00     0.029 C 
ENDBRANCH  14  17
ENDBRANCH  11  12
ENDBRANCH  10  11
ENDBRANCH   8  10
ENDBRANCH   5   6
BRANCH   5  20
ATOM     20  C   UNL     1       3.256   1.121   0.612  1.00  0.00     0.193 C 
BRANCH  20  21
ATOM     21  O   UNL     1       2.739  -0.206   0.773  1.00  0.00    -0.394 OA
ATOM     22  H   UNL     1       2.739  -0.441   1.714  1.00  0.00     0.210 HD
ENDBRANCH  20  21
ENDBRANCH   5  20
ENDBRANCH   3   5
ENDBRANCH   2   3
ENDBRANCH   1   2
BRANCH   1  23
ATOM     23  C   UNL     1       3.709   5.439  -1.561  1.00  0.00     0.202 C 
BRANCH  23  24
ATOM     24  O   UNL     1       2.440   5.027  -2.060  1.00  0.00    -0.374 OA
BRANCH  24  25
ATOM     25  C   UNL     1       2.188   3.631  -1.924  1.00  0.00     0.202 C 
BRANCH  25  26
ATOM     26  C   UNL     1       3.034   2.494  -2.506  1.00  0.00     0.261 C 
BRANCH  26  27
ATOM     27  O   UNL     1       4.444   2.523  -2.138  1.00  0.00    -0.460 OA
BRANCH  27  28
ATOM     28  C   UNL     1       5.217   3.321  -2.931  1.00  0.00     0.338 C 
ATOM     29  O   UNL     1       4.797   4.011  -3.847  1.00  0.00    -0.246 OA
BRANCH  28  30
ATOM     30  C   UNL     1       6.625   3.408  -2.437  1.00  0.00     0.060 A 
ATOM     31  C   UNL     1       7.411   4.261  -3.147  1.00  0.00     0.016 A 
ATOM     32  C   UNL     1       7.183   2.134  -2.263  1.00  0.00     0.016 A 
ATOM     33  C   UNL     1       8.296   3.503  -4.149  1.00  0.00     0.010 A 
ATOM     34  C   UNL     1       8.269   1.636  -3.014  1.00  0.00     0.010 A 
ATOM     35  C   UNL     1       8.252   1.876  -4.373  1.00  0.00    -0.014 A 
BRANCH  35  36
ATOM     36  C   UNL     1       8.932   0.252  -5.232  1.00  0.00     0.031 A 
ATOM     37  C   UNL     1      10.515   0.910  -4.164  1.00  0.00     0.074 A 
ATOM     38  C   UNL     1       8.438  -1.055  -6.242  1.00  0.00     0.049 A 
ATOM     39  N   UNL     1      11.324   1.943  -4.470  1.00  0.00    -0.248 NA
ATOM     40  C   UNL     1      10.991   1.193  -2.405  1.00  0.00     0.031 C 
ATOM     41  C   UNL     1       7.149  -2.140  -7.224  1.00  0.00     0.029 A 
ATOM     42  N   UNL     1       9.152  -2.245  -7.171  1.00  0.00    -0.354 N 
ATOM     43  C   UNL     1      12.545   1.719  -3.691  1.00  0.00     0.074 A 
ATOM     44  C   UNL     1      12.306   1.519  -2.338  1.00  0.00     0.031 C 
ATOM     45  C   UNL     1       7.357  -3.591  -7.579  1.00  0.00     0.029 A 
ATOM     46  C   UNL     1       8.731  -3.756  -7.454  1.00  0.00     0.049 A 
ATOM     47  H   UNL     1       9.980  -1.963  -7.623  1.00  0.00     0.167 HD
ATOM     48  C   UNL     1      13.491   0.921  -4.212  1.00  0.00     0.037 A 
ATOM     49  C   UNL     1       9.450  -4.961  -7.631  1.00  0.00     0.037 A 
ATOM     50  C   UNL     1      13.177   0.831  -5.581  1.00  0.00     0.049 A 
ATOM     51  C   UNL     1      10.710  -4.273  -7.389  1.00  0.00     0.074 A 
ATOM     52  C   UNL     1      12.964   1.854  -6.478  1.00  0.00     0.029 A 
ATOM     53  N   UNL     1      12.348  -0.191  -5.907  1.00  0.00    -0.354 N 
ATOM     54  N   UNL     1      11.184  -3.385  -8.236  1.00  0.00    -0.248 NA
ATOM     55  C   UNL     1      10.918  -4.080  -5.957  1.00  0.00     0.031 C 
ATOM     56  C   UNL     1      12.050   1.384  -7.423  1.00  0.00     0.029 A 
ATOM     57  C   UNL     1      11.760   0.077  -7.097  1.00  0.00     0.049 A 
ATOM     58  H   UNL     1      12.197  -0.999  -5.364  1.00  0.00     0.167 HD
ATOM     59  C   UNL     1      11.450  -2.273  -7.440  1.00  0.00     0.074 A 
ATOM     60  C   UNL     1      11.376  -2.826  -6.008  1.00  0.00     0.031 C 
ATOM     61  C   UNL     1      11.174  -0.959  -7.849  1.00  0.00     0.037 A 
BRANCH  48  62
ATOM     62  C   UNL     1      14.393  -0.021  -3.509  1.00  0.00     0.064 A 
ATOM     63  C   UNL     1      15.581  -0.188  -4.205  1.00  0.00     0.173 A 
ATOM     64  C   UNL     1      14.146  -0.867  -2.400  1.00  0.00     0.173 A 
ATOM     65  F   UNL     1      15.898   0.673  -5.184  1.00  0.00    -0.203 F 
ATOM     66  C   UNL     1      16.430  -1.231  -3.920  1.00  0.00     0.198 A 
ATOM     67  C   UNL     1      15.064  -1.852  -2.047  1.00  0.00     0.198 A 
ATOM     68  F   UNL     1      13.035  -0.788  -1.652  1.00  0.00    -0.203 F 
ATOM     69  F   UNL     1      17.441  -1.484  -4.756  1.00  0.00    -0.200 F 
ATOM     70  C   UNL     1      16.200  -2.034  -2.816  1.00  0.00     0.200 A 
ATOM     71  F   UNL     1      14.820  -2.660  -1.003  1.00  0.00    -0.200 F 
ATOM     72  F   UNL     1      17.091  -2.976  -2.489  1.00  0.00    -0.200 F 
ENDBRANCH  48  62
BRANCH  49  73
ATOM     73  C   UNL     1       9.091  -6.415  -7.097  1.00  0.00     0.064 A 
ATOM     74  C   UNL     1       9.513  -7.697  -7.574  1.00  0.00     0.173 A 
ATOM     75  C   UNL     1       8.390  -6.504  -5.871  1.00  0.00     0.173 A 
ATOM     76  F   UNL     1      10.226  -7.805  -8.705  1.00  0.00    -0.203 F 
ATOM     77  C   UNL     1       9.247  -8.921  -6.875  1.00  0.00     0.198 A 
ATOM     78  C   UNL     1       8.196  -7.700  -5.141  1.00  0.00     0.198 A 
ATOM     79  F   UNL     1       7.926  -5.381  -5.310  1.00  0.00    -0.203 F 
ATOM     80  F   UNL     1       9.573 -10.111  -7.410  1.00  0.00    -0.200 F 
ATOM     81  C   UNL     1       8.653  -8.906  -5.626  1.00  0.00     0.200 A 
ATOM     82  F   UNL     1       7.582  -7.660  -3.948  1.00  0.00    -0.200 F 
ATOM     83  F   UNL     1       8.553 -10.025  -4.887  1.00  0.00    -0.200 F 
ENDBRANCH  49  73
BRANCH  61  84
ATOM     84  C   UNL     1      10.546  -0.512  -9.206  1.00  0.00     0.064 A 
ATOM     85  C   UNL     1       9.184  -0.271  -9.577  1.00  0.00     0.173 A 
ATOM     86  C   UNL     1      11.466  -0.195 -10.192  1.00  0.00     0.173 A 
ATOM     87  F   UNL     1       8.180  -0.232  -8.698  1.00  0.00    -0.203 F 
ATOM     88  C   UNL     1       8.783  -0.040 -10.891  1.00  0.00     0.198 A 
ATOM     89  C   UNL     1      11.072   0.210 -11.467  1.00  0.00     0.198 A 
ATOM     90  F   UNL     1      12.770  -0.202  -9.890  1.00  0.00    -0.203 F 
ATOM     91  F   UNL     1       7.488  -0.148 -11.238  1.00  0.00    -0.200 F 
ATOM     92  C   UNL     1       9.735   0.261 -11.828  1.00  0.00     0.200 A 
ATOM     93  F   UNL     1      12.011   0.523 -12.364  1.00  0.00    -0.200 F 
ATOM     94  F   UNL     1       9.367   0.646 -13.056  1.00  0.00    -0.200 F 
ENDBRANCH  61  84
ENDBRANCH  35  36
ENDBRANCH  28  30
ENDBRANCH  27  28
ENDBRANCH  26  27
ENDBRANCH  25  26
ENDBRANCH  24  25
ENDBRANCH  23  24
ENDBRANCH   1  23
TORSDOF 21
