REMARK SMILES CC(C)C[C@@H]([NH2+][C@H]1CCOC2(CCOCC2)C1)C(=O)OCCOCCOC(=O)c1ccc(-c2c3nc(c(-c4c(F)c(F)c(F)c(F)c4F)c4ccc([nH]4)c(-c4c(F)c(F)c(F)c(F)c4F)c4nc(c(-c5c(F)c(F)c(F)c(F)c5F)c5ccc2[nH]5)C=C4)C=C3)cc1
REMARK SMILES IDX 23 1 22 2 21 3 20 4 18 5 19 6 5 7 4 8 2 9 1 10 3 11 6 12
REMARK SMILES IDX 7 15 8 16 17 17 9 18 11 19 10 20 12 21 16 22 13 23 15 24
REMARK SMILES IDX 14 25 24 26 25 27 26 28 27 29 28 30 29 31 30 32 91 33 31 34
REMARK SMILES IDX 90 35 32 36 33 37 34 38 84 39 35 40 89 41 83 42 85 43 36 44
REMARK SMILES IDX 88 45 82 46 81 47 37 49 69 50 49 51 68 52 50 53 53 54 67 55
REMARK SMILES IDX 86 56 51 57 52 58 66 60 87 61 54 62 38 63 39 64 47 65 40 66
REMARK SMILES IDX 41 67 45 68 48 69 42 70 43 71 46 72 44 73 70 74 71 75 79 76
REMARK SMILES IDX 72 77 73 78 77 79 80 80 74 81 75 82 78 83 76 84 55 85 56 86
REMARK SMILES IDX 64 87 57 88 58 89 62 90 65 91 59 92 60 93 63 94 61 95
REMARK H PARENT 6 13 6 14 85 48 53 59
REMARK Flexibility Score: inf
ROOT
ATOM      1  O   UNL     1       2.302  -2.504  -1.140  1.00  0.00    -0.374 OA
ENDROOT
BRANCH   1   2
ATOM      2  C   UNL     1       2.546  -2.755  -2.513  1.00  0.00     0.202 C 
BRANCH   2   3
ATOM      3  C   UNL     1       2.002  -1.832  -3.619  1.00  0.00     0.261 C 
BRANCH   3   4
ATOM      4  O   UNL     1       1.412  -0.583  -3.257  1.00  0.00    -0.459 OA
BRANCH   4   5
ATOM      5  C   UNL     1       0.208  -0.672  -2.634  1.00  0.00     0.364 C 
ATOM      6  O   UNL     1      -0.264  -1.717  -2.198  1.00  0.00    -0.245 OA
BRANCH   5   7
ATOM      7  C   UNL     1      -0.558   0.671  -2.603  1.00  0.00     0.293 C 
BRANCH   7   8
ATOM      8  C   UNL     1       0.427   1.859  -2.552  1.00  0.00     0.080 C 
BRANCH   8   9
ATOM      9  C   UNL     1      -0.146   3.227  -2.132  1.00  0.00    -0.011 C 
ATOM     10  C   UNL     1      -0.860   3.178  -0.780  1.00  0.00     0.007 C 
ATOM     11  C   UNL     1       0.997   4.250  -2.058  1.00  0.00     0.007 C 
ENDBRANCH   8   9
ENDBRANCH   7   8
BRANCH   7  12
ATOM     12  N   UNL     1      -1.552   0.807  -3.722  1.00  0.00    -0.332 N 
ATOM     13  H   UNL     1      -1.065   1.143  -4.553  1.00  0.00     0.347 HD
ATOM     14  H   UNL     1      -2.272   1.463  -3.421  1.00  0.00     0.347 HD
BRANCH  12  15
ATOM     15  C   UNL     1      -2.214  -0.472  -4.045  1.00  0.00     0.188 C 
ATOM     16  C   UNL     1      -3.687  -0.386  -4.446  1.00  0.00     0.093 C 
ATOM     17  C   UNL     1      -1.484  -1.135  -5.218  1.00  0.00     0.100 C 
ATOM     18  C   UNL     1      -4.187  -1.814  -4.706  1.00  0.00     0.167 C 
ATOM     19  C   UNL     1      -1.996  -2.567  -5.460  1.00  0.00     0.078 C 
ATOM     20  O   UNL     1      -3.416  -2.513  -5.692  1.00  0.00    -0.374 OA
ATOM     21  C   UNL     1      -1.640  -3.518  -4.296  1.00  0.00     0.064 C 
ATOM     22  C   UNL     1      -1.333  -3.090  -6.752  1.00  0.00     0.064 C 
ATOM     23  C   UNL     1      -1.830  -4.983  -4.650  1.00  0.00     0.163 C 
ATOM     24  C   UNL     1      -1.554  -4.582  -6.949  1.00  0.00     0.163 C 
ATOM     25  O   UNL     1      -1.080  -5.309  -5.818  1.00  0.00    -0.381 OA
ENDBRANCH  12  15
ENDBRANCH   7  12
ENDBRANCH   5   7
ENDBRANCH   4   5
ENDBRANCH   3   4
ENDBRANCH   2   3
ENDBRANCH   1   2
BRANCH   1  26
ATOM     26  C   UNL     1       2.586  -1.237  -0.568  1.00  0.00     0.202 C 
BRANCH  26  27
ATOM     27  C   UNL     1       3.992  -0.662  -0.717  1.00  0.00     0.261 C 
BRANCH  27  28
ATOM     28  O   UNL     1       4.359  -0.440  -2.089  1.00  0.00    -0.460 OA
BRANCH  28  29
ATOM     29  C   UNL     1       5.432  -1.147  -2.502  1.00  0.00     0.338 C 
ATOM     30  O   UNL     1       6.120  -1.914  -1.836  1.00  0.00    -0.246 OA
BRANCH  29  31
ATOM     31  C   UNL     1       5.615  -1.011  -3.954  1.00  0.00     0.060 A 
ATOM     32  C   UNL     1       5.728  -2.189  -4.704  1.00  0.00     0.016 A 
ATOM     33  C   UNL     1       5.790   0.238  -4.553  1.00  0.00     0.016 A 
ATOM     34  C   UNL     1       6.087  -2.126  -6.046  1.00  0.00     0.010 A 
ATOM     35  C   UNL     1       6.167   0.299  -5.897  1.00  0.00     0.010 A 
ATOM     36  C   UNL     1       6.365  -0.885  -6.631  1.00  0.00    -0.014 A 
BRANCH  36  37
ATOM     37  C   UNL     1       7.062  -0.850  -7.937  1.00  0.00     0.031 A 
ATOM     38  C   UNL     1       8.561  -0.728  -7.946  1.00  0.00     0.074 A 
ATOM     39  C   UNL     1       6.382  -0.976  -9.088  1.00  0.00     0.049 A 
ATOM     40  N   UNL     1       9.386  -0.668  -8.960  1.00  0.00    -0.248 NA
ATOM     41  C   UNL     1       9.220  -0.668  -6.631  1.00  0.00     0.031 C 
ATOM     42  C   UNL     1       4.936  -1.151  -9.199  1.00  0.00     0.029 A 
ATOM     43  N   UNL     1       6.825  -0.974 -10.386  1.00  0.00    -0.354 N 
ATOM     44  C   UNL     1      10.655  -0.563  -8.406  1.00  0.00     0.074 A 
ATOM     45  C   UNL     1      10.493  -0.537  -6.970  1.00  0.00     0.031 C 
ATOM     46  C   UNL     1       4.607  -1.228 -10.500  1.00  0.00     0.029 A 
ATOM     47  C   UNL     1       5.816  -1.080 -11.310  1.00  0.00     0.049 A 
ATOM     48  H   UNL     1       7.776  -0.903 -10.632  1.00  0.00     0.167 HD
ATOM     49  C   UNL     1      11.850  -0.503  -9.041  1.00  0.00     0.037 A 
ATOM     50  C   UNL     1       5.867  -1.041 -12.655  1.00  0.00     0.037 A 
ATOM     51  C   UNL     1      12.007  -0.527 -10.471  1.00  0.00     0.049 A 
ATOM     52  C   UNL     1       7.203  -0.895 -13.338  1.00  0.00     0.074 A 
ATOM     53  C   UNL     1      13.173  -0.484 -11.213  1.00  0.00     0.029 A 
ATOM     54  N   UNL     1      10.957  -0.594 -11.376  1.00  0.00    -0.354 N 
ATOM     55  N   UNL     1       8.400  -0.818 -12.810  1.00  0.00    -0.248 NA
ATOM     56  C   UNL     1       7.192  -0.835 -14.807  1.00  0.00     0.031 C 
ATOM     57  C   UNL     1      12.827  -0.475 -12.568  1.00  0.00     0.029 A 
ATOM     58  C   UNL     1      11.448  -0.565 -12.671  1.00  0.00     0.049 A 
ATOM     59  H   UNL     1      10.005  -0.653 -11.133  1.00  0.00     0.167 HD
ATOM     60  C   UNL     1       9.285  -0.727 -13.877  1.00  0.00     0.074 A 
ATOM     61  C   UNL     1       8.487  -0.771 -15.084  1.00  0.00     0.031 C 
ATOM     62  C   UNL     1      10.636  -0.616 -13.860  1.00  0.00     0.037 A 
BRANCH  49  63
ATOM     63  C   UNL     1      13.079  -0.376  -8.191  1.00  0.00     0.064 A 
ATOM     64  C   UNL     1      13.559  -1.447  -7.422  1.00  0.00     0.173 A 
ATOM     65  C   UNL     1      13.801   0.827  -8.164  1.00  0.00     0.173 A 
ATOM     66  F   UNL     1      12.895  -2.613  -7.401  1.00  0.00    -0.203 F 
ATOM     67  C   UNL     1      14.703  -1.311  -6.640  1.00  0.00     0.198 A 
ATOM     68  C   UNL     1      14.960   0.950  -7.402  1.00  0.00     0.198 A 
ATOM     69  F   UNL     1      13.385   1.881  -8.881  1.00  0.00    -0.203 F 
ATOM     70  F   UNL     1      15.118  -2.333  -5.879  1.00  0.00    -0.200 F 
ATOM     71  C   UNL     1      15.406  -0.116  -6.636  1.00  0.00     0.200 A 
ATOM     72  F   UNL     1      15.643   2.103  -7.407  1.00  0.00    -0.200 F 
ATOM     73  F   UNL     1      16.510   0.012  -5.888  1.00  0.00    -0.200 F 
ENDBRANCH  49  63
BRANCH  50  74
ATOM     74  C   UNL     1       4.613  -1.126 -13.447  1.00  0.00     0.064 A 
ATOM     75  C   UNL     1       4.334  -2.244 -14.245  1.00  0.00     0.173 A 
ATOM     76  C   UNL     1       3.677  -0.081 -13.437  1.00  0.00     0.173 A 
ATOM     77  F   UNL     1       5.211  -3.256 -14.309  1.00  0.00    -0.203 F 
ATOM     78  C   UNL     1       3.174  -2.306 -15.015  1.00  0.00     0.198 A 
ATOM     79  C   UNL     1       2.505  -0.156 -14.185  1.00  0.00     0.198 A 
ATOM     80  F   UNL     1       3.900   1.013 -12.693  1.00  0.00    -0.203 F 
ATOM     81  F   UNL     1       2.953  -3.365 -15.805  1.00  0.00    -0.200 F 
ATOM     82  C   UNL     1       2.258  -1.265 -14.980  1.00  0.00     0.200 A 
ATOM     83  F   UNL     1       1.619   0.848 -14.141  1.00  0.00    -0.200 F 
ATOM     84  F   UNL     1       1.142  -1.326 -15.720  1.00  0.00    -0.200 F 
ENDBRANCH  50  74
BRANCH  62  85
ATOM     85  C   UNL     1      11.341  -0.568 -15.184  1.00  0.00     0.064 A 
ATOM     86  C   UNL     1      11.282   0.565 -16.008  1.00  0.00     0.173 A 
ATOM     87  C   UNL     1      12.122  -1.653 -15.613  1.00  0.00     0.173 A 
ATOM     88  F   UNL     1      10.538   1.622 -15.649  1.00  0.00    -0.203 F 
ATOM     89  C   UNL     1      11.959   0.601 -17.224  1.00  0.00     0.198 A 
ATOM     90  C   UNL     1      12.821  -1.602 -16.815  1.00  0.00     0.198 A 
ATOM     91  F   UNL     1      12.218  -2.757 -14.858  1.00  0.00    -0.203 F 
ATOM     92  F   UNL     1      11.853   1.677 -18.016  1.00  0.00    -0.200 F 
ATOM     93  C   UNL     1      12.734  -0.478 -17.623  1.00  0.00     0.200 A 
ATOM     94  F   UNL     1      13.581  -2.640 -17.192  1.00  0.00    -0.200 F 
ATOM     95  F   UNL     1      13.392  -0.438 -18.790  1.00  0.00    -0.200 F 
ENDBRANCH  62  85
ENDBRANCH  36  37
ENDBRANCH  29  31
ENDBRANCH  28  29
ENDBRANCH  27  28
ENDBRANCH  26  27
ENDBRANCH   1  26
TORSDOF 18
