REMARK SMILES CN(C(=O)N[C@@](C)(C(=O)OCCOCCOC(=O)c1ccc(-c2c3nc(c(-c4c(F)c(F)c(F)c(F)c4F)c4ccc([nH]4)c(-c4c(F)c(F)c(F)c(F)c4F)c4nc(c(-c5c(F)c(F)c(F)c(F)c5F)c5ccc2[nH]5)C=C4)C=C3)cc1)C(F)(F)F)c1ccc(F)cc1
REMARK SMILES IDX 12 1 11 2 10 3 8 4 9 5 6 6 7 7 5 8 3 9 4 10 2 12 1 13 86 14
REMARK SMILES IDX 87 15 92 16 88 17 91 18 89 19 90 20 82 21 83 22 84 23 85 24
REMARK SMILES IDX 13 25 14 26 15 27 16 28 17 29 18 30 19 31 20 32 81 33 21 34
REMARK SMILES IDX 80 35 22 36 23 37 24 38 74 39 25 40 79 41 73 42 75 43 26 44
REMARK SMILES IDX 78 45 72 46 71 47 27 49 59 50 39 51 58 52 40 53 43 54 57 55
REMARK SMILES IDX 76 56 41 57 42 58 56 60 77 61 44 62 28 63 29 64 37 65 30 66
REMARK SMILES IDX 31 67 35 68 38 69 32 70 33 71 36 72 34 73 60 74 61 75 69 76
REMARK SMILES IDX 62 77 63 78 67 79 70 80 64 81 65 82 68 83 66 84 45 85 46 86
REMARK SMILES IDX 54 87 47 88 48 89 52 90 55 91 49 92 50 93 53 94 51 95
REMARK H PARENT 5 11 75 48 43 59
REMARK Flexibility Score: inf
ROOT
ATOM      1  C   UNL     1       2.241   3.083  -4.763  1.00  0.00     0.202 C 
ENDROOT
BRANCH   1   2
ATOM      2  C   UNL     1       0.779   2.635  -4.928  1.00  0.00     0.261 C 
BRANCH   2   3
ATOM      3  O   UNL     1       0.175   2.082  -3.750  1.00  0.00    -0.461 OA
BRANCH   3   4
ATOM      4  C   UNL     1       0.217   0.716  -3.663  1.00  0.00     0.341 C 
ATOM      5  O   UNL     1       0.645   0.007  -4.564  1.00  0.00    -0.249 OA
BRANCH   4   6
ATOM      6  C   UNL     1      -0.515   0.202  -2.408  1.00  0.00     0.232 C 
ATOM      7  C   UNL     1      -2.003   0.078  -2.816  1.00  0.00     0.058 C 
BRANCH   6   8
ATOM      8  N   UNL     1      -0.517   1.249  -1.292  1.00  0.00    -0.314 N 
ATOM      9  C   UNL     1      -0.123   1.641  -0.072  1.00  0.00     0.322 C 
ATOM     10  O   UNL     1      -0.522   2.788   0.183  1.00  0.00    -0.248 OA
ATOM     11  H   UNL     1      -1.073   1.988  -1.633  1.00  0.00     0.166 HD
BRANCH   9  12
ATOM     12  N   UNL     1       0.658   0.938   0.802  1.00  0.00    -0.298 N 
ATOM     13  C   UNL     1       1.305  -0.330   0.537  1.00  0.00     0.155 C 
BRANCH  12  14
ATOM     14  C   UNL     1       0.895   1.439   2.139  1.00  0.00     0.045 A 
ATOM     15  C   UNL     1      -0.147   1.969   2.916  1.00  0.00     0.029 A 
ATOM     16  C   UNL     1       2.161   1.291   2.738  1.00  0.00     0.029 A 
ATOM     17  C   UNL     1       0.056   2.271   4.269  1.00  0.00     0.041 A 
ATOM     18  C   UNL     1       2.367   1.603   4.084  1.00  0.00     0.041 A 
ATOM     19  C   UNL     1       1.306   2.072   4.843  1.00  0.00     0.123 A 
ATOM     20  F   UNL     1       1.488   2.325   6.145  1.00  0.00    -0.207 F 
ENDBRANCH  12  14
ENDBRANCH   9  12
ENDBRANCH   6   8
BRANCH   6  21
ATOM     21  C   UNL     1       0.002  -1.224  -2.205  1.00  0.00     0.422 C 
ATOM     22  F   UNL     1       1.325  -1.269  -1.945  1.00  0.00    -0.168 F 
ATOM     23  F   UNL     1      -0.652  -1.834  -1.186  1.00  0.00    -0.168 F 
ATOM     24  F   UNL     1      -0.213  -2.020  -3.280  1.00  0.00    -0.168 F 
ENDBRANCH   6  21
ENDBRANCH   4   6
ENDBRANCH   3   4
ENDBRANCH   2   3
ENDBRANCH   1   2
BRANCH   1  25
ATOM     25  O   UNL     1       2.979   2.615  -3.644  1.00  0.00    -0.374 OA
BRANCH  25  26
ATOM     26  C   UNL     1       2.545   2.973  -2.334  1.00  0.00     0.202 C 
BRANCH  26  27
ATOM     27  C   UNL     1       2.321   4.452  -2.003  1.00  0.00     0.261 C 
BRANCH  27  28
ATOM     28  O   UNL     1       1.302   5.061  -2.818  1.00  0.00    -0.460 OA
BRANCH  28  29
ATOM     29  C   UNL     1       1.673   6.229  -3.400  1.00  0.00     0.338 C 
ATOM     30  O   UNL     1       2.738   6.810  -3.296  1.00  0.00    -0.246 OA
BRANCH  29  31
ATOM     31  C   UNL     1       0.640   6.662  -4.353  1.00  0.00     0.060 A 
ATOM     32  C   UNL     1       0.970   6.691  -5.714  1.00  0.00     0.016 A 
ATOM     33  C   UNL     1      -0.592   7.143  -3.907  1.00  0.00     0.016 A 
ATOM     34  C   UNL     1       0.070   7.221  -6.637  1.00  0.00     0.010 A 
ATOM     35  C   UNL     1      -1.488   7.685  -4.833  1.00  0.00     0.010 A 
ATOM     36  C   UNL     1      -1.153   7.746  -6.198  1.00  0.00    -0.014 A 
BRANCH  36  37
ATOM     37  C   UNL     1      -2.048   8.437  -7.156  1.00  0.00     0.031 A 
ATOM     38  C   UNL     1      -2.028   9.936  -7.244  1.00  0.00     0.074 A 
ATOM     39  C   UNL     1      -2.879   7.725  -7.938  1.00  0.00     0.049 A 
ATOM     40  N   UNL     1      -2.772  10.735  -7.966  1.00  0.00    -0.248 NA
ATOM     41  C   UNL     1      -1.037  10.627  -6.405  1.00  0.00     0.031 C 
ATOM     42  C   UNL     1      -2.966   6.267  -7.962  1.00  0.00     0.029 A 
ATOM     43  N   UNL     1      -3.820   8.137  -8.848  1.00  0.00    -0.354 N 
ATOM     44  C   UNL     1      -2.346  12.022  -7.665  1.00  0.00     0.074 A 
ATOM     45  C   UNL     1      -1.292  11.899  -6.679  1.00  0.00     0.031 C 
ATOM     46  C   UNL     1      -3.930   5.904  -8.824  1.00  0.00     0.029 A 
ATOM     47  C   UNL     1      -4.546   7.104  -9.386  1.00  0.00     0.049 A 
ATOM     48  H   UNL     1      -3.961   9.081  -9.090  1.00  0.00     0.167 HD
ATOM     49  C   UNL     1      -2.793  13.197  -8.169  1.00  0.00     0.037 A 
ATOM     50  C   UNL     1      -5.610   7.128 -10.213  1.00  0.00     0.037 A 
ATOM     51  C   UNL     1      -3.842  13.314  -9.148  1.00  0.00     0.049 A 
ATOM     52  C   UNL     1      -6.135   8.450 -10.705  1.00  0.00     0.074 A 
ATOM     53  C   UNL     1      -4.330  14.456  -9.758  1.00  0.00     0.029 A 
ATOM     54  N   UNL     1      -4.577  12.248  -9.648  1.00  0.00    -0.354 N 
ATOM     55  N   UNL     1      -5.698   9.660 -10.452  1.00  0.00    -0.248 NA
ATOM     56  C   UNL     1      -7.303   8.411 -11.597  1.00  0.00     0.031 C 
ATOM     57  C   UNL     1      -5.397  14.088 -10.586  1.00  0.00     0.029 A 
ATOM     58  C   UNL     1      -5.541  12.711 -10.529  1.00  0.00     0.049 A 
ATOM     59  H   UNL     1      -4.434  11.303  -9.412  1.00  0.00     0.167 HD
ATOM     60  C   UNL     1      -6.524  10.522 -11.160  1.00  0.00     0.074 A 
ATOM     61  C   UNL     1      -7.479   9.697 -11.869  1.00  0.00     0.031 C 
ATOM     62  C   UNL     1      -6.494  11.877 -11.217  1.00  0.00     0.037 A 
BRANCH  49  63
ATOM     63  C   UNL     1      -2.169  14.457  -7.646  1.00  0.00     0.064 A 
ATOM     64  C   UNL     1      -0.864  14.834  -7.993  1.00  0.00     0.173 A 
ATOM     65  C   UNL     1      -2.902  15.316  -6.814  1.00  0.00     0.173 A 
ATOM     66  F   UNL     1      -0.118  14.041  -8.777  1.00  0.00    -0.203 F 
ATOM     67  C   UNL     1      -0.306  16.014  -7.506  1.00  0.00     0.198 A 
ATOM     68  C   UNL     1      -2.351  16.507  -6.349  1.00  0.00     0.198 A 
ATOM     69  F   UNL     1      -4.157  15.004  -6.457  1.00  0.00    -0.203 F 
ATOM     70  F   UNL     1       0.957  16.335  -7.817  1.00  0.00    -0.200 F 
ATOM     71  C   UNL     1      -1.052  16.852  -6.690  1.00  0.00     0.200 A 
ATOM     72  F   UNL     1      -3.077  17.321  -5.570  1.00  0.00    -0.200 F 
ATOM     73  F   UNL     1      -0.516  17.989  -6.226  1.00  0.00    -0.200 F 
ENDBRANCH  49  63
BRANCH  50  74
ATOM     74  C   UNL     1      -6.267   5.854 -10.599  1.00  0.00     0.064 A 
ATOM     75  C   UNL     1      -6.182   5.360 -11.907  1.00  0.00     0.173 A 
ATOM     76  C   UNL     1      -6.992   5.102  -9.662  1.00  0.00     0.173 A 
ATOM     77  F   UNL     1      -5.522   6.057 -12.844  1.00  0.00    -0.203 F 
ATOM     78  C   UNL     1      -6.805   4.167 -12.266  1.00  0.00     0.198 A 
ATOM     79  C   UNL     1      -7.592   3.896 -10.015  1.00  0.00     0.198 A 
ATOM     80  F   UNL     1      -7.103   5.533  -8.397  1.00  0.00    -0.203 F 
ATOM     81  F   UNL     1      -6.739   3.733 -13.532  1.00  0.00    -0.200 F 
ATOM     82  C   UNL     1      -7.503   3.432 -11.318  1.00  0.00     0.200 A 
ATOM     83  F   UNL     1      -8.253   3.184  -9.093  1.00  0.00    -0.200 F 
ATOM     84  F   UNL     1      -8.093   2.279 -11.662  1.00  0.00    -0.200 F 
ENDBRANCH  50  74
BRANCH  62  85
ATOM     85  C   UNL     1      -7.519  12.553 -12.080  1.00  0.00     0.064 A 
ATOM     86  C   UNL     1      -8.864  12.632 -11.691  1.00  0.00     0.173 A 
ATOM     87  C   UNL     1      -7.145  13.167 -13.285  1.00  0.00     0.173 A 
ATOM     88  F   UNL     1      -9.274  12.046 -10.556  1.00  0.00    -0.203 F 
ATOM     89  C   UNL     1      -9.801  13.288 -12.485  1.00  0.00     0.198 A 
ATOM     90  C   UNL     1      -8.080  13.845 -14.063  1.00  0.00     0.198 A 
ATOM     91  F   UNL     1      -5.870  13.124 -13.699  1.00  0.00    -0.203 F 
ATOM     92  F   UNL     1     -11.088  13.318 -12.114  1.00  0.00    -0.200 F 
ATOM     93  C   UNL     1      -9.407  13.901 -13.666  1.00  0.00     0.200 A 
ATOM     94  F   UNL     1      -7.695  14.447 -15.197  1.00  0.00    -0.200 F 
ATOM     95  F   UNL     1     -10.309  14.539 -14.424  1.00  0.00    -0.200 F 
ENDBRANCH  62  85
ENDBRANCH  36  37
ENDBRANCH  29  31
ENDBRANCH  28  29
ENDBRANCH  27  28
ENDBRANCH  26  27
ENDBRANCH  25  26
ENDBRANCH   1  25
TORSDOF 18
