REMARK SMILES Cc1ccc(C[C@@H](Cc2cc(F)cc(Br)c2)C(=O)OCCOCCOC(=O)c2ccc(-c3c4nc(c(-c5c(F)c(F)c(F)c(F)c5F)c5ccc([nH]5)c(-c5c(F)c(F)c(F)c(F)c5F)c5nc(c(-c6c(F)c(F)c(F)c(F)c6F)c6ccc3[nH]6)C=C5)C=C4)cc2)cc1
REMARK SMILES IDX 22 1 21 2 20 3 19 4 17 5 18 6 7 7 6 8 5 9 1 10 2 11 3 12
REMARK SMILES IDX 92 13 4 14 91 15 8 16 9 17 10 18 16 19 11 20 14 21 12 22
REMARK SMILES IDX 13 23 15 24 23 25 24 26 25 27 26 28 27 29 28 30 29 31 90 32
REMARK SMILES IDX 30 33 89 34 31 35 32 36 33 37 83 38 34 39 88 40 82 41 84 42
REMARK SMILES IDX 35 43 87 44 81 45 80 46 36 48 68 49 48 50 67 51 49 52 52 53
REMARK SMILES IDX 66 54 85 55 50 56 51 57 65 59 86 60 53 61 37 62 38 63 46 64
REMARK SMILES IDX 39 65 40 66 44 67 47 68 41 69 42 70 45 71 43 72 69 73 70 74
REMARK SMILES IDX 78 75 71 76 72 77 76 78 79 79 73 80 74 81 77 82 75 83 54 84
REMARK SMILES IDX 55 85 63 86 56 87 57 88 61 89 64 90 58 91 59 92 62 93 60 94
REMARK H PARENT 84 47 52 58
REMARK Flexibility Score: inf
ROOT
ATOM      1  O   UNL     1      -6.252   1.912  -0.474  1.00  0.00    -0.374 OA
ENDROOT
BRANCH   1   2
ATOM      2  C   UNL     1      -5.910   1.361   0.783  1.00  0.00     0.202 C 
BRANCH   2   3
ATOM      3  C   UNL     1      -5.884  -0.117   0.536  1.00  0.00     0.261 C 
BRANCH   3   4
ATOM      4  O   UNL     1      -4.815  -0.461  -0.363  1.00  0.00    -0.463 OA
BRANCH   4   5
ATOM      5  C   UNL     1      -4.616  -0.186  -1.690  1.00  0.00     0.309 C 
ATOM      6  O   UNL     1      -5.456   0.187  -2.506  1.00  0.00    -0.252 OA
BRANCH   5   7
ATOM      7  C   UNL     1      -3.130  -0.416  -2.004  1.00  0.00     0.108 C 
BRANCH   7   8
ATOM      8  C   UNL     1      -2.495  -0.132  -0.597  1.00  0.00     0.051 C 
BRANCH   8   9
ATOM      9  C   UNL     1      -1.028  -0.064  -0.431  1.00  0.00    -0.047 A 
ATOM     10  C   UNL     1       3.180   0.122   0.121  1.00  0.00     0.044 C 
ATOM     11  C   UNL     1       1.693   0.075   0.006  1.00  0.00    -0.051 A 
ATOM     12  C   UNL     1       1.052  -1.166   0.045  1.00  0.00     0.004 A 
ATOM     13  C   UNL     1       0.956   1.249  -0.192  1.00  0.00     0.004 A 
ATOM     14  C   UNL     1      -0.311  -1.232  -0.155  1.00  0.00     0.004 A 
ATOM     15  C   UNL     1      -0.406   1.180  -0.419  1.00  0.00     0.004 A 
ENDBRANCH   8   9
ENDBRANCH   7   8
BRANCH   7  16
ATOM     16  C   UNL     1      -2.532  -1.744  -2.592  1.00  0.00     0.051 C 
BRANCH  16  17
ATOM     17  C   UNL     1      -3.068  -2.966  -3.318  1.00  0.00    -0.043 A 
ATOM     18  C   UNL     1      -2.261  -4.131  -3.222  1.00  0.00     0.043 A 
ATOM     19  C   UNL     1      -4.363  -3.133  -3.748  1.00  0.00     0.019 A 
ATOM     20  C   UNL     1      -2.818  -5.403  -3.195  1.00  0.00     0.124 A 
ATOM     21  C   UNL     1      -4.912  -4.404  -3.542  1.00  0.00     0.021 A 
ATOM     22  F   UNL     1      -2.067  -6.476  -2.927  1.00  0.00    -0.207 F 
ATOM     23  C   UNL     1      -4.170  -5.534  -3.242  1.00  0.00     0.055 A 
ATOM     24  Br  UNL     1      -6.720  -4.561  -3.157  1.00  0.00    -0.051 Br
ENDBRANCH  16  17
ENDBRANCH   7  16
ENDBRANCH   5   7
ENDBRANCH   4   5
ENDBRANCH   3   4
ENDBRANCH   2   3
ENDBRANCH   1   2
BRANCH   1  25
ATOM     25  C   UNL     1      -6.014   3.293  -0.626  1.00  0.00     0.202 C 
BRANCH  25  26
ATOM     26  C   UNL     1      -6.946   4.114   0.267  1.00  0.00     0.261 C 
BRANCH  26  27
ATOM     27  O   UNL     1      -8.320   3.874  -0.116  1.00  0.00    -0.460 OA
BRANCH  27  28
ATOM     28  C   UNL     1      -8.990   2.939   0.616  1.00  0.00     0.338 C 
ATOM     29  O   UNL     1      -9.048   2.908   1.835  1.00  0.00    -0.246 OA
BRANCH  28  30
ATOM     30  C   UNL     1      -9.388   1.795  -0.260  1.00  0.00     0.060 A 
ATOM     31  C   UNL     1      -9.784   0.580   0.328  1.00  0.00     0.016 A 
ATOM     32  C   UNL     1      -8.990   1.821  -1.592  1.00  0.00     0.016 A 
ATOM     33  C   UNL     1      -9.574  -0.626  -0.353  1.00  0.00     0.010 A 
ATOM     34  C   UNL     1      -8.644   0.628  -2.194  1.00  0.00     0.010 A 
ATOM     35  C   UNL     1      -8.873  -0.608  -1.564  1.00  0.00    -0.014 A 
BRANCH  35  36
ATOM     36  C   UNL     1      -8.090  -1.744  -2.135  1.00  0.00     0.031 A 
ATOM     37  C   UNL     1      -8.144  -1.878  -3.702  1.00  0.00     0.074 A 
ATOM     38  C   UNL     1      -7.273  -2.335  -1.205  1.00  0.00     0.049 A 
ATOM     39  N   UNL     1      -7.394  -2.517  -4.558  1.00  0.00    -0.248 NA
ATOM     40  C   UNL     1      -9.329  -1.352  -4.392  1.00  0.00     0.031 C 
ATOM     41  C   UNL     1      -5.876  -2.730  -1.227  1.00  0.00     0.029 A 
ATOM     42  N   UNL     1      -7.685  -3.015  -0.044  1.00  0.00    -0.354 N 
ATOM     43  C   UNL     1      -8.080  -2.744  -5.742  1.00  0.00     0.074 A 
ATOM     44  C   UNL     1      -9.207  -1.839  -5.631  1.00  0.00     0.031 C 
ATOM     45  C   UNL     1      -5.594  -3.764  -0.432  1.00  0.00     0.029 A 
ATOM     46  C   UNL     1      -6.856  -4.135   0.126  1.00  0.00     0.049 A 
ATOM     47  H   UNL     1      -8.426  -2.750   0.547  1.00  0.00     0.167 HD
ATOM     48  C   UNL     1      -7.931  -3.822  -6.607  1.00  0.00     0.037 A 
ATOM     49  C   UNL     1      -6.900  -5.225   0.907  1.00  0.00     0.037 A 
ATOM     50  C   UNL     1      -7.355  -5.114  -6.074  1.00  0.00     0.049 A 
ATOM     51  C   UNL     1      -7.008  -6.470  -0.018  1.00  0.00     0.074 A 
ATOM     52  C   UNL     1      -6.117  -5.741  -6.183  1.00  0.00     0.029 A 
ATOM     53  N   UNL     1      -8.083  -5.992  -5.195  1.00  0.00    -0.354 N 
ATOM     54  N   UNL     1      -6.854  -6.448  -1.333  1.00  0.00    -0.248 NA
ATOM     55  C   UNL     1      -7.317  -7.829   0.402  1.00  0.00     0.031 C 
ATOM     56  C   UNL     1      -6.061  -6.883  -5.309  1.00  0.00     0.029 A 
ATOM     57  C   UNL     1      -7.216  -6.929  -4.521  1.00  0.00     0.049 A 
ATOM     58  H   UNL     1      -9.059  -5.957  -5.068  1.00  0.00     0.167 HD
ATOM     59  C   UNL     1      -7.291  -7.607  -1.968  1.00  0.00     0.074 A 
ATOM     60  C   UNL     1      -7.421  -8.476  -0.783  1.00  0.00     0.031 C 
ATOM     61  C   UNL     1      -7.620  -7.813  -3.336  1.00  0.00     0.037 A 
BRANCH  48  62
ATOM     62  C   UNL     1      -7.984  -3.523  -8.142  1.00  0.00     0.064 A 
ATOM     63  C   UNL     1      -7.058  -4.117  -9.038  1.00  0.00     0.173 A 
ATOM     64  C   UNL     1      -8.843  -2.601  -8.784  1.00  0.00     0.173 A 
ATOM     65  F   UNL     1      -6.197  -5.059  -8.648  1.00  0.00    -0.203 F 
ATOM     66  C   UNL     1      -6.957  -3.773 -10.397  1.00  0.00     0.198 A 
ATOM     67  C   UNL     1      -8.720  -2.229 -10.134  1.00  0.00     0.198 A 
ATOM     68  F   UNL     1      -9.893  -2.059  -8.169  1.00  0.00    -0.203 F 
ATOM     69  F   UNL     1      -6.047  -4.384 -11.171  1.00  0.00    -0.200 F 
ATOM     70  C   UNL     1      -7.772  -2.810 -10.941  1.00  0.00     0.200 A 
ATOM     71  F   UNL     1      -9.549  -1.305 -10.644  1.00  0.00    -0.200 F 
ATOM     72  F   UNL     1      -7.665  -2.466 -12.232  1.00  0.00    -0.200 F 
ENDBRANCH  48  62
BRANCH  49  73
ATOM     73  C   UNL     1      -7.111  -4.758   2.325  1.00  0.00     0.064 A 
ATOM     74  C   UNL     1      -5.954  -4.153   2.910  1.00  0.00     0.173 A 
ATOM     75  C   UNL     1      -8.334  -4.125   2.634  1.00  0.00     0.173 A 
ATOM     76  F   UNL     1      -4.739  -4.670   2.662  1.00  0.00    -0.203 F 
ATOM     77  C   UNL     1      -5.997  -2.888   3.523  1.00  0.00     0.198 A 
ATOM     78  C   UNL     1      -8.367  -2.847   3.232  1.00  0.00     0.198 A 
ATOM     79  F   UNL     1      -9.467  -4.584   2.085  1.00  0.00    -0.203 F 
ATOM     80  F   UNL     1      -4.859  -2.256   3.852  1.00  0.00    -0.200 F 
ATOM     81  C   UNL     1      -7.199  -2.214   3.630  1.00  0.00     0.200 A 
ATOM     82  F   UNL     1      -9.512  -2.148   3.234  1.00  0.00    -0.200 F 
ATOM     83  F   UNL     1      -7.217  -0.923   3.999  1.00  0.00    -0.200 F 
ENDBRANCH  49  73
BRANCH  61  84
ATOM     84  C   UNL     1      -8.396  -9.047  -3.780  1.00  0.00     0.064 A 
ATOM     85  C   UNL     1      -9.305  -9.729  -2.958  1.00  0.00     0.173 A 
ATOM     86  C   UNL     1      -8.359  -9.493  -5.128  1.00  0.00     0.173 A 
ATOM     87  F   UNL     1      -9.618  -9.283  -1.734  1.00  0.00    -0.203 F 
ATOM     88  C   UNL     1      -9.991 -10.861  -3.394  1.00  0.00     0.198 A 
ATOM     89  C   UNL     1      -9.120 -10.562  -5.586  1.00  0.00     0.198 A 
ATOM     90  F   UNL     1      -7.615  -8.894  -6.066  1.00  0.00    -0.203 F 
ATOM     91  F   UNL     1     -10.766 -11.532  -2.532  1.00  0.00    -0.200 F 
ATOM     92  C   UNL     1      -9.904 -11.274  -4.708  1.00  0.00     0.200 A 
ATOM     93  F   UNL     1      -9.098 -10.880  -6.887  1.00  0.00    -0.200 F 
ATOM     94  F   UNL     1     -10.601 -12.333  -5.136  1.00  0.00    -0.200 F 
ENDBRANCH  61  84
ENDBRANCH  35  36
ENDBRANCH  28  30
ENDBRANCH  27  28
ENDBRANCH  26  27
ENDBRANCH  25  26
ENDBRANCH   1  25
TORSDOF 18
