REMARK SMILES Cc1cc(C(=O)Nc2nc(CC(=O)OCCOCCOC(=O)c3ccc(-c4c5nc(c(-c6c(F)c(F)c(F)c(F)c6F)c6ccc([nH]6)c(-c6c(F)c(F)c(F)c(F)c6F)c6nc(c(-c7c(F)c(F)c(F)c(F)c7F)c7ccc4[nH]7)C=C6)C=C5)cc3)cs2)sc1C
REMARK SMILES IDX 16 1 15 2 14 3 12 4 13 5 11 6 10 7 8 8 9 9 87 10 86 11 7 12
REMARK SMILES IDX 5 13 6 14 4 16 1 17 2 18 3 19 89 20 88 21 90 22 17 23 18 24
REMARK SMILES IDX 19 25 20 26 21 27 22 28 23 29 24 30 85 31 25 32 84 33 26 34
REMARK SMILES IDX 27 35 28 36 78 37 29 38 83 39 77 40 79 41 30 42 82 43 76 44
REMARK SMILES IDX 75 45 31 47 63 48 43 49 62 50 44 51 47 52 61 53 80 54 45 55
REMARK SMILES IDX 46 56 60 58 81 59 48 60 32 61 33 62 41 63 34 64 35 65 39 66
REMARK SMILES IDX 42 67 36 68 37 69 40 70 38 71 64 72 65 73 73 74 66 75 67 76
REMARK SMILES IDX 71 77 74 78 68 79 69 80 72 81 70 82 49 83 50 84 58 85 51 86
REMARK SMILES IDX 52 87 56 88 59 89 53 90 54 91 57 92 55 93
REMARK H PARENT 7 15 79 46 47 57
REMARK Flexibility Score: inf
ROOT
ATOM      1  C   UNL     1       7.169   3.763   3.380  1.00  0.00     0.202 C 
ENDROOT
BRANCH   1   2
ATOM      2  C   UNL     1       5.759   3.508   3.922  1.00  0.00     0.261 C 
BRANCH   2   3
ATOM      3  O   UNL     1       4.970   2.724   3.004  1.00  0.00    -0.463 OA
BRANCH   3   4
ATOM      4  C   UNL     1       3.751   3.235   2.688  1.00  0.00     0.311 C 
ATOM      5  O   UNL     1       3.285   4.261   3.178  1.00  0.00    -0.252 OA
BRANCH   4   6
ATOM      6  C   UNL     1       2.981   2.450   1.659  1.00  0.00     0.179 C 
BRANCH   6   7
ATOM      7  C   UNL     1       3.684   1.330   0.960  1.00  0.00     0.065 A 
ATOM      8  C   UNL     1       3.720  -0.753   0.245  1.00  0.00     0.189 A 
ATOM      9  N   UNL     1       3.165   0.052   1.114  1.00  0.00    -0.224 NA
ATOM     10  S   UNL     1       5.090  -0.160  -0.569  1.00  0.00    -0.105 S 
ATOM     11  C   UNL     1       4.668   1.411  -0.012  1.00  0.00     0.093 A 
BRANCH   8  12
ATOM     12  N   UNL     1       3.279  -1.966  -0.180  1.00  0.00    -0.297 N 
ATOM     13  C   UNL     1       1.964  -2.381  -0.171  1.00  0.00     0.267 C 
ATOM     14  O   UNL     1       1.773  -3.600  -0.239  1.00  0.00    -0.268 OA
ATOM     15  H   UNL     1       3.952  -2.600  -0.520  1.00  0.00     0.172 HD
BRANCH  13  16
ATOM     16  C   UNL     1       0.845  -1.433  -0.192  1.00  0.00     0.093 A 
ATOM     17  C   UNL     1      -2.786  -0.572   0.373  1.00  0.00     0.045 C 
ATOM     18  C   UNL     1      -1.328  -0.544   0.058  1.00  0.00    -0.037 A 
ATOM     19  C   UNL     1      -0.465  -1.688   0.175  1.00  0.00     0.029 A 
ATOM     20  C   UNL     1      -0.610   0.564  -0.357  1.00  0.00     0.005 A 
ATOM     21  S   UNL     1       0.924   0.106  -0.948  1.00  0.00    -0.135 S 
ATOM     22  C   UNL     1      -1.022   1.997  -0.424  1.00  0.00     0.056 C 
ENDBRANCH  13  16
ENDBRANCH   8  12
ENDBRANCH   6   7
ENDBRANCH   4   6
ENDBRANCH   3   4
ENDBRANCH   2   3
ENDBRANCH   1   2
BRANCH   1  23
ATOM     23  O   UNL     1       7.249   4.631   2.248  1.00  0.00    -0.374 OA
BRANCH  23  24
ATOM     24  C   UNL     1       6.845   4.090   0.992  1.00  0.00     0.202 C 
BRANCH  24  25
ATOM     25  C   UNL     1       7.855   3.146   0.329  1.00  0.00     0.261 C 
BRANCH  25  26
ATOM     26  O   UNL     1       8.049   1.947   1.103  1.00  0.00    -0.460 OA
BRANCH  26  27
ATOM     27  C   UNL     1       9.343   1.665   1.370  1.00  0.00     0.338 C 
ATOM     28  O   UNL     1      10.334   2.205   0.887  1.00  0.00    -0.246 OA
BRANCH  27  29
ATOM     29  C   UNL     1       9.457   0.710   2.484  1.00  0.00     0.060 A 
ATOM     30  C   UNL     1      10.164   1.138   3.613  1.00  0.00     0.016 A 
ATOM     31  C   UNL     1       9.005  -0.609   2.386  1.00  0.00     0.016 A 
ATOM     32  C   UNL     1      10.486   0.230   4.617  1.00  0.00     0.010 A 
ATOM     33  C   UNL     1       9.333  -1.522   3.400  1.00  0.00     0.010 A 
ATOM     34  C   UNL     1      10.115  -1.117   4.497  1.00  0.00    -0.014 A 
BRANCH  34  35
ATOM     35  C   UNL     1      10.682  -2.090   5.465  1.00  0.00     0.031 A 
ATOM     36  C   UNL     1      11.907  -2.881   5.088  1.00  0.00     0.074 A 
ATOM     37  C   UNL     1      10.178  -2.187   6.708  1.00  0.00     0.049 A 
ATOM     38  N   UNL     1      12.646  -3.671   5.826  1.00  0.00    -0.248 NA
ATOM     39  C   UNL     1      12.365  -2.759   3.695  1.00  0.00     0.031 C 
ATOM     40  C   UNL     1       9.010  -1.462   7.201  1.00  0.00     0.029 A 
ATOM     41  N   UNL     1      10.603  -2.920   7.788  1.00  0.00    -0.354 N 
ATOM     42  C   UNL     1      13.660  -4.128   4.995  1.00  0.00     0.074 A 
ATOM     43  C   UNL     1      13.420  -3.561   3.685  1.00  0.00     0.031 C 
ATOM     44  C   UNL     1       8.818  -1.774   8.494  1.00  0.00     0.029 A 
ATOM     45  C   UNL     1       9.843  -2.728   8.915  1.00  0.00     0.049 A 
ATOM     46  H   UNL     1      11.379  -3.526   7.758  1.00  0.00     0.167 HD
ATOM     47  C   UNL     1      14.708  -4.931   5.300  1.00  0.00     0.037 A 
ATOM     48  C   UNL     1       9.966  -3.255  10.148  1.00  0.00     0.037 A 
ATOM     49  C   UNL     1      14.950  -5.500   6.600  1.00  0.00     0.049 A 
ATOM     50  C   UNL     1      11.117  -4.179  10.448  1.00  0.00     0.074 A 
ATOM     51  C   UNL     1      15.993  -6.314   7.008  1.00  0.00     0.029 A 
ATOM     52  N   UNL     1      14.131  -5.317   7.704  1.00  0.00    -0.354 N 
ATOM     53  N   UNL     1      12.096  -4.566   9.667  1.00  0.00    -0.248 NA
ATOM     54  C   UNL     1      11.186  -4.728  11.811  1.00  0.00     0.031 C 
ATOM     55  C   UNL     1      15.782  -6.659   8.348  1.00  0.00     0.029 A 
ATOM     56  C   UNL     1      14.633  -6.022   8.787  1.00  0.00     0.049 A 
ATOM     57  H   UNL     1      13.314  -4.769   7.717  1.00  0.00     0.167 HD
ATOM     58  C   UNL     1      12.905  -5.384  10.445  1.00  0.00     0.074 A 
ATOM     59  C   UNL     1      12.316  -5.418  11.768  1.00  0.00     0.031 C 
ATOM     60  C   UNL     1      14.033  -6.051  10.096  1.00  0.00     0.037 A 
BRANCH  47  61
ATOM     61  C   UNL     1      15.675  -5.254   4.198  1.00  0.00     0.064 A 
ATOM     62  C   UNL     1      16.586  -4.301   3.719  1.00  0.00     0.173 A 
ATOM     63  C   UNL     1      15.721  -6.543   3.646  1.00  0.00     0.173 A 
ATOM     64  F   UNL     1      16.573  -3.051   4.206  1.00  0.00    -0.203 F 
ATOM     65  C   UNL     1      17.494  -4.620   2.713  1.00  0.00     0.198 A 
ATOM     66  C   UNL     1      16.647  -6.865   2.657  1.00  0.00     0.198 A 
ATOM     67  F   UNL     1      14.875  -7.492   4.072  1.00  0.00    -0.203 F 
ATOM     68  F   UNL     1      18.330  -3.683   2.244  1.00  0.00    -0.200 F 
ATOM     69  C   UNL     1      17.529  -5.903   2.188  1.00  0.00     0.200 A 
ATOM     70  F   UNL     1      16.686  -8.108   2.157  1.00  0.00    -0.200 F 
ATOM     71  F   UNL     1      18.408  -6.212   1.225  1.00  0.00    -0.200 F 
ENDBRANCH  47  61
BRANCH  48  72
ATOM     72  C   UNL     1       8.979  -2.911  11.204  1.00  0.00     0.064 A 
ATOM     73  C   UNL     1       9.340  -2.128  12.308  1.00  0.00     0.173 A 
ATOM     74  C   UNL     1       7.659  -3.381  11.139  1.00  0.00     0.173 A 
ATOM     75  F   UNL     1      10.598  -1.678  12.427  1.00  0.00    -0.203 F 
ATOM     76  C   UNL     1       8.423  -1.842  13.318  1.00  0.00     0.198 A 
ATOM     77  C   UNL     1       6.736  -3.072  12.136  1.00  0.00     0.198 A 
ATOM     78  F   UNL     1       7.266  -4.137  10.104  1.00  0.00    -0.203 F 
ATOM     79  F   UNL     1       8.807  -1.131  14.386  1.00  0.00    -0.200 F 
ATOM     80  C   UNL     1       7.121  -2.310  13.228  1.00  0.00     0.200 A 
ATOM     81  F   UNL     1       5.476  -3.519  12.040  1.00  0.00    -0.200 F 
ATOM     82  F   UNL     1       6.239  -2.035  14.199  1.00  0.00    -0.200 F 
ENDBRANCH  48  72
BRANCH  60  83
ATOM     83  C   UNL     1      14.709  -6.858  11.167  1.00  0.00     0.064 A 
ATOM     84  C   UNL     1      14.150  -8.052  11.648  1.00  0.00     0.173 A 
ATOM     85  C   UNL     1      15.933  -6.440  11.710  1.00  0.00     0.173 A 
ATOM     86  F   UNL     1      12.974  -8.487  11.171  1.00  0.00    -0.203 F 
ATOM     87  C   UNL     1      14.775  -8.778  12.658  1.00  0.00     0.198 A 
ATOM     88  C   UNL     1      16.569  -7.184  12.700  1.00  0.00     0.198 A 
ATOM     89  F   UNL     1      16.514  -5.310  11.280  1.00  0.00    -0.203 F 
ATOM     90  F   UNL     1      14.194  -9.886  13.142  1.00  0.00    -0.200 F 
ATOM     91  C   UNL     1      15.985  -8.347  13.180  1.00  0.00     0.200 A 
ATOM     92  F   UNL     1      17.744  -6.772  13.196  1.00  0.00    -0.200 F 
ATOM     93  F   UNL     1      16.583  -9.046  14.155  1.00  0.00    -0.200 F 
ENDBRANCH  60  83
ENDBRANCH  34  35
ENDBRANCH  27  29
ENDBRANCH  26  27
ENDBRANCH  25  26
ENDBRANCH  24  25
ENDBRANCH  23  24
ENDBRANCH   1  23
TORSDOF 17
