REMARK SMILES CC(C)(C)C[N@H+]1[C@@H](C(=O)OCCOCCOC(=O)c2ccc(-c3c4nc(c(-c5c(F)c(F)c(F)c(F)c5F)c5ccc([nH]5)c(-c5c(F)c(F)c(F)c(F)c5F)c5nc(c(-c6c(F)c(F)c(F)c(F)c6F)c6ccc3[nH]6)C=C5)C=C4)cc2)CC[C@H]2CCCC[C@@H]21
REMARK SMILES IDX 13 1 12 2 11 3 10 4 8 5 9 6 7 7 6 8 89 9 82 11 84 12 88 13
REMARK SMILES IDX 83 14 85 15 87 16 86 17 5 18 2 19 1 20 3 21 4 22 14 23 15 24
REMARK SMILES IDX 16 25 17 26 18 27 19 28 20 29 81 30 21 31 80 32 22 33 23 34
REMARK SMILES IDX 24 35 74 36 25 37 79 38 73 39 75 40 26 41 78 42 72 43 71 44
REMARK SMILES IDX 27 46 59 47 39 48 58 49 40 50 43 51 57 52 76 53 41 54 42 55
REMARK SMILES IDX 56 57 77 58 44 59 28 60 29 61 37 62 30 63 31 64 35 65 38 66
REMARK SMILES IDX 32 67 33 68 36 69 34 70 60 71 61 72 69 73 62 74 63 75 67 76
REMARK SMILES IDX 70 77 64 78 65 79 68 80 66 81 45 82 46 83 54 84 47 85 48 86
REMARK SMILES IDX 52 87 55 88 49 89 50 90 53 91 51 92
REMARK H PARENT 6 10 75 45 43 56
REMARK Flexibility Score: inf
ROOT
ATOM      1  O   UNL     1       2.876   0.923  -2.172  1.00  0.00    -0.374 OA
ENDROOT
BRANCH   1   2
ATOM      2  C   UNL     1       1.560   1.364  -1.833  1.00  0.00     0.202 C 
BRANCH   2   3
ATOM      3  C   UNL     1       0.430   0.377  -2.192  1.00  0.00     0.261 C 
BRANCH   3   4
ATOM      4  O   UNL     1       0.308  -0.720  -1.253  1.00  0.00    -0.459 OA
BRANCH   4   5
ATOM      5  C   UNL     1       0.844  -1.896  -1.636  1.00  0.00     0.364 C 
ATOM      6  O   UNL     1       1.327  -2.071  -2.756  1.00  0.00    -0.245 OA
BRANCH   5   7
ATOM      7  C   UNL     1       0.902  -3.021  -0.595  1.00  0.00     0.295 C 
ATOM      8  N   UNL     1       0.108  -3.020   0.686  1.00  0.00    -0.320 N 
ATOM      9  C   UNL     1       0.124  -4.436   1.223  1.00  0.00     0.187 C 
ATOM     10  H   UNL     1      -0.805  -2.651   0.420  1.00  0.00     0.349 HD
ATOM     11  C   UNL     1       2.370  -3.457  -0.399  1.00  0.00     0.078 C 
ATOM     12  C   UNL     1       1.154  -5.405   0.582  1.00  0.00     0.048 C 
ATOM     13  C   UNL     1      -1.270  -5.072   1.162  1.00  0.00     0.065 C 
ATOM     14  C   UNL     1       2.504  -4.706   0.472  1.00  0.00     0.016 C 
ATOM     15  C   UNL     1       1.219  -6.697   1.399  1.00  0.00     0.010 C 
ATOM     16  C   UNL     1      -1.264  -6.409   1.916  1.00  0.00     0.006 C 
ATOM     17  C   UNL     1      -0.159  -7.360   1.449  1.00  0.00     0.001 C 
BRANCH   8  18
ATOM     18  C   UNL     1       0.570  -2.132   1.795  1.00  0.00     0.269 C 
BRANCH  18  19
ATOM     19  C   UNL     1      -0.141  -0.767   2.048  1.00  0.00     0.011 C 
ATOM     20  C   UNL     1       0.700   0.348   1.453  1.00  0.00     0.017 C 
ATOM     21  C   UNL     1      -0.181  -0.474   3.572  1.00  0.00     0.017 C 
ATOM     22  C   UNL     1      -1.583  -0.728   1.530  1.00  0.00     0.017 C 
ENDBRANCH  18  19
ENDBRANCH   8  18
ENDBRANCH   5   7
ENDBRANCH   4   5
ENDBRANCH   3   4
ENDBRANCH   2   3
ENDBRANCH   1   2
BRANCH   1  23
ATOM     23  C   UNL     1       3.529   0.081  -1.225  1.00  0.00     0.202 C 
BRANCH  23  24
ATOM     24  C   UNL     1       4.412   0.825  -0.216  1.00  0.00     0.261 C 
BRANCH  24  25
ATOM     25  O   UNL     1       3.621   1.451   0.815  1.00  0.00    -0.460 OA
BRANCH  25  26
ATOM     26  C   UNL     1       3.502   2.797   0.740  1.00  0.00     0.338 C 
ATOM     27  O   UNL     1       4.037   3.538  -0.069  1.00  0.00    -0.246 OA
BRANCH  26  28
ATOM     28  C   UNL     1       2.486   3.272   1.710  1.00  0.00     0.060 A 
ATOM     29  C   UNL     1       1.579   4.243   1.275  1.00  0.00     0.016 A 
ATOM     30  C   UNL     1       2.398   2.776   3.017  1.00  0.00     0.016 A 
ATOM     31  C   UNL     1       0.604   4.737   2.145  1.00  0.00     0.010 A 
ATOM     32  C   UNL     1       1.388   3.238   3.873  1.00  0.00     0.010 A 
ATOM     33  C   UNL     1       0.509   4.255   3.459  1.00  0.00    -0.014 A 
BRANCH  33  34
ATOM     34  C   UNL     1      -0.393   4.937   4.429  1.00  0.00     0.031 A 
ATOM     35  C   UNL     1       0.211   5.811   5.498  1.00  0.00     0.074 A 
ATOM     36  C   UNL     1      -1.734   4.843   4.336  1.00  0.00     0.049 A 
ATOM     37  N   UNL     1      -0.381   6.549   6.405  1.00  0.00    -0.248 NA
ATOM     38  C   UNL     1       1.680   5.852   5.561  1.00  0.00     0.031 C 
ATOM     39  C   UNL     1      -2.464   4.036   3.360  1.00  0.00     0.029 A 
ATOM     40  N   UNL     1      -2.724   5.447   5.076  1.00  0.00    -0.354 N 
ATOM     41  C   UNL     1       0.641   7.134   7.141  1.00  0.00     0.074 A 
ATOM     42  C   UNL     1       1.888   6.623   6.616  1.00  0.00     0.031 C 
ATOM     43  C   UNL     1      -3.784   4.212   3.548  1.00  0.00     0.029 A 
ATOM     44  C   UNL     1      -3.996   5.129   4.668  1.00  0.00     0.049 A 
ATOM     45  H   UNL     1      -2.537   6.053   5.830  1.00  0.00     0.167 HD
ATOM     46  C   UNL     1       0.559   8.039   8.145  1.00  0.00     0.037 A 
ATOM     47  C   UNL     1      -5.193   5.533   5.139  1.00  0.00     0.037 A 
ATOM     48  C   UNL     1      -0.668   8.580   8.662  1.00  0.00     0.049 A 
ATOM     49  C   UNL     1      -5.260   6.517   6.282  1.00  0.00     0.074 A 
ATOM     50  C   UNL     1      -0.840   9.534   9.650  1.00  0.00     0.029 A 
ATOM     51  N   UNL     1      -1.933   8.214   8.233  1.00  0.00    -0.354 N 
ATOM     52  N   UNL     1      -4.285   7.109   6.926  1.00  0.00    -0.248 NA
ATOM     53  C   UNL     1      -6.601   6.895   6.756  1.00  0.00     0.031 C 
ATOM     54  C   UNL     1      -2.213   9.714   9.849  1.00  0.00     0.029 A 
ATOM     55  C   UNL     1      -2.893   8.907   8.953  1.00  0.00     0.049 A 
ATOM     56  H   UNL     1      -2.122   7.559   7.522  1.00  0.00     0.167 HD
ATOM     57  C   UNL     1      -4.891   7.948   7.854  1.00  0.00     0.074 A 
ATOM     58  C   UNL     1      -6.320   7.799   7.683  1.00  0.00     0.031 C 
ATOM     59  C   UNL     1      -4.314   8.768   8.766  1.00  0.00     0.037 A 
BRANCH  46  60
ATOM     60  C   UNL     1       1.848   8.503   8.755  1.00  0.00     0.064 A 
ATOM     61  C   UNL     1       2.723   9.354   8.062  1.00  0.00     0.173 A 
ATOM     62  C   UNL     1       2.202   8.111  10.054  1.00  0.00     0.173 A 
ATOM     63  F   UNL     1       2.436   9.743   6.811  1.00  0.00    -0.203 F 
ATOM     64  C   UNL     1       3.921   9.769   8.637  1.00  0.00     0.198 A 
ATOM     65  C   UNL     1       3.386   8.552  10.637  1.00  0.00     0.198 A 
ATOM     66  F   UNL     1       1.397   7.302  10.759  1.00  0.00    -0.203 F 
ATOM     67  F   UNL     1       4.766  10.539   7.937  1.00  0.00    -0.200 F 
ATOM     68  C   UNL     1       4.248   9.374   9.925  1.00  0.00     0.200 A 
ATOM     69  F   UNL     1       3.697   8.178  11.886  1.00  0.00    -0.200 F 
ATOM     70  F   UNL     1       5.400   9.777  10.479  1.00  0.00    -0.200 F 
ENDBRANCH  46  60
BRANCH  47  71
ATOM     71  C   UNL     1      -6.449   5.024   4.526  1.00  0.00     0.064 A 
ATOM     72  C   UNL     1      -7.288   5.872   3.788  1.00  0.00     0.173 A 
ATOM     73  C   UNL     1      -6.859   3.696   4.707  1.00  0.00     0.173 A 
ATOM     74  F   UNL     1      -6.954   7.159   3.615  1.00  0.00    -0.203 F 
ATOM     75  C   UNL     1      -8.502   5.416   3.276  1.00  0.00     0.198 A 
ATOM     76  C   UNL     1      -8.060   3.235   4.172  1.00  0.00     0.198 A 
ATOM     77  F   UNL     1      -6.096   2.848   5.412  1.00  0.00    -0.203 F 
ATOM     78  F   UNL     1      -9.311   6.261   2.622  1.00  0.00    -0.200 F 
ATOM     79  C   UNL     1      -8.885   4.097   3.465  1.00  0.00     0.200 A 
ATOM     80  F   UNL     1      -8.425   1.958   4.353  1.00  0.00    -0.200 F 
ATOM     81  F   UNL     1     -10.055   3.660   2.978  1.00  0.00    -0.200 F 
ENDBRANCH  47  71
BRANCH  59  82
ATOM     82  C   UNL     1      -5.216   9.603   9.628  1.00  0.00     0.064 A 
ATOM     83  C   UNL     1      -5.973   9.040  10.665  1.00  0.00     0.173 A 
ATOM     84  C   UNL     1      -5.278  10.995   9.452  1.00  0.00     0.173 A 
ATOM     85  F   UNL     1      -5.958   7.713  10.868  1.00  0.00    -0.203 F 
ATOM     86  C   UNL     1      -6.772   9.835  11.482  1.00  0.00     0.198 A 
ATOM     87  C   UNL     1      -6.057  11.790  10.288  1.00  0.00     0.198 A 
ATOM     88  F   UNL     1      -4.567  11.585   8.480  1.00  0.00    -0.203 F 
ATOM     89  F   UNL     1      -7.516   9.270  12.444  1.00  0.00    -0.200 F 
ATOM     90  C   UNL     1      -6.808  11.209  11.299  1.00  0.00     0.200 A 
ATOM     91  F   UNL     1      -6.079  13.119  10.117  1.00  0.00    -0.200 F 
ATOM     92  F   UNL     1      -7.569  11.974  12.093  1.00  0.00    -0.200 F 
ENDBRANCH  59  82
ENDBRANCH  33  34
ENDBRANCH  26  28
ENDBRANCH  25  26
ENDBRANCH  24  25
ENDBRANCH  23  24
ENDBRANCH   1  23
TORSDOF 16
