REMARK SMILES CCC[N@@H+](C1CC1)[C@@H]1CC[C@]([NH2+]C2CC2)(C(=O)OCCOCCOC(=O)c2ccc(-c3c4nc(c(-c5c(F)c(F)c(F)c(F)c5F)c5ccc([nH]5)c(-c5c(F)c(F)c(F)c(F)c5F)c5nc(c(-c6c(F)c(F)c(F)c(F)c6F)c6ccc3[nH]6)C=C5)C=C4)cc2)C1
REMARK SMILES IDX 20 1 19 2 18 3 16 4 17 5 11 6 8 7 9 8 90 9 10 10 4 11 3 13
REMARK SMILES IDX 2 14 1 15 5 16 6 17 7 18 12 19 13 22 14 23 15 24 21 25 22 26
REMARK SMILES IDX 23 27 24 28 25 29 26 30 27 31 28 32 89 33 29 34 88 35 30 36
REMARK SMILES IDX 31 37 32 38 82 39 33 40 87 41 81 42 83 43 34 44 86 45 80 46
REMARK SMILES IDX 79 47 35 49 67 50 47 51 66 52 48 53 51 54 65 55 84 56 49 57
REMARK SMILES IDX 50 58 64 60 85 61 52 62 36 63 37 64 45 65 38 66 39 67 43 68
REMARK SMILES IDX 46 69 40 70 41 71 44 72 42 73 68 74 69 75 77 76 70 77 71 78
REMARK SMILES IDX 75 79 78 80 72 81 73 82 76 83 74 84 53 85 54 86 62 87 55 88
REMARK SMILES IDX 56 89 60 90 63 91 57 92 58 93 61 94 59 95
REMARK H PARENT 4 12 12 20 12 21 83 48 51 59
REMARK Flexibility Score: inf
ROOT
ATOM      1  C   UNL     1       7.251  -3.285   2.258  1.00  0.00     0.202 C 
ENDROOT
BRANCH   1   2
ATOM      2  C   UNL     1       6.493  -2.167   2.983  1.00  0.00     0.261 C 
BRANCH   2   3
ATOM      3  O   UNL     1       5.073  -2.392   3.071  1.00  0.00    -0.459 OA
BRANCH   3   4
ATOM      4  C   UNL     1       4.316  -1.569   2.289  1.00  0.00     0.368 C 
ATOM      5  O   UNL     1       4.792  -0.701   1.561  1.00  0.00    -0.245 OA
BRANCH   4   6
ATOM      6  C   UNL     1       2.796  -1.886   2.321  1.00  0.00     0.200 C 
ATOM      7  C   UNL     1       1.146  -2.036   0.504  1.00  0.00     0.191 C 
ATOM      8  C   UNL     1       1.255  -0.571   0.944  1.00  0.00     0.072 C 
ATOM      9  C   UNL     1       2.480  -2.604   0.991  1.00  0.00     0.146 C 
ATOM     10  C   UNL     1       2.054  -0.537   2.243  1.00  0.00     0.087 C 
BRANCH   7  11
ATOM     11  N   UNL     1       0.795  -2.349  -0.903  1.00  0.00    -0.330 N 
ATOM     12  H   UNL     1      -0.224  -2.313  -0.867  1.00  0.00     0.348 HD
BRANCH  11  13
ATOM     13  C   UNL     1       1.168  -1.357  -1.930  1.00  0.00     0.262 C 
BRANCH  13  14
ATOM     14  C   UNL     1       0.061  -0.371  -2.347  1.00  0.00     0.058 C 
ATOM     15  C   UNL     1      -0.130   0.863  -1.482  1.00  0.00     0.010 C 
ENDBRANCH  13  14
ENDBRANCH  11  13
BRANCH  11  16
ATOM     16  C   UNL     1       1.243  -3.710  -1.320  1.00  0.00     0.184 C 
ATOM     17  C   UNL     1       0.754  -4.959  -0.640  1.00  0.00     0.071 C 
ATOM     18  C   UNL     1       0.267  -4.621  -2.015  1.00  0.00     0.071 C 
ENDBRANCH  11  16
ENDBRANCH   7  11
BRANCH   6  19
ATOM     19  N   UNL     1       2.407  -2.702   3.509  1.00  0.00    -0.329 N 
ATOM     20  H   UNL     1       2.836  -2.277   4.331  1.00  0.00     0.347 HD
ATOM     21  H   UNL     1       2.730  -3.648   3.305  1.00  0.00     0.347 HD
BRANCH  19  22
ATOM     22  C   UNL     1       0.959  -2.831   3.773  1.00  0.00     0.183 C 
ATOM     23  C   UNL     1       0.197  -4.038   3.307  1.00  0.00     0.071 C 
ATOM     24  C   UNL     1       0.484  -3.854   4.767  1.00  0.00     0.071 C 
ENDBRANCH  19  22
ENDBRANCH   6  19
ENDBRANCH   4   6
ENDBRANCH   3   4
ENDBRANCH   2   3
ENDBRANCH   1   2
BRANCH   1  25
ATOM     25  O   UNL     1       6.967  -3.515   0.880  1.00  0.00    -0.374 OA
BRANCH  25  26
ATOM     26  C   UNL     1       5.716  -4.113   0.552  1.00  0.00     0.202 C 
BRANCH  26  27
ATOM     27  C   UNL     1       5.550  -5.614   0.810  1.00  0.00     0.261 C 
BRANCH  27  28
ATOM     28  O   UNL     1       5.673  -5.936   2.205  1.00  0.00    -0.460 OA
BRANCH  28  29
ATOM     29  C   UNL     1       6.774  -6.653   2.514  1.00  0.00     0.338 C 
ATOM     30  O   UNL     1       7.585  -7.145   1.736  1.00  0.00    -0.246 OA
BRANCH  29  31
ATOM     31  C   UNL     1       7.012  -6.633   3.966  1.00  0.00     0.060 A 
ATOM     32  C   UNL     1       8.289  -6.242   4.390  1.00  0.00     0.016 A 
ATOM     33  C   UNL     1       6.060  -7.081   4.884  1.00  0.00     0.016 A 
ATOM     34  C   UNL     1       8.652  -6.388   5.721  1.00  0.00     0.010 A 
ATOM     35  C   UNL     1       6.430  -7.237   6.225  1.00  0.00     0.010 A 
ATOM     36  C   UNL     1       7.746  -6.949   6.631  1.00  0.00    -0.014 A 
BRANCH  36  37
ATOM     37  C   UNL     1       8.278  -7.435   7.925  1.00  0.00     0.031 A 
ATOM     38  C   UNL     1       8.657  -8.887   8.044  1.00  0.00     0.074 A 
ATOM     39  C   UNL     1       8.526  -6.581   8.933  1.00  0.00     0.049 A 
ATOM     40  N   UNL     1       9.229  -9.521   9.035  1.00  0.00    -0.248 NA
ATOM     41  C   UNL     1       8.355  -9.739   6.882  1.00  0.00     0.031 C 
ATOM     42  C   UNL     1       8.241  -5.149   8.914  1.00  0.00     0.029 A 
ATOM     43  N   UNL     1       9.094  -6.799  10.162  1.00  0.00    -0.354 N 
ATOM     44  C   UNL     1       9.357 -10.839   8.615  1.00  0.00     0.074 A 
ATOM     45  C   UNL     1       8.769 -10.926   7.298  1.00  0.00     0.031 C 
ATOM     46  C   UNL     1       8.640  -4.611  10.079  1.00  0.00     0.029 A 
ATOM     47  C   UNL     1       9.194  -5.665  10.928  1.00  0.00     0.049 A 
ATOM     48  H   UNL     1       9.400  -7.684  10.466  1.00  0.00     0.167 HD
ATOM     49  C   UNL     1       9.930 -11.880   9.264  1.00  0.00     0.037 A 
ATOM     50  C   UNL     1       9.678  -5.503  12.174  1.00  0.00     0.037 A 
ATOM     51  C   UNL     1      10.519 -11.790  10.573  1.00  0.00     0.049 A 
ATOM     52  C   UNL     1      10.265  -6.689  12.894  1.00  0.00     0.074 A 
ATOM     53  C   UNL     1      11.131 -12.783  11.317  1.00  0.00     0.029 A 
ATOM     54  N   UNL     1      10.564 -10.632  11.336  1.00  0.00    -0.354 N 
ATOM     55  N   UNL     1      10.406  -7.926  12.480  1.00  0.00    -0.248 NA
ATOM     56  C   UNL     1      10.774  -6.451  14.252  1.00  0.00     0.031 C 
ATOM     57  C   UNL     1      11.505 -12.236  12.550  1.00  0.00     0.029 A 
ATOM     58  C   UNL     1      11.174 -10.890  12.553  1.00  0.00     0.049 A 
ATOM     59  H   UNL     1      10.213  -9.756  11.055  1.00  0.00     0.167 HD
ATOM     60  C   UNL     1      11.042  -8.605  13.512  1.00  0.00     0.074 A 
ATOM     61  C   UNL     1      11.277  -7.637  14.563  1.00  0.00     0.031 C 
ATOM     62  C   UNL     1      11.400  -9.911  13.585  1.00  0.00     0.037 A 
BRANCH  49  63
ATOM     63  C   UNL     1       9.923 -13.213   8.572  1.00  0.00     0.064 A 
ATOM     64  C   UNL     1      10.732 -13.469   7.454  1.00  0.00     0.173 A 
ATOM     65  C   UNL     1       9.110 -14.253   9.045  1.00  0.00     0.173 A 
ATOM     66  F   UNL     1      11.514 -12.502   6.951  1.00  0.00    -0.203 F 
ATOM     67  C   UNL     1      10.706 -14.709   6.820  1.00  0.00     0.198 A 
ATOM     68  C   UNL     1       9.107 -15.500   8.426  1.00  0.00     0.198 A 
ATOM     69  F   UNL     1       8.318 -14.061  10.111  1.00  0.00    -0.203 F 
ATOM     70  F   UNL     1      11.450 -14.915   5.724  1.00  0.00    -0.200 F 
ATOM     71  C   UNL     1       9.899 -15.725   7.310  1.00  0.00     0.200 A 
ATOM     72  F   UNL     1       8.335 -16.484   8.907  1.00  0.00    -0.200 F 
ATOM     73  F   UNL     1       9.879 -16.919   6.702  1.00  0.00    -0.200 F 
ENDBRANCH  49  63
BRANCH  50  74
ATOM     74  C   UNL     1       9.635  -4.165  12.819  1.00  0.00     0.064 A 
ATOM     75  C   UNL     1      10.809  -3.447  13.084  1.00  0.00     0.173 A 
ATOM     76  C   UNL     1       8.416  -3.585  13.200  1.00  0.00     0.173 A 
ATOM     77  F   UNL     1      12.001  -3.969  12.760  1.00  0.00    -0.203 F 
ATOM     78  C   UNL     1      10.767  -2.210  13.724  1.00  0.00     0.198 A 
ATOM     79  C   UNL     1       8.373  -2.336  13.814  1.00  0.00     0.198 A 
ATOM     80  F   UNL     1       7.264  -4.232  12.970  1.00  0.00    -0.203 F 
ATOM     81  F   UNL     1      11.907  -1.566  14.009  1.00  0.00    -0.200 F 
ATOM     82  C   UNL     1       9.549  -1.653  14.084  1.00  0.00     0.200 A 
ATOM     83  F   UNL     1       7.193  -1.796  14.149  1.00  0.00    -0.200 F 
ATOM     84  F   UNL     1       9.509  -0.462  14.697  1.00  0.00    -0.200 F 
ENDBRANCH  50  74
BRANCH  62  85
ATOM     85  C   UNL     1      12.110 -10.357  14.831  1.00  0.00     0.064 A 
ATOM     86  C   UNL     1      11.445 -10.460  16.061  1.00  0.00     0.173 A 
ATOM     87  C   UNL     1      13.469 -10.705  14.787  1.00  0.00     0.173 A 
ATOM     88  F   UNL     1      10.149 -10.127  16.158  1.00  0.00    -0.203 F 
ATOM     89  C   UNL     1      12.124 -10.858  17.210  1.00  0.00     0.198 A 
ATOM     90  C   UNL     1      14.136 -11.134  15.931  1.00  0.00     0.198 A 
ATOM     91  F   UNL     1      14.149 -10.634  13.633  1.00  0.00    -0.203 F 
ATOM     92  F   UNL     1      11.483 -10.892  18.386  1.00  0.00    -0.200 F 
ATOM     93  C   UNL     1      13.466 -11.200  17.143  1.00  0.00     0.200 A 
ATOM     94  F   UNL     1      15.430 -11.477  15.861  1.00  0.00    -0.200 F 
ATOM     95  F   UNL     1      14.118 -11.582  18.250  1.00  0.00    -0.200 F 
ENDBRANCH  62  85
ENDBRANCH  36  37
ENDBRANCH  29  31
ENDBRANCH  28  29
ENDBRANCH  27  28
ENDBRANCH  26  27
ENDBRANCH  25  26
ENDBRANCH   1  25
TORSDOF 20
