REMARK SMILES O=C(OCCOCCOC(=O)[C@@H]1CCCN(C(=O)c2ccc3ncsc3c2)C1)c1ccc(-c2c3nc(c(-c4c(F)c(F)c(F)c(F)c4F)c4ccc([nH]4)c(-c4c(F)c(F)c(F)c(F)c4F)c4nc(c(-c5c(F)c(F)c(F)c(F)c5F)c5ccc2[nH]5)C=C4)C=C3)cc1
REMARK SMILES IDX 6 1 5 2 4 3 3 4 2 5 1 6 29 7 30 8 91 9 31 10 90 11 32 12
REMARK SMILES IDX 33 13 34 14 84 15 35 16 89 17 83 18 85 19 36 20 88 21 82 22
REMARK SMILES IDX 81 23 37 25 69 26 49 27 68 28 50 29 53 30 67 31 86 32 51 33
REMARK SMILES IDX 52 34 66 36 87 37 54 38 38 39 39 40 47 41 40 42 41 43 45 44
REMARK SMILES IDX 48 45 42 46 43 47 46 48 44 49 70 50 71 51 79 52 72 53 73 54
REMARK SMILES IDX 77 55 80 56 74 57 75 58 78 59 76 60 55 61 56 62 64 63 57 64
REMARK SMILES IDX 58 65 62 66 65 67 59 68 60 69 63 70 61 71 7 72 8 73 9 74
REMARK SMILES IDX 10 75 11 76 12 77 13 78 28 79 14 80 16 81 15 82 17 83 18 84
REMARK SMILES IDX 19 85 20 86 27 87 21 88 26 89 22 90 25 91 23 92 24 93
REMARK H PARENT 85 24 53 35
REMARK Flexibility Score: inf
ROOT
ATOM      1  O   UNL     1       3.584   0.983  -1.473  1.00  0.00    -0.374 OA
ENDROOT
BRANCH   1   2
ATOM      2  C   UNL     1       4.018  -0.333  -1.144  1.00  0.00     0.202 C 
BRANCH   2   3
ATOM      3  C   UNL     1       3.615  -0.854   0.240  1.00  0.00     0.261 C 
BRANCH   3   4
ATOM      4  O   UNL     1       2.206  -0.667   0.470  1.00  0.00    -0.460 OA
BRANCH   4   5
ATOM      5  C   UNL     1       1.625   0.324   1.192  1.00  0.00     0.338 C 
ATOM      6  O   UNL     1       0.406   0.354   1.325  1.00  0.00    -0.246 OA
BRANCH   5   7
ATOM      7  C   UNL     1       2.443   1.344   1.898  1.00  0.00     0.060 A 
ATOM      8  C   UNL     1       3.597   1.891   1.353  1.00  0.00     0.016 A 
ATOM      9  C   UNL     1       2.020   1.808   3.149  1.00  0.00     0.016 A 
ATOM     10  C   UNL     1       4.407   2.739   2.064  1.00  0.00     0.010 A 
ATOM     11  C   UNL     1       2.786   2.751   3.846  1.00  0.00     0.010 A 
ATOM     12  C   UNL     1       4.004   3.191   3.310  1.00  0.00    -0.014 A 
BRANCH  12  13
ATOM     13  C   UNL     1       4.980   4.012   4.042  1.00  0.00     0.031 A 
ATOM     14  C   UNL     1       5.689   3.391   5.202  1.00  0.00     0.074 A 
ATOM     15  C   UNL     1       5.384   5.181   3.510  1.00  0.00     0.049 A 
ATOM     16  N   UNL     1       6.564   3.915   6.015  1.00  0.00    -0.248 NA
ATOM     17  C   UNL     1       5.392   1.973   5.471  1.00  0.00     0.031 C 
ATOM     18  C   UNL     1       4.895   5.749   2.248  1.00  0.00     0.029 A 
ATOM     19  N   UNL     1       6.351   6.060   3.913  1.00  0.00    -0.354 N 
ATOM     20  C   UNL     1       6.856   2.921   6.937  1.00  0.00     0.074 A 
ATOM     21  C   UNL     1       6.103   1.747   6.563  1.00  0.00     0.031 C 
ATOM     22  C   UNL     1       5.612   6.841   1.949  1.00  0.00     0.029 A 
ATOM     23  C   UNL     1       6.519   7.118   3.053  1.00  0.00     0.049 A 
ATOM     24  H   UNL     1       6.875   5.946   4.738  1.00  0.00     0.167 HD
ATOM     25  C   UNL     1       7.665   3.012   8.016  1.00  0.00     0.037 A 
ATOM     26  C   UNL     1       7.290   8.213   3.183  1.00  0.00     0.037 A 
ATOM     27  C   UNL     1       8.418   4.197   8.326  1.00  0.00     0.049 A 
ATOM     28  C   UNL     1       8.105   8.331   4.441  1.00  0.00     0.074 A 
ATOM     29  C   UNL     1       9.210   4.461   9.425  1.00  0.00     0.029 A 
ATOM     30  N   UNL     1       8.469   5.323   7.511  1.00  0.00    -0.354 N 
ATOM     31  N   UNL     1       8.275   7.452   5.402  1.00  0.00    -0.248 NA
ATOM     32  C   UNL     1       8.808   9.599   4.652  1.00  0.00     0.031 C 
ATOM     33  C   UNL     1       9.705   5.764   9.296  1.00  0.00     0.029 A 
ATOM     34  C   UNL     1       9.274   6.288   8.086  1.00  0.00     0.049 A 
ATOM     35  H   UNL     1       8.000   5.418   6.650  1.00  0.00     0.167 HD
ATOM     36  C   UNL     1       9.119   8.052   6.323  1.00  0.00     0.074 A 
ATOM     37  C   UNL     1       9.443   9.362   5.791  1.00  0.00     0.031 C 
ATOM     38  C   UNL     1       9.582   7.572   7.505  1.00  0.00     0.037 A 
BRANCH  25  39
ATOM     39  C   UNL     1       7.664   1.854   8.969  1.00  0.00     0.064 A 
ATOM     40  C   UNL     1       8.240   0.615   8.653  1.00  0.00     0.173 A 
ATOM     41  C   UNL     1       7.012   1.977  10.206  1.00  0.00     0.173 A 
ATOM     42  F   UNL     1       8.842   0.434   7.468  1.00  0.00    -0.203 F 
ATOM     43  C   UNL     1       8.132  -0.467   9.526  1.00  0.00     0.198 A 
ATOM     44  C   UNL     1       6.933   0.903  11.088  1.00  0.00     0.198 A 
ATOM     45  F   UNL     1       6.432   3.136  10.553  1.00  0.00    -0.203 F 
ATOM     46  F   UNL     1       8.626  -1.662   9.172  1.00  0.00    -0.200 F 
ATOM     47  C   UNL     1       7.482  -0.321  10.743  1.00  0.00     0.200 A 
ATOM     48  F   UNL     1       6.305   1.049  12.263  1.00  0.00    -0.200 F 
ATOM     49  F   UNL     1       7.369  -1.366  11.574  1.00  0.00    -0.200 F 
ENDBRANCH  25  39
BRANCH  26  50
ATOM     50  C   UNL     1       7.259   9.293   2.159  1.00  0.00     0.064 A 
ATOM     51  C   UNL     1       8.412   9.662   1.452  1.00  0.00     0.173 A 
ATOM     52  C   UNL     1       6.079  10.003   1.883  1.00  0.00     0.173 A 
ATOM     53  F   UNL     1       9.574   9.036   1.693  1.00  0.00    -0.203 F 
ATOM     54  C   UNL     1       8.390  10.707   0.528  1.00  0.00     0.198 A 
ATOM     55  C   UNL     1       6.048  11.021   0.932  1.00  0.00     0.198 A 
ATOM     56  F   UNL     1       4.945   9.705   2.534  1.00  0.00    -0.203 F 
ATOM     57  F   UNL     1       9.520  11.076  -0.089  1.00  0.00    -0.200 F 
ATOM     58  C   UNL     1       7.207  11.381   0.264  1.00  0.00     0.200 A 
ATOM     59  F   UNL     1       4.899  11.659   0.673  1.00  0.00    -0.200 F 
ATOM     60  F   UNL     1       7.187  12.386  -0.622  1.00  0.00    -0.200 F 
ENDBRANCH  26  50
BRANCH  38  61
ATOM     61  C   UNL     1      10.536   8.450   8.257  1.00  0.00     0.064 A 
ATOM     62  C   UNL     1      10.113   9.620   8.902  1.00  0.00     0.173 A 
ATOM     63  C   UNL     1      11.887   8.086   8.359  1.00  0.00     0.173 A 
ATOM     64  F   UNL     1       8.834  10.014   8.819  1.00  0.00    -0.203 F 
ATOM     65  C   UNL     1      11.019  10.415   9.597  1.00  0.00     0.198 A 
ATOM     66  C   UNL     1      12.781   8.864   9.085  1.00  0.00     0.198 A 
ATOM     67  F   UNL     1      12.334   6.970   7.764  1.00  0.00    -0.203 F 
ATOM     68  F   UNL     1      10.608  11.559  10.160  1.00  0.00    -0.200 F 
ATOM     69  C   UNL     1      12.349  10.032   9.695  1.00  0.00     0.200 A 
ATOM     70  F   UNL     1      14.062   8.483   9.192  1.00  0.00    -0.200 F 
ATOM     71  F   UNL     1      13.218  10.794  10.372  1.00  0.00    -0.200 F 
ENDBRANCH  38  61
ENDBRANCH  12  13
ENDBRANCH   5   7
ENDBRANCH   4   5
ENDBRANCH   3   4
ENDBRANCH   2   3
ENDBRANCH   1   2
BRANCH   1  72
ATOM     72  C   UNL     1       2.318   1.052  -2.122  1.00  0.00     0.202 C 
BRANCH  72  73
ATOM     73  C   UNL     1       2.488   1.105  -3.638  1.00  0.00     0.261 C 
BRANCH  73  74
ATOM     74  O   UNL     1       3.388   0.064  -4.076  1.00  0.00    -0.463 OA
BRANCH  74  75
ATOM     75  C   UNL     1       4.674   0.475  -4.274  1.00  0.00     0.310 C 
ATOM     76  O   UNL     1       5.005   1.657  -4.310  1.00  0.00    -0.252 OA
BRANCH  75  77
ATOM     77  C   UNL     1       5.620  -0.679  -4.596  1.00  0.00     0.119 C 
ATOM     78  C   UNL     1       5.390  -2.037  -3.903  1.00  0.00     0.019 C 
ATOM     79  C   UNL     1       7.071  -0.219  -4.443  1.00  0.00     0.135 C 
ATOM     80  C   UNL     1       6.224  -2.361  -2.651  1.00  0.00     0.022 C 
ATOM     81  N   UNL     1       7.527  -0.287  -3.055  1.00  0.00    -0.338 N 
ATOM     82  C   UNL     1       7.556  -1.631  -2.498  1.00  0.00     0.120 C 
BRANCH  81  83
ATOM     83  C   UNL     1       7.921   0.898  -2.427  1.00  0.00     0.253 C 
ATOM     84  O   UNL     1       7.804   2.007  -2.947  1.00  0.00    -0.269 OA
BRANCH  83  85
ATOM     85  C   UNL     1       8.522   0.888  -1.071  1.00  0.00     0.041 A 
ATOM     86  C   UNL     1       9.636   0.099  -0.783  1.00  0.00     0.016 A 
ATOM     87  C   UNL     1       8.036   1.811  -0.129  1.00  0.00     0.035 A 
ATOM     88  C   UNL     1      10.236   0.160   0.481  1.00  0.00     0.030 A 
ATOM     89  C   UNL     1       8.665   1.876   1.127  1.00  0.00     0.055 A 
ATOM     90  C   UNL     1       9.744   1.052   1.457  1.00  0.00     0.081 A 
ATOM     91  S   UNL     1       8.328   2.907   2.466  1.00  0.00    -0.122 S 
ATOM     92  N   UNL     1      10.241   1.205   2.740  1.00  0.00    -0.245 NA
ATOM     93  C   UNL     1       9.573   2.151   3.362  1.00  0.00     0.176 A 
ENDBRANCH  83  85
ENDBRANCH  81  83
ENDBRANCH  75  77
ENDBRANCH  74  75
ENDBRANCH  73  74
ENDBRANCH  72  73
ENDBRANCH   1  72
TORSDOF 16
