REMARK SMILES CC1(C)C(n2c(SCC(=O)OCCOCCOC(=O)c3ccc(-c4c5nc(c(-c6c(F)c(F)c(F)c(F)c6F)c6ccc([nH]6)c(-c6c(F)c(F)c(F)c(F)c6F)c6nc(c(-c7c(F)c(F)c(F)c(F)c7F)c7ccc4[nH]7)C=C6)C=C5)cc3)nc3cnccc32)C1(C)C
REMARK SMILES IDX 13 1 12 2 11 3 9 4 10 5 8 6 7 7 6 8 5 9 89 10 83 11 84 12
REMARK SMILES IDX 88 13 85 14 87 15 86 16 4 17 1 18 2 19 3 20 90 21 91 22
REMARK SMILES IDX 92 23 14 24 15 25 16 26 17 27 18 28 19 29 20 30 21 31 82 32
REMARK SMILES IDX 22 33 81 34 23 35 24 36 25 37 75 38 26 39 80 40 74 41 76 42
REMARK SMILES IDX 27 43 79 44 73 45 72 46 28 48 60 49 40 50 59 51 41 52 44 53
REMARK SMILES IDX 58 54 77 55 42 56 43 57 57 59 78 60 45 61 29 62 30 63 38 64
REMARK SMILES IDX 31 65 32 66 36 67 39 68 33 69 34 70 37 71 35 72 61 73 62 74
REMARK SMILES IDX 70 75 63 76 64 77 68 78 71 79 65 80 66 81 69 82 67 83 46 84
REMARK SMILES IDX 47 85 55 86 48 87 49 88 53 89 56 90 50 91 51 92 54 93 52 94
REMARK H PARENT 76 47 44 58
REMARK Flexibility Score: inf
ROOT
ATOM      1  C   UNL     1      -4.266  -1.139  -1.135  1.00  0.00     0.202 C 
ENDROOT
BRANCH   1   2
ATOM      2  C   UNL     1      -4.117  -2.390  -0.257  1.00  0.00     0.261 C 
BRANCH   2   3
ATOM      3  O   UNL     1      -3.978  -2.039   1.127  1.00  0.00    -0.463 OA
BRANCH   3   4
ATOM      4  C   UNL     1      -3.423  -2.990   1.922  1.00  0.00     0.316 C 
ATOM      5  O   UNL     1      -3.297  -4.164   1.589  1.00  0.00    -0.251 OA
BRANCH   4   6
ATOM      6  C   UNL     1      -2.816  -2.444   3.202  1.00  0.00     0.200 C 
BRANCH   6   7
ATOM      7  S   UNL     1      -3.400  -0.828   3.679  1.00  0.00    -0.076 SA
BRANCH   7   8
ATOM      8  C   UNL     1      -2.046   0.227   4.018  1.00  0.00     0.169 A 
ATOM      9  N   UNL     1      -0.977   0.568   3.191  1.00  0.00    -0.315 N 
ATOM     10  C   UNL     1      -0.977   1.958   3.155  1.00  0.00     0.072 A 
ATOM     11  N   UNL     1      -2.280   1.218   4.861  1.00  0.00    -0.221 NA
ATOM     12  C   UNL     1      -1.765   2.327   4.243  1.00  0.00     0.108 A 
ATOM     13  C   UNL     1      -0.446   2.913   2.281  1.00  0.00     0.049 A 
ATOM     14  C   UNL     1      -2.006   3.683   4.484  1.00  0.00     0.141 A 
ATOM     15  C   UNL     1      -0.773   4.230   2.579  1.00  0.00     0.113 A 
ATOM     16  N   UNL     1      -1.514   4.627   3.638  1.00  0.00    -0.262 NA
BRANCH   9  17
ATOM     17  C   UNL     1      -0.358  -0.204   2.132  1.00  0.00     0.102 C 
ATOM     18  C   UNL     1       1.321   0.055   0.194  1.00  0.00     0.014 C 
ATOM     19  C   UNL     1       1.086  -0.148   1.682  1.00  0.00    -0.007 C 
ATOM     20  C   UNL     1       2.140   0.540   2.517  1.00  0.00     0.014 C 
ATOM     21  C   UNL     1       0.455  -1.477   2.193  1.00  0.00    -0.007 C 
ATOM     22  C   UNL     1       0.116  -2.552   1.169  1.00  0.00     0.014 C 
ATOM     23  C   UNL     1       0.878  -2.046   3.530  1.00  0.00     0.014 C 
ENDBRANCH   9  17
ENDBRANCH   7   8
ENDBRANCH   6   7
ENDBRANCH   4   6
ENDBRANCH   3   4
ENDBRANCH   2   3
ENDBRANCH   1   2
BRANCH   1  24
ATOM     24  O   UNL     1      -3.236  -0.155  -1.160  1.00  0.00    -0.374 OA
BRANCH  24  25
ATOM     25  C   UNL     1      -2.958   0.508   0.068  1.00  0.00     0.202 C 
BRANCH  25  26
ATOM     26  C   UNL     1      -3.926   1.543   0.655  1.00  0.00     0.261 C 
BRANCH  26  27
ATOM     27  O   UNL     1      -5.197   0.961   0.932  1.00  0.00    -0.460 OA
BRANCH  27  28
ATOM     28  C   UNL     1      -6.246   1.760   0.580  1.00  0.00     0.338 C 
ATOM     29  O   UNL     1      -6.300   2.959   0.575  1.00  0.00    -0.246 OA
BRANCH  28  30
ATOM     30  C   UNL     1      -7.069   0.862  -0.252  1.00  0.00     0.060 A 
ATOM     31  C   UNL     1      -7.467  -0.383   0.243  1.00  0.00     0.016 A 
ATOM     32  C   UNL     1      -7.044   1.139  -1.629  1.00  0.00     0.016 A 
ATOM     33  C   UNL     1      -7.743  -1.390  -0.669  1.00  0.00     0.010 A 
ATOM     34  C   UNL     1      -7.311   0.123  -2.538  1.00  0.00     0.010 A 
ATOM     35  C   UNL     1      -7.622  -1.149  -2.056  1.00  0.00    -0.014 A 
BRANCH  35  36
ATOM     36  C   UNL     1      -8.091  -2.206  -2.948  1.00  0.00     0.031 A 
ATOM     37  C   UNL     1      -9.543  -2.461  -2.755  1.00  0.00     0.074 A 
ATOM     38  C   UNL     1      -7.420  -2.831  -3.936  1.00  0.00     0.049 A 
ATOM     39  N   UNL     1     -10.116  -3.552  -2.369  1.00  0.00    -0.248 NA
ATOM     40  C   UNL     1     -10.442  -1.298  -2.854  1.00  0.00     0.031 C 
ATOM     41  C   UNL     1      -6.105  -2.532  -4.497  1.00  0.00     0.029 A 
ATOM     42  N   UNL     1      -7.862  -3.858  -4.724  1.00  0.00    -0.354 N 
ATOM     43  C   UNL     1     -11.472  -3.253  -2.295  1.00  0.00     0.074 A 
ATOM     44  C   UNL     1     -11.599  -1.830  -2.468  1.00  0.00     0.031 C 
ATOM     45  C   UNL     1      -5.946  -3.219  -5.654  1.00  0.00     0.029 A 
ATOM     46  C   UNL     1      -7.101  -4.078  -5.862  1.00  0.00     0.049 A 
ATOM     47  H   UNL     1      -8.656  -4.397  -4.502  1.00  0.00     0.167 HD
ATOM     48  C   UNL     1     -12.422  -4.222  -2.281  1.00  0.00     0.037 A 
ATOM     49  C   UNL     1      -7.443  -4.845  -6.929  1.00  0.00     0.037 A 
ATOM     50  C   UNL     1     -11.883  -5.495  -1.893  1.00  0.00     0.049 A 
ATOM     51  C   UNL     1      -8.510  -5.780  -6.496  1.00  0.00     0.074 A 
ATOM     52  C   UNL     1     -11.264  -5.972  -0.754  1.00  0.00     0.029 A 
ATOM     53  N   UNL     1     -11.628  -6.424  -2.870  1.00  0.00    -0.354 N 
ATOM     54  N   UNL     1      -8.322  -6.784  -5.687  1.00  0.00    -0.248 NA
ATOM     55  C   UNL     1      -9.893  -5.349  -6.647  1.00  0.00     0.031 C 
ATOM     56  C   UNL     1     -10.278  -6.887  -1.222  1.00  0.00     0.029 A 
ATOM     57  C   UNL     1     -10.384  -6.939  -2.612  1.00  0.00     0.049 A 
ATOM     58  H   UNL     1     -12.223  -6.673  -3.614  1.00  0.00     0.167 HD
ATOM     59  C   UNL     1      -9.470  -6.827  -4.912  1.00  0.00     0.074 A 
ATOM     60  C   UNL     1     -10.437  -5.986  -5.609  1.00  0.00     0.031 C 
ATOM     61  C   UNL     1      -9.441  -7.310  -3.638  1.00  0.00     0.037 A 
BRANCH  48  62
ATOM     62  C   UNL     1     -13.767  -4.064  -2.930  1.00  0.00     0.064 A 
ATOM     63  C   UNL     1     -14.768  -5.022  -2.693  1.00  0.00     0.173 A 
ATOM     64  C   UNL     1     -14.012  -3.167  -3.994  1.00  0.00     0.173 A 
ATOM     65  F   UNL     1     -14.618  -5.942  -1.728  1.00  0.00    -0.203 F 
ATOM     66  C   UNL     1     -15.902  -5.112  -3.502  1.00  0.00     0.198 A 
ATOM     67  C   UNL     1     -15.171  -3.222  -4.760  1.00  0.00     0.198 A 
ATOM     68  F   UNL     1     -13.094  -2.283  -4.405  1.00  0.00    -0.203 F 
ATOM     69  F   UNL     1     -16.770  -6.115  -3.319  1.00  0.00    -0.200 F 
ATOM     70  C   UNL     1     -16.102  -4.213  -4.535  1.00  0.00     0.200 A 
ATOM     71  F   UNL     1     -15.334  -2.356  -5.770  1.00  0.00    -0.200 F 
ATOM     72  F   UNL     1     -17.160  -4.333  -5.347  1.00  0.00    -0.200 F 
ENDBRANCH  48  62
BRANCH  49  73
ATOM     73  C   UNL     1      -7.126  -4.633  -8.364  1.00  0.00     0.064 A 
ATOM     74  C   UNL     1      -7.302  -5.658  -9.310  1.00  0.00     0.173 A 
ATOM     75  C   UNL     1      -6.911  -3.341  -8.881  1.00  0.00     0.173 A 
ATOM     76  F   UNL     1      -7.561  -6.911  -8.908  1.00  0.00    -0.203 F 
ATOM     77  C   UNL     1      -7.288  -5.401 -10.686  1.00  0.00     0.198 A 
ATOM     78  C   UNL     1      -6.887  -3.086 -10.253  1.00  0.00     0.198 A 
ATOM     79  F   UNL     1      -6.817  -2.280  -8.067  1.00  0.00    -0.203 F 
ATOM     80  F   UNL     1      -7.524  -6.393 -11.556  1.00  0.00    -0.200 F 
ATOM     81  C   UNL     1      -7.089  -4.113 -11.156  1.00  0.00     0.200 A 
ATOM     82  F   UNL     1      -6.731  -1.829 -10.692  1.00  0.00    -0.200 F 
ATOM     83  F   UNL     1      -7.135  -3.854 -12.470  1.00  0.00    -0.200 F 
ENDBRANCH  49  73
BRANCH  61  84
ATOM     84  C   UNL     1      -8.215  -8.049  -3.184  1.00  0.00     0.064 A 
ATOM     85  C   UNL     1      -6.940  -7.465  -3.089  1.00  0.00     0.173 A 
ATOM     86  C   UNL     1      -8.379  -9.337  -2.655  1.00  0.00     0.173 A 
ATOM     87  F   UNL     1      -6.726  -6.203  -3.483  1.00  0.00    -0.203 F 
ATOM     88  C   UNL     1      -5.873  -8.156  -2.516  1.00  0.00     0.198 A 
ATOM     89  C   UNL     1      -7.322 -10.008  -2.049  1.00  0.00     0.198 A 
ATOM     90  F   UNL     1      -9.587  -9.922  -2.673  1.00  0.00    -0.203 F 
ATOM     91  F   UNL     1      -4.665  -7.580  -2.438  1.00  0.00    -0.200 F 
ATOM     92  C   UNL     1      -6.069  -9.421  -1.985  1.00  0.00     0.200 A 
ATOM     93  F   UNL     1      -7.528 -11.210  -1.493  1.00  0.00    -0.200 F 
ATOM     94  F   UNL     1      -5.057 -10.063  -1.384  1.00  0.00    -0.200 F 
ENDBRANCH  61  84
ENDBRANCH  35  36
ENDBRANCH  28  30
ENDBRANCH  27  28
ENDBRANCH  26  27
ENDBRANCH  25  26
ENDBRANCH  24  25
ENDBRANCH   1  24
TORSDOF 17
