REMARK SMILES COc1cccc([C@@H]2CN(C(=O)CSc3nc(C)n[nH]3)C[C@H]2C(=O)OCCOCCOC(=O)c2ccc(-c3c4nc(c(-c5c(F)c(F)c(F)c(F)c5F)c5ccc([nH]5)c(-c5c(F)c(F)c(F)c(F)c5F)c5nc(c(-c6c(F)c(F)c(F)c(F)c6F)c6ccc3[nH]6)C=C5)C=C4)cc2)c1
REMARK SMILES IDX 27 1 26 2 25 3 23 4 24 5 22 6 8 7 9 8 10 9 21 10 7 11 3 12
REMARK SMILES IDX 4 13 97 14 5 15 6 16 2 17 1 18 11 19 12 20 13 21 14 22 15 23
REMARK SMILES IDX 16 24 20 25 17 26 19 27 18 29 28 30 29 31 30 32 31 33 32 34
REMARK SMILES IDX 33 35 34 36 35 37 96 38 36 39 95 40 37 41 38 42 39 43 89 44
REMARK SMILES IDX 40 45 94 46 88 47 90 48 41 49 93 50 87 51 86 52 42 54 74 55
REMARK SMILES IDX 54 56 73 57 55 58 58 59 72 60 91 61 56 62 57 63 71 65 92 66
REMARK SMILES IDX 59 67 43 68 44 69 52 70 45 71 46 72 50 73 53 74 47 75 48 76
REMARK SMILES IDX 51 77 49 78 75 79 76 80 84 81 77 82 78 83 82 84 85 85 79 86
REMARK SMILES IDX 80 87 83 88 81 89 60 90 61 91 69 92 62 93 63 94 67 95 70 96
REMARK SMILES IDX 64 97 65 98 68 99 66 100
REMARK H PARENT 20 28 90 53 58 64
REMARK Flexibility Score: inf
ROOT
ATOM      1  C   UNL     1       3.543   5.031   5.946  1.00  0.00     0.202 C 
ENDROOT
BRANCH   1   2
ATOM      2  C   UNL     1       4.872   4.730   5.254  1.00  0.00     0.261 C 
BRANCH   2   3
ATOM      3  O   UNL     1       4.753   4.495   3.837  1.00  0.00    -0.463 OA
BRANCH   3   4
ATOM      4  C   UNL     1       4.952   3.206   3.462  1.00  0.00     0.311 C 
ATOM      5  O   UNL     1       5.175   2.280   4.236  1.00  0.00    -0.252 OA
BRANCH   4   6
ATOM      6  C   UNL     1       4.957   2.982   1.973  1.00  0.00     0.128 C 
ATOM      7  C   UNL     1       4.283   4.002   1.028  1.00  0.00     0.055 C 
ATOM      8  C   UNL     1       5.177   3.934  -0.223  1.00  0.00     0.128 C 
ATOM      9  N   UNL     1       6.498   3.612   0.276  1.00  0.00    -0.340 N 
ATOM     10  C   UNL     1       6.430   2.986   1.577  1.00  0.00     0.135 C 
BRANCH   7  11
ATOM     11  C   UNL     1       2.835   3.773   0.610  1.00  0.00    -0.039 A 
ATOM     12  C   UNL     1       0.976   2.335  -0.069  1.00  0.00     0.119 A 
ATOM     13  C   UNL     1       0.190   3.461  -0.313  1.00  0.00     0.046 A 
ATOM     14  C   UNL     1       2.287   2.494   0.398  1.00  0.00     0.050 A 
ATOM     15  C   UNL     1       0.714   4.735  -0.131  1.00  0.00     0.004 A 
ATOM     16  C   UNL     1       2.032   4.884   0.301  1.00  0.00     0.004 A 
BRANCH  12  17
ATOM     17  O   UNL     1       0.360   1.151  -0.365  1.00  0.00    -0.497 OA
ATOM     18  C   UNL     1       1.020  -0.048   0.014  1.00  0.00     0.278 C 
ENDBRANCH  12  17
ENDBRANCH   7  11
BRANCH   9  19
ATOM     19  C   UNL     1       7.723   3.798  -0.331  1.00  0.00     0.233 C 
ATOM     20  O   UNL     1       8.767   3.543   0.274  1.00  0.00    -0.274 OA
BRANCH  19  21
ATOM     21  C   UNL     1       7.761   4.382  -1.734  1.00  0.00     0.178 C 
BRANCH  21  22
ATOM     22  S   UNL     1       7.007   3.271  -2.959  1.00  0.00    -0.077 SA
BRANCH  22  23
ATOM     23  C   UNL     1       8.008   1.886  -2.795  1.00  0.00     0.184 A 
ATOM     24  N   UNL     1       9.307   1.836  -2.669  1.00  0.00    -0.206 NA
ATOM     25  N   UNL     1       7.489   0.631  -2.800  1.00  0.00    -0.254 N 
ATOM     26  C   UNL     1       9.549   0.486  -2.592  1.00  0.00     0.148 A 
ATOM     27  N   UNL     1       8.457  -0.291  -2.663  1.00  0.00    -0.158 NA
ATOM     28  H   UNL     1       6.531   0.424  -2.892  1.00  0.00     0.192 HD
ATOM     29  C   UNL     1      10.915  -0.060  -2.469  1.00  0.00     0.092 C 
ENDBRANCH  22  23
ENDBRANCH  21  22
ENDBRANCH  19  21
ENDBRANCH   9  19
ENDBRANCH   4   6
ENDBRANCH   3   4
ENDBRANCH   2   3
ENDBRANCH   1   2
BRANCH   1  30
ATOM     30  O   UNL     1       2.506   4.058   5.886  1.00  0.00    -0.374 OA
BRANCH  30  31
ATOM     31  C   UNL     1       1.917   3.709   4.639  1.00  0.00     0.202 C 
BRANCH  31  32
ATOM     32  C   UNL     1       1.105   4.766   3.905  1.00  0.00     0.261 C 
BRANCH  32  33
ATOM     33  O   UNL     1       1.883   5.906   3.555  1.00  0.00    -0.460 OA
BRANCH  33  34
ATOM     34  C   UNL     1       1.631   6.993   4.315  1.00  0.00     0.338 C 
ATOM     35  O   UNL     1       1.007   7.029   5.371  1.00  0.00    -0.246 OA
BRANCH  34  36
ATOM     36  C   UNL     1       2.063   8.197   3.604  1.00  0.00     0.060 A 
ATOM     37  C   UNL     1       1.614   9.404   4.137  1.00  0.00     0.016 A 
ATOM     38  C   UNL     1       2.562   8.106   2.298  1.00  0.00     0.016 A 
ATOM     39  C   UNL     1       1.394  10.447   3.273  1.00  0.00     0.010 A 
ATOM     40  C   UNL     1       2.312   9.137   1.424  1.00  0.00     0.010 A 
ATOM     41  C   UNL     1       1.644  10.255   1.910  1.00  0.00    -0.014 A 
BRANCH  41  42
ATOM     42  C   UNL     1       1.298  11.338   1.019  1.00  0.00     0.031 A 
ATOM     43  C   UNL     1       2.219  12.486   1.163  1.00  0.00     0.074 A 
ATOM     44  C   UNL     1       0.290  11.259   0.132  1.00  0.00     0.049 A 
ATOM     45  N   UNL     1       1.946  13.662   1.617  1.00  0.00    -0.248 NA
ATOM     46  C   UNL     1       3.656  12.230   0.961  1.00  0.00     0.031 C 
ATOM     47  C   UNL     1      -0.511  10.094  -0.247  1.00  0.00     0.029 A 
ATOM     48  N   UNL     1      -0.178  12.231  -0.695  1.00  0.00    -0.354 N 
ATOM     49  C   UNL     1       3.147  14.359   1.573  1.00  0.00     0.074 A 
ATOM     50  C   UNL     1       4.185  13.388   1.352  1.00  0.00     0.031 C 
ATOM     51  C   UNL     1      -1.196  10.374  -1.381  1.00  0.00     0.029 A 
ATOM     52  C   UNL     1      -0.981  11.768  -1.730  1.00  0.00     0.049 A 
ATOM     53  H   UNL     1       0.035  13.184  -0.571  1.00  0.00     0.167 HD
ATOM     54  C   UNL     1       3.162  15.710   1.439  1.00  0.00     0.037 A 
ATOM     55  C   UNL     1      -1.338  12.488  -2.825  1.00  0.00     0.037 A 
ATOM     56  C   UNL     1       1.919  16.297   1.865  1.00  0.00     0.049 A 
ATOM     57  C   UNL     1      -1.146  13.926  -2.488  1.00  0.00     0.074 A 
ATOM     58  C   UNL     1       1.223  16.300   3.060  1.00  0.00     0.029 A 
ATOM     59  N   UNL     1       1.007  16.662   0.906  1.00  0.00    -0.354 N 
ATOM     60  N   UNL     1      -1.880  14.566  -1.620  1.00  0.00    -0.248 NA
ATOM     61  C   UNL     1       0.165  14.507  -2.748  1.00  0.00     0.031 C 
ATOM     62  C   UNL     1      -0.148  16.171   2.691  1.00  0.00     0.029 A 
ATOM     63  C   UNL     1      -0.215  16.173   1.298  1.00  0.00     0.049 A 
ATOM     64  H   UNL     1       1.194  17.179   0.089  1.00  0.00     0.167 HD
ATOM     65  C   UNL     1      -0.985  15.360  -0.919  1.00  0.00     0.074 A 
ATOM     66  C   UNL     1       0.251  15.326  -1.696  1.00  0.00     0.031 C 
ATOM     67  C   UNL     1      -1.230  15.730   0.372  1.00  0.00     0.037 A 
BRANCH  54  68
ATOM     68  C   UNL     1       4.161  16.420   0.567  1.00  0.00     0.064 A 
ATOM     69  C   UNL     1       4.254  17.820   0.621  1.00  0.00     0.173 A 
ATOM     70  C   UNL     1       4.831  15.802  -0.515  1.00  0.00     0.173 A 
ATOM     71  F   UNL     1       3.618  18.509   1.580  1.00  0.00    -0.203 F 
ATOM     72  C   UNL     1       4.928  18.548  -0.363  1.00  0.00     0.198 A 
ATOM     73  C   UNL     1       5.553  16.525  -1.458  1.00  0.00     0.198 A 
ATOM     74  F   UNL     1       4.719  14.493  -0.773  1.00  0.00    -0.203 F 
ATOM     75  F   UNL     1       4.892  19.887  -0.340  1.00  0.00    -0.200 F 
ATOM     76  C   UNL     1       5.578  17.900  -1.400  1.00  0.00     0.200 A 
ATOM     77  F   UNL     1       6.151  15.876  -2.467  1.00  0.00    -0.200 F 
ATOM     78  F   UNL     1       6.181  18.598  -2.370  1.00  0.00    -0.200 F 
ENDBRANCH  54  68
BRANCH  55  79
ATOM     79  C   UNL     1      -1.463  12.020  -4.229  1.00  0.00     0.064 A 
ATOM     80  C   UNL     1      -2.058  12.832  -5.211  1.00  0.00     0.173 A 
ATOM     81  C   UNL     1      -0.747  10.901  -4.698  1.00  0.00     0.173 A 
ATOM     82  F   UNL     1      -2.719  13.943  -4.857  1.00  0.00    -0.203 F 
ATOM     83  C   UNL     1      -1.919  12.556  -6.577  1.00  0.00     0.198 A 
ATOM     84  C   UNL     1      -0.615  10.624  -6.060  1.00  0.00     0.198 A 
ATOM     85  F   UNL     1      -0.076  10.107  -3.852  1.00  0.00    -0.203 F 
ATOM     86  F   UNL     1      -2.445  13.391  -7.485  1.00  0.00    -0.200 F 
ATOM     87  C   UNL     1      -1.188  11.459  -7.000  1.00  0.00     0.200 A 
ATOM     88  F   UNL     1       0.128   9.580  -6.455  1.00  0.00    -0.200 F 
ATOM     89  F   UNL     1      -0.999  11.231  -8.307  1.00  0.00    -0.200 F 
ENDBRANCH  55  79
BRANCH  67  90
ATOM     90  C   UNL     1      -2.593  15.443   0.940  1.00  0.00     0.064 A 
ATOM     91  C   UNL     1      -3.127  14.150   1.091  1.00  0.00     0.173 A 
ATOM     92  C   UNL     1      -3.323  16.507   1.484  1.00  0.00     0.173 A 
ATOM     93  F   UNL     1      -2.444  13.070   0.692  1.00  0.00    -0.203 F 
ATOM     94  C   UNL     1      -4.357  13.944   1.717  1.00  0.00     0.198 A 
ATOM     95  C   UNL     1      -4.531  16.294   2.143  1.00  0.00     0.198 A 
ATOM     96  F   UNL     1      -2.836  17.756   1.421  1.00  0.00    -0.203 F 
ATOM     97  F   UNL     1      -4.850  12.702   1.837  1.00  0.00    -0.200 F 
ATOM     98  C   UNL     1      -5.053  15.015   2.249  1.00  0.00     0.200 A 
ATOM     99  F   UNL     1      -5.175  17.328   2.701  1.00  0.00    -0.200 F 
ATOM    100  F   UNL     1      -6.214  14.814   2.888  1.00  0.00    -0.200 F 
ENDBRANCH  67  90
ENDBRANCH  41  42
ENDBRANCH  34  36
ENDBRANCH  33  34
ENDBRANCH  32  33
ENDBRANCH  31  32
ENDBRANCH  30  31
ENDBRANCH   1  30
TORSDOF 20
