REMARK SMILES COc1ccc(/C=C2\SC(=S)N=C2OCCOCCOC(=O)c2ccc(-c3c4nc(c(-c5c(F)c(F)c(F)c(F)c5F)c5ccc([nH]5)c(-c5c(F)c(F)c(F)c(F)c5F)c5nc(c(-c6c(F)c(F)c(F)c(F)c6F)c6ccc3[nH]6)C=C5)C=C4)cc2)c(C(=O)[O-])c1OC
REMARK SMILES IDX 18 1 17 2 16 3 15 4 14 5 13 6 7 7 8 8 9 9 10 10 12 11 11 12
REMARK SMILES IDX 6 13 3 14 4 15 90 16 5 17 86 18 2 19 1 20 91 21 92 22 87 23
REMARK SMILES IDX 88 24 89 25 19 26 20 27 21 28 22 29 23 30 24 31 85 32 25 33
REMARK SMILES IDX 84 34 26 35 27 36 28 37 78 38 29 39 83 40 77 41 79 42 30 43
REMARK SMILES IDX 82 44 76 45 75 46 31 48 63 49 43 50 62 51 44 52 47 53 61 54
REMARK SMILES IDX 80 55 45 56 46 57 60 59 81 60 48 61 32 62 33 63 41 64 34 65
REMARK SMILES IDX 35 66 39 67 42 68 36 69 37 70 40 71 38 72 64 73 65 74 73 75
REMARK SMILES IDX 66 76 67 77 71 78 74 79 68 80 69 81 72 82 70 83 49 84 50 85
REMARK SMILES IDX 58 86 51 87 52 88 56 89 59 90 53 91 54 92 57 93 55 94
REMARK H PARENT 79 47 47 58
REMARK Flexibility Score: inf
ROOT
ATOM      1  C   UNL     1       0.888   6.705  -4.364  1.00  0.00     0.202 C 
ENDROOT
BRANCH   1   2
ATOM      2  O   UNL     1       2.139   6.145  -3.946  1.00  0.00    -0.374 OA
BRANCH   2   3
ATOM      3  C   UNL     1       3.310   6.717  -4.531  1.00  0.00     0.202 C 
BRANCH   3   4
ATOM      4  C   UNL     1       3.863   6.052  -5.800  1.00  0.00     0.260 C 
BRANCH   4   5
ATOM      5  O   UNL     1       2.917   6.001  -6.882  1.00  0.00    -0.474 OA
BRANCH   5   6
ATOM      6  C   UNL     1       1.854   5.205  -7.042  1.00  0.00     0.229 C 
ATOM      7  C   UNL     1       2.114   3.533  -5.132  1.00  0.00     0.030 C 
ATOM      8  C   UNL     1       1.500   4.006  -6.230  1.00  0.00     0.077 C 
ATOM      9  S   UNL     1       0.032   3.394  -6.932  1.00  0.00    -0.053 SA
ATOM     10  C   UNL     1      -0.083   4.788  -8.014  1.00  0.00     0.168 C 
ATOM     11  N   UNL     1       1.030   5.585  -7.974  1.00  0.00    -0.194 NA
ATOM     12  S   UNL     1      -1.462   5.115  -8.902  1.00  0.00    -0.050 S 
BRANCH   7  13
ATOM     13  C   UNL     1       1.823   2.493  -4.113  1.00  0.00    -0.011 A 
ATOM     14  C   UNL     1       1.147   0.654  -2.069  1.00  0.00     0.161 A 
ATOM     15  C   UNL     1       0.154   1.283  -2.821  1.00  0.00     0.051 A 
ATOM     16  C   UNL     1       2.501   0.915  -2.324  1.00  0.00     0.170 A 
ATOM     17  C   UNL     1       0.487   2.189  -3.821  1.00  0.00     0.013 A 
ATOM     18  C   UNL     1       2.837   1.899  -3.297  1.00  0.00     0.050 A 
BRANCH  14  19
ATOM     19  O   UNL     1       0.738  -0.297  -1.172  1.00  0.00    -0.493 OA
ATOM     20  C   UNL     1       0.126   0.290  -0.021  1.00  0.00     0.278 C 
ENDBRANCH  14  19
BRANCH  16  21
ATOM     21  O   UNL     1       3.560   0.236  -1.776  1.00  0.00    -0.492 OA
ATOM     22  C   UNL     1       3.386  -0.543  -0.605  1.00  0.00     0.278 C 
ENDBRANCH  16  21
BRANCH  18  23
ATOM     23  C   UNL     1       4.275   2.325  -3.438  1.00  0.00     0.076 C 
ATOM     24  O   UNL     1       4.820   2.752  -4.441  1.00  0.00    -0.545 OA
ATOM     25  O   UNL     1       4.961   2.307  -2.277  1.00  0.00    -0.545 OA
ENDBRANCH  18  23
ENDBRANCH   7  13
ENDBRANCH   5   6
ENDBRANCH   4   5
ENDBRANCH   3   4
ENDBRANCH   2   3
ENDBRANCH   1   2
BRANCH   1  26
ATOM     26  C   UNL     1       0.408   7.913  -3.556  1.00  0.00     0.261 C 
BRANCH  26  27
ATOM     27  O   UNL     1       1.318   9.012  -3.688  1.00  0.00    -0.460 OA
BRANCH  27  28
ATOM     28  C   UNL     1       2.220   9.115  -2.682  1.00  0.00     0.338 C 
ATOM     29  O   UNL     1       2.247   8.488  -1.641  1.00  0.00    -0.246 OA
BRANCH  28  30
ATOM     30  C   UNL     1       3.321   9.992  -3.124  1.00  0.00     0.060 A 
ATOM     31  C   UNL     1       4.630   9.567  -2.861  1.00  0.00     0.016 A 
ATOM     32  C   UNL     1       3.081  11.204  -3.773  1.00  0.00     0.016 A 
ATOM     33  C   UNL     1       5.706  10.383  -3.194  1.00  0.00     0.010 A 
ATOM     34  C   UNL     1       4.160  12.026  -4.100  1.00  0.00     0.010 A 
ATOM     35  C   UNL     1       5.471  11.636  -3.773  1.00  0.00    -0.014 A 
BRANCH  35  36
ATOM     36  C   UNL     1       6.574  12.618  -3.867  1.00  0.00     0.031 A 
ATOM     37  C   UNL     1       6.647  13.708  -2.834  1.00  0.00     0.074 A 
ATOM     38  C   UNL     1       7.502  12.524  -4.835  1.00  0.00     0.049 A 
ATOM     39  N   UNL     1       7.469  14.721  -2.750  1.00  0.00    -0.248 NA
ATOM     40  C   UNL     1       5.652  13.649  -1.749  1.00  0.00     0.031 C 
ATOM     41  C   UNL     1       7.554  11.482  -5.858  1.00  0.00     0.029 A 
ATOM     42  N   UNL     1       8.575  13.330  -5.118  1.00  0.00    -0.354 N 
ATOM     43  C   UNL     1       7.090  15.418  -1.610  1.00  0.00     0.074 A 
ATOM     44  C   UNL     1       5.941  14.740  -1.055  1.00  0.00     0.031 C 
ATOM     45  C   UNL     1       8.599  11.720  -6.669  1.00  0.00     0.029 A 
ATOM     46  C   UNL     1       9.264  12.950  -6.244  1.00  0.00     0.049 A 
ATOM     47  H   UNL     1       8.827  14.106  -4.568  1.00  0.00     0.167 HD
ATOM     48  C   UNL     1       7.662  16.518  -1.068  1.00  0.00     0.037 A 
ATOM     49  C   UNL     1      10.294  13.551  -6.869  1.00  0.00     0.037 A 
ATOM     50  C   UNL     1       8.806  17.188  -1.629  1.00  0.00     0.049 A 
ATOM     51  C   UNL     1      10.853  14.829  -6.292  1.00  0.00     0.074 A 
ATOM     52  C   UNL     1       9.460  18.314  -1.164  1.00  0.00     0.029 A 
ATOM     53  N   UNL     1       9.463  16.788  -2.783  1.00  0.00    -0.354 N 
ATOM     54  N   UNL     1      10.501  15.474  -5.206  1.00  0.00    -0.248 NA
ATOM     55  C   UNL     1      11.958  15.459  -7.028  1.00  0.00     0.031 C 
ATOM     56  C   UNL     1      10.483  18.625  -2.064  1.00  0.00     0.029 A 
ATOM     57  C   UNL     1      10.506  17.657  -3.055  1.00  0.00     0.049 A 
ATOM     58  H   UNL     1       9.223  16.004  -3.328  1.00  0.00     0.167 HD
ATOM     59  C   UNL     1      11.366  16.558  -5.107  1.00  0.00     0.074 A 
ATOM     60  C   UNL     1      12.268  16.474  -6.235  1.00  0.00     0.031 C 
ATOM     61  C   UNL     1      11.410  17.537  -4.170  1.00  0.00     0.037 A 
BRANCH  48  62
ATOM     62  C   UNL     1       7.059  17.074   0.189  1.00  0.00     0.064 A 
ATOM     63  C   UNL     1       7.176  16.407   1.417  1.00  0.00     0.173 A 
ATOM     64  C   UNL     1       6.407  18.316   0.176  1.00  0.00     0.173 A 
ATOM     65  F   UNL     1       7.776  15.209   1.480  1.00  0.00    -0.203 F 
ATOM     66  C   UNL     1       6.651  16.956   2.584  1.00  0.00     0.198 A 
ATOM     67  C   UNL     1       5.909  18.877   1.350  1.00  0.00     0.198 A 
ATOM     68  F   UNL     1       6.267  18.996  -0.972  1.00  0.00    -0.203 F 
ATOM     69  F   UNL     1       6.742  16.284   3.740  1.00  0.00    -0.200 F 
ATOM     70  C   UNL     1       6.028  18.195   2.551  1.00  0.00     0.200 A 
ATOM     71  F   UNL     1       5.319  20.080   1.318  1.00  0.00    -0.200 F 
ATOM     72  F   UNL     1       5.538  18.730   3.678  1.00  0.00    -0.200 F 
ENDBRANCH  48  62
BRANCH  49  73
ATOM     73  C   UNL     1      10.858  12.979  -8.122  1.00  0.00     0.064 A 
ATOM     74  C   UNL     1      12.180  12.513  -8.174  1.00  0.00     0.173 A 
ATOM     75  C   UNL     1      10.110  12.942  -9.308  1.00  0.00     0.173 A 
ATOM     76  F   UNL     1      12.945  12.547  -7.073  1.00  0.00    -0.203 F 
ATOM     77  C   UNL     1      12.744  12.074  -9.370  1.00  0.00     0.198 A 
ATOM     78  C   UNL     1      10.663  12.468 -10.496  1.00  0.00     0.198 A 
ATOM     79  F   UNL     1       8.841  13.374  -9.317  1.00  0.00    -0.203 F 
ATOM     80  F   UNL     1      14.031  11.705  -9.405  1.00  0.00    -0.200 F 
ATOM     81  C   UNL     1      11.984  12.049 -10.530  1.00  0.00     0.200 A 
ATOM     82  F   UNL     1       9.921  12.433 -11.611  1.00  0.00    -0.200 F 
ATOM     83  F   UNL     1      12.530  11.636 -11.682  1.00  0.00    -0.200 F 
ENDBRANCH  49  73
BRANCH  61  84
ATOM     84  C   UNL     1      12.507  18.557  -4.287  1.00  0.00     0.064 A 
ATOM     85  C   UNL     1      12.518  19.521  -5.305  1.00  0.00     0.173 A 
ATOM     86  C   UNL     1      13.540  18.593  -3.337  1.00  0.00     0.173 A 
ATOM     87  F   UNL     1      11.561  19.522  -6.245  1.00  0.00    -0.203 F 
ATOM     88  C   UNL     1      13.541  20.462  -5.388  1.00  0.00     0.198 A 
ATOM     89  C   UNL     1      14.541  19.558  -3.401  1.00  0.00     0.198 A 
ATOM     90  F   UNL     1      13.571  17.701  -2.336  1.00  0.00    -0.203 F 
ATOM     91  F   UNL     1      13.563  21.337  -6.403  1.00  0.00    -0.200 F 
ATOM     92  C   UNL     1      14.546  20.485  -4.432  1.00  0.00     0.200 A 
ATOM     93  F   UNL     1      15.500  19.590  -2.466  1.00  0.00    -0.200 F 
ATOM     94  F   UNL     1      15.525  21.397  -4.509  1.00  0.00    -0.200 F 
ENDBRANCH  61  84
ENDBRANCH  35  36
ENDBRANCH  28  30
ENDBRANCH  27  28
ENDBRANCH  26  27
ENDBRANCH   1  26
TORSDOF 17
