REMARK SMILES COc1cc(Cl)c(C)cc1N1C(=O)C[C@H](Nc2cc(C(=O)OCCOCCOC(=O)c3ccc(-c4c5nc(c(-c6c(F)c(F)c(F)c(F)c6F)c6ccc([nH]6)c(-c6c(F)c(F)c(F)c(F)c6F)c6nc(c(-c7c(F)c(F)c(F)c(F)c7F)c7ccc4[nH]7)C=C6)C=C5)cc3)ccc2C)C1=O
REMARK SMILES IDX 24 1 23 2 22 3 20 4 21 5 19 6 17 7 18 8 96 9 95 10 97 11
REMARK SMILES IDX 94 12 16 13 15 15 11 16 12 17 98 18 13 19 14 20 99 21 10 22
REMARK SMILES IDX 3 23 4 24 5 25 9 26 6 27 7 28 8 29 2 30 1 31 25 32 26 33
REMARK SMILES IDX 27 34 28 35 29 36 30 37 31 38 32 39 93 40 33 41 92 42 34 43
REMARK SMILES IDX 35 44 36 45 86 46 37 47 91 48 85 49 87 50 38 51 90 52 84 53
REMARK SMILES IDX 83 54 39 56 71 57 51 58 70 59 52 60 55 61 69 62 88 63 53 64
REMARK SMILES IDX 54 65 68 67 89 68 56 69 40 70 41 71 49 72 42 73 43 74 47 75
REMARK SMILES IDX 50 76 44 77 45 78 48 79 46 80 72 81 73 82 81 83 74 84 75 85
REMARK SMILES IDX 79 86 82 87 76 88 77 89 80 90 78 91 57 92 58 93 66 94 59 95
REMARK SMILES IDX 60 96 64 97 67 98 61 99 62 100 65 101 63 102
REMARK H PARENT 16 14 87 55 55 66
REMARK Flexibility Score: inf
ROOT
ATOM      1  C   UNL     1       4.945  -2.411  -6.650  1.00  0.00     0.202 C 
ENDROOT
BRANCH   1   2
ATOM      2  C   UNL     1       3.745  -2.731  -5.826  1.00  0.00     0.261 C 
BRANCH   2   3
ATOM      3  O   UNL     1       4.059  -2.798  -4.434  1.00  0.00    -0.460 OA
BRANCH   3   4
ATOM      4  C   UNL     1       4.779  -3.857  -3.964  1.00  0.00     0.338 C 
ATOM      5  O   UNL     1       4.787  -5.000  -4.354  1.00  0.00    -0.246 OA
BRANCH   4   6
ATOM      6  C   UNL     1       5.701  -3.287  -2.958  1.00  0.00     0.062 A 
ATOM      7  C   UNL     1       6.348  -1.347  -1.634  1.00  0.00     0.038 A 
ATOM      8  C   UNL     1       5.433  -2.025  -2.431  1.00  0.00     0.041 A 
ATOM      9  C   UNL     1       7.560  -1.977  -1.328  1.00  0.00    -0.028 A 
ATOM     10  C   UNL     1       7.816  -3.274  -1.826  1.00  0.00     0.006 A 
ATOM     11  C   UNL     1       8.590  -1.352  -0.430  1.00  0.00     0.046 C 
ATOM     12  C   UNL     1       6.888  -3.932  -2.637  1.00  0.00     0.016 A 
BRANCH   7  13
ATOM     13  N   UNL     1       5.971  -0.120  -1.116  1.00  0.00    -0.373 N 
ATOM     14  H   UNL     1       6.550   0.670  -1.208  1.00  0.00     0.161 HD
BRANCH  13  15
ATOM     15  C   UNL     1       4.684  -0.038  -0.429  1.00  0.00     0.179 C 
ATOM     16  N   UNL     1       3.339   1.812  -0.012  1.00  0.00    -0.245 N 
ATOM     17  C   UNL     1       4.023   1.600   1.154  1.00  0.00     0.236 C 
ATOM     18  C   UNL     1       3.727   0.975  -1.029  1.00  0.00     0.256 C 
ATOM     19  O   UNL     1       3.926   2.219   2.205  1.00  0.00    -0.274 OA
ATOM     20  C   UNL     1       4.902   0.404   1.001  1.00  0.00     0.136 C 
ATOM     21  O   UNL     1       3.396   1.016  -2.206  1.00  0.00    -0.272 OA
BRANCH  16  22
ATOM     22  C   UNL     1       2.316   2.768  -0.131  1.00  0.00     0.094 A 
ATOM     23  C   UNL     1       1.010   2.408  -0.499  1.00  0.00     0.144 A 
ATOM     24  C   UNL     1       0.026   3.390  -0.624  1.00  0.00     0.069 A 
ATOM     25  C   UNL     1       0.331   4.729  -0.362  1.00  0.00     0.047 A 
ATOM     26  C   UNL     1       2.606   4.110   0.154  1.00  0.00     0.035 A 
ATOM     27  Cl  UNL     1      -0.937   5.893  -0.514  1.00  0.00    -0.084 Cl
ATOM     28  C   UNL     1       1.627   5.107   0.021  1.00  0.00    -0.030 A 
ATOM     29  C   UNL     1       2.002   6.540   0.277  1.00  0.00     0.046 C 
BRANCH  23  30
ATOM     30  O   UNL     1       0.612   1.119  -0.750  1.00  0.00    -0.495 OA
ATOM     31  C   UNL     1       0.672   0.279   0.403  1.00  0.00     0.278 C 
ENDBRANCH  23  30
ENDBRANCH  16  22
ENDBRANCH  13  15
ENDBRANCH   7  13
ENDBRANCH   4   6
ENDBRANCH   3   4
ENDBRANCH   2   3
ENDBRANCH   1   2
BRANCH   1  32
ATOM     32  O   UNL     1       5.693  -3.615  -6.710  1.00  0.00    -0.374 OA
BRANCH  32  33
ATOM     33  C   UNL     1       6.865  -3.550  -7.497  1.00  0.00     0.202 C 
BRANCH  33  34
ATOM     34  C   UNL     1       6.581  -3.152  -8.953  1.00  0.00     0.261 C 
BRANCH  34  35
ATOM     35  O   UNL     1       5.733  -4.151  -9.563  1.00  0.00    -0.460 OA
BRANCH  35  36
ATOM     36  C   UNL     1       4.438  -3.794  -9.796  1.00  0.00     0.338 C 
ATOM     37  O   UNL     1       4.077  -2.765 -10.343  1.00  0.00    -0.246 OA
BRANCH  36  38
ATOM     38  C   UNL     1       3.523  -4.699  -9.037  1.00  0.00     0.060 A 
ATOM     39  C   UNL     1       2.162  -4.368  -8.877  1.00  0.00     0.016 A 
ATOM     40  C   UNL     1       4.090  -5.680  -8.230  1.00  0.00     0.016 A 
ATOM     41  C   UNL     1       1.427  -4.890  -7.798  1.00  0.00     0.010 A 
ATOM     42  C   UNL     1       3.400  -6.097  -7.113  1.00  0.00     0.010 A 
ATOM     43  C   UNL     1       2.085  -5.668  -6.852  1.00  0.00    -0.014 A 
BRANCH  43  44
ATOM     44  C   UNL     1       1.616  -6.004  -5.497  1.00  0.00     0.031 A 
ATOM     45  C   UNL     1       1.641  -7.439  -5.130  1.00  0.00     0.074 A 
ATOM     46  C   UNL     1       1.562  -5.058  -4.521  1.00  0.00     0.049 A 
ATOM     47  N   UNL     1       1.442  -7.882  -3.945  1.00  0.00    -0.248 NA
ATOM     48  C   UNL     1       1.921  -8.516  -6.078  1.00  0.00     0.031 C 
ATOM     49  C   UNL     1       1.724  -5.222  -3.069  1.00  0.00     0.029 A 
ATOM     50  N   UNL     1       1.338  -3.675  -4.619  1.00  0.00    -0.354 N 
ATOM     51  C   UNL     1       1.882  -9.181  -3.883  1.00  0.00     0.074 A 
ATOM     52  C   UNL     1       2.091  -9.556  -5.256  1.00  0.00     0.031 C 
ATOM     53  C   UNL     1       1.250  -4.137  -2.429  1.00  0.00     0.029 A 
ATOM     54  C   UNL     1       0.672  -3.279  -3.446  1.00  0.00     0.049 A 
ATOM     55  H   UNL     1       1.599  -3.092  -5.368  1.00  0.00     0.167 HD
ATOM     56  C   UNL     1       2.098  -9.692  -2.636  1.00  0.00     0.037 A 
ATOM     57  C   UNL     1      -0.596  -2.799  -3.520  1.00  0.00     0.037 A 
ATOM     58  C   UNL     1       1.454  -8.814  -1.635  1.00  0.00     0.049 A 
ATOM     59  C   UNL     1      -1.465  -3.793  -2.808  1.00  0.00     0.074 A 
ATOM     60  C   UNL     1       1.913  -7.931  -0.672  1.00  0.00     0.029 A 
ATOM     61  N   UNL     1       0.096  -8.509  -1.811  1.00  0.00    -0.354 N 
ATOM     62  N   UNL     1      -1.174  -5.070  -2.737  1.00  0.00    -0.248 NA
ATOM     63  C   UNL     1      -2.553  -3.403  -1.922  1.00  0.00     0.031 C 
ATOM     64  C   UNL     1       0.847  -7.022  -0.370  1.00  0.00     0.029 A 
ATOM     65  C   UNL     1      -0.267  -7.360  -1.131  1.00  0.00     0.049 A 
ATOM     66  H   UNL     1      -0.524  -9.047  -2.353  1.00  0.00     0.167 HD
ATOM     67  C   UNL     1      -1.873  -5.619  -1.703  1.00  0.00     0.074 A 
ATOM     68  C   UNL     1      -2.768  -4.556  -1.265  1.00  0.00     0.031 C 
ATOM     69  C   UNL     1      -1.643  -6.859  -1.181  1.00  0.00     0.037 A 
BRANCH  56  70
ATOM     70  C   UNL     1       2.993 -10.877  -2.300  1.00  0.00     0.064 A 
ATOM     71  C   UNL     1       3.277 -11.198  -0.952  1.00  0.00     0.173 A 
ATOM     72  C   UNL     1       3.676 -11.691  -3.232  1.00  0.00     0.173 A 
ATOM     73  F   UNL     1       2.725 -10.511   0.058  1.00  0.00    -0.203 F 
ATOM     74  C   UNL     1       4.157 -12.227  -0.581  1.00  0.00     0.198 A 
ATOM     75  C   UNL     1       4.537 -12.733  -2.863  1.00  0.00     0.198 A 
ATOM     76  F   UNL     1       3.576 -11.515  -4.550  1.00  0.00    -0.203 F 
ATOM     77  F   UNL     1       4.403 -12.457   0.716  1.00  0.00    -0.200 F 
ATOM     78  C   UNL     1       4.783 -12.999  -1.537  1.00  0.00     0.200 A 
ATOM     79  F   UNL     1       5.137 -13.465  -3.814  1.00  0.00    -0.200 F 
ATOM     80  F   UNL     1       5.620 -13.984  -1.186  1.00  0.00    -0.200 F 
ENDBRANCH  56  70
BRANCH  57  81
ATOM     81  C   UNL     1      -0.773  -2.000  -4.775  1.00  0.00     0.064 A 
ATOM     82  C   UNL     1       0.036  -0.837  -4.866  1.00  0.00     0.173 A 
ATOM     83  C   UNL     1      -1.191  -2.569  -5.985  1.00  0.00     0.173 A 
ATOM     84  F   UNL     1       0.474  -0.247  -3.742  1.00  0.00    -0.203 F 
ATOM     85  C   UNL     1       0.561  -0.397  -6.082  1.00  0.00     0.198 A 
ATOM     86  C   UNL     1      -0.691  -2.095  -7.209  1.00  0.00     0.198 A 
ATOM     87  F   UNL     1      -1.948  -3.674  -5.988  1.00  0.00    -0.203 F 
ATOM     88  F   UNL     1       1.486   0.574  -6.105  1.00  0.00    -0.200 F 
ATOM     89  C   UNL     1       0.229  -1.055  -7.250  1.00  0.00     0.200 A 
ATOM     90  F   UNL     1      -1.006  -2.728  -8.350  1.00  0.00    -0.200 F 
ATOM     91  F   UNL     1       0.841  -0.735  -8.400  1.00  0.00    -0.200 F 
ENDBRANCH  57  81
BRANCH  69  92
ATOM     92  C   UNL     1      -2.763  -7.682  -0.598  1.00  0.00     0.064 A 
ATOM     93  C   UNL     1      -4.121  -7.420  -0.862  1.00  0.00     0.173 A 
ATOM     94  C   UNL     1      -2.498  -8.886   0.091  1.00  0.00     0.173 A 
ATOM     95  F   UNL     1      -4.508  -6.395  -1.635  1.00  0.00    -0.203 F 
ATOM     96  C   UNL     1      -5.138  -8.243  -0.389  1.00  0.00     0.198 A 
ATOM     97  C   UNL     1      -3.515  -9.749   0.489  1.00  0.00     0.198 A 
ATOM     98  F   UNL     1      -1.250  -9.288   0.365  1.00  0.00    -0.203 F 
ATOM     99  F   UNL     1      -6.415  -7.905  -0.610  1.00  0.00    -0.200 F 
ATOM    100  C   UNL     1      -4.835  -9.414   0.274  1.00  0.00     0.200 A 
ATOM    101  F   UNL     1      -3.203 -10.921   1.060  1.00  0.00    -0.200 F 
ATOM    102  F   UNL     1      -5.814 -10.230   0.683  1.00  0.00    -0.200 F 
ENDBRANCH  69  92
ENDBRANCH  43  44
ENDBRANCH  36  38
ENDBRANCH  35  36
ENDBRANCH  34  35
ENDBRANCH  33  34
ENDBRANCH  32  33
ENDBRANCH   1  32
TORSDOF 18
