REMARK SMILES O=C(CCC(=O)OCCOCCOC(=O)c1ccc(-c2c3nc(c(-c4c(F)c(F)c(F)c(F)c4F)c4ccc([nH]4)c(-c4c(F)c(F)c(F)c(F)c4F)c4nc(c(-c5c(F)c(F)c(F)c(F)c5F)c5ccc2[nH]5)C=C4)C=C3)cc1)Nc1ccc(N2CCN(c3ccc(F)cc3)CC2)cc1
REMARK SMILES IDX 8 1 7 2 5 3 6 4 4 5 3 6 2 7 1 8 79 9 80 11 81 12 98 13 82 14
REMARK SMILES IDX 97 15 83 16 84 17 85 18 96 19 86 20 95 21 87 22 88 23 89 24
REMARK SMILES IDX 94 25 90 26 93 27 91 28 92 29 9 30 10 31 11 32 12 33 13 34
REMARK SMILES IDX 14 35 15 36 16 37 17 38 78 39 18 40 77 41 19 42 20 43 21 44
REMARK SMILES IDX 71 45 22 46 76 47 70 48 72 49 23 50 75 51 69 52 68 53 24 55
REMARK SMILES IDX 56 56 36 57 55 58 37 59 40 60 54 61 73 62 38 63 39 64 53 66
REMARK SMILES IDX 74 67 41 68 25 69 26 70 34 71 27 72 28 73 32 74 35 75 29 76
REMARK SMILES IDX 30 77 33 78 31 79 57 80 58 81 66 82 59 83 60 84 64 85 67 86
REMARK SMILES IDX 61 87 62 88 65 89 63 90 42 91 43 92 51 93 44 94 45 95 49 96
REMARK SMILES IDX 52 97 46 98 47 99 50 100 48 101
REMARK H PARENT 79 10 72 54 40 65
REMARK Flexibility Score: inf
ROOT
ATOM      1  C   UNL     1       5.826  -1.250  -2.161  1.00  0.00     0.261 C 
ENDROOT
BRANCH   1   2
ATOM      2  O   UNL     1       4.625  -1.434  -1.374  1.00  0.00    -0.463 OA
BRANCH   2   3
ATOM      3  C   UNL     1       4.649  -2.427  -0.439  1.00  0.00     0.306 C 
ATOM      4  O   UNL     1       5.595  -3.168  -0.223  1.00  0.00    -0.252 OA
BRANCH   3   5
ATOM      5  C   UNL     1       3.321  -2.526   0.282  1.00  0.00     0.132 C 
BRANCH   5   6
ATOM      6  C   UNL     1       2.962  -1.293   1.106  1.00  0.00     0.112 C 
BRANCH   6   7
ATOM      7  C   UNL     1       1.980  -0.350   0.429  1.00  0.00     0.224 C 
ATOM      8  O   UNL     1       0.953  -0.006   1.006  1.00  0.00    -0.275 OA
ATOM      9  N   UNL     1       2.372   0.049  -0.830  1.00  0.00    -0.326 N 
ATOM     10  H   UNL     1       3.244  -0.278  -1.148  1.00  0.00     0.169 HD
BRANCH   9  11
ATOM     11  C   UNL     1       1.649   0.875  -1.704  1.00  0.00     0.041 A 
ATOM     12  C   UNL     1       1.907   0.716  -3.062  1.00  0.00     0.028 A 
ATOM     13  C   UNL     1       0.686   1.794  -1.292  1.00  0.00     0.028 A 
ATOM     14  C   UNL     1       1.119   1.386  -3.994  1.00  0.00     0.028 A 
ATOM     15  C   UNL     1      -0.045   2.520  -2.239  1.00  0.00     0.028 A 
ATOM     16  C   UNL     1       0.127   2.292  -3.603  1.00  0.00     0.037 A 
BRANCH  16  17
ATOM     17  N   UNL     1      -0.707   2.869  -4.524  1.00  0.00    -0.368 N 
ATOM     18  C   UNL     1      -1.264   2.044  -5.594  1.00  0.00     0.138 C 
ATOM     19  C   UNL     1      -0.895   4.316  -4.696  1.00  0.00     0.138 C 
ATOM     20  C   UNL     1      -2.768   2.324  -5.728  1.00  0.00     0.138 C 
ATOM     21  C   UNL     1      -2.378   4.661  -4.972  1.00  0.00     0.138 C 
ATOM     22  N   UNL     1      -2.978   3.757  -5.975  1.00  0.00    -0.368 N 
BRANCH  22  23
ATOM     23  C   UNL     1      -3.710   4.195  -7.052  1.00  0.00     0.037 A 
ATOM     24  C   UNL     1      -4.789   3.447  -7.558  1.00  0.00     0.029 A 
ATOM     25  C   UNL     1      -3.401   5.393  -7.704  1.00  0.00     0.029 A 
ATOM     26  C   UNL     1      -5.519   3.864  -8.671  1.00  0.00     0.041 A 
ATOM     27  C   UNL     1      -4.146   5.833  -8.797  1.00  0.00     0.041 A 
ATOM     28  C   UNL     1      -5.188   5.059  -9.283  1.00  0.00     0.123 A 
ATOM     29  F   UNL     1      -5.884   5.456 -10.355  1.00  0.00    -0.207 F 
ENDBRANCH  22  23
ENDBRANCH  16  17
ENDBRANCH   9  11
ENDBRANCH   6   7
ENDBRANCH   5   6
ENDBRANCH   3   5
ENDBRANCH   2   3
ENDBRANCH   1   2
BRANCH   1  30
ATOM     30  C   UNL     1       6.364   0.177  -2.013  1.00  0.00     0.202 C 
BRANCH  30  31
ATOM     31  O   UNL     1       7.072   0.427  -0.798  1.00  0.00    -0.374 OA
BRANCH  31  32
ATOM     32  C   UNL     1       6.271   0.661   0.357  1.00  0.00     0.202 C 
BRANCH  32  33
ATOM     33  C   UNL     1       5.811   2.110   0.556  1.00  0.00     0.261 C 
BRANCH  33  34
ATOM     34  O   UNL     1       5.002   2.573  -0.542  1.00  0.00    -0.460 OA
BRANCH  34  35
ATOM     35  C   UNL     1       5.628   3.428  -1.390  1.00  0.00     0.338 C 
ATOM     36  O   UNL     1       6.749   3.891  -1.280  1.00  0.00    -0.246 OA
BRANCH  35  37
ATOM     37  C   UNL     1       4.806   3.632  -2.601  1.00  0.00     0.060 A 
ATOM     38  C   UNL     1       5.398   3.422  -3.854  1.00  0.00     0.016 A 
ATOM     39  C   UNL     1       3.496   4.090  -2.518  1.00  0.00     0.016 A 
ATOM     40  C   UNL     1       4.686   3.687  -5.033  1.00  0.00     0.010 A 
ATOM     41  C   UNL     1       2.795   4.360  -3.700  1.00  0.00     0.010 A 
ATOM     42  C   UNL     1       3.377   4.176  -4.973  1.00  0.00    -0.014 A 
BRANCH  42  43
ATOM     43  C   UNL     1       2.628   4.617  -6.194  1.00  0.00     0.031 A 
ATOM     44  C   UNL     1       2.256   6.073  -6.329  1.00  0.00     0.074 A 
ATOM     45  C   UNL     1       2.196   3.752  -7.137  1.00  0.00     0.049 A 
ATOM     46  N   UNL     1       1.453   6.656  -7.186  1.00  0.00    -0.248 NA
ATOM     47  C   UNL     1       2.857   6.993  -5.351  1.00  0.00     0.031 C 
ATOM     48  C   UNL     1       2.476   2.320  -7.177  1.00  0.00     0.029 A 
ATOM     49  N   UNL     1       1.355   3.952  -8.213  1.00  0.00    -0.354 N 
ATOM     50  C   UNL     1       1.469   8.006  -6.860  1.00  0.00     0.074 A 
ATOM     51  C   UNL     1       2.282   8.142  -5.670  1.00  0.00     0.031 C 
ATOM     52  C   UNL     1       1.736   1.753  -8.148  1.00  0.00     0.029 A 
ATOM     53  C   UNL     1       0.929   2.782  -8.803  1.00  0.00     0.049 A 
ATOM     54  H   UNL     1       1.085   4.845  -8.529  1.00  0.00     0.167 HD
ATOM     55  C   UNL     1       0.907   9.050  -7.516  1.00  0.00     0.037 A 
ATOM     56  C   UNL     1      -0.035   2.557  -9.723  1.00  0.00     0.037 A 
ATOM     57  C   UNL     1       0.128   8.943  -8.722  1.00  0.00     0.049 A 
ATOM     58  C   UNL     1      -0.750   3.726 -10.366  1.00  0.00     0.074 A 
ATOM     59  C   UNL     1      -0.426   9.957  -9.486  1.00  0.00     0.029 A 
ATOM     60  N   UNL     1      -0.210   7.750  -9.341  1.00  0.00    -0.354 N 
ATOM     61  N   UNL     1      -0.591   5.011 -10.160  1.00  0.00    -0.248 NA
ATOM     62  C   UNL     1      -1.752   3.414 -11.399  1.00  0.00     0.031 C 
ATOM     63  C   UNL     1      -1.125   9.376 -10.552  1.00  0.00     0.029 A 
ATOM     64  C   UNL     1      -0.994   8.002 -10.457  1.00  0.00     0.049 A 
ATOM     65  H   UNL     1       0.066   6.856  -9.034  1.00  0.00     0.167 HD
ATOM     66  C   UNL     1      -1.405   5.654 -11.089  1.00  0.00     0.074 A 
ATOM     67  C   UNL     1      -2.086   4.622 -11.838  1.00  0.00     0.031 C 
ATOM     68  C   UNL     1      -1.569   6.984 -11.296  1.00  0.00     0.037 A 
BRANCH  55  69
ATOM     69  C   UNL     1       1.151  10.421  -6.954  1.00  0.00     0.064 A 
ATOM     70  C   UNL     1       2.420  11.019  -7.020  1.00  0.00     0.173 A 
ATOM     71  C   UNL     1       0.109  11.153  -6.368  1.00  0.00     0.173 A 
ATOM     72  F   UNL     1       3.453  10.353  -7.559  1.00  0.00    -0.203 F 
ATOM     73  C   UNL     1       2.643  12.286  -6.490  1.00  0.00     0.198 A 
ATOM     74  C   UNL     1       0.329  12.434  -5.867  1.00  0.00     0.198 A 
ATOM     75  F   UNL     1      -1.122  10.628  -6.284  1.00  0.00    -0.203 F 
ATOM     76  F   UNL     1       3.875  12.813  -6.516  1.00  0.00    -0.200 F 
ATOM     77  C   UNL     1       1.597  12.995  -5.921  1.00  0.00     0.200 A 
ATOM     78  F   UNL     1      -0.685  13.123  -5.327  1.00  0.00    -0.200 F 
ATOM     79  F   UNL     1       1.812  14.217  -5.415  1.00  0.00    -0.200 F 
ENDBRANCH  55  69
BRANCH  56  80
ATOM     80  C   UNL     1      -0.404   1.159 -10.093  1.00  0.00     0.064 A 
ATOM     81  C   UNL     1      -0.095   0.621 -11.348  1.00  0.00     0.173 A 
ATOM     82  C   UNL     1      -1.114   0.334  -9.206  1.00  0.00     0.173 A 
ATOM     83  F   UNL     1       0.555   1.367 -12.252  1.00  0.00    -0.203 F 
ATOM     84  C   UNL     1      -0.494  -0.671 -11.701  1.00  0.00     0.198 A 
ATOM     85  C   UNL     1      -1.489  -0.963  -9.545  1.00  0.00     0.198 A 
ATOM     86  F   UNL     1      -1.458   0.785  -7.997  1.00  0.00    -0.203 F 
ATOM     87  F   UNL     1      -0.224  -1.142 -12.925  1.00  0.00    -0.200 F 
ATOM     88  C   UNL     1      -1.186  -1.464 -10.797  1.00  0.00     0.200 A 
ATOM     89  F   UNL     1      -2.152  -1.718  -8.657  1.00  0.00    -0.200 F 
ATOM     90  F   UNL     1      -1.569  -2.702 -11.135  1.00  0.00    -0.200 F 
ENDBRANCH  56  80
BRANCH  68  91
ATOM     91  C   UNL     1      -2.391   7.429 -12.476  1.00  0.00     0.064 A 
ATOM     92  C   UNL     1      -3.784   7.557 -12.417  1.00  0.00     0.173 A 
ATOM     93  C   UNL     1      -1.761   7.812 -13.668  1.00  0.00     0.173 A 
ATOM     94  F   UNL     1      -4.443   7.271 -11.293  1.00  0.00    -0.203 F 
ATOM     95  C   UNL     1      -4.524   8.007 -13.507  1.00  0.00     0.198 A 
ATOM     96  C   UNL     1      -2.500   8.289 -14.752  1.00  0.00     0.198 A 
ATOM     97  F   UNL     1      -0.426   7.747 -13.776  1.00  0.00    -0.203 F 
ATOM     98  F   UNL     1      -5.859   8.092 -13.418  1.00  0.00    -0.200 F 
ATOM     99  C   UNL     1      -3.881   8.376 -14.674  1.00  0.00     0.200 A 
ATOM    100  F   UNL     1      -1.872   8.673 -15.872  1.00  0.00    -0.200 F 
ATOM    101  F   UNL     1      -4.591   8.825 -15.718  1.00  0.00    -0.200 F 
ENDBRANCH  68  91
ENDBRANCH  42  43
ENDBRANCH  35  37
ENDBRANCH  34  35
ENDBRANCH  33  34
ENDBRANCH  32  33
ENDBRANCH  31  32
ENDBRANCH  30  31
ENDBRANCH   1  30
TORSDOF 19
