REMARK SMILES Cc1c(Cl)cccc1NC(=O)C[C@](C)(C(=O)OCCOCCOC(=O)c1ccc(-c2c3nc(c(-c4c(F)c(F)c(F)c(F)c4F)c4ccc([nH]4)c(-c4c(F)c(F)c(F)c(F)c4F)c4nc(c(-c5c(F)c(F)c(F)c(F)c5F)c5ccc2[nH]5)C=C4)C=C3)cc1)c1ccccc1
REMARK SMILES IDX 19 1 18 2 17 3 15 4 16 5 13 6 14 7 12 8 10 9 9 10 11 12 8 13
REMARK SMILES IDX 1 14 2 15 3 16 4 17 5 18 7 19 6 20 89 21 90 22 94 23 91 24
REMARK SMILES IDX 93 25 92 26 20 27 21 28 22 29 23 30 24 31 25 32 26 33 27 34
REMARK SMILES IDX 88 35 28 36 87 37 29 38 30 39 31 40 81 41 32 42 86 43 80 44
REMARK SMILES IDX 82 45 33 46 85 47 79 48 78 49 34 51 66 52 46 53 65 54 47 55
REMARK SMILES IDX 50 56 64 57 83 58 48 59 49 60 63 62 84 63 51 64 35 65 36 66
REMARK SMILES IDX 44 67 37 68 38 69 42 70 45 71 39 72 40 73 43 74 41 75 67 76
REMARK SMILES IDX 68 77 76 78 69 79 70 80 74 81 77 82 71 83 72 84 75 85 73 86
REMARK SMILES IDX 52 87 53 88 61 89 54 90 55 91 59 92 62 93 56 94 57 95 60 96
REMARK SMILES IDX 58 97
REMARK H PARENT 9 11 82 50 50 61
REMARK Flexibility Score: inf
ROOT
ATOM      1  C   UNL     1      -7.613  -2.747  -0.962  1.00  0.00     0.202 C 
ENDROOT
BRANCH   1   2
ATOM      2  C   UNL     1      -6.199  -2.825  -1.540  1.00  0.00     0.261 C 
BRANCH   2   3
ATOM      3  O   UNL     1      -5.444  -1.658  -1.172  1.00  0.00    -0.463 OA
BRANCH   3   4
ATOM      4  C   UNL     1      -4.523  -1.240  -2.081  1.00  0.00     0.316 C 
ATOM      5  O   UNL     1      -4.185  -1.913  -3.049  1.00  0.00    -0.251 OA
BRANCH   4   6
ATOM      6  C   UNL     1      -3.985   0.185  -1.785  1.00  0.00     0.099 C 
ATOM      7  C   UNL     1      -4.620   0.815  -0.510  1.00  0.00     0.029 C 
BRANCH   6   8
ATOM      8  C   UNL     1      -2.432   0.125  -1.595  1.00  0.00     0.123 C 
BRANCH   8   9
ATOM      9  C   UNL     1      -1.712  -1.209  -1.716  1.00  0.00     0.225 C 
ATOM     10  N   UNL     1      -1.907  -2.261  -0.877  1.00  0.00    -0.326 N 
ATOM     11  H   UNL     1      -1.435  -3.077  -1.162  1.00  0.00     0.169 HD
ATOM     12  O   UNL     1      -0.907  -1.381  -2.639  1.00  0.00    -0.275 OA
BRANCH  10  13
ATOM     13  C   UNL     1      -2.636  -2.431   0.309  1.00  0.00     0.045 A 
ATOM     14  C   UNL     1      -2.997  -4.917  -0.266  1.00  0.00     0.048 C 
ATOM     15  C   UNL     1      -3.221  -3.688   0.581  1.00  0.00    -0.009 A 
ATOM     16  C   UNL     1      -4.101  -3.786   1.674  1.00  0.00     0.046 A 
ATOM     17  Cl  UNL     1      -5.067  -5.206   1.895  1.00  0.00    -0.084 Cl
ATOM     18  C   UNL     1      -4.278  -2.724   2.558  1.00  0.00     0.021 A 
ATOM     19  C   UNL     1      -2.795  -1.384   1.224  1.00  0.00     0.026 A 
ATOM     20  C   UNL     1      -3.604  -1.529   2.350  1.00  0.00     0.004 A 
ENDBRANCH  10  13
ENDBRANCH   8   9
ENDBRANCH   6   8
BRANCH   6  21
ATOM     21  C   UNL     1      -4.358   1.180  -2.929  1.00  0.00    -0.030 A 
ATOM     22  C   UNL     1      -3.879   2.507  -2.899  1.00  0.00     0.005 A 
ATOM     23  C   UNL     1      -5.229   0.835  -3.979  1.00  0.00     0.005 A 
ATOM     24  C   UNL     1      -4.237   3.434  -3.881  1.00  0.00     0.000 A 
ATOM     25  C   UNL     1      -5.581   1.762  -4.965  1.00  0.00     0.000 A 
ATOM     26  C   UNL     1      -5.085   3.060  -4.917  1.00  0.00     0.000 A 
ENDBRANCH   6  21
ENDBRANCH   4   6
ENDBRANCH   3   4
ENDBRANCH   2   3
ENDBRANCH   1   2
BRANCH   1  27
ATOM     27  O   UNL     1      -8.443  -1.713  -1.493  1.00  0.00    -0.374 OA
BRANCH  27  28
ATOM     28  C   UNL     1      -8.119  -0.370  -1.143  1.00  0.00     0.202 C 
BRANCH  28  29
ATOM     29  C   UNL     1      -8.535   0.103   0.258  1.00  0.00     0.261 C 
BRANCH  29  30
ATOM     30  O   UNL     1      -7.990  -0.678   1.339  1.00  0.00    -0.460 OA
BRANCH  30  31
ATOM     31  C   UNL     1      -8.878  -1.520   1.923  1.00  0.00     0.338 C 
ATOM     32  O   UNL     1     -10.052  -1.685   1.616  1.00  0.00    -0.246 OA
BRANCH  31  33
ATOM     33  C   UNL     1      -8.228  -2.344   2.960  1.00  0.00     0.060 A 
ATOM     34  C   UNL     1      -8.411  -3.730   2.903  1.00  0.00     0.016 A 
ATOM     35  C   UNL     1      -7.561  -1.768   4.046  1.00  0.00     0.016 A 
ATOM     36  C   UNL     1      -7.963  -4.541   3.947  1.00  0.00     0.010 A 
ATOM     37  C   UNL     1      -7.114  -2.584   5.097  1.00  0.00     0.010 A 
ATOM     38  C   UNL     1      -7.340  -3.973   5.069  1.00  0.00    -0.014 A 
BRANCH  38  39
ATOM     39  C   UNL     1      -7.112  -4.820   6.272  1.00  0.00     0.031 A 
ATOM     40  C   UNL     1      -8.120  -4.773   7.383  1.00  0.00     0.074 A 
ATOM     41  C   UNL     1      -6.072  -5.670   6.358  1.00  0.00     0.049 A 
ATOM     42  N   UNL     1      -8.166  -5.466   8.492  1.00  0.00    -0.248 NA
ATOM     43  C   UNL     1      -9.207  -3.794   7.236  1.00  0.00     0.031 C 
ATOM     44  C   UNL     1      -5.009  -5.780   5.373  1.00  0.00     0.029 A 
ATOM     45  N   UNL     1      -5.745  -6.613   7.302  1.00  0.00    -0.354 N 
ATOM     46  C   UNL     1      -9.275  -4.997   9.180  1.00  0.00     0.074 A 
ATOM     47  C   UNL     1      -9.852  -3.936   8.383  1.00  0.00     0.031 C 
ATOM     48  C   UNL     1      -4.184  -6.784   5.712  1.00  0.00     0.029 A 
ATOM     49  C   UNL     1      -4.629  -7.352   6.980  1.00  0.00     0.049 A 
ATOM     50  H   UNL     1      -6.260  -6.748   8.130  1.00  0.00     0.167 HD
ATOM     51  C   UNL     1      -9.772  -5.417  10.367  1.00  0.00     0.037 A 
ATOM     52  C   UNL     1      -4.030  -8.364   7.639  1.00  0.00     0.037 A 
ATOM     53  C   UNL     1      -9.195  -6.470  11.160  1.00  0.00     0.049 A 
ATOM     54  C   UNL     1      -4.600  -8.810   8.961  1.00  0.00     0.074 A 
ATOM     55  C   UNL     1      -9.625  -6.969  12.376  1.00  0.00     0.029 A 
ATOM     56  N   UNL     1      -8.058  -7.185  10.813  1.00  0.00    -0.354 N 
ATOM     57  N   UNL     1      -5.665  -8.376   9.591  1.00  0.00    -0.248 NA
ATOM     58  C   UNL     1      -3.877  -9.875   9.671  1.00  0.00     0.031 C 
ATOM     59  C   UNL     1      -8.723  -7.957  12.786  1.00  0.00     0.029 A 
ATOM     60  C   UNL     1      -7.763  -8.113  11.799  1.00  0.00     0.049 A 
ATOM     61  H   UNL     1      -7.537  -7.053   9.988  1.00  0.00     0.167 HD
ATOM     62  C   UNL     1      -5.751  -9.124  10.757  1.00  0.00     0.074 A 
ATOM     63  C   UNL     1      -4.642 -10.056  10.738  1.00  0.00     0.031 C 
ATOM     64  C   UNL     1      -6.662  -9.042  11.757  1.00  0.00     0.037 A 
BRANCH  51  65
ATOM     65  C   UNL     1     -10.986  -4.704  10.884  1.00  0.00     0.064 A 
ATOM     66  C   UNL     1     -12.240  -4.845  10.271  1.00  0.00     0.173 A 
ATOM     67  C   UNL     1     -10.890  -3.856  11.997  1.00  0.00     0.173 A 
ATOM     68  F   UNL     1     -12.379  -5.628   9.190  1.00  0.00    -0.203 F 
ATOM     69  C   UNL     1     -13.345  -4.132  10.728  1.00  0.00     0.198 A 
ATOM     70  C   UNL     1     -12.004  -3.170  12.472  1.00  0.00     0.198 A 
ATOM     71  F   UNL     1      -9.714  -3.686  12.619  1.00  0.00    -0.203 F 
ATOM     72  F   UNL     1     -14.517  -4.230  10.086  1.00  0.00    -0.200 F 
ATOM     73  C   UNL     1     -13.227  -3.299  11.831  1.00  0.00     0.200 A 
ATOM     74  F   UNL     1     -11.891  -2.372  13.543  1.00  0.00    -0.200 F 
ATOM     75  F   UNL     1     -14.290  -2.610  12.268  1.00  0.00    -0.200 F 
ENDBRANCH  51  65
BRANCH  52  76
ATOM     76  C   UNL     1      -2.826  -9.031   7.070  1.00  0.00     0.064 A 
ATOM     77  C   UNL     1      -2.867 -10.373   6.664  1.00  0.00     0.173 A 
ATOM     78  C   UNL     1      -1.603  -8.354   6.945  1.00  0.00     0.173 A 
ATOM     79  F   UNL     1      -4.003 -11.076   6.788  1.00  0.00    -0.203 F 
ATOM     80  C   UNL     1      -1.730 -11.016   6.175  1.00  0.00     0.198 A 
ATOM     81  C   UNL     1      -0.476  -8.988   6.426  1.00  0.00     0.198 A 
ATOM     82  F   UNL     1      -1.504  -7.071   7.323  1.00  0.00    -0.203 F 
ATOM     83  F   UNL     1      -1.786 -12.314   5.845  1.00  0.00    -0.200 F 
ATOM     84  C   UNL     1      -0.537 -10.321   6.050  1.00  0.00     0.200 A 
ATOM     85  F   UNL     1       0.671  -8.309   6.296  1.00  0.00    -0.200 F 
ATOM     86  F   UNL     1       0.555 -10.938   5.578  1.00  0.00    -0.200 F 
ENDBRANCH  52  76
BRANCH  64  87
ATOM     87  C   UNL     1      -6.527 -10.014  12.894  1.00  0.00     0.064 A 
ATOM     88  C   UNL     1      -5.499  -9.904  13.841  1.00  0.00     0.173 A 
ATOM     89  C   UNL     1      -7.465 -11.044  13.057  1.00  0.00     0.173 A 
ATOM     90  F   UNL     1      -4.568  -8.946  13.721  1.00  0.00    -0.203 F 
ATOM     91  C   UNL     1      -5.402 -10.807  14.898  1.00  0.00     0.198 A 
ATOM     92  C   UNL     1      -7.383 -11.925  14.131  1.00  0.00     0.198 A 
ATOM     93  F   UNL     1      -8.471 -11.187  12.181  1.00  0.00    -0.203 F 
ATOM     94  F   UNL     1      -4.384 -10.712  15.765  1.00  0.00    -0.200 F 
ATOM     95  C   UNL     1      -6.347 -11.810  15.046  1.00  0.00     0.200 A 
ATOM     96  F   UNL     1      -8.305 -12.886  14.280  1.00  0.00    -0.200 F 
ATOM     97  F   UNL     1      -6.256 -12.673  16.068  1.00  0.00    -0.200 F 
ENDBRANCH  64  87
ENDBRANCH  38  39
ENDBRANCH  31  33
ENDBRANCH  30  31
ENDBRANCH  29  30
ENDBRANCH  28  29
ENDBRANCH  27  28
ENDBRANCH   1  27
TORSDOF 18
