REMARK SMILES [NH3+][C@H](C(=O)OCCOCCOC(=O)c1ccc(-c2c3nc(c(-c4c(F)c(F)c(F)c(F)c4F)c4ccc([nH]4)c(-c4c(F)c(F)c(F)c(F)c4F)c4nc(c(-c5c(F)c(F)c(F)c(F)c5F)c5ccc2[nH]5)C=C4)C=C3)cc1)c1ccc(Cl)c(OC(F)(F)F)c1
REMARK SMILES IDX 7 1 6 2 5 3 3 4 4 5 2 6 1 7 77 11 78 12 88 13 79 14 82 15
REMARK SMILES IDX 80 16 81 17 83 18 84 19 85 20 86 21 87 22 8 23 9 24 10 25
REMARK SMILES IDX 11 26 12 27 13 28 14 29 15 30 76 31 16 32 75 33 17 34 18 35
REMARK SMILES IDX 19 36 69 37 20 38 74 39 68 40 70 41 21 42 73 43 67 44 66 45
REMARK SMILES IDX 22 47 54 48 34 49 53 50 35 51 38 52 52 53 71 54 36 55 37 56
REMARK SMILES IDX 51 58 72 59 39 60 23 61 24 62 32 63 25 64 26 65 30 66 33 67
REMARK SMILES IDX 27 68 28 69 31 70 29 71 55 72 56 73 64 74 57 75 58 76 62 77
REMARK SMILES IDX 65 78 59 79 60 80 63 81 61 82 40 83 41 84 49 85 42 86 43 87
REMARK SMILES IDX 47 88 50 89 44 90 45 91 48 92 46 93
REMARK H PARENT 1 8 1 9 1 10 70 46 38 57
REMARK Flexibility Score: inf
ROOT
ATOM      1  C   UNL     1       0.964   1.713   2.108  1.00  0.00     0.202 C 
ENDROOT
BRANCH   1   2
ATOM      2  C   UNL     1       1.588   1.808   0.714  1.00  0.00     0.261 C 
BRANCH   2   3
ATOM      3  O   UNL     1       0.798   1.038  -0.211  1.00  0.00    -0.459 OA
BRANCH   3   4
ATOM      4  C   UNL     1       1.464   0.136  -0.971  1.00  0.00     0.369 C 
ATOM      5  O   UNL     1       2.689   0.087  -1.062  1.00  0.00    -0.245 OA
BRANCH   4   6
ATOM      6  C   UNL     1       0.552  -0.910  -1.672  1.00  0.00     0.323 C 
BRANCH   6   7
ATOM      7  N   UNL     1       1.186  -2.240  -1.449  1.00  0.00    -0.342 N 
ATOM      8  H   UNL     1       0.622  -2.965  -1.893  1.00  0.00     0.345 HD
ATOM      9  H   UNL     1       1.248  -2.423  -0.448  1.00  0.00     0.345 HD
ATOM     10  H   UNL     1       2.122  -2.242  -1.854  1.00  0.00     0.345 HD
ENDBRANCH   6   7
BRANCH   6  11
ATOM     11  C   UNL     1      -0.946  -0.933  -1.329  1.00  0.00     0.025 A 
ATOM     12  C   UNL     1      -1.711   0.244  -1.358  1.00  0.00     0.012 A 
ATOM     13  C   UNL     1      -1.632  -2.150  -1.098  1.00  0.00     0.059 A 
ATOM     14  C   UNL     1      -3.084   0.218  -1.098  1.00  0.00     0.025 A 
ATOM     15  C   UNL     1      -3.013  -2.196  -0.852  1.00  0.00     0.148 A 
ATOM     16  C   UNL     1      -3.727  -0.992  -0.839  1.00  0.00     0.083 A 
ATOM     17  Cl  UNL     1      -5.427  -0.952  -0.522  1.00  0.00    -0.080 Cl
BRANCH  15  18
ATOM     18  O   UNL     1      -3.739  -3.335  -0.633  1.00  0.00    -0.404 OA
BRANCH  18  19
ATOM     19  C   UNL     1      -3.077  -4.585  -0.677  1.00  0.00     0.573 C 
ATOM     20  F   UNL     1      -2.517  -4.800  -1.885  1.00  0.00    -0.132 F 
ATOM     21  F   UNL     1      -2.130  -4.660   0.283  1.00  0.00    -0.132 F 
ATOM     22  F   UNL     1      -3.980  -5.565  -0.453  1.00  0.00    -0.132 F 
ENDBRANCH  18  19
ENDBRANCH  15  18
ENDBRANCH   6  11
ENDBRANCH   4   6
ENDBRANCH   3   4
ENDBRANCH   2   3
ENDBRANCH   1   2
BRANCH   1  23
ATOM     23  O   UNL     1       1.166   0.463   2.769  1.00  0.00    -0.374 OA
BRANCH  23  24
ATOM     24  C   UNL     1       0.372  -0.643   2.339  1.00  0.00     0.202 C 
BRANCH  24  25
ATOM     25  C   UNL     1      -1.039  -0.719   2.931  1.00  0.00     0.261 C 
BRANCH  25  26
ATOM     26  O   UNL     1      -1.865   0.372   2.487  1.00  0.00    -0.460 OA
BRANCH  26  27
ATOM     27  C   UNL     1      -2.150   1.290   3.439  1.00  0.00     0.338 C 
ATOM     28  O   UNL     1      -1.850   1.250   4.624  1.00  0.00    -0.246 OA
BRANCH  27  29
ATOM     29  C   UNL     1      -2.751   2.487   2.823  1.00  0.00     0.060 A 
ATOM     30  C   UNL     1      -2.213   3.730   3.176  1.00  0.00     0.016 A 
ATOM     31  C   UNL     1      -3.858   2.409   1.974  1.00  0.00     0.016 A 
ATOM     32  C   UNL     1      -2.809   4.904   2.724  1.00  0.00     0.010 A 
ATOM     33  C   UNL     1      -4.459   3.590   1.521  1.00  0.00     0.010 A 
ATOM     34  C   UNL     1      -3.959   4.841   1.925  1.00  0.00    -0.014 A 
BRANCH  34  35
ATOM     35  C   UNL     1      -4.718   6.086   1.650  1.00  0.00     0.031 A 
ATOM     36  C   UNL     1      -5.923   6.405   2.491  1.00  0.00     0.074 A 
ATOM     37  C   UNL     1      -4.312   6.945   0.699  1.00  0.00     0.049 A 
ATOM     38  N   UNL     1      -6.730   7.434   2.430  1.00  0.00    -0.248 NA
ATOM     39  C   UNL     1      -6.261   5.435   3.544  1.00  0.00     0.031 C 
ATOM     40  C   UNL     1      -3.139   6.769  -0.154  1.00  0.00     0.029 A 
ATOM     41  N   UNL     1      -4.849   8.142   0.293  1.00  0.00    -0.354 N 
ATOM     42  C   UNL     1      -7.671   7.233   3.431  1.00  0.00     0.074 A 
ATOM     43  C   UNL     1      -7.355   5.971   4.065  1.00  0.00     0.031 C 
ATOM     44  C   UNL     1      -3.047   7.817  -0.989  1.00  0.00     0.029 A 
ATOM     45  C   UNL     1      -4.168   8.724  -0.747  1.00  0.00     0.049 A 
ATOM     46  H   UNL     1      -5.646   8.543   0.708  1.00  0.00     0.167 HD
ATOM     47  C   UNL     1      -8.700   8.034   3.797  1.00  0.00     0.037 A 
ATOM     48  C   UNL     1      -4.432   9.853  -1.433  1.00  0.00     0.037 A 
ATOM     49  C   UNL     1      -9.014   9.291   3.171  1.00  0.00     0.049 A 
ATOM     50  C   UNL     1      -5.622  10.694  -1.050  1.00  0.00     0.074 A 
ATOM     51  C   UNL     1     -10.024  10.184   3.485  1.00  0.00     0.029 A 
ATOM     52  N   UNL     1      -8.323   9.830   2.096  1.00  0.00    -0.354 N 
ATOM     53  N   UNL     1      -6.489  10.511  -0.084  1.00  0.00    -0.248 NA
ATOM     54  C   UNL     1      -5.866  11.902  -1.852  1.00  0.00     0.031 C 
ATOM     55  C   UNL     1      -9.972  11.241   2.571  1.00  0.00     0.029 A 
ATOM     56  C   UNL     1      -8.901  11.031   1.718  1.00  0.00     0.049 A 
ATOM     57  H   UNL     1      -7.539   9.419   1.665  1.00  0.00     0.167 HD
ATOM     58  C   UNL     1      -7.363  11.589  -0.145  1.00  0.00     0.074 A 
ATOM     59  C   UNL     1      -6.915  12.429  -1.236  1.00  0.00     0.031 C 
ATOM     60  C   UNL     1      -8.440  11.859   0.633  1.00  0.00     0.037 A 
BRANCH  47  61
ATOM     61  C   UNL     1      -9.577   7.562   4.918  1.00  0.00     0.064 A 
ATOM     62  C   UNL     1      -9.135   7.565   6.250  1.00  0.00     0.173 A 
ATOM     63  C   UNL     1     -10.887   7.130   4.661  1.00  0.00     0.173 A 
ATOM     64  F   UNL     1      -7.886   7.955   6.545  1.00  0.00    -0.203 F 
ATOM     65  C   UNL     1      -9.965   7.130   7.280  1.00  0.00     0.198 A 
ATOM     66  C   UNL     1     -11.722   6.721   5.696  1.00  0.00     0.198 A 
ATOM     67  F   UNL     1     -11.358   7.112   3.405  1.00  0.00    -0.203 F 
ATOM     68  F   UNL     1      -9.508   7.101   8.539  1.00  0.00    -0.200 F 
ATOM     69  C   UNL     1     -11.259   6.715   7.003  1.00  0.00     0.200 A 
ATOM     70  F   UNL     1     -12.976   6.330   5.428  1.00  0.00    -0.200 F 
ATOM     71  F   UNL     1     -12.059   6.302   7.996  1.00  0.00    -0.200 F 
ENDBRANCH  47  61
BRANCH  48  72
ATOM     72  C   UNL     1      -3.554  10.255  -2.563  1.00  0.00     0.064 A 
ATOM     73  C   UNL     1      -2.726  11.381  -2.472  1.00  0.00     0.173 A 
ATOM     74  C   UNL     1      -3.541   9.528  -3.763  1.00  0.00     0.173 A 
ATOM     75  F   UNL     1      -2.724  12.122  -1.355  1.00  0.00    -0.203 F 
ATOM     76  C   UNL     1      -1.927  11.774  -3.544  1.00  0.00     0.198 A 
ATOM     77  C   UNL     1      -2.723   9.907  -4.824  1.00  0.00     0.198 A 
ATOM     78  F   UNL     1      -4.318   8.443  -3.900  1.00  0.00    -0.203 F 
ATOM     79  F   UNL     1      -1.175  12.879  -3.447  1.00  0.00    -0.200 F 
ATOM     80  C   UNL     1      -1.922  11.033  -4.717  1.00  0.00     0.200 A 
ATOM     81  F   UNL     1      -2.713   9.182  -5.951  1.00  0.00    -0.200 F 
ATOM     82  F   UNL     1      -1.151  11.410  -5.746  1.00  0.00    -0.200 F 
ENDBRANCH  48  72
BRANCH  60  83
ATOM     83  C   UNL     1      -9.191  13.129   0.357  1.00  0.00     0.064 A 
ATOM     84  C   UNL     1     -10.016  13.264  -0.769  1.00  0.00     0.173 A 
ATOM     85  C   UNL     1      -9.120  14.205   1.254  1.00  0.00     0.173 A 
ATOM     86  F   UNL     1     -10.105  12.269  -1.664  1.00  0.00    -0.203 F 
ATOM     87  C   UNL     1     -10.726  14.441  -0.998  1.00  0.00     0.198 A 
ATOM     88  C   UNL     1      -9.852  15.369   1.037  1.00  0.00     0.198 A 
ATOM     89  F   UNL     1      -8.351  14.123   2.350  1.00  0.00    -0.203 F 
ATOM     90  F   UNL     1     -11.475  14.565  -2.102  1.00  0.00    -0.200 F 
ATOM     91  C   UNL     1     -10.649  15.488  -0.092  1.00  0.00     0.200 A 
ATOM     92  F   UNL     1      -9.786  16.376   1.919  1.00  0.00    -0.200 F 
ATOM     93  F   UNL     1     -11.338  16.617  -0.310  1.00  0.00    -0.200 F 
ENDBRANCH  60  83
ENDBRANCH  34  35
ENDBRANCH  27  29
ENDBRANCH  26  27
ENDBRANCH  25  26
ENDBRANCH  24  25
ENDBRANCH  23  24
ENDBRANCH   1  23
TORSDOF 18
