REMARK SMILES Cn1c(=O)c2c(-c3ccc(Cl)cc3)n(CC(=O)OCCOCCOC(=O)c3ccc(-c4c5nc(c(-c6c(F)c(F)c(F)c(F)c6F)c6ccc([nH]6)c(-c6c(F)c(F)c(F)c(F)c6F)c6nc(c(-c7c(F)c(F)c(F)c(F)c7F)c7ccc4[nH]7)C=C6)C=C5)cc3)cc2n(C)c1=O
REMARK SMILES IDX 21 1 20 2 19 3 18 4 16 5 17 6 15 7 14 8 1 9 2 10 3 11 94 12
REMARK SMILES IDX 4 13 5 14 92 15 95 16 6 17 91 18 93 19 90 20 7 21 8 22 13 23
REMARK SMILES IDX 9 24 12 25 10 26 11 27 22 28 23 29 24 30 25 31 26 32 27 33
REMARK SMILES IDX 28 34 89 35 29 36 88 37 30 38 31 39 32 40 82 41 33 42 87 43
REMARK SMILES IDX 81 44 83 45 34 46 86 47 80 48 79 49 35 51 67 52 47 53 66 54
REMARK SMILES IDX 48 55 51 56 65 57 84 58 49 59 50 60 64 62 85 63 52 64 36 65
REMARK SMILES IDX 37 66 45 67 38 68 39 69 43 70 46 71 40 72 41 73 44 74 42 75
REMARK SMILES IDX 68 76 69 77 77 78 70 79 71 80 75 81 78 82 72 83 73 84 76 85
REMARK SMILES IDX 74 86 53 87 54 88 62 89 55 90 56 91 60 92 63 93 57 94 58 95
REMARK SMILES IDX 61 96 59 97
REMARK H PARENT 83 50 51 61
REMARK Flexibility Score: inf
ROOT
ATOM      1  O   UNL     1      -3.636   8.864  -1.077  1.00  0.00    -0.374 OA
ENDROOT
BRANCH   1   2
ATOM      2  C   UNL     1      -4.632   7.943  -0.638  1.00  0.00     0.202 C 
BRANCH   2   3
ATOM      3  C   UNL     1      -5.096   6.858  -1.612  1.00  0.00     0.261 C 
BRANCH   3   4
ATOM      4  O   UNL     1      -4.022   6.013  -2.071  1.00  0.00    -0.462 OA
BRANCH   4   5
ATOM      5  C   UNL     1      -3.802   6.050  -3.412  1.00  0.00     0.326 C 
ATOM      6  O   UNL     1      -4.484   6.698  -4.204  1.00  0.00    -0.250 OA
BRANCH   5   7
ATOM      7  C   UNL     1      -2.566   5.340  -3.889  1.00  0.00     0.244 C 
BRANCH   7   8
ATOM      8  N   UNL     1      -1.866   4.445  -2.967  1.00  0.00    -0.333 N 
ATOM      9  C   UNL     1       0.834   0.003  -0.119  1.00  0.00     0.158 C 
ATOM     10  N   UNL     1       0.387   1.296  -0.601  1.00  0.00    -0.263 N 
ATOM     11  C   UNL     1      -0.726   1.316  -1.454  1.00  0.00     0.265 A 
ATOM     12  C   UNL     1       1.075   2.416  -0.102  1.00  0.00     0.330 A 
ATOM     13  O   UNL     1      -1.380   0.319  -1.740  1.00  0.00    -0.268 OA
ATOM     14  C   UNL     1      -1.048   2.638  -1.947  1.00  0.00     0.090 A 
ATOM     15  N   UNL     1       0.725   3.668  -0.618  1.00  0.00    -0.295 N 
ATOM     16  O   UNL     1       1.940   2.295   0.771  1.00  0.00    -0.248 OA
ATOM     17  C   UNL     1      -1.998   3.063  -2.875  1.00  0.00     0.064 A 
ATOM     18  C   UNL     1      -0.309   3.755  -1.535  1.00  0.00     0.076 A 
ATOM     19  C   UNL     1       1.436   4.848  -0.147  1.00  0.00     0.155 C 
ATOM     20  C   UNL     1      -0.784   4.848  -2.211  1.00  0.00     0.114 A 
BRANCH  17  21
ATOM     21  C   UNL     1      -2.951   2.285  -3.669  1.00  0.00    -0.001 A 
ATOM     22  C   UNL     1      -2.856   2.270  -5.069  1.00  0.00     0.012 A 
ATOM     23  C   UNL     1      -3.974   1.560  -3.051  1.00  0.00     0.012 A 
ATOM     24  C   UNL     1      -3.815   1.615  -5.841  1.00  0.00     0.021 A 
ATOM     25  C   UNL     1      -4.918   0.874  -3.823  1.00  0.00     0.021 A 
ATOM     26  C   UNL     1      -4.846   0.922  -5.214  1.00  0.00     0.041 A 
ATOM     27  Cl  UNL     1      -6.037   0.124  -6.164  1.00  0.00    -0.084 Cl
ENDBRANCH  17  21
ENDBRANCH   7   8
ENDBRANCH   5   7
ENDBRANCH   4   5
ENDBRANCH   3   4
ENDBRANCH   2   3
ENDBRANCH   1   2
BRANCH   1  28
ATOM     28  C   UNL     1      -2.329   8.405  -1.397  1.00  0.00     0.202 C 
BRANCH  28  29
ATOM     29  C   UNL     1      -1.447   7.889  -0.268  1.00  0.00     0.261 C 
BRANCH  29  30
ATOM     30  O   UNL     1      -2.013   6.771   0.398  1.00  0.00    -0.460 OA
BRANCH  30  31
ATOM     31  C   UNL     1      -2.546   7.087   1.601  1.00  0.00     0.338 C 
ATOM     32  O   UNL     1      -2.778   8.201   2.034  1.00  0.00    -0.246 OA
BRANCH  31  33
ATOM     33  C   UNL     1      -2.682   5.874   2.407  1.00  0.00     0.060 A 
ATOM     34  C   UNL     1      -3.215   6.054   3.686  1.00  0.00     0.016 A 
ATOM     35  C   UNL     1      -1.986   4.715   2.039  1.00  0.00     0.016 A 
ATOM     36  C   UNL     1      -2.837   5.179   4.673  1.00  0.00     0.010 A 
ATOM     37  C   UNL     1      -1.583   3.859   3.031  1.00  0.00     0.010 A 
ATOM     38  C   UNL     1      -1.946   4.155   4.343  1.00  0.00    -0.014 A 
BRANCH  38  39
ATOM     39  C   UNL     1      -1.471   3.314   5.415  1.00  0.00     0.031 A 
ATOM     40  C   UNL     1      -2.484   2.322   5.835  1.00  0.00     0.074 A 
ATOM     41  C   UNL     1      -0.207   3.404   5.865  1.00  0.00     0.049 A 
ATOM     42  N   UNL     1      -3.071   2.223   6.981  1.00  0.00    -0.248 NA
ATOM     43  C   UNL     1      -3.055   1.454   4.788  1.00  0.00     0.031 C 
ATOM     44  C   UNL     1       0.896   4.189   5.305  1.00  0.00     0.029 A 
ATOM     45  N   UNL     1       0.389   2.717   6.874  1.00  0.00    -0.354 N 
ATOM     46  C   UNL     1      -3.940   1.145   6.852  1.00  0.00     0.074 A 
ATOM     47  C   UNL     1      -4.049   0.863   5.448  1.00  0.00     0.031 C 
ATOM     48  C   UNL     1       2.063   3.758   5.836  1.00  0.00     0.029 A 
ATOM     49  C   UNL     1       1.778   2.756   6.846  1.00  0.00     0.049 A 
ATOM     50  H   UNL     1      -0.119   2.233   7.565  1.00  0.00     0.167 HD
ATOM     51  C   UNL     1      -4.266   0.383   7.928  1.00  0.00     0.037 A 
ATOM     52  C   UNL     1       2.599   1.924   7.537  1.00  0.00     0.037 A 
ATOM     53  C   UNL     1      -4.046   1.100   9.156  1.00  0.00     0.049 A 
ATOM     54  C   UNL     1       1.789   1.330   8.637  1.00  0.00     0.074 A 
ATOM     55  C   UNL     1      -4.562   2.265   9.690  1.00  0.00     0.029 A 
ATOM     56  N   UNL     1      -2.894   0.840   9.857  1.00  0.00    -0.354 N 
ATOM     57  N   UNL     1       1.318   2.017   9.643  1.00  0.00    -0.248 NA
ATOM     58  C   UNL     1       1.099   0.077   8.360  1.00  0.00     0.031 C 
ATOM     59  C   UNL     1      -3.465   2.888  10.349  1.00  0.00     0.029 A 
ATOM     60  C   UNL     1      -2.360   2.042  10.244  1.00  0.00     0.049 A 
ATOM     61  H   UNL     1      -2.518  -0.050  10.047  1.00  0.00     0.167 HD
ATOM     62  C   UNL     1       0.043   1.509   9.854  1.00  0.00     0.074 A 
ATOM     63  C   UNL     1      -0.011   0.274   9.077  1.00  0.00     0.031 C 
ATOM     64  C   UNL     1      -0.942   2.284  10.394  1.00  0.00     0.037 A 
BRANCH  51  65
ATOM     65  C   UNL     1      -4.413  -1.115   7.861  1.00  0.00     0.064 A 
ATOM     66  C   UNL     1      -4.888  -1.807   8.989  1.00  0.00     0.173 A 
ATOM     67  C   UNL     1      -3.855  -1.924   6.843  1.00  0.00     0.173 A 
ATOM     68  F   UNL     1      -5.402  -1.140  10.033  1.00  0.00    -0.203 F 
ATOM     69  C   UNL     1      -4.762  -3.194   9.109  1.00  0.00     0.198 A 
ATOM     70  C   UNL     1      -3.788  -3.310   6.939  1.00  0.00     0.198 A 
ATOM     71  F   UNL     1      -3.246  -1.411   5.768  1.00  0.00    -0.203 F 
ATOM     72  F   UNL     1      -5.117  -3.795  10.252  1.00  0.00    -0.200 F 
ATOM     73  C   UNL     1      -4.214  -3.944   8.084  1.00  0.00     0.200 A 
ATOM     74  F   UNL     1      -3.230  -4.012   5.943  1.00  0.00    -0.200 F 
ATOM     75  F   UNL     1      -4.048  -5.266   8.218  1.00  0.00    -0.200 F 
ENDBRANCH  51  65
BRANCH  52  76
ATOM     76  C   UNL     1       3.881   1.329   7.077  1.00  0.00     0.064 A 
ATOM     77  C   UNL     1       4.737   0.667   7.974  1.00  0.00     0.173 A 
ATOM     78  C   UNL     1       4.173   1.162   5.707  1.00  0.00     0.173 A 
ATOM     79  F   UNL     1       4.505   0.727   9.293  1.00  0.00    -0.203 F 
ATOM     80  C   UNL     1       5.802  -0.125   7.528  1.00  0.00     0.198 A 
ATOM     81  C   UNL     1       5.241   0.381   5.264  1.00  0.00     0.198 A 
ATOM     82  F   UNL     1       3.371   1.674   4.763  1.00  0.00    -0.203 F 
ATOM     83  F   UNL     1       6.557  -0.791   8.413  1.00  0.00    -0.200 F 
ATOM     84  C   UNL     1       6.048  -0.274   6.173  1.00  0.00     0.200 A 
ATOM     85  F   UNL     1       5.443   0.216   3.949  1.00  0.00    -0.200 F 
ATOM     86  F   UNL     1       7.031  -1.077   5.744  1.00  0.00    -0.200 F 
ENDBRANCH  52  76
BRANCH  64  87
ATOM     87  C   UNL     1      -0.561   3.616  10.981  1.00  0.00     0.064 A 
ATOM     88  C   UNL     1      -0.064   4.691  10.223  1.00  0.00     0.173 A 
ATOM     89  C   UNL     1      -0.917   3.876  12.311  1.00  0.00     0.173 A 
ATOM     90  F   UNL     1       0.213   4.546   8.921  1.00  0.00    -0.203 F 
ATOM     91  C   UNL     1       0.080   5.962  10.779  1.00  0.00     0.198 A 
ATOM     92  C   UNL     1      -0.808   5.153  12.852  1.00  0.00     0.198 A 
ATOM     93  F   UNL     1      -1.445   2.899  13.066  1.00  0.00    -0.203 F 
ATOM     94  F   UNL     1       0.545   6.974  10.032  1.00  0.00    -0.200 F 
ATOM     95  C   UNL     1      -0.308   6.195  12.088  1.00  0.00     0.200 A 
ATOM     96  F   UNL     1      -1.234   5.384  14.102  1.00  0.00    -0.200 F 
ATOM     97  F   UNL     1      -0.233   7.430  12.603  1.00  0.00    -0.200 F 
ENDBRANCH  64  87
ENDBRANCH  38  39
ENDBRANCH  31  33
ENDBRANCH  30  31
ENDBRANCH  29  30
ENDBRANCH  28  29
ENDBRANCH   1  28
TORSDOF 16
