REMARK SMILES Cc1cccc(OCC(=O)Nc2cc(C(=O)OCCOCCOC(=O)c3ccc(-c4c5nc(c(-c6c(F)c(F)c(F)c(F)c6F)c6ccc([nH]6)c(-c6c(F)c(F)c(F)c(F)c6F)c6nc(c(-c7c(F)c(F)c(F)c(F)c7F)c7ccc4[nH]7)C=C6)C=C5)cc3)c(Cl)cc2Cl)c1
REMARK SMILES IDX 19 1 18 2 17 3 15 4 16 5 14 6 12 7 13 8 92 9 91 10 93 11
REMARK SMILES IDX 89 12 90 13 11 14 9 15 10 16 8 18 7 19 6 20 1 21 2 22 3 23
REMARK SMILES IDX 94 24 4 25 5 26 20 27 21 28 22 29 23 30 24 31 25 32 26 33
REMARK SMILES IDX 27 34 88 35 28 36 87 37 29 38 30 39 31 40 81 41 32 42 86 43
REMARK SMILES IDX 80 44 82 45 33 46 85 47 79 48 78 49 34 51 66 52 46 53 65 54
REMARK SMILES IDX 47 55 50 56 64 57 83 58 48 59 49 60 63 62 84 63 51 64 35 65
REMARK SMILES IDX 36 66 44 67 37 68 38 69 42 70 45 71 39 72 40 73 43 74 41 75
REMARK SMILES IDX 67 76 68 77 76 78 69 79 70 80 74 81 77 82 71 83 72 84 75 85
REMARK SMILES IDX 73 86 52 87 53 88 61 89 54 90 55 91 59 92 62 93 56 94 57 95
REMARK SMILES IDX 60 96 58 97
REMARK H PARENT 11 17 82 50 50 61
REMARK Flexibility Score: inf
ROOT
ATOM      1  C   UNL     1      -4.747  -0.526   2.283  1.00  0.00     0.202 C 
ENDROOT
BRANCH   1   2
ATOM      2  C   UNL     1      -4.895   0.454   1.191  1.00  0.00     0.261 C 
BRANCH   2   3
ATOM      3  O   UNL     1      -4.339   1.698   1.589  1.00  0.00    -0.460 OA
BRANCH   3   4
ATOM      4  C   UNL     1      -5.193   2.683   1.990  1.00  0.00     0.339 C 
ATOM      5  O   UNL     1      -6.384   2.723   1.860  1.00  0.00    -0.246 OA
BRANCH   4   6
ATOM      6  C   UNL     1      -4.304   3.663   2.656  1.00  0.00     0.080 A 
ATOM      7  C   UNL     1      -1.985   4.330   3.023  1.00  0.00     0.061 A 
ATOM      8  C   UNL     1      -2.939   3.682   2.268  1.00  0.00     0.045 A 
ATOM      9  C   UNL     1      -2.440   5.027   4.164  1.00  0.00     0.066 A 
ATOM     10  C   UNL     1      -3.802   5.092   4.504  1.00  0.00     0.044 A 
ATOM     11  Cl  UNL     1      -1.323   5.808   5.229  1.00  0.00    -0.082 Cl
ATOM     12  C   UNL     1      -4.746   4.401   3.750  1.00  0.00     0.057 A 
ATOM     13  Cl  UNL     1      -6.383   4.440   4.294  1.00  0.00    -0.083 Cl
BRANCH   7  14
ATOM     14  N   UNL     1      -0.599   4.182   2.799  1.00  0.00    -0.322 N 
ATOM     15  C   UNL     1       0.226   3.716   1.805  1.00  0.00     0.262 C 
ATOM     16  O   UNL     1       1.403   3.558   2.151  1.00  0.00    -0.271 OA
ATOM     17  H   UNL     1      -0.078   4.503   3.571  1.00  0.00     0.170 HD
BRANCH  15  18
ATOM     18  C   UNL     1      -0.184   3.585   0.303  1.00  0.00     0.329 C 
BRANCH  18  19
ATOM     19  O   UNL     1       0.470   2.859  -0.746  1.00  0.00    -0.484 OA
BRANCH  19  20
ATOM     20  C   UNL     1       0.900   1.586  -0.511  1.00  0.00     0.120 A 
ATOM     21  C   UNL     1       3.890  -0.227   0.889  1.00  0.00     0.044 C 
ATOM     22  C   UNL     1       2.499   0.008   0.387  1.00  0.00    -0.047 A 
ATOM     23  C   UNL     1       1.804  -1.062  -0.176  1.00  0.00     0.003 A 
ATOM     24  C   UNL     1       1.993   1.315   0.289  1.00  0.00     0.049 A 
ATOM     25  C   UNL     1       0.805  -0.785  -1.089  1.00  0.00     0.004 A 
ATOM     26  C   UNL     1       0.450   0.549  -1.328  1.00  0.00     0.046 A 
ENDBRANCH  19  20
ENDBRANCH  18  19
ENDBRANCH  15  18
ENDBRANCH   7  14
ENDBRANCH   4   6
ENDBRANCH   3   4
ENDBRANCH   2   3
ENDBRANCH   1   2
BRANCH   1  27
ATOM     27  O   UNL     1      -5.945  -0.350   3.014  1.00  0.00    -0.374 OA
BRANCH  27  28
ATOM     28  C   UNL     1      -6.055  -1.185   4.142  1.00  0.00     0.202 C 
BRANCH  28  29
ATOM     29  C   UNL     1      -5.877  -2.670   3.796  1.00  0.00     0.261 C 
BRANCH  29  30
ATOM     30  O   UNL     1      -6.836  -3.039   2.775  1.00  0.00    -0.460 OA
BRANCH  30  31
ATOM     31  C   UNL     1      -6.342  -3.397   1.554  1.00  0.00     0.338 C 
ATOM     32  O   UNL     1      -5.373  -4.113   1.364  1.00  0.00    -0.246 OA
BRANCH  31  33
ATOM     33  C   UNL     1      -6.937  -2.516   0.497  1.00  0.00     0.060 A 
ATOM     34  C   UNL     1      -6.323  -2.413  -0.769  1.00  0.00     0.016 A 
ATOM     35  C   UNL     1      -7.868  -1.556   0.886  1.00  0.00     0.016 A 
ATOM     36  C   UNL     1      -6.503  -1.262  -1.556  1.00  0.00     0.010 A 
ATOM     37  C   UNL     1      -7.973  -0.392   0.152  1.00  0.00     0.010 A 
ATOM     38  C   UNL     1      -7.247  -0.207  -1.040  1.00  0.00    -0.014 A 
BRANCH  38  39
ATOM     39  C   UNL     1      -7.314   1.161  -1.574  1.00  0.00     0.031 A 
ATOM     40  C   UNL     1      -8.615   1.626  -2.061  1.00  0.00     0.074 A 
ATOM     41  C   UNL     1      -6.327   2.069  -1.377  1.00  0.00     0.049 A 
ATOM     42  N   UNL     1      -8.777   2.701  -2.742  1.00  0.00    -0.248 NA
ATOM     43  C   UNL     1      -9.856   0.883  -1.870  1.00  0.00     0.031 C 
ATOM     44  C   UNL     1      -6.337   3.534  -1.373  1.00  0.00     0.029 A 
ATOM     45  N   UNL     1      -4.982   1.816  -1.176  1.00  0.00    -0.354 N 
ATOM     46  C   UNL     1     -10.110   3.012  -2.650  1.00  0.00     0.074 A 
ATOM     47  C   UNL     1     -10.745   1.762  -2.336  1.00  0.00     0.031 C 
ATOM     48  C   UNL     1      -5.082   3.999  -1.560  1.00  0.00     0.029 A 
ATOM     49  C   UNL     1      -4.252   2.833  -1.788  1.00  0.00     0.049 A 
ATOM     50  H   UNL     1      -4.605   1.050  -0.685  1.00  0.00     0.167 HD
ATOM     51  C   UNL     1     -10.447   4.334  -2.633  1.00  0.00     0.037 A 
ATOM     52  C   UNL     1      -3.404   2.515  -2.797  1.00  0.00     0.037 A 
ATOM     53  C   UNL     1      -9.256   5.171  -2.905  1.00  0.00     0.049 A 
ATOM     54  C   UNL     1      -3.854   3.345  -3.955  1.00  0.00     0.074 A 
ATOM     55  C   UNL     1      -8.532   6.096  -2.168  1.00  0.00     0.029 A 
ATOM     56  N   UNL     1      -8.458   4.870  -4.014  1.00  0.00    -0.354 N 
ATOM     57  N   UNL     1      -5.121   3.581  -4.190  1.00  0.00    -0.248 NA
ATOM     58  C   UNL     1      -2.946   4.191  -4.719  1.00  0.00     0.031 C 
ATOM     59  C   UNL     1      -7.294   6.334  -2.844  1.00  0.00     0.029 A 
ATOM     60  C   UNL     1      -7.256   5.545  -3.985  1.00  0.00     0.049 A 
ATOM     61  H   UNL     1      -8.724   4.250  -4.731  1.00  0.00     0.167 HD
ATOM     62  C   UNL     1      -5.200   4.712  -4.955  1.00  0.00     0.074 A 
ATOM     63  C   UNL     1      -3.822   5.019  -5.314  1.00  0.00     0.031 C 
ATOM     64  C   UNL     1      -6.333   5.456  -5.112  1.00  0.00     0.037 A 
BRANCH  51  65
ATOM     65  C   UNL     1     -11.782   4.898  -2.155  1.00  0.00     0.064 A 
ATOM     66  C   UNL     1     -11.960   6.295  -2.038  1.00  0.00     0.173 A 
ATOM     67  C   UNL     1     -12.914   4.151  -1.758  1.00  0.00     0.173 A 
ATOM     68  F   UNL     1     -10.996   7.156  -2.389  1.00  0.00    -0.203 F 
ATOM     69  C   UNL     1     -13.140   6.877  -1.556  1.00  0.00     0.198 A 
ATOM     70  C   UNL     1     -14.100   4.731  -1.295  1.00  0.00     0.198 A 
ATOM     71  F   UNL     1     -12.955   2.821  -1.784  1.00  0.00    -0.203 F 
ATOM     72  F   UNL     1     -13.227   8.210  -1.451  1.00  0.00    -0.200 F 
ATOM     73  C   UNL     1     -14.214   6.095  -1.190  1.00  0.00     0.200 A 
ATOM     74  F   UNL     1     -15.129   3.942  -0.952  1.00  0.00    -0.200 F 
ATOM     75  F   UNL     1     -15.350   6.649  -0.747  1.00  0.00    -0.200 F 
ENDBRANCH  51  65
BRANCH  52  76
ATOM     76  C   UNL     1      -2.983   1.075  -2.696  1.00  0.00     0.064 A 
ATOM     77  C   UNL     1      -2.510   0.635  -1.429  1.00  0.00     0.173 A 
ATOM     78  C   UNL     1      -3.343   0.064  -3.585  1.00  0.00     0.173 A 
ATOM     79  F   UNL     1      -2.206   1.539  -0.482  1.00  0.00    -0.203 F 
ATOM     80  C   UNL     1      -2.470  -0.705  -1.044  1.00  0.00     0.198 A 
ATOM     81  C   UNL     1      -3.294  -1.291  -3.198  1.00  0.00     0.198 A 
ATOM     82  F   UNL     1      -3.846   0.369  -4.787  1.00  0.00    -0.203 F 
ATOM     83  F   UNL     1      -2.132  -1.027   0.215  1.00  0.00    -0.200 F 
ATOM     84  C   UNL     1      -2.879  -1.671  -1.927  1.00  0.00     0.200 A 
ATOM     85  F   UNL     1      -3.757  -2.237  -4.027  1.00  0.00    -0.200 F 
ATOM     86  F   UNL     1      -2.938  -2.950  -1.533  1.00  0.00    -0.200 F 
ENDBRANCH  52  76
BRANCH  64  87
ATOM     87  C   UNL     1      -6.686   6.154  -6.404  1.00  0.00     0.064 A 
ATOM     88  C   UNL     1      -5.936   6.051  -7.587  1.00  0.00     0.173 A 
ATOM     89  C   UNL     1      -7.945   6.794  -6.543  1.00  0.00     0.173 A 
ATOM     90  F   UNL     1      -4.772   5.392  -7.640  1.00  0.00    -0.203 F 
ATOM     91  C   UNL     1      -6.386   6.577  -8.797  1.00  0.00     0.198 A 
ATOM     92  C   UNL     1      -8.422   7.247  -7.767  1.00  0.00     0.198 A 
ATOM     93  F   UNL     1      -8.784   6.961  -5.512  1.00  0.00    -0.203 F 
ATOM     94  F   UNL     1      -5.609   6.482  -9.884  1.00  0.00    -0.200 F 
ATOM     95  C   UNL     1      -7.636   7.154  -8.892  1.00  0.00     0.200 A 
ATOM     96  F   UNL     1      -9.663   7.747  -7.848  1.00  0.00    -0.200 F 
ATOM     97  F   UNL     1      -8.088   7.601 -10.070  1.00  0.00    -0.200 F 
ENDBRANCH  64  87
ENDBRANCH  38  39
ENDBRANCH  31  33
ENDBRANCH  30  31
ENDBRANCH  29  30
ENDBRANCH  28  29
ENDBRANCH  27  28
ENDBRANCH   1  27
TORSDOF 18
