REMARK SMILES COc1ccc(/C=C/C(=O)OCCOCCOC(=O)c2ccc(-c3c4nc(c(-c5c(F)c(F)c(F)c(F)c5F)c5ccc([nH]5)c(-c5c(F)c(F)c(F)c(F)c5F)c5nc(c(-c6c(F)c(F)c(F)c(F)c6F)c6ccc3[nH]6)C=C5)C=C4)cc2)cc1S(=O)(=O)Nc1ccc(F)cc1F
REMARK SMILES IDX 13 1 12 2 11 3 9 4 10 5 8 6 7 7 6 8 3 9 4 10 84 11 5 12
REMARK SMILES IDX 83 13 2 14 1 15 85 16 86 17 87 18 88 19 89 21 90 22 95 23
REMARK SMILES IDX 91 24 94 25 96 26 92 27 93 28 14 29 15 30 16 31 17 32 18 33
REMARK SMILES IDX 19 34 20 35 21 36 82 37 22 38 81 39 23 40 24 41 25 42 75 43
REMARK SMILES IDX 26 44 80 45 74 46 76 47 27 48 79 49 73 50 72 51 28 53 60 54
REMARK SMILES IDX 40 55 59 56 41 57 44 58 58 59 77 60 42 61 43 62 57 64 78 65
REMARK SMILES IDX 45 66 29 67 30 68 38 69 31 70 32 71 36 72 39 73 33 74 34 75
REMARK SMILES IDX 37 76 35 77 61 78 62 79 70 80 63 81 64 82 68 83 71 84 65 85
REMARK SMILES IDX 66 86 69 87 67 88 46 89 47 90 55 91 48 92 49 93 53 94 56 95
REMARK SMILES IDX 50 96 51 97 54 98 52 99
REMARK H PARENT 88 20 76 52 44 63
REMARK Flexibility Score: inf
ROOT
ATOM      1  C   UNL     1       2.636  -1.307  11.303  1.00  0.00     0.202 C 
ENDROOT
BRANCH   1   2
ATOM      2  C   UNL     1       2.584  -2.460  10.300  1.00  0.00     0.261 C 
BRANCH   2   3
ATOM      3  O   UNL     1       2.504  -1.996   8.942  1.00  0.00    -0.460 OA
BRANCH   3   4
ATOM      4  C   UNL     1       1.356  -2.337   8.315  1.00  0.00     0.330 C 
ATOM      5  O   UNL     1       0.468  -3.053   8.758  1.00  0.00    -0.247 OA
BRANCH   4   6
ATOM      6  C   UNL     1       1.199  -1.706   6.996  1.00  0.00     0.094 C 
ATOM      7  C   UNL     1       2.020  -0.887   6.314  1.00  0.00     0.015 C 
BRANCH   7   8
ATOM      8  C   UNL     1       1.589  -0.438   4.976  1.00  0.00    -0.024 A 
ATOM      9  C   UNL     1       0.608  -0.270   2.370  1.00  0.00     0.139 A 
ATOM     10  C   UNL     1      -0.250  -0.071   3.449  1.00  0.00     0.048 A 
ATOM     11  C   UNL     1       1.983  -0.259   2.575  1.00  0.00     0.130 A 
ATOM     12  C   UNL     1       0.245  -0.119   4.745  1.00  0.00     0.012 A 
ATOM     13  C   UNL     1       2.474  -0.399   3.892  1.00  0.00     0.034 A 
BRANCH   9  14
ATOM     14  O   UNL     1      -0.018  -0.474   1.178  1.00  0.00    -0.495 OA
ATOM     15  C   UNL     1       0.055  -1.849   0.793  1.00  0.00     0.278 C 
ENDBRANCH   9  14
BRANCH  11  16
ATOM     16  S   UNL     1       3.209   0.018   1.317  1.00  0.00     0.265 S 
ATOM     17  O   UNL     1       3.958   1.196   1.703  1.00  0.00    -0.201 OA
ATOM     18  O   UNL     1       3.892  -1.254   1.167  1.00  0.00    -0.201 OA
BRANCH  16  19
ATOM     19  N   UNL     1       2.542   0.291  -0.194  1.00  0.00    -0.277 N 
ATOM     20  H   UNL     1       2.965  -0.171  -0.954  1.00  0.00     0.180 HD
BRANCH  19  21
ATOM     21  C   UNL     1       1.424   1.125  -0.490  1.00  0.00     0.085 A 
ATOM     22  C   UNL     1       0.649   0.729  -1.593  1.00  0.00     0.033 A 
ATOM     23  C   UNL     1       0.982   2.199   0.294  1.00  0.00     0.150 A 
ATOM     24  C   UNL     1      -0.611   1.291  -1.807  1.00  0.00     0.041 A 
ATOM     25  C   UNL     1      -0.274   2.765   0.081  1.00  0.00     0.080 A 
ATOM     26  F   UNL     1       1.696   2.635   1.339  1.00  0.00    -0.205 F 
ATOM     27  C   UNL     1      -1.071   2.282  -0.949  1.00  0.00     0.126 A 
ATOM     28  F   UNL     1      -2.311   2.761  -1.107  1.00  0.00    -0.207 F 
ENDBRANCH  19  21
ENDBRANCH  16  19
ENDBRANCH  11  16
ENDBRANCH   7   8
ENDBRANCH   4   6
ENDBRANCH   3   4
ENDBRANCH   2   3
ENDBRANCH   1   2
BRANCH   1  29
ATOM     29  O   UNL     1       1.550  -0.386  11.285  1.00  0.00    -0.374 OA
BRANCH  29  30
ATOM     30  C   UNL     1       1.509   0.578  10.232  1.00  0.00     0.202 C 
BRANCH  30  31
ATOM     31  C   UNL     1       2.541   1.713  10.284  1.00  0.00     0.261 C 
BRANCH  31  32
ATOM     32  O   UNL     1       3.886   1.244  10.076  1.00  0.00    -0.460 OA
BRANCH  32  33
ATOM     33  C   UNL     1       4.715   1.397  11.135  1.00  0.00     0.338 C 
ATOM     34  O   UNL     1       4.465   1.939  12.205  1.00  0.00    -0.246 OA
BRANCH  33  35
ATOM     35  C   UNL     1       5.959   0.640  10.916  1.00  0.00     0.060 A 
ATOM     36  C   UNL     1       6.313  -0.324  11.870  1.00  0.00     0.016 A 
ATOM     37  C   UNL     1       6.806   0.924   9.844  1.00  0.00     0.016 A 
ATOM     38  C   UNL     1       7.538  -0.979  11.778  1.00  0.00     0.010 A 
ATOM     39  C   UNL     1       8.041   0.273   9.759  1.00  0.00     0.010 A 
ATOM     40  C   UNL     1       8.426  -0.656  10.744  1.00  0.00    -0.014 A 
BRANCH  40  41
ATOM     41  C   UNL     1       9.808  -1.190  10.771  1.00  0.00     0.031 A 
ATOM     42  C   UNL     1      10.919  -0.318  11.282  1.00  0.00     0.074 A 
ATOM     43  C   UNL     1      10.068  -2.442  10.356  1.00  0.00     0.049 A 
ATOM     44  N   UNL     1      12.202  -0.566  11.361  1.00  0.00    -0.248 NA
ATOM     45  C   UNL     1      10.532   1.016  11.763  1.00  0.00     0.031 C 
ATOM     46  C   UNL     1       9.072  -3.387   9.859  1.00  0.00     0.029 A 
ATOM     47  N   UNL     1      11.256  -3.123  10.272  1.00  0.00    -0.354 N 
ATOM     48  C   UNL     1      12.775   0.584  11.889  1.00  0.00     0.074 A 
ATOM     49  C   UNL     1      11.706   1.539  12.085  1.00  0.00     0.031 C 
ATOM     50  C   UNL     1       9.693  -4.522   9.498  1.00  0.00     0.029 A 
ATOM     51  C   UNL     1      11.132  -4.370   9.713  1.00  0.00     0.049 A 
ATOM     52  H   UNL     1      12.114  -2.753  10.582  1.00  0.00     0.167 HD
ATOM     53  C   UNL     1      14.076   0.818  12.189  1.00  0.00     0.037 A 
ATOM     54  C   UNL     1      12.075  -5.274   9.388  1.00  0.00     0.037 A 
ATOM     55  C   UNL     1      15.136  -0.136  11.994  1.00  0.00     0.049 A 
ATOM     56  C   UNL     1      13.521  -4.978   9.689  1.00  0.00     0.074 A 
ATOM     57  C   UNL     1      16.478  -0.013  12.309  1.00  0.00     0.029 A 
ATOM     58  N   UNL     1      14.975  -1.388  11.417  1.00  0.00    -0.354 N 
ATOM     59  N   UNL     1      14.050  -3.909  10.234  1.00  0.00    -0.248 NA
ATOM     60  C   UNL     1      14.498  -6.017   9.337  1.00  0.00     0.031 C 
ATOM     61  C   UNL     1      17.138  -1.167  11.872  1.00  0.00     0.029 A 
ATOM     62  C   UNL     1      16.198  -2.034  11.336  1.00  0.00     0.049 A 
ATOM     63  H   UNL     1      14.117  -1.762  11.111  1.00  0.00     0.167 HD
ATOM     64  C   UNL     1      15.415  -4.153  10.309  1.00  0.00     0.074 A 
ATOM     65  C   UNL     1      15.632  -5.479   9.767  1.00  0.00     0.031 C 
ATOM     66  C   UNL     1      16.400  -3.352  10.787  1.00  0.00     0.037 A 
BRANCH  53  67
ATOM     67  C   UNL     1      14.425   2.175  12.727  1.00  0.00     0.064 A 
ATOM     68  C   UNL     1      14.038   2.585  14.012  1.00  0.00     0.173 A 
ATOM     69  C   UNL     1      15.165   3.076  11.947  1.00  0.00     0.173 A 
ATOM     70  F   UNL     1      13.318   1.766  14.794  1.00  0.00    -0.203 F 
ATOM     71  C   UNL     1      14.350   3.859  14.482  1.00  0.00     0.198 A 
ATOM     72  C   UNL     1      15.501   4.338  12.431  1.00  0.00     0.198 A 
ATOM     73  F   UNL     1      15.565   2.733  10.713  1.00  0.00    -0.203 F 
ATOM     74  F   UNL     1      13.921   4.249  15.691  1.00  0.00    -0.200 F 
ATOM     75  C   UNL     1      15.084   4.732  13.694  1.00  0.00     0.200 A 
ATOM     76  F   UNL     1      16.221   5.175  11.673  1.00  0.00    -0.200 F 
ATOM     77  F   UNL     1      15.382   5.957  14.147  1.00  0.00    -0.200 F 
ENDBRANCH  53  67
BRANCH  54  78
ATOM     78  C   UNL     1      11.675  -6.540   8.722  1.00  0.00     0.064 A 
ATOM     79  C   UNL     1      11.743  -7.768   9.393  1.00  0.00     0.173 A 
ATOM     80  C   UNL     1      11.197  -6.541   7.403  1.00  0.00     0.173 A 
ATOM     81  F   UNL     1      12.216  -7.820  10.647  1.00  0.00    -0.203 F 
ATOM     82  C   UNL     1      11.357  -8.951   8.766  1.00  0.00     0.198 A 
ATOM     83  C   UNL     1      10.787  -7.721   6.786  1.00  0.00     0.198 A 
ATOM     84  F   UNL     1      11.113  -5.391   6.718  1.00  0.00    -0.203 F 
ATOM     85  F   UNL     1      11.464 -10.117   9.417  1.00  0.00    -0.200 F 
ATOM     86  C   UNL     1      10.871  -8.925   7.467  1.00  0.00     0.200 A 
ATOM     87  F   UNL     1      10.306  -7.689   5.536  1.00  0.00    -0.200 F 
ATOM     88  F   UNL     1      10.489 -10.062   6.870  1.00  0.00    -0.200 F 
ENDBRANCH  54  78
BRANCH  66  89
ATOM     89  C   UNL     1      17.801  -3.893  10.766  1.00  0.00     0.064 A 
ATOM     90  C   UNL     1      18.518  -4.033   9.569  1.00  0.00     0.173 A 
ATOM     91  C   UNL     1      18.450  -4.232  11.963  1.00  0.00     0.173 A 
ATOM     92  F   UNL     1      17.939  -3.736   8.396  1.00  0.00    -0.203 F 
ATOM     93  C   UNL     1      19.825  -4.516   9.569  1.00  0.00     0.198 A 
ATOM     94  C   UNL     1      19.766  -4.686  11.963  1.00  0.00     0.198 A 
ATOM     95  F   UNL     1      17.811  -4.110  13.137  1.00  0.00    -0.203 F 
ATOM     96  F   UNL     1      20.475  -4.685   8.410  1.00  0.00    -0.200 F 
ATOM     97  C   UNL     1      20.450  -4.834  10.766  1.00  0.00     0.200 A 
ATOM     98  F   UNL     1      20.372  -4.980  13.121  1.00  0.00    -0.200 F 
ATOM     99  F   UNL     1      21.710  -5.291  10.765  1.00  0.00    -0.200 F 
ENDBRANCH  66  89
ENDBRANCH  40  41
ENDBRANCH  33  35
ENDBRANCH  32  33
ENDBRANCH  31  32
ENDBRANCH  30  31
ENDBRANCH  29  30
ENDBRANCH   1  29
TORSDOF 19
