REMARK SMILES CCOc1ccc(-c2nn(-c3ccccc3)cc2/C=C2/SC(=S)N(CC(=O)OCCOCCOC(=O)c3ccc(-c4c5nc(c(-c6c(F)c(F)c(F)c(F)c6F)c6ccc([nH]6)c(-c6c(F)c(F)c(F)c(F)c6F)c6nc(c(-c7c(F)c(F)c(F)c(F)c7F)c7ccc4[nH]7)C=C6)C=C5)cc3)C2=O)cc1F
REMARK SMILES IDX 29 1 28 2 26 3 27 4 25 5 24 6 19 7 20 8 21 9 100 10 22 11
REMARK SMILES IDX 101 12 23 13 18 14 8 15 9 16 10 17 17 18 7 19 4 20 5 21
REMARK SMILES IDX 103 22 6 23 102 24 104 25 3 26 2 27 1 28 11 29 12 30 16 31
REMARK SMILES IDX 13 32 15 33 14 34 30 35 31 36 32 37 33 38 34 39 35 40 36 41
REMARK SMILES IDX 37 42 38 43 99 44 39 45 98 46 40 47 41 48 42 49 92 50 43 51
REMARK SMILES IDX 97 52 91 53 93 54 44 55 96 56 90 57 89 58 45 60 77 61 57 62
REMARK SMILES IDX 76 63 58 64 61 65 75 66 94 67 59 68 60 69 74 71 95 72 62 73
REMARK SMILES IDX 46 74 47 75 55 76 48 77 49 78 53 79 56 80 50 81 51 82 54 83
REMARK SMILES IDX 52 84 78 85 79 86 87 87 80 88 81 89 85 90 88 91 82 92 83 93
REMARK SMILES IDX 86 94 84 95 63 96 64 97 72 98 65 99 66 100 70 101 73 102
REMARK SMILES IDX 67 103 68 104 71 105 69 106
REMARK H PARENT 93 59 61 70
REMARK Flexibility Score: inf
ROOT
ATOM      1  C   UNL     1      11.704   7.987  -3.942  1.00  0.00     0.261 C 
ENDROOT
BRANCH   1   2
ATOM      2  O   UNL     1      10.378   7.885  -3.370  1.00  0.00    -0.462 OA
BRANCH   2   3
ATOM      3  C   UNL     1       9.434   8.663  -3.970  1.00  0.00     0.326 C 
ATOM      4  O   UNL     1       9.660   9.424  -4.907  1.00  0.00    -0.250 OA
BRANCH   3   5
ATOM      5  C   UNL     1       8.008   8.449  -3.465  1.00  0.00     0.250 C 
BRANCH   5   6
ATOM      6  N   UNL     1       7.770   7.668  -2.244  1.00  0.00    -0.282 N 
ATOM      7  C   UNL     1       7.075   4.457  -0.650  1.00  0.00     0.033 C 
ATOM      8  C   UNL     1       7.150   5.758  -0.984  1.00  0.00     0.081 C 
ATOM      9  S   UNL     1       7.192   7.027   0.188  1.00  0.00    -0.054 SA
ATOM     10  C   UNL     1       7.333   6.356  -2.343  1.00  0.00     0.266 C 
ATOM     11  C   UNL     1       7.779   8.212  -0.979  1.00  0.00     0.148 C 
ATOM     12  O   UNL     1       7.044   5.787  -3.385  1.00  0.00    -0.268 OA
ATOM     13  S   UNL     1       8.250   9.744  -0.524  1.00  0.00    -0.052 S 
BRANCH   7  14
ATOM     14  C   UNL     1       7.270   3.361  -1.538  1.00  0.00     0.022 A 
ATOM     15  C   UNL     1       6.361   2.595  -2.304  1.00  0.00     0.100 A 
ATOM     16  N   UNL     1       7.018   1.782  -3.146  1.00  0.00    -0.167 NA
ATOM     17  N   UNL     1       8.309   1.858  -2.773  1.00  0.00    -0.240 N 
ATOM     18  C   UNL     1       8.469   2.703  -1.698  1.00  0.00     0.123 A 
BRANCH  15  19
ATOM     19  C   UNL     1       4.923   2.456  -2.156  1.00  0.00     0.006 A 
ATOM     20  C   UNL     1       2.202   2.008  -1.707  1.00  0.00     0.154 A 
ATOM     21  C   UNL     1       2.659   3.293  -2.016  1.00  0.00     0.050 A 
ATOM     22  C   UNL     1       3.099   0.946  -1.683  1.00  0.00     0.165 A 
ATOM     23  C   UNL     1       4.026   3.523  -2.235  1.00  0.00     0.014 A 
ATOM     24  C   UNL     1       4.449   1.165  -1.885  1.00  0.00     0.053 A 
ATOM     25  F   UNL     1       2.686  -0.311  -1.479  1.00  0.00    -0.203 F 
BRANCH  20  26
ATOM     26  O   UNL     1       0.859   1.803  -1.550  1.00  0.00    -0.491 OA
BRANCH  26  27
ATOM     27  C   UNL     1       0.482   1.600  -0.181  1.00  0.00     0.226 C 
ATOM     28  C   UNL     1       0.566   0.142   0.248  1.00  0.00     0.049 C 
ENDBRANCH  26  27
ENDBRANCH  20  26
ENDBRANCH  15  19
BRANCH  17  29
ATOM     29  C   UNL     1       9.334   1.224  -3.514  1.00  0.00     0.065 A 
ATOM     30  C   UNL     1       9.169   1.085  -4.900  1.00  0.00     0.028 A 
ATOM     31  C   UNL     1      10.541   0.858  -2.908  1.00  0.00     0.028 A 
ATOM     32  C   UNL     1      10.234   0.640  -5.683  1.00  0.00     0.002 A 
ATOM     33  C   UNL     1      11.584   0.364  -3.695  1.00  0.00     0.002 A 
ATOM     34  C   UNL     1      11.438   0.276  -5.080  1.00  0.00     0.000 A 
ENDBRANCH  17  29
ENDBRANCH   7  14
ENDBRANCH   5   6
ENDBRANCH   3   5
ENDBRANCH   2   3
ENDBRANCH   1   2
BRANCH   1  35
ATOM     35  C   UNL     1      12.251   6.688  -4.548  1.00  0.00     0.202 C 
BRANCH  35  36
ATOM     36  O   UNL     1      11.469   6.019  -5.527  1.00  0.00    -0.374 OA
BRANCH  36  37
ATOM     37  C   UNL     1      10.165   5.573  -5.181  1.00  0.00     0.202 C 
BRANCH  37  38
ATOM     38  C   UNL     1      10.039   4.592  -4.029  1.00  0.00     0.261 C 
BRANCH  38  39
ATOM     39  O   UNL     1      10.517   5.072  -2.770  1.00  0.00    -0.460 OA
BRANCH  39  40
ATOM     40  C   UNL     1      11.644   4.461  -2.337  1.00  0.00     0.338 C 
ATOM     41  O   UNL     1      12.421   3.784  -3.007  1.00  0.00    -0.246 OA
BRANCH  40  42
ATOM     42  C   UNL     1      11.717   4.506  -0.873  1.00  0.00     0.060 A 
ATOM     43  C   UNL     1      12.633   3.628  -0.289  1.00  0.00     0.016 A 
ATOM     44  C   UNL     1      10.680   5.085  -0.132  1.00  0.00     0.016 A 
ATOM     45  C   UNL     1      12.354   3.124   0.959  1.00  0.00     0.010 A 
ATOM     46  C   UNL     1      10.382   4.559   1.106  1.00  0.00     0.010 A 
ATOM     47  C   UNL     1      11.173   3.521   1.593  1.00  0.00    -0.014 A 
BRANCH  47  48
ATOM     48  C   UNL     1      10.858   2.904   2.863  1.00  0.00     0.031 A 
ATOM     49  C   UNL     1      11.709   3.420   3.962  1.00  0.00     0.074 A 
ATOM     50  C   UNL     1       9.845   2.031   3.013  1.00  0.00     0.049 A 
ATOM     51  N   UNL     1      12.588   2.779   4.657  1.00  0.00    -0.248 NA
ATOM     52  C   UNL     1      11.711   4.877   4.180  1.00  0.00     0.031 C 
ATOM     53  C   UNL     1       8.804   1.651   2.057  1.00  0.00     0.029 A 
ATOM     54  N   UNL     1       9.495   1.339   4.128  1.00  0.00    -0.354 N 
ATOM     55  C   UNL     1      13.136   3.722   5.522  1.00  0.00     0.074 A 
ATOM     56  C   UNL     1      12.706   5.011   5.054  1.00  0.00     0.031 C 
ATOM     57  C   UNL     1       7.821   0.980   2.704  1.00  0.00     0.029 A 
ATOM     58  C   UNL     1       8.230   0.766   4.080  1.00  0.00     0.049 A 
ATOM     59  H   UNL     1      10.090   1.250   4.908  1.00  0.00     0.167 HD
ATOM     60  C   UNL     1      13.702   3.357   6.703  1.00  0.00     0.037 A 
ATOM     61  C   UNL     1       7.568   0.247   5.146  1.00  0.00     0.037 A 
ATOM     62  C   UNL     1      14.077   1.969   6.692  1.00  0.00     0.049 A 
ATOM     63  C   UNL     1       8.593  -0.044   6.187  1.00  0.00     0.074 A 
ATOM     64  C   UNL     1      14.992   1.222   5.977  1.00  0.00     0.029 A 
ATOM     65  N   UNL     1      13.210   1.064   7.251  1.00  0.00    -0.354 N 
ATOM     66  N   UNL     1       9.519  -0.954   6.052  1.00  0.00    -0.248 NA
ATOM     67  C   UNL     1       8.881   1.006   7.155  1.00  0.00     0.031 C 
ATOM     68  C   UNL     1      14.350  -0.029   5.750  1.00  0.00     0.029 A 
ATOM     69  C   UNL     1      13.109   0.003   6.388  1.00  0.00     0.049 A 
ATOM     70  H   UNL     1      12.745   1.158   8.114  1.00  0.00     0.167 HD
ATOM     71  C   UNL     1      10.658  -0.389   6.608  1.00  0.00     0.074 A 
ATOM     72  C   UNL     1      10.190   0.800   7.317  1.00  0.00     0.031 C 
ATOM     73  C   UNL     1      11.904  -0.771   6.204  1.00  0.00     0.037 A 
BRANCH  60  74
ATOM     74  C   UNL     1      13.577   4.163   7.973  1.00  0.00     0.064 A 
ATOM     75  C   UNL     1      12.583   5.144   8.195  1.00  0.00     0.173 A 
ATOM     76  C   UNL     1      14.283   3.749   9.118  1.00  0.00     0.173 A 
ATOM     77  F   UNL     1      11.757   5.564   7.231  1.00  0.00    -0.203 F 
ATOM     78  C   UNL     1      12.310   5.660   9.459  1.00  0.00     0.198 A 
ATOM     79  C   UNL     1      13.966   4.227  10.393  1.00  0.00     0.198 A 
ATOM     80  F   UNL     1      15.234   2.807   9.033  1.00  0.00    -0.203 F 
ATOM     81  F   UNL     1      11.334   6.568   9.600  1.00  0.00    -0.200 F 
ATOM     82  C   UNL     1      12.978   5.179  10.563  1.00  0.00     0.200 A 
ATOM     83  F   UNL     1      14.580   3.711  11.466  1.00  0.00    -0.200 F 
ATOM     84  F   UNL     1      12.633   5.595  11.787  1.00  0.00    -0.200 F 
ENDBRANCH  60  74
BRANCH  61  85
ATOM     85  C   UNL     1       6.127   0.398   5.476  1.00  0.00     0.064 A 
ATOM     86  C   UNL     1       5.380   1.501   5.019  1.00  0.00     0.173 A 
ATOM     87  C   UNL     1       5.534  -0.377   6.489  1.00  0.00     0.173 A 
ATOM     88  F   UNL     1       5.886   2.348   4.111  1.00  0.00    -0.203 F 
ATOM     89  C   UNL     1       4.132   1.824   5.556  1.00  0.00     0.198 A 
ATOM     90  C   UNL     1       4.285  -0.049   7.030  1.00  0.00     0.198 A 
ATOM     91  F   UNL     1       6.197  -1.417   7.015  1.00  0.00    -0.203 F 
ATOM     92  F   UNL     1       3.490   2.921   5.129  1.00  0.00    -0.200 F 
ATOM     93  C   UNL     1       3.591   1.058   6.571  1.00  0.00     0.200 A 
ATOM     94  F   UNL     1       3.782  -0.773   8.040  1.00  0.00    -0.200 F 
ATOM     95  F   UNL     1       2.428   1.413   7.134  1.00  0.00    -0.200 F 
ENDBRANCH  61  85
BRANCH  73  96
ATOM     96  C   UNL     1      12.015  -1.959   5.289  1.00  0.00     0.064 A 
ATOM     97  C   UNL     1      12.793  -3.047   5.704  1.00  0.00     0.173 A 
ATOM     98  C   UNL     1      11.562  -1.958   3.958  1.00  0.00     0.173 A 
ATOM     99  F   UNL     1      13.297  -3.073   6.948  1.00  0.00    -0.203 F 
ATOM    100  C   UNL     1      13.124  -4.075   4.826  1.00  0.00     0.198 A 
ATOM    101  C   UNL     1      11.866  -3.006   3.089  1.00  0.00     0.198 A 
ATOM    102  F   UNL     1      10.890  -0.912   3.461  1.00  0.00    -0.203 F 
ATOM    103  F   UNL     1      13.935  -5.061   5.233  1.00  0.00    -0.200 F 
ATOM    104  C   UNL     1      12.659  -4.056   3.520  1.00  0.00     0.200 A 
ATOM    105  F   UNL     1      11.436  -2.973   1.818  1.00  0.00    -0.200 F 
ATOM    106  F   UNL     1      13.007  -5.031   2.669  1.00  0.00    -0.200 F 
ENDBRANCH  73  96
ENDBRANCH  47  48
ENDBRANCH  40  42
ENDBRANCH  39  40
ENDBRANCH  38  39
ENDBRANCH  37  38
ENDBRANCH  36  37
ENDBRANCH  35  36
ENDBRANCH   1  35
TORSDOF 20
