REMARK SMILES CCCC[C@@H](C(=O)OCCOCCOC(=O)c1ccc(-c2c3nc(c(-c4c(F)c(F)c(F)c(F)c4F)c4ccc([nH]4)c(-c4c(F)c(F)c(F)c(F)c4F)c4nc(c(-c5c(F)c(F)c(F)c(F)c5F)c5ccc2[nH]5)C=C4)C=C3)cc1)C1(O)Cc2ccccc2C1
REMARK SMILES IDX 10 1 9 2 8 3 6 4 7 5 5 6 4 7 3 8 2 9 1 10 80 11 82 12 89 13
REMARK SMILES IDX 83 14 88 15 84 16 87 17 85 18 86 19 81 20 11 22 12 23 13 24
REMARK SMILES IDX 14 25 15 26 16 27 17 28 18 29 79 30 19 31 78 32 20 33 21 34
REMARK SMILES IDX 22 35 72 36 23 37 77 38 71 39 73 40 24 41 76 42 70 43 69 44
REMARK SMILES IDX 25 46 57 47 37 48 56 49 38 50 41 51 55 52 74 53 39 54 40 55
REMARK SMILES IDX 54 57 75 58 42 59 26 60 27 61 35 62 28 63 29 64 33 65 36 66
REMARK SMILES IDX 30 67 31 68 34 69 32 70 58 71 59 72 67 73 60 74 61 75 65 76
REMARK SMILES IDX 68 77 62 78 63 79 66 80 64 81 43 82 44 83 52 84 45 85 46 86
REMARK SMILES IDX 50 87 53 88 47 89 48 90 51 91 49 92
REMARK H PARENT 81 21 73 45 41 56
REMARK Flexibility Score: inf
ROOT
ATOM      1  C   UNL     1      -1.569   5.284  -2.420  1.00  0.00     0.202 C 
ENDROOT
BRANCH   1   2
ATOM      2  C   UNL     1      -2.274   4.093  -1.721  1.00  0.00     0.261 C 
BRANCH   2   3
ATOM      3  O   UNL     1      -1.427   2.926  -1.701  1.00  0.00    -0.463 OA
BRANCH   3   4
ATOM      4  C   UNL     1      -2.015   1.694  -1.703  1.00  0.00     0.311 C 
ATOM      5  O   UNL     1      -3.146   1.468  -1.288  1.00  0.00    -0.252 OA
BRANCH   4   6
ATOM      6  C   UNL     1      -1.205   0.681  -2.552  1.00  0.00     0.131 C 
BRANCH   6   7
ATOM      7  C   UNL     1       0.344   0.851  -2.355  1.00  0.00     0.018 C 
BRANCH   7   8
ATOM      8  C   UNL     1       0.962   1.542  -1.125  1.00  0.00     0.001 C 
BRANCH   8   9
ATOM      9  C   UNL     1       0.552   1.042   0.248  1.00  0.00    -0.003 C 
ATOM     10  C   UNL     1       1.021  -0.377   0.495  1.00  0.00     0.004 C 
ENDBRANCH   8   9
ENDBRANCH   7   8
ENDBRANCH   6   7
BRANCH   6  11
ATOM     11  C   UNL     1      -1.671   0.840  -4.059  1.00  0.00     0.086 C 
ATOM     12  C   UNL     1      -0.506   0.803  -5.131  1.00  0.00     0.072 C 
ATOM     13  C   UNL     1      -2.693  -0.044  -4.840  1.00  0.00     0.072 C 
ATOM     14  C   UNL     1      -1.289   1.176  -6.374  1.00  0.00    -0.042 A 
ATOM     15  C   UNL     1      -2.626   0.781  -6.165  1.00  0.00    -0.042 A 
ATOM     16  C   UNL     1      -0.924   2.276  -7.152  1.00  0.00     0.004 A 
ATOM     17  C   UNL     1      -3.634   1.630  -6.626  1.00  0.00     0.004 A 
ATOM     18  C   UNL     1      -1.933   3.152  -7.530  1.00  0.00     0.000 A 
ATOM     19  C   UNL     1      -3.273   2.842  -7.248  1.00  0.00     0.000 A 
BRANCH  11  20
ATOM     20  O   UNL     1      -2.375   2.119  -4.033  1.00  0.00    -0.388 OA
ATOM     21  H   UNL     1      -1.837   2.775  -3.564  1.00  0.00     0.211 HD
ENDBRANCH  11  20
ENDBRANCH   6  11
ENDBRANCH   4   6
ENDBRANCH   3   4
ENDBRANCH   2   3
ENDBRANCH   1   2
BRANCH   1  22
ATOM     22  O   UNL     1      -1.158   5.147  -3.788  1.00  0.00    -0.374 OA
BRANCH  22  23
ATOM     23  C   UNL     1      -0.250   4.078  -4.028  1.00  0.00     0.202 C 
BRANCH  23  24
ATOM     24  C   UNL     1       0.936   4.383  -4.933  1.00  0.00     0.261 C 
BRANCH  24  25
ATOM     25  O   UNL     1       1.872   5.124  -4.159  1.00  0.00    -0.460 OA
BRANCH  25  26
ATOM     26  C   UNL     1       1.531   6.429  -4.126  1.00  0.00     0.338 C 
ATOM     27  O   UNL     1       0.991   7.066  -5.005  1.00  0.00    -0.246 OA
BRANCH  26  28
ATOM     28  C   UNL     1       1.758   6.936  -2.762  1.00  0.00     0.060 A 
ATOM     29  C   UNL     1       0.954   8.009  -2.372  1.00  0.00     0.016 A 
ATOM     30  C   UNL     1       2.737   6.416  -1.905  1.00  0.00     0.016 A 
ATOM     31  C   UNL     1       1.234   8.675  -1.195  1.00  0.00     0.010 A 
ATOM     32  C   UNL     1       3.011   7.078  -0.711  1.00  0.00     0.010 A 
ATOM     33  C   UNL     1       2.317   8.260  -0.410  1.00  0.00    -0.014 A 
BRANCH  33  34
ATOM     34  C   UNL     1       2.874   9.239   0.541  1.00  0.00     0.031 A 
ATOM     35  C   UNL     1       4.061  10.051   0.097  1.00  0.00     0.074 A 
ATOM     36  C   UNL     1       2.245   9.485   1.700  1.00  0.00     0.049 A 
ATOM     37  N   UNL     1       4.673  11.032   0.707  1.00  0.00    -0.248 NA
ATOM     38  C   UNL     1       4.636   9.714  -1.218  1.00  0.00     0.031 C 
ATOM     39  C   UNL     1       1.056   8.782   2.177  1.00  0.00     0.029 A 
ATOM     40  N   UNL     1       2.509  10.411   2.671  1.00  0.00    -0.354 N 
ATOM     41  C   UNL     1       5.698  11.422  -0.146  1.00  0.00     0.074 A 
ATOM     42  C   UNL     1       5.660  10.548  -1.294  1.00  0.00     0.031 C 
ATOM     43  C   UNL     1       0.683   9.312   3.354  1.00  0.00     0.029 A 
ATOM     44  C   UNL     1       1.625  10.368   3.718  1.00  0.00     0.049 A 
ATOM     45  H   UNL     1       3.260  11.045   2.623  1.00  0.00     0.167 HD
ATOM     46  C   UNL     1       6.582  12.434   0.012  1.00  0.00     0.037 A 
ATOM     47  C   UNL     1       1.595  11.104   4.844  1.00  0.00     0.037 A 
ATOM     48  C   UNL     1       6.597  13.298   1.161  1.00  0.00     0.049 A 
ATOM     49  C   UNL     1       2.624  12.191   5.018  1.00  0.00     0.074 A 
ATOM     50  C   UNL     1       7.447  14.352   1.442  1.00  0.00     0.029 A 
ATOM     51  N   UNL     1       5.711  13.200   2.226  1.00  0.00    -0.354 N 
ATOM     52  N   UNL     1       3.589  12.559   4.209  1.00  0.00    -0.248 NA
ATOM     53  C   UNL     1       2.547  12.975   6.255  1.00  0.00     0.031 C 
ATOM     54  C   UNL     1       7.111  14.855   2.703  1.00  0.00     0.029 A 
ATOM     55  C   UNL     1       6.005  14.163   3.175  1.00  0.00     0.049 A 
ATOM     56  H   UNL     1       4.981  12.543   2.295  1.00  0.00     0.167 HD
ATOM     57  C   UNL     1       4.210  13.640   4.819  1.00  0.00     0.074 A 
ATOM     58  C   UNL     1       3.499  13.876   6.059  1.00  0.00     0.031 C 
ATOM     59  C   UNL     1       5.269  14.377   4.396  1.00  0.00     0.037 A 
BRANCH  46  60
ATOM     60  C   UNL     1       7.617  12.630  -1.060  1.00  0.00     0.064 A 
ATOM     61  C   UNL     1       7.283  13.086  -2.345  1.00  0.00     0.173 A 
ATOM     62  C   UNL     1       8.969  12.365  -0.793  1.00  0.00     0.173 A 
ATOM     63  F   UNL     1       6.003  13.334  -2.663  1.00  0.00    -0.203 F 
ATOM     64  C   UNL     1       8.258  13.244  -3.327  1.00  0.00     0.198 A 
ATOM     65  C   UNL     1       9.945  12.556  -1.767  1.00  0.00     0.198 A 
ATOM     66  F   UNL     1       9.345  11.922   0.416  1.00  0.00    -0.203 F 
ATOM     67  F   UNL     1       7.908  13.629  -4.563  1.00  0.00    -0.200 F 
ATOM     68  C   UNL     1       9.589  12.988  -3.035  1.00  0.00     0.200 A 
ATOM     69  F   UNL     1      11.232  12.317  -1.478  1.00  0.00    -0.200 F 
ATOM     70  F   UNL     1      10.528  13.146  -3.978  1.00  0.00    -0.200 F 
ENDBRANCH  46  60
BRANCH  47  71
ATOM     71  C   UNL     1       0.561  10.839   5.878  1.00  0.00     0.064 A 
ATOM     72  C   UNL     1      -0.430  11.783   6.180  1.00  0.00     0.173 A 
ATOM     73  C   UNL     1       0.553   9.634   6.598  1.00  0.00     0.173 A 
ATOM     74  F   UNL     1      -0.457  12.957   5.532  1.00  0.00    -0.203 F 
ATOM     75  C   UNL     1      -1.371  11.544   7.180  1.00  0.00     0.198 A 
ATOM     76  C   UNL     1      -0.408   9.383   7.574  1.00  0.00     0.198 A 
ATOM     77  F   UNL     1       1.476   8.694   6.345  1.00  0.00    -0.203 F 
ATOM     78  F   UNL     1      -2.273  12.486   7.486  1.00  0.00    -0.200 F 
ATOM     79  C   UNL     1      -1.363  10.342   7.872  1.00  0.00     0.200 A 
ATOM     80  F   UNL     1      -0.406   8.213   8.227  1.00  0.00    -0.200 F 
ATOM     81  F   UNL     1      -2.269  10.113   8.832  1.00  0.00    -0.200 F 
ENDBRANCH  47  71
BRANCH  59  82
ATOM     82  C   UNL     1       5.675  15.540   5.256  1.00  0.00     0.064 A 
ATOM     83  C   UNL     1       6.255  15.363   6.521  1.00  0.00     0.173 A 
ATOM     84  C   UNL     1       5.491  16.853   4.795  1.00  0.00     0.173 A 
ATOM     85  F   UNL     1       6.443  14.128   7.011  1.00  0.00    -0.203 F 
ATOM     86  C   UNL     1       6.589  16.458   7.313  1.00  0.00     0.198 A 
ATOM     87  C   UNL     1       5.864  17.944   5.572  1.00  0.00     0.198 A 
ATOM     88  F   UNL     1       4.955  17.078   3.586  1.00  0.00    -0.203 F 
ATOM     89  F   UNL     1       7.072  16.265   8.548  1.00  0.00    -0.200 F 
ATOM     90  C   UNL     1       6.399  17.746   6.836  1.00  0.00     0.200 A 
ATOM     91  F   UNL     1       5.699  19.188   5.102  1.00  0.00    -0.200 F 
ATOM     92  F   UNL     1       6.720  18.799   7.601  1.00  0.00    -0.200 F 
ENDBRANCH  59  82
ENDBRANCH  33  34
ENDBRANCH  26  28
ENDBRANCH  25  26
ENDBRANCH  24  25
ENDBRANCH  23  24
ENDBRANCH  22  23
ENDBRANCH   1  22
TORSDOF 19
