REMARK SMILES Cc1ccccc1[C@@H](Cc1c(Cl)cccc1Cl)C(=O)OCCOCCOC(=O)c1ccc(-c2c3nc(c(-c4c(F)c(F)c(F)c(F)c4F)c4ccc([nH]4)c(-c4c(F)c(F)c(F)c(F)c4F)c4nc(c(-c5c(F)c(F)c(F)c(F)c5F)c5ccc2[nH]5)C=C4)C=C3)cc1
REMARK SMILES IDX 23 1 22 2 21 3 20 4 18 5 19 6 8 7 7 8 1 9 2 10 3 11 4 12
REMARK SMILES IDX 6 13 5 14 9 15 10 16 11 17 16 18 12 19 13 20 15 21 17 22
REMARK SMILES IDX 14 23 24 24 25 25 26 26 27 27 28 28 29 29 30 30 91 31 31 32
REMARK SMILES IDX 90 33 32 34 33 35 34 36 84 37 35 38 89 39 83 40 85 41 36 42
REMARK SMILES IDX 88 43 82 44 81 45 37 47 69 48 49 49 68 50 50 51 53 52 67 53
REMARK SMILES IDX 86 54 51 55 52 56 66 58 87 59 54 60 38 61 39 62 47 63 40 64
REMARK SMILES IDX 41 65 45 66 48 67 42 68 43 69 46 70 44 71 70 72 71 73 79 74
REMARK SMILES IDX 72 75 73 76 77 77 80 78 74 79 75 80 78 81 76 82 55 83 56 84
REMARK SMILES IDX 64 85 57 86 58 87 62 88 65 89 59 90 60 91 63 92 61 93
REMARK H PARENT 85 46 53 57
REMARK Flexibility Score: inf
ROOT
ATOM      1  O   UNL     1       0.455   1.635   2.918  1.00  0.00    -0.374 OA
ENDROOT
BRANCH   1   2
ATOM      2  C   UNL     1      -0.892   1.524   2.486  1.00  0.00     0.202 C 
BRANCH   2   3
ATOM      3  C   UNL     1      -1.200   2.769   1.700  1.00  0.00     0.261 C 
BRANCH   3   4
ATOM      4  O   UNL     1      -0.616   2.798   0.391  1.00  0.00    -0.463 OA
BRANCH   4   5
ATOM      5  C   UNL     1       0.744   2.881   0.326  1.00  0.00     0.313 C 
ATOM      6  O   UNL     1       1.421   3.586   1.063  1.00  0.00    -0.252 OA
BRANCH   5   7
ATOM      7  C   UNL     1       1.317   1.964  -0.768  1.00  0.00     0.134 C 
BRANCH   7   8
ATOM      8  C   UNL     1       0.587   0.616  -0.797  1.00  0.00    -0.031 A 
ATOM      9  C   UNL     1       2.682  -0.713  -0.088  1.00  0.00     0.044 C 
ATOM     10  C   UNL     1       1.198  -0.564  -0.313  1.00  0.00    -0.047 A 
ATOM     11  C   UNL     1       0.395  -1.690  -0.071  1.00  0.00     0.004 A 
ATOM     12  C   UNL     1      -0.985  -1.651  -0.264  1.00  0.00     0.000 A 
ATOM     13  C   UNL     1      -0.789   0.587  -1.114  1.00  0.00     0.005 A 
ATOM     14  C   UNL     1      -1.577  -0.516  -0.798  1.00  0.00     0.000 A 
ENDBRANCH   7   8
BRANCH   7  15
ATOM     15  C   UNL     1       1.478   2.661  -2.131  1.00  0.00     0.058 C 
BRANCH  15  16
ATOM     16  C   UNL     1       2.257   3.972  -2.128  1.00  0.00    -0.010 A 
ATOM     17  C   UNL     1       1.835   5.012  -2.983  1.00  0.00     0.045 A 
ATOM     18  C   UNL     1       3.280   4.272  -1.205  1.00  0.00     0.045 A 
ATOM     19  Cl  UNL     1       0.825   4.730  -4.359  1.00  0.00    -0.084 Cl
ATOM     20  C   UNL     1       2.201   6.327  -2.728  1.00  0.00     0.021 A 
ATOM     21  C   UNL     1       3.557   5.588  -0.875  1.00  0.00     0.021 A 
ATOM     22  Cl  UNL     1       4.320   3.106  -0.468  1.00  0.00    -0.084 Cl
ATOM     23  C   UNL     1       2.997   6.600  -1.624  1.00  0.00     0.003 A 
ENDBRANCH  15  16
ENDBRANCH   7  15
ENDBRANCH   5   7
ENDBRANCH   4   5
ENDBRANCH   3   4
ENDBRANCH   2   3
ENDBRANCH   1   2
BRANCH   1  24
ATOM     24  C   UNL     1       0.943   0.526   3.654  1.00  0.00     0.202 C 
BRANCH  24  25
ATOM     25  C   UNL     1       0.146   0.249   4.938  1.00  0.00     0.261 C 
BRANCH  25  26
ATOM     26  O   UNL     1       0.248   1.387   5.822  1.00  0.00    -0.460 OA
BRANCH  26  27
ATOM     27  C   UNL     1      -0.860   2.165   5.931  1.00  0.00     0.338 C 
ATOM     28  O   UNL     1      -1.993   1.751   6.170  1.00  0.00    -0.246 OA
BRANCH  27  29
ATOM     29  C   UNL     1      -0.569   3.543   5.441  1.00  0.00     0.060 A 
ATOM     30  C   UNL     1      -1.616   4.448   5.183  1.00  0.00     0.016 A 
ATOM     31  C   UNL     1       0.701   3.806   4.938  1.00  0.00     0.016 A 
ATOM     32  C   UNL     1      -1.427   5.519   4.288  1.00  0.00     0.010 A 
ATOM     33  C   UNL     1       0.844   4.782   3.973  1.00  0.00     0.010 A 
ATOM     34  C   UNL     1      -0.217   5.630   3.605  1.00  0.00    -0.014 A 
BRANCH  34  35
ATOM     35  C   UNL     1       0.064   6.475   2.425  1.00  0.00     0.031 A 
ATOM     36  C   UNL     1       1.244   7.393   2.493  1.00  0.00     0.074 A 
ATOM     37  C   UNL     1      -0.520   6.232   1.223  1.00  0.00     0.049 A 
ATOM     38  N   UNL     1       1.643   8.186   1.557  1.00  0.00    -0.248 NA
ATOM     39  C   UNL     1       2.096   7.479   3.674  1.00  0.00     0.031 C 
ATOM     40  C   UNL     1      -0.011   6.618  -0.092  1.00  0.00     0.029 A 
ATOM     41  N   UNL     1      -1.708   5.558   0.890  1.00  0.00    -0.354 N 
ATOM     42  C   UNL     1       2.852   8.744   1.913  1.00  0.00     0.074 A 
ATOM     43  C   UNL     1       3.122   8.204   3.222  1.00  0.00     0.031 C 
ATOM     44  C   UNL     1      -0.950   6.441  -1.033  1.00  0.00     0.029 A 
ATOM     45  C   UNL     1      -2.161   6.096  -0.333  1.00  0.00     0.049 A 
ATOM     46  H   UNL     1      -2.142   4.845   1.411  1.00  0.00     0.167 HD
ATOM     47  C   UNL     1       3.491   9.576   1.032  1.00  0.00     0.037 A 
ATOM     48  C   UNL     1      -3.342   6.760  -0.405  1.00  0.00     0.037 A 
ATOM     49  C   UNL     1       2.603   9.931  -0.103  1.00  0.00     0.049 A 
ATOM     50  C   UNL     1      -3.053   8.205  -0.725  1.00  0.00     0.074 A 
ATOM     51  C   UNL     1       2.668   9.868  -1.487  1.00  0.00     0.029 A 
ATOM     52  N   UNL     1       1.268  10.294   0.168  1.00  0.00    -0.354 N 
ATOM     53  N   UNL     1      -1.949   8.830  -0.383  1.00  0.00    -0.248 NA
ATOM     54  C   UNL     1      -3.895   8.984  -1.623  1.00  0.00     0.031 C 
ATOM     55  C   UNL     1       1.354   9.980  -2.015  1.00  0.00     0.029 A 
ATOM     56  C   UNL     1       0.500  10.305  -0.977  1.00  0.00     0.049 A 
ATOM     57  H   UNL     1       0.926  10.512   1.065  1.00  0.00     0.167 HD
ATOM     58  C   UNL     1      -1.895  10.028  -1.046  1.00  0.00     0.074 A 
ATOM     59  C   UNL     1      -3.137  10.078  -1.800  1.00  0.00     0.031 C 
ATOM     60  C   UNL     1      -0.831  10.887  -1.016  1.00  0.00     0.037 A 
BRANCH  47  61
ATOM     61  C   UNL     1       4.987   9.921   1.134  1.00  0.00     0.064 A 
ATOM     62  C   UNL     1       5.762  10.235  -0.006  1.00  0.00     0.173 A 
ATOM     63  C   UNL     1       5.745   9.909   2.326  1.00  0.00     0.173 A 
ATOM     64  F   UNL     1       5.212  10.408  -1.209  1.00  0.00    -0.203 F 
ATOM     65  C   UNL     1       7.155  10.405   0.025  1.00  0.00     0.198 A 
ATOM     66  C   UNL     1       7.144  10.031   2.357  1.00  0.00     0.198 A 
ATOM     67  F   UNL     1       5.160   9.870   3.526  1.00  0.00    -0.203 F 
ATOM     68  F   UNL     1       7.813  10.698  -1.107  1.00  0.00    -0.200 F 
ATOM     69  C   UNL     1       7.853  10.271   1.202  1.00  0.00     0.200 A 
ATOM     70  F   UNL     1       7.795   9.930   3.526  1.00  0.00    -0.200 F 
ATOM     71  F   UNL     1       9.185  10.412   1.230  1.00  0.00    -0.200 F 
ENDBRANCH  47  61
BRANCH  48  72
ATOM     72  C   UNL     1      -4.361   6.103   0.472  1.00  0.00     0.064 A 
ATOM     73  C   UNL     1      -4.697   4.776   0.099  1.00  0.00     0.173 A 
ATOM     74  C   UNL     1      -4.487   6.430   1.828  1.00  0.00     0.173 A 
ATOM     75  F   UNL     1      -4.595   4.399  -1.187  1.00  0.00    -0.203 F 
ATOM     76  C   UNL     1      -4.915   3.782   1.053  1.00  0.00     0.198 A 
ATOM     77  C   UNL     1      -4.741   5.431   2.781  1.00  0.00     0.198 A 
ATOM     78  F   UNL     1      -4.197   7.666   2.256  1.00  0.00    -0.203 F 
ATOM     79  F   UNL     1      -4.996   2.497   0.675  1.00  0.00    -0.200 F 
ATOM     80  C   UNL     1      -4.889   4.104   2.397  1.00  0.00     0.200 A 
ATOM     81  F   UNL     1      -4.714   5.731   4.088  1.00  0.00    -0.200 F 
ATOM     82  F   UNL     1      -4.926   3.131   3.319  1.00  0.00    -0.200 F 
ENDBRANCH  48  72
BRANCH  60  83
ATOM     83  C   UNL     1      -0.911  12.386  -1.235  1.00  0.00     0.064 A 
ATOM     84  C   UNL     1      -2.112  13.110  -1.250  1.00  0.00     0.173 A 
ATOM     85  C   UNL     1       0.267  13.184  -1.260  1.00  0.00     0.173 A 
ATOM     86  F   UNL     1      -3.298  12.516  -1.077  1.00  0.00    -0.203 F 
ATOM     87  C   UNL     1      -2.138  14.500  -1.377  1.00  0.00     0.198 A 
ATOM     88  C   UNL     1       0.237  14.572  -1.332  1.00  0.00     0.198 A 
ATOM     89  F   UNL     1       1.496  12.664  -1.158  1.00  0.00    -0.203 F 
ATOM     90  F   UNL     1      -3.318  15.130  -1.430  1.00  0.00    -0.200 F 
ATOM     91  C   UNL     1      -0.967  15.230  -1.411  1.00  0.00     0.200 A 
ATOM     92  F   UNL     1       1.386  15.262  -1.294  1.00  0.00    -0.200 F 
ATOM     93  F   UNL     1      -1.001  16.566  -1.483  1.00  0.00    -0.200 F 
ENDBRANCH  60  83
ENDBRANCH  34  35
ENDBRANCH  27  29
ENDBRANCH  26  27
ENDBRANCH  25  26
ENDBRANCH  24  25
ENDBRANCH   1  24
TORSDOF 17
