REMARK SMILES C[C@@H]1OCC[C@@H]1C(=O)Nc1ccc(C(=O)OCCOCCOC(=O)c2ccc(-c3c4nc(c(-c5c(F)c(F)c(F)c(F)c5F)c5ccc([nH]5)c(-c5c(F)c(F)c(F)c(F)c5F)c5nc(c(-c6c(F)c(F)c(F)c(F)c6F)c6ccc3[nH]6)C=C5)C=C4)cc2)cc1F
REMARK SMILES IDX 19 1 18 2 17 3 16 4 14 5 15 6 13 7 10 8 11 9 89 10 12 11
REMARK SMILES IDX 88 12 90 13 9 14 7 15 8 16 6 18 1 19 2 20 3 21 4 22 5 23
REMARK SMILES IDX 20 24 21 25 22 26 23 27 24 28 25 29 26 30 87 31 27 32 86 33
REMARK SMILES IDX 28 34 29 35 30 36 80 37 31 38 85 39 79 40 81 41 32 42 84 43
REMARK SMILES IDX 78 44 77 45 33 47 65 48 45 49 64 50 46 51 49 52 63 53 82 54
REMARK SMILES IDX 47 55 48 56 62 58 83 59 50 60 34 61 35 62 43 63 36 64 37 65
REMARK SMILES IDX 41 66 44 67 38 68 39 69 42 70 40 71 66 72 67 73 75 74 68 75
REMARK SMILES IDX 69 76 73 77 76 78 70 79 71 80 74 81 72 82 51 83 52 84 60 85
REMARK SMILES IDX 53 86 54 87 58 88 61 89 55 90 56 91 59 92 57 93
REMARK H PARENT 9 17 81 46 49 57
REMARK Flexibility Score: inf
ROOT
ATOM      1  O   UNL     1       4.434  -0.914   7.702  1.00  0.00    -0.374 OA
ENDROOT
BRANCH   1   2
ATOM      2  C   UNL     1       3.424  -1.913   7.831  1.00  0.00     0.202 C 
BRANCH   2   3
ATOM      3  C   UNL     1       1.972  -1.429   7.803  1.00  0.00     0.261 C 
BRANCH   3   4
ATOM      4  O   UNL     1       1.660  -0.790   6.563  1.00  0.00    -0.460 OA
BRANCH   4   5
ATOM      5  C   UNL     1       1.708   0.568   6.568  1.00  0.00     0.338 C 
ATOM      6  O   UNL     1       1.889   1.303   7.513  1.00  0.00    -0.246 OA
BRANCH   5   7
ATOM      7  C   UNL     1       1.635   1.027   5.164  1.00  0.00     0.063 A 
ATOM      8  C   UNL     1       1.456   1.902   2.471  1.00  0.00     0.077 A 
ATOM      9  C   UNL     1       2.213   2.612   3.423  1.00  0.00     0.030 A 
ATOM     10  C   UNL     1       0.840   0.724   2.921  1.00  0.00     0.147 A 
ATOM     11  C   UNL     1       2.293   2.189   4.760  1.00  0.00     0.018 A 
ATOM     12  C   UNL     1       0.932   0.284   4.232  1.00  0.00     0.057 A 
ATOM     13  F   UNL     1       0.107  -0.087   2.163  1.00  0.00    -0.205 F 
BRANCH   8  14
ATOM     14  N   UNL     1       1.390   2.503   1.185  1.00  0.00    -0.323 N 
ATOM     15  C   UNL     1       0.718   2.241   0.020  1.00  0.00     0.230 C 
ATOM     16  O   UNL     1       0.816   3.056  -0.901  1.00  0.00    -0.274 OA
ATOM     17  H   UNL     1       1.966   3.299   1.115  1.00  0.00     0.170 HD
BRANCH  15  18
ATOM     18  C   UNL     1      -0.099   0.995  -0.127  1.00  0.00     0.110 C 
ATOM     19  C   UNL     1       1.869  -0.060  -1.437  1.00  0.00     0.039 C 
ATOM     20  C   UNL     1       0.750  -0.249  -0.415  1.00  0.00     0.127 C 
ATOM     21  O   UNL     1      -0.169  -1.232  -0.945  1.00  0.00    -0.378 OA
ATOM     22  C   UNL     1      -1.447  -0.593  -1.097  1.00  0.00     0.161 C 
ATOM     23  C   UNL     1      -1.151   0.893  -1.208  1.00  0.00     0.044 C 
ENDBRANCH  15  18
ENDBRANCH   8  14
ENDBRANCH   5   7
ENDBRANCH   4   5
ENDBRANCH   3   4
ENDBRANCH   2   3
ENDBRANCH   1   2
BRANCH   1  24
ATOM     24  C   UNL     1       4.775  -0.500   6.378  1.00  0.00     0.202 C 
BRANCH  24  25
ATOM     25  C   UNL     1       5.746  -1.396   5.602  1.00  0.00     0.261 C 
BRANCH  25  26
ATOM     26  O   UNL     1       5.167  -2.674   5.290  1.00  0.00    -0.460 OA
BRANCH  26  27
ATOM     27  C   UNL     1       5.617  -3.695   6.058  1.00  0.00     0.338 C 
ATOM     28  O   UNL     1       6.478  -3.655   6.918  1.00  0.00    -0.246 OA
BRANCH  27  29
ATOM     29  C   UNL     1       4.779  -4.885   5.834  1.00  0.00     0.060 A 
ATOM     30  C   UNL     1       4.180  -5.475   6.953  1.00  0.00     0.016 A 
ATOM     31  C   UNL     1       4.648  -5.457   4.568  1.00  0.00     0.016 A 
ATOM     32  C   UNL     1       3.484  -6.673   6.819  1.00  0.00     0.010 A 
ATOM     33  C   UNL     1       3.954  -6.662   4.435  1.00  0.00     0.010 A 
ATOM     34  C   UNL     1       3.400  -7.291   5.564  1.00  0.00    -0.014 A 
BRANCH  34  35
ATOM     35  C   UNL     1       2.834  -8.655   5.454  1.00  0.00     0.031 A 
ATOM     36  C   UNL     1       3.760  -9.827   5.308  1.00  0.00     0.074 A 
ATOM     37  C   UNL     1       1.505  -8.845   5.504  1.00  0.00     0.049 A 
ATOM     38  N   UNL     1       3.478 -11.094   5.147  1.00  0.00    -0.248 NA
ATOM     39  C   UNL     1       5.200  -9.529   5.346  1.00  0.00     0.031 C 
ATOM     40  C   UNL     1       0.514  -7.788   5.692  1.00  0.00     0.029 A 
ATOM     41  N   UNL     1       0.763  -9.993   5.397  1.00  0.00    -0.354 N 
ATOM     42  C   UNL     1       4.702 -11.744   5.062  1.00  0.00     0.074 A 
ATOM     43  C   UNL     1       5.728 -10.727   5.146  1.00  0.00     0.031 C 
ATOM     44  C   UNL     1      -0.711  -8.338   5.690  1.00  0.00     0.029 A 
ATOM     45  C   UNL     1      -0.590  -9.777   5.457  1.00  0.00     0.049 A 
ATOM     46  H   UNL     1       1.163 -10.886   5.288  1.00  0.00     0.167 HD
ATOM     47  C   UNL     1       4.944 -13.071   4.939  1.00  0.00     0.037 A 
ATOM     48  C   UNL     1      -1.615 -10.640   5.320  1.00  0.00     0.037 A 
ATOM     49  C   UNL     1       3.913 -14.073   4.848  1.00  0.00     0.049 A 
ATOM     50  C   UNL     1      -1.329 -12.097   5.084  1.00  0.00     0.074 A 
ATOM     51  C   UNL     1       4.053 -15.444   4.733  1.00  0.00     0.029 A 
ATOM     52  N   UNL     1       2.550 -13.809   4.849  1.00  0.00    -0.354 N 
ATOM     53  N   UNL     1      -0.171 -12.710   5.014  1.00  0.00    -0.248 NA
ATOM     54  C   UNL     1      -2.487 -12.983   4.903  1.00  0.00     0.031 C 
ATOM     55  C   UNL     1       2.779 -16.003   4.598  1.00  0.00     0.029 A 
ATOM     56  C   UNL     1       1.839 -14.989   4.699  1.00  0.00     0.049 A 
ATOM     57  H   UNL     1       2.148 -12.915   4.942  1.00  0.00     0.167 HD
ATOM     58  C   UNL     1      -0.459 -14.052   4.803  1.00  0.00     0.074 A 
ATOM     59  C   UNL     1      -1.903 -14.166   4.765  1.00  0.00     0.031 C 
ATOM     60  C   UNL     1       0.400 -15.092   4.657  1.00  0.00     0.037 A 
BRANCH  47  61
ATOM     61  C   UNL     1       6.379 -13.511   4.871  1.00  0.00     0.064 A 
ATOM     62  C   UNL     1       6.897 -14.069   3.692  1.00  0.00     0.173 A 
ATOM     63  C   UNL     1       7.236 -13.412   5.979  1.00  0.00     0.173 A 
ATOM     64  F   UNL     1       6.122 -14.194   2.605  1.00  0.00    -0.203 F 
ATOM     65  C   UNL     1       8.216 -14.511   3.626  1.00  0.00     0.198 A 
ATOM     66  C   UNL     1       8.564 -13.822   5.897  1.00  0.00     0.198 A 
ATOM     67  F   UNL     1       6.795 -12.877   7.128  1.00  0.00    -0.203 F 
ATOM     68  F   UNL     1       8.680 -15.063   2.496  1.00  0.00    -0.200 F 
ATOM     69  C   UNL     1       9.051 -14.377   4.724  1.00  0.00     0.200 A 
ATOM     70  F   UNL     1       9.378 -13.664   6.951  1.00  0.00    -0.200 F 
ATOM     71  F   UNL     1      10.328 -14.779   4.650  1.00  0.00    -0.200 F 
ENDBRANCH  47  61
BRANCH  48  72
ATOM     72  C   UNL     1      -3.003 -10.126   5.430  1.00  0.00     0.064 A 
ATOM     73  C   UNL     1      -3.547  -9.279   4.452  1.00  0.00     0.173 A 
ATOM     74  C   UNL     1      -3.783 -10.406   6.560  1.00  0.00     0.173 A 
ATOM     75  F   UNL     1      -2.838  -8.979   3.354  1.00  0.00    -0.203 F 
ATOM     76  C   UNL     1      -4.802  -8.698   4.622  1.00  0.00     0.198 A 
ATOM     77  C   UNL     1      -5.048  -9.844   6.716  1.00  0.00     0.198 A 
ATOM     78  F   UNL     1      -3.312 -11.227   7.510  1.00  0.00    -0.203 F 
ATOM     79  F   UNL     1      -5.275  -7.848   3.700  1.00  0.00    -0.200 F 
ATOM     80  C   UNL     1      -5.550  -8.980   5.755  1.00  0.00     0.200 A 
ATOM     81  F   UNL     1      -5.776 -10.132   7.803  1.00  0.00    -0.200 F 
ATOM     82  F   UNL     1      -6.753  -8.414   5.923  1.00  0.00    -0.200 F 
ENDBRANCH  48  72
BRANCH  60  83
ATOM     83  C   UNL     1      -0.185 -16.461   4.453  1.00  0.00     0.064 A 
ATOM     84  C   UNL     1      -0.049 -17.447   5.444  1.00  0.00     0.173 A 
ATOM     85  C   UNL     1      -0.792 -16.829   3.243  1.00  0.00     0.173 A 
ATOM     86  F   UNL     1       0.532 -17.151   6.617  1.00  0.00    -0.203 F 
ATOM     87  C   UNL     1      -0.474 -18.753   5.221  1.00  0.00     0.198 A 
ATOM     88  C   UNL     1      -1.246 -18.129   3.036  1.00  0.00     0.198 A 
ATOM     89  F   UNL     1      -0.959 -15.922   2.269  1.00  0.00    -0.203 F 
ATOM     90  F   UNL     1      -0.290 -19.687   6.165  1.00  0.00    -0.200 F 
ATOM     91  C   UNL     1      -1.074 -19.093   4.019  1.00  0.00     0.200 A 
ATOM     92  F   UNL     1      -1.848 -18.451   1.883  1.00  0.00    -0.200 F 
ATOM     93  F   UNL     1      -1.488 -20.350   3.806  1.00  0.00    -0.200 F 
ENDBRANCH  60  83
ENDBRANCH  34  35
ENDBRANCH  27  29
ENDBRANCH  26  27
ENDBRANCH  25  26
ENDBRANCH  24  25
ENDBRANCH   1  24
TORSDOF 16
