REMARK SMILES CC[NH2+][C@]1(C(=O)OCCOCCOC(=O)c2ccc(-c3c4nc(c(-c5c(F)c(F)c(F)c(F)c5F)c5ccc([nH]5)c(-c5c(F)c(F)c(F)c(F)c5F)c5nc(c(-c6c(F)c(F)c(F)c(F)c6F)c6ccc3[nH]6)C=C5)C=C4)cc2)CCC[C@@H]([N@@H+](C)CC2CCCC2)C1
REMARK SMILES IDX 9 1 8 2 7 3 5 4 6 5 4 6 79 7 91 8 80 9 82 10 81 11 3 12 2 15
REMARK SMILES IDX 1 16 83 17 84 18 85 20 86 21 87 22 90 23 88 24 89 25 10 26
REMARK SMILES IDX 11 27 12 28 13 29 14 30 15 31 16 32 17 33 78 34 18 35 77 36
REMARK SMILES IDX 19 37 20 38 21 39 71 40 22 41 76 42 70 43 72 44 23 45 75 46
REMARK SMILES IDX 69 47 68 48 24 50 56 51 36 52 55 53 37 54 40 55 54 56 73 57
REMARK SMILES IDX 38 58 39 59 53 61 74 62 41 63 25 64 26 65 34 66 27 67 28 68
REMARK SMILES IDX 32 69 35 70 29 71 30 72 33 73 31 74 57 75 58 76 66 77 59 78
REMARK SMILES IDX 60 79 64 80 67 81 61 82 62 83 65 84 63 85 42 86 43 87 51 88
REMARK SMILES IDX 44 89 45 90 49 91 52 92 46 93 47 94 50 95 48 96
REMARK H PARENT 3 13 3 14 83 19 72 49 40 60
REMARK Flexibility Score: inf
ROOT
ATOM      1  C   UNL     1       1.880   0.652   1.626  1.00  0.00     0.202 C 
ENDROOT
BRANCH   1   2
ATOM      2  C   UNL     1       1.660  -0.227   0.389  1.00  0.00     0.261 C 
BRANCH   2   3
ATOM      3  O   UNL     1       0.775  -1.338   0.633  1.00  0.00    -0.459 OA
BRANCH   3   4
ATOM      4  C   UNL     1       1.364  -2.573   0.598  1.00  0.00     0.368 C 
ATOM      5  O   UNL     1       2.561  -2.755   0.402  1.00  0.00    -0.245 OA
BRANCH   4   6
ATOM      6  C   UNL     1       0.359  -3.721   0.907  1.00  0.00     0.200 C 
ATOM      7  C   UNL     1       0.933  -5.027   0.324  1.00  0.00     0.081 C 
ATOM      8  C   UNL     1       0.300  -3.905   2.443  1.00  0.00     0.146 C 
ATOM      9  C   UNL     1       0.032  -6.223   0.590  1.00  0.00     0.013 C 
ATOM     10  C   UNL     1      -0.463  -5.153   2.928  1.00  0.00     0.190 C 
ATOM     11  C   UNL     1      -0.339  -6.413   2.056  1.00  0.00     0.065 C 
BRANCH   6  12
ATOM     12  N   UNL     1      -1.012  -3.414   0.408  1.00  0.00    -0.332 N 
ATOM     13  H   UNL     1      -1.651  -4.106   0.798  1.00  0.00     0.347 HD
ATOM     14  H   UNL     1      -1.211  -2.459   0.705  1.00  0.00     0.347 HD
BRANCH  12  15
ATOM     15  C   UNL     1      -1.167  -3.426  -1.046  1.00  0.00     0.257 C 
ATOM     16  C   UNL     1      -2.648  -3.438  -1.393  1.00  0.00     0.071 C 
ENDBRANCH  12  15
ENDBRANCH   6  12
BRANCH  10  17
ATOM     17  N   UNL     1      -0.271  -5.418   4.372  1.00  0.00    -0.334 N 
ATOM     18  C   UNL     1      -1.264  -6.321   4.941  1.00  0.00     0.332 C 
ATOM     19  H   UNL     1      -0.453  -4.469   4.700  1.00  0.00     0.348 HD
BRANCH  17  20
ATOM     20  C   UNL     1       1.068  -5.530   4.970  1.00  0.00     0.265 C 
BRANCH  20  21
ATOM     21  C   UNL     1       2.100  -6.653   4.688  1.00  0.00     0.044 C 
ATOM     22  C   UNL     1       1.630  -8.102   4.816  1.00  0.00     0.009 C 
ATOM     23  C   UNL     1       2.867  -6.570   3.362  1.00  0.00     0.009 C 
ATOM     24  C   UNL     1       2.586  -8.901   3.937  1.00  0.00     0.001 C 
ATOM     25  C   UNL     1       2.893  -7.977   2.772  1.00  0.00     0.001 C 
ENDBRANCH  20  21
ENDBRANCH  17  20
ENDBRANCH  10  17
ENDBRANCH   4   6
ENDBRANCH   3   4
ENDBRANCH   2   3
ENDBRANCH   1   2
BRANCH   1  26
ATOM     26  O   UNL     1       2.516   0.048   2.751  1.00  0.00    -0.374 OA
BRANCH  26  27
ATOM     27  C   UNL     1       1.704  -0.803   3.558  1.00  0.00     0.202 C 
BRANCH  27  28
ATOM     28  C   UNL     1       0.791  -0.120   4.582  1.00  0.00     0.261 C 
BRANCH  28  29
ATOM     29  O   UNL     1      -0.214   0.689   3.945  1.00  0.00    -0.460 OA
BRANCH  29  30
ATOM     30  C   UNL     1      -0.030   2.024   4.081  1.00  0.00     0.338 C 
ATOM     31  O   UNL     1       0.811   2.593   4.754  1.00  0.00    -0.246 OA
BRANCH  30  32
ATOM     32  C   UNL     1      -0.899   2.750   3.135  1.00  0.00     0.060 A 
ATOM     33  C   UNL     1      -0.288   3.702   2.310  1.00  0.00     0.016 A 
ATOM     34  C   UNL     1      -2.283   2.563   3.102  1.00  0.00     0.016 A 
ATOM     35  C   UNL     1      -1.065   4.519   1.494  1.00  0.00     0.010 A 
ATOM     36  C   UNL     1      -3.063   3.390   2.286  1.00  0.00     0.010 A 
ATOM     37  C   UNL     1      -2.460   4.398   1.512  1.00  0.00    -0.014 A 
BRANCH  37  38
ATOM     38  C   UNL     1      -3.285   5.436   0.848  1.00  0.00     0.031 A 
ATOM     39  C   UNL     1      -3.881   6.535   1.684  1.00  0.00     0.074 A 
ATOM     40  C   UNL     1      -3.458   5.430  -0.485  1.00  0.00     0.049 A 
ATOM     41  N   UNL     1      -4.640   7.538   1.323  1.00  0.00    -0.248 NA
ATOM     42  C   UNL     1      -3.581   6.495   3.124  1.00  0.00     0.031 C 
ATOM     43  C   UNL     1      -2.891   4.446  -1.403  1.00  0.00     0.029 A 
ATOM     44  N   UNL     1      -4.164   6.283  -1.295  1.00  0.00    -0.354 N 
ATOM     45  C   UNL     1      -4.910   8.244   2.488  1.00  0.00     0.074 A 
ATOM     46  C   UNL     1      -4.265   7.537   3.572  1.00  0.00     0.031 C 
ATOM     47  C   UNL     1      -3.276   4.747  -2.655  1.00  0.00     0.029 A 
ATOM     48  C   UNL     1      -4.141   5.926  -2.620  1.00  0.00     0.049 A 
ATOM     49  H   UNL     1      -4.642   7.075  -0.958  1.00  0.00     0.167 HD
ATOM     50  C   UNL     1      -5.623   9.386   2.638  1.00  0.00     0.037 A 
ATOM     51  C   UNL     1      -4.764   6.479  -3.679  1.00  0.00     0.037 A 
ATOM     52  C   UNL     1      -6.264  10.087   1.556  1.00  0.00     0.049 A 
ATOM     53  C   UNL     1      -5.617   7.704  -3.475  1.00  0.00     0.074 A 
ATOM     54  C   UNL     1      -6.994  11.261   1.599  1.00  0.00     0.029 A 
ATOM     55  N   UNL     1      -6.257   9.669   0.233  1.00  0.00    -0.354 N 
ATOM     56  N   UNL     1      -5.849   8.380  -2.376  1.00  0.00    -0.248 NA
ATOM     57  C   UNL     1      -6.293   8.245  -4.663  1.00  0.00     0.031 C 
ATOM     58  C   UNL     1      -7.475  11.524   0.312  1.00  0.00     0.029 A 
ATOM     59  C   UNL     1      -6.996  10.546  -0.545  1.00  0.00     0.049 A 
ATOM     60  H   UNL     1      -5.795   8.867  -0.104  1.00  0.00     0.167 HD
ATOM     61  C   UNL     1      -6.672   9.437  -2.741  1.00  0.00     0.074 A 
ATOM     62  C   UNL     1      -6.888   9.321  -4.169  1.00  0.00     0.031 C 
ATOM     63  C   UNL     1      -7.200  10.417  -1.966  1.00  0.00     0.037 A 
BRANCH  50  64
ATOM     64  C   UNL     1      -5.772   9.930   4.029  1.00  0.00     0.064 A 
ATOM     65  C   UNL     1      -4.692  10.499   4.721  1.00  0.00     0.173 A 
ATOM     66  C   UNL     1      -7.019   9.898   4.673  1.00  0.00     0.173 A 
ATOM     67  F   UNL     1      -3.476  10.541   4.157  1.00  0.00    -0.203 F 
ATOM     68  C   UNL     1      -4.847  10.986   6.017  1.00  0.00     0.198 A 
ATOM     69  C   UNL     1      -7.177  10.414   5.957  1.00  0.00     0.198 A 
ATOM     70  F   UNL     1      -8.086   9.369   4.056  1.00  0.00    -0.203 F 
ATOM     71  F   UNL     1      -3.789  11.476   6.678  1.00  0.00    -0.200 F 
ATOM     72  C   UNL     1      -6.090  10.949   6.631  1.00  0.00     0.200 A 
ATOM     73  F   UNL     1      -8.382  10.389   6.543  1.00  0.00    -0.200 F 
ATOM     74  F   UNL     1      -6.239  11.421   7.876  1.00  0.00    -0.200 F 
ENDBRANCH  50  64
BRANCH  51  75
ATOM     75  C   UNL     1      -4.608   5.874  -5.027  1.00  0.00     0.064 A 
ATOM     76  C   UNL     1      -3.908   6.540  -6.043  1.00  0.00     0.173 A 
ATOM     77  C   UNL     1      -5.161   4.621  -5.330  1.00  0.00     0.173 A 
ATOM     78  F   UNL     1      -3.383   7.752  -5.809  1.00  0.00    -0.203 F 
ATOM     79  C   UNL     1      -3.779   5.982  -7.313  1.00  0.00     0.198 A 
ATOM     80  C   UNL     1      -5.007   4.051  -6.591  1.00  0.00     0.198 A 
ATOM     81  F   UNL     1      -5.842   3.944  -4.394  1.00  0.00    -0.203 F 
ATOM     82  F   UNL     1      -3.140   6.658  -8.277  1.00  0.00    -0.200 F 
ATOM     83  C   UNL     1      -4.322   4.735  -7.584  1.00  0.00     0.200 A 
ATOM     84  F   UNL     1      -5.522   2.841  -6.845  1.00  0.00    -0.200 F 
ATOM     85  F   UNL     1      -4.191   4.195  -8.803  1.00  0.00    -0.200 F 
ENDBRANCH  51  75
BRANCH  63  86
ATOM     86  C   UNL     1      -8.037  11.461  -2.649  1.00  0.00     0.064 A 
ATOM     87  C   UNL     1      -9.318  11.172  -3.143  1.00  0.00     0.173 A 
ATOM     88  C   UNL     1      -7.568  12.777  -2.773  1.00  0.00     0.173 A 
ATOM     89  F   UNL     1      -9.807   9.925  -3.062  1.00  0.00    -0.203 F 
ATOM     90  C   UNL     1     -10.086  12.156  -3.759  1.00  0.00     0.198 A 
ATOM     91  C   UNL     1      -8.351  13.766  -3.361  1.00  0.00     0.198 A 
ATOM     92  F   UNL     1      -6.353  13.109  -2.310  1.00  0.00    -0.203 F 
ATOM     93  F   UNL     1     -11.287  11.846  -4.268  1.00  0.00    -0.200 F 
ATOM     94  C   UNL     1      -9.606  13.453  -3.861  1.00  0.00     0.200 A 
ATOM     95  F   UNL     1      -7.891  15.022  -3.445  1.00  0.00    -0.200 F 
ATOM     96  F   UNL     1     -10.350  14.401  -4.448  1.00  0.00    -0.200 F 
ENDBRANCH  63  86
ENDBRANCH  37  38
ENDBRANCH  30  32
ENDBRANCH  29  30
ENDBRANCH  28  29
ENDBRANCH  27  28
ENDBRANCH  26  27
ENDBRANCH   1  26
TORSDOF 19
