REMARK SMILES Cc1ccc(-c2nc(C)c(C(=O)N3CCC(C(=O)OCCOCCOC(=O)c4ccc(-c5c6nc(c(-c7c(F)c(F)c(F)c(F)c7F)c7ccc([nH]7)c(-c7c(F)c(F)c(F)c(F)c7F)c7nc(c(-c8c(F)c(F)c(F)c(F)c8F)c8ccc5[nH]8)C=C7)C=C6)cc4)CC3)s2)o1
REMARK SMILES IDX 22 1 21 2 20 3 19 4 17 5 18 6 16 7 11 8 12 9 13 10 14 11
REMARK SMILES IDX 92 12 15 13 91 14 10 15 6 16 7 17 93 18 8 19 9 20 5 21 1 22
REMARK SMILES IDX 2 23 3 24 94 25 4 26 23 27 24 28 25 29 26 30 27 31 28 32
REMARK SMILES IDX 29 33 90 34 30 35 89 36 31 37 32 38 33 39 83 40 34 41 88 42
REMARK SMILES IDX 82 43 84 44 35 45 87 46 81 47 80 48 36 50 68 51 48 52 67 53
REMARK SMILES IDX 49 54 52 55 66 56 85 57 50 58 51 59 65 61 86 62 53 63 37 64
REMARK SMILES IDX 38 65 46 66 39 67 40 68 44 69 47 70 41 71 42 72 45 73 43 74
REMARK SMILES IDX 69 75 70 76 78 77 71 78 72 79 76 80 79 81 73 82 74 83 77 84
REMARK SMILES IDX 75 85 54 86 55 87 63 88 56 89 57 90 61 91 64 92 58 93 59 94
REMARK SMILES IDX 62 95 60 96
REMARK H PARENT 84 49 52 60
REMARK Flexibility Score: inf
ROOT
ATOM      1  O   UNL     1     -12.081   8.715  -0.065  1.00  0.00    -0.374 OA
ENDROOT
BRANCH   1   2
ATOM      2  C   UNL     1     -12.607   7.425   0.247  1.00  0.00     0.202 C 
BRANCH   2   3
ATOM      3  C   UNL     1     -12.108   6.266  -0.618  1.00  0.00     0.261 C 
BRANCH   3   4
ATOM      4  O   UNL     1     -10.725   5.980  -0.344  1.00  0.00    -0.463 OA
BRANCH   4   5
ATOM      5  C   UNL     1      -9.887   6.052  -1.408  1.00  0.00     0.309 C 
ATOM      6  O   UNL     1     -10.233   6.232  -2.569  1.00  0.00    -0.252 OA
BRANCH   5   7
ATOM      7  C   UNL     1      -8.434   5.877  -1.027  1.00  0.00     0.103 C 
ATOM      8  C   UNL     1      -5.188   3.991   0.928  1.00  0.00     0.265 C 
ATOM      9  O   UNL     1      -5.247   4.089   2.155  1.00  0.00    -0.268 OA
ATOM     10  N   UNL     1      -6.069   4.724   0.129  1.00  0.00    -0.338 N 
ATOM     11  C   UNL     1      -6.581   5.987   0.649  1.00  0.00     0.120 C 
ATOM     12  C   UNL     1      -6.464   4.354  -1.230  1.00  0.00     0.120 C 
ATOM     13  C   UNL     1      -8.082   6.136   0.441  1.00  0.00     0.037 C 
ATOM     14  C   UNL     1      -7.971   4.475  -1.422  1.00  0.00     0.037 C 
BRANCH   8  15
ATOM     15  C   UNL     1      -4.165   3.193   0.277  1.00  0.00     0.115 A 
ATOM     16  C   UNL     1      -2.407   1.574  -0.132  1.00  0.00     0.159 A 
ATOM     17  N   UNL     1      -2.337   2.540  -1.020  1.00  0.00    -0.237 NA
ATOM     18  S   UNL     1      -3.725   1.673   0.956  1.00  0.00    -0.105 S 
ATOM     19  C   UNL     1      -3.317   3.489  -0.781  1.00  0.00     0.062 A 
ATOM     20  C   UNL     1      -3.265   4.710  -1.627  1.00  0.00     0.068 C 
BRANCH  16  21
ATOM     21  C   UNL     1      -1.395   0.563  -0.038  1.00  0.00     0.162 A 
ATOM     22  C   UNL     1       2.120  -0.131  -0.037  1.00  0.00     0.087 C 
ATOM     23  C   UNL     1       0.653  -0.276   0.011  1.00  0.00     0.101 A 
ATOM     24  C   UNL     1      -0.200  -1.339   0.195  1.00  0.00     0.046 A 
ATOM     25  O   UNL     1      -0.060   0.868  -0.151  1.00  0.00    -0.459 OA
ATOM     26  C   UNL     1      -1.512  -0.801   0.177  1.00  0.00     0.054 A 
ENDBRANCH  16  21
ENDBRANCH   8  15
ENDBRANCH   5   7
ENDBRANCH   4   5
ENDBRANCH   3   4
ENDBRANCH   2   3
ENDBRANCH   1   2
BRANCH   1  27
ATOM     27  C   UNL     1     -10.738   8.994   0.326  1.00  0.00     0.202 C 
BRANCH  27  28
ATOM     28  C   UNL     1     -10.513   9.300   1.812  1.00  0.00     0.261 C 
BRANCH  28  29
ATOM     29  O   UNL     1     -10.815   8.173   2.656  1.00  0.00    -0.460 OA
BRANCH  29  30
ATOM     30  C   UNL     1     -11.875   8.359   3.474  1.00  0.00     0.338 C 
ATOM     31  O   UNL     1     -12.518   9.392   3.631  1.00  0.00    -0.246 OA
BRANCH  30  32
ATOM     32  C   UNL     1     -12.309   7.089   4.081  1.00  0.00     0.060 A 
ATOM     33  C   UNL     1     -13.667   6.766   3.967  1.00  0.00     0.016 A 
ATOM     34  C   UNL     1     -11.455   6.303   4.859  1.00  0.00     0.016 A 
ATOM     35  C   UNL     1     -14.197   5.712   4.703  1.00  0.00     0.010 A 
ATOM     36  C   UNL     1     -11.992   5.244   5.604  1.00  0.00     0.010 A 
ATOM     37  C   UNL     1     -13.374   4.986   5.574  1.00  0.00    -0.014 A 
BRANCH  37  38
ATOM     38  C   UNL     1     -14.024   4.128   6.596  1.00  0.00     0.031 A 
ATOM     39  C   UNL     1     -14.256   4.694   7.972  1.00  0.00     0.074 A 
ATOM     40  C   UNL     1     -14.493   2.908   6.283  1.00  0.00     0.049 A 
ATOM     41  N   UNL     1     -14.889   4.171   8.993  1.00  0.00    -0.248 NA
ATOM     42  C   UNL     1     -13.704   6.033   8.230  1.00  0.00     0.031 C 
ATOM     43  C   UNL     1     -14.356   2.261   4.981  1.00  0.00     0.029 A 
ATOM     44  N   UNL     1     -15.190   2.002   7.042  1.00  0.00    -0.354 N 
ATOM     45  C   UNL     1     -14.817   5.119  10.005  1.00  0.00     0.074 A 
ATOM     46  C   UNL     1     -14.041   6.228   9.495  1.00  0.00     0.031 C 
ATOM     47  C   UNL     1     -14.950   1.056   5.032  1.00  0.00     0.029 A 
ATOM     48  C   UNL     1     -15.498   0.846   6.372  1.00  0.00     0.049 A 
ATOM     49  H   UNL     1     -15.445   2.167   7.979  1.00  0.00     0.167 HD
ATOM     50  C   UNL     1     -15.364   5.081  11.244  1.00  0.00     0.037 A 
ATOM     51  C   UNL     1     -16.149  -0.255   6.793  1.00  0.00     0.037 A 
ATOM     52  C   UNL     1     -16.128   3.977  11.760  1.00  0.00     0.049 A 
ATOM     53  C   UNL     1     -16.719  -0.294   8.187  1.00  0.00     0.074 A 
ATOM     54  C   UNL     1     -16.718   3.837  13.004  1.00  0.00     0.029 A 
ATOM     55  N   UNL     1     -16.404   2.815  11.054  1.00  0.00    -0.354 N 
ATOM     56  N   UNL     1     -16.672   0.619   9.127  1.00  0.00    -0.248 NA
ATOM     57  C   UNL     1     -17.450  -1.510   8.570  1.00  0.00     0.031 C 
ATOM     58  C   UNL     1     -17.319   2.575  13.064  1.00  0.00     0.029 A 
ATOM     59  C   UNL     1     -17.145   1.947  11.841  1.00  0.00     0.049 A 
ATOM     60  H   UNL     1     -16.117   2.634  10.130  1.00  0.00     0.167 HD
ATOM     61  C   UNL     1     -17.384   0.101  10.201  1.00  0.00     0.074 A 
ATOM     62  C   UNL     1     -17.866  -1.201   9.791  1.00  0.00     0.031 C 
ATOM     63  C   UNL     1     -17.620   0.656  11.416  1.00  0.00     0.037 A 
BRANCH  50  64
ATOM     64  C   UNL     1     -15.130   6.270  12.130  1.00  0.00     0.064 A 
ATOM     65  C   UNL     1     -15.756   7.502  11.885  1.00  0.00     0.173 A 
ATOM     66  C   UNL     1     -14.271   6.178  13.234  1.00  0.00     0.173 A 
ATOM     67  F   UNL     1     -16.574   7.646  10.831  1.00  0.00    -0.203 F 
ATOM     68  C   UNL     1     -15.502   8.608  12.692  1.00  0.00     0.198 A 
ATOM     69  C   UNL     1     -14.041   7.278  14.056  1.00  0.00     0.198 A 
ATOM     70  F   UNL     1     -13.650   5.023  13.514  1.00  0.00    -0.203 F 
ATOM     71  F   UNL     1     -16.067   9.789  12.406  1.00  0.00    -0.200 F 
ATOM     72  C   UNL     1     -14.648   8.494  13.779  1.00  0.00     0.200 A 
ATOM     73  F   UNL     1     -13.222   7.165  15.111  1.00  0.00    -0.200 F 
ATOM     74  F   UNL     1     -14.402   9.559  14.554  1.00  0.00    -0.200 F 
ENDBRANCH  50  64
BRANCH  51  75
ATOM     75  C   UNL     1     -16.305  -1.410   5.872  1.00  0.00     0.064 A 
ATOM     76  C   UNL     1     -17.551  -1.740   5.323  1.00  0.00     0.173 A 
ATOM     77  C   UNL     1     -15.203  -2.202   5.519  1.00  0.00     0.173 A 
ATOM     78  F   UNL     1     -18.638  -1.026   5.650  1.00  0.00    -0.203 F 
ATOM     79  C   UNL     1     -17.691  -2.828   4.463  1.00  0.00     0.198 A 
ATOM     80  C   UNL     1     -15.339  -3.273   4.640  1.00  0.00     0.198 A 
ATOM     81  F   UNL     1     -13.990  -1.925   6.019  1.00  0.00    -0.203 F 
ATOM     82  F   UNL     1     -18.899  -3.145   3.979  1.00  0.00    -0.200 F 
ATOM     83  C   UNL     1     -16.584  -3.589   4.116  1.00  0.00     0.200 A 
ATOM     84  F   UNL     1     -14.266  -3.998   4.299  1.00  0.00    -0.200 F 
ATOM     85  F   UNL     1     -16.718  -4.629   3.282  1.00  0.00    -0.200 F 
ENDBRANCH  51  75
BRANCH  63  86
ATOM     86  C   UNL     1     -18.463  -0.130  12.379  1.00  0.00     0.064 A 
ATOM     87  C   UNL     1     -17.974  -1.277  13.021  1.00  0.00     0.173 A 
ATOM     88  C   UNL     1     -19.765   0.292  12.689  1.00  0.00     0.173 A 
ATOM     89  F   UNL     1     -16.740  -1.727  12.749  1.00  0.00    -0.203 F 
ATOM     90  C   UNL     1     -18.768  -1.989  13.916  1.00  0.00     0.198 A 
ATOM     91  C   UNL     1     -20.546  -0.407  13.605  1.00  0.00     0.198 A 
ATOM     92  F   UNL     1     -20.277   1.387  12.108  1.00  0.00    -0.203 F 
ATOM     93  F   UNL     1     -18.297  -3.109  14.481  1.00  0.00    -0.200 F 
ATOM     94  C   UNL     1     -20.050  -1.551  14.211  1.00  0.00     0.200 A 
ATOM     95  F   UNL     1     -21.781   0.024  13.898  1.00  0.00    -0.200 F 
ATOM     96  F   UNL     1     -20.812  -2.237  15.075  1.00  0.00    -0.200 F 
ENDBRANCH  63  86
ENDBRANCH  37  38
ENDBRANCH  30  32
ENDBRANCH  29  30
ENDBRANCH  28  29
ENDBRANCH  27  28
ENDBRANCH   1  27
TORSDOF 16
