REMARK SMILES O=C(Cc1ccccc1-c1ccn(C(F)F)c(=O)c1)OCCOCCOC(=O)c1ccc(-c2c3nc(c(-c4c(F)c(F)c(F)c(F)c4F)c4ccc([nH]4)c(-c4c(F)c(F)c(F)c(F)c4F)c4nc(c(-c5c(F)c(F)c(F)c(F)c5F)c5ccc2[nH]5)C=C4)C=C3)cc1
REMARK SMILES IDX 22 1 21 2 20 3 2 4 1 5 3 6 4 7 5 8 9 9 6 10 8 11 7 12 10 13
REMARK SMILES IDX 11 14 19 15 12 16 17 17 13 18 18 19 14 20 15 21 16 22 23 23
REMARK SMILES IDX 24 24 25 25 26 26 27 27 28 28 29 29 30 30 91 31 31 32 90 33
REMARK SMILES IDX 32 34 33 35 34 36 84 37 35 38 89 39 83 40 85 41 36 42 88 43
REMARK SMILES IDX 82 44 81 45 37 47 69 48 49 49 68 50 50 51 53 52 67 53 86 54
REMARK SMILES IDX 51 55 52 56 66 58 87 59 54 60 38 61 39 62 47 63 40 64 41 65
REMARK SMILES IDX 45 66 48 67 42 68 43 69 46 70 44 71 70 72 71 73 79 74 72 75
REMARK SMILES IDX 73 76 77 77 80 78 74 79 75 80 78 81 76 82 55 83 56 84 64 85
REMARK SMILES IDX 57 86 58 87 62 88 65 89 59 90 60 91 63 92 61 93
REMARK H PARENT 85 46 53 57
REMARK Flexibility Score: inf
ROOT
ATOM      1  C   UNL     1       4.514  -1.173   0.561  1.00  0.00     0.202 C 
ENDROOT
BRANCH   1   2
ATOM      2  C   UNL     1       4.056   0.199   1.047  1.00  0.00     0.261 C 
BRANCH   2   3
ATOM      3  O   UNL     1       2.671   0.476   0.814  1.00  0.00    -0.463 OA
BRANCH   3   4
ATOM      4  C   UNL     1       2.130   0.785  -0.386  1.00  0.00     0.310 C 
ATOM      5  O   UNL     1       0.906   0.690  -0.507  1.00  0.00    -0.252 OA
BRANCH   4   6
ATOM      6  C   UNL     1       3.006   1.179  -1.565  1.00  0.00     0.158 C 
BRANCH   6   7
ATOM      7  C   UNL     1       3.794   2.455  -1.387  1.00  0.00    -0.029 A 
ATOM      8  C   UNL     1       5.176   2.373  -1.150  1.00  0.00     0.005 A 
ATOM      9  C   UNL     1       3.182   3.725  -1.439  1.00  0.00    -0.014 A 
ATOM     10  C   UNL     1       5.903   3.499  -0.783  1.00  0.00     0.000 A 
ATOM     11  C   UNL     1       3.923   4.856  -1.076  1.00  0.00     0.009 A 
ATOM     12  C   UNL     1       5.268   4.734  -0.714  1.00  0.00     0.001 A 
BRANCH   9  13
ATOM     13  C   UNL     1       1.841   3.856  -2.046  1.00  0.00    -0.011 A 
ATOM     14  C   UNL     1       0.604   3.523  -1.374  1.00  0.00     0.027 A 
ATOM     15  C   UNL     1       1.834   4.043  -3.378  1.00  0.00     0.080 A 
ATOM     16  C   UNL     1      -0.486   3.217  -2.089  1.00  0.00     0.095 A 
ATOM     17  C   UNL     1       0.600   3.808  -4.176  1.00  0.00     0.255 A 
ATOM     18  N   UNL     1      -0.485   3.317  -3.469  1.00  0.00    -0.258 N 
ATOM     19  O   UNL     1       0.642   3.997  -5.387  1.00  0.00    -0.269 OA
BRANCH  18  20
ATOM     20  C   UNL     1      -1.636   2.918  -4.234  1.00  0.00     0.451 C 
ATOM     21  F   UNL     1      -2.195   3.981  -4.860  1.00  0.00    -0.185 F 
ATOM     22  F   UNL     1      -1.302   2.004  -5.180  1.00  0.00    -0.185 F 
ENDBRANCH  18  20
ENDBRANCH   9  13
ENDBRANCH   6   7
ENDBRANCH   4   6
ENDBRANCH   3   4
ENDBRANCH   2   3
ENDBRANCH   1   2
BRANCH   1  23
ATOM     23  O   UNL     1       4.192  -1.534  -0.779  1.00  0.00    -0.374 OA
BRANCH  23  24
ATOM     24  C   UNL     1       2.920  -2.173  -0.963  1.00  0.00     0.202 C 
BRANCH  24  25
ATOM     25  C   UNL     1       2.919  -3.695  -0.805  1.00  0.00     0.261 C 
BRANCH  25  26
ATOM     26  O   UNL     1       3.306  -4.067   0.524  1.00  0.00    -0.460 OA
BRANCH  26  27
ATOM     27  C   UNL     1       4.623  -4.347   0.663  1.00  0.00     0.338 C 
ATOM     28  O   UNL     1       5.448  -4.493  -0.225  1.00  0.00    -0.246 OA
BRANCH  27  29
ATOM     29  C   UNL     1       4.989  -4.225   2.088  1.00  0.00     0.060 A 
ATOM     30  C   UNL     1       6.208  -3.601   2.387  1.00  0.00     0.016 A 
ATOM     31  C   UNL     1       4.153  -4.683   3.110  1.00  0.00     0.016 A 
ATOM     32  C   UNL     1       6.634  -3.504   3.705  1.00  0.00     0.010 A 
ATOM     33  C   UNL     1       4.585  -4.594   4.433  1.00  0.00     0.010 A 
ATOM     34  C   UNL     1       5.850  -4.056   4.725  1.00  0.00    -0.014 A 
BRANCH  34  35
ATOM     35  C   UNL     1       6.463  -4.285   6.050  1.00  0.00     0.031 A 
ATOM     36  C   UNL     1       6.987  -5.662   6.352  1.00  0.00     0.074 A 
ATOM     37  C   UNL     1       6.599  -3.283   6.933  1.00  0.00     0.049 A 
ATOM     38  N   UNL     1       7.544  -6.121   7.442  1.00  0.00    -0.248 NA
ATOM     39  C   UNL     1       6.860  -6.660   5.275  1.00  0.00     0.031 C 
ATOM     40  C   UNL     1       6.164  -1.904   6.720  1.00  0.00     0.029 A 
ATOM     41  N   UNL     1       7.142  -3.277   8.191  1.00  0.00    -0.354 N 
ATOM     42  C   UNL     1       7.833  -7.454   7.180  1.00  0.00     0.074 A 
ATOM     43  C   UNL     1       7.347  -7.747   5.851  1.00  0.00     0.031 C 
ATOM     44  C   UNL     1       6.447  -1.185   7.821  1.00  0.00     0.029 A 
ATOM     45  C   UNL     1       7.052  -2.062   8.821  1.00  0.00     0.049 A 
ATOM     46  H   UNL     1       7.557  -4.069   8.603  1.00  0.00     0.167 HD
ATOM     47  C   UNL     1       8.468  -8.349   7.972  1.00  0.00     0.037 A 
ATOM     48  C   UNL     1       7.401  -1.713  10.074  1.00  0.00     0.037 A 
ATOM     49  C   UNL     1       8.939  -8.047   9.297  1.00  0.00     0.049 A 
ATOM     50  C   UNL     1       8.033  -2.752  10.967  1.00  0.00     0.074 A 
ATOM     51  C   UNL     1       9.584  -8.877  10.195  1.00  0.00     0.029 A 
ATOM     52  N   UNL     1       8.807  -6.811   9.915  1.00  0.00    -0.354 N 
ATOM     53  N   UNL     1       8.321  -4.006  10.710  1.00  0.00    -0.248 NA
ATOM     54  C   UNL     1       8.397  -2.322  12.324  1.00  0.00     0.031 C 
ATOM     55  C   UNL     1       9.796  -8.158  11.376  1.00  0.00     0.029 A 
ATOM     56  C   UNL     1       9.343  -6.861  11.191  1.00  0.00     0.049 A 
ATOM     57  H   UNL     1       8.394  -6.016   9.506  1.00  0.00     0.167 HD
ATOM     58  C   UNL     1       8.928  -4.503  11.856  1.00  0.00     0.074 A 
ATOM     59  C   UNL     1       8.986  -3.408  12.802  1.00  0.00     0.031 C 
ATOM     60  C   UNL     1       9.396  -5.752  12.109  1.00  0.00     0.037 A 
BRANCH  47  61
ATOM     61  C   UNL     1       8.669  -9.735   7.432  1.00  0.00     0.064 A 
ATOM     62  C   UNL     1       9.556  -9.992   6.373  1.00  0.00     0.173 A 
ATOM     63  C   UNL     1       7.986 -10.825   7.992  1.00  0.00     0.173 A 
ATOM     64  F   UNL     1      10.219  -8.983   5.788  1.00  0.00    -0.203 F 
ATOM     65  C   UNL     1       9.730 -11.283   5.881  1.00  0.00     0.198 A 
ATOM     66  C   UNL     1       8.188 -12.119   7.519  1.00  0.00     0.198 A 
ATOM     67  F   UNL     1       7.125 -10.636   9.003  1.00  0.00    -0.203 F 
ATOM     68  F   UNL     1      10.542 -11.496   4.836  1.00  0.00    -0.200 F 
ATOM     69  C   UNL     1       9.054 -12.346   6.460  1.00  0.00     0.200 A 
ATOM     70  F   UNL     1       7.543 -13.146   8.087  1.00  0.00    -0.200 F 
ATOM     71  F   UNL     1       9.230 -13.589   5.992  1.00  0.00    -0.200 F 
ENDBRANCH  47  61
BRANCH  48  72
ATOM     72  C   UNL     1       7.150  -0.333  10.566  1.00  0.00     0.064 A 
ATOM     73  C   UNL     1       8.207   0.525  10.901  1.00  0.00     0.173 A 
ATOM     74  C   UNL     1       5.843   0.146  10.747  1.00  0.00     0.173 A 
ATOM     75  F   UNL     1       9.475   0.109  10.766  1.00  0.00    -0.203 F 
ATOM     76  C   UNL     1       7.968   1.793  11.428  1.00  0.00     0.198 A 
ATOM     77  C   UNL     1       5.605   1.427  11.241  1.00  0.00     0.198 A 
ATOM     78  F   UNL     1       4.794  -0.631  10.440  1.00  0.00    -0.203 F 
ATOM     79  F   UNL     1       8.997   2.567  11.798  1.00  0.00    -0.200 F 
ATOM     80  C   UNL     1       6.667   2.245  11.593  1.00  0.00     0.200 A 
ATOM     81  F   UNL     1       4.347   1.865  11.382  1.00  0.00    -0.200 F 
ATOM     82  F   UNL     1       6.438   3.463  12.101  1.00  0.00    -0.200 F 
ENDBRANCH  48  72
BRANCH  60  83
ATOM     83  C   UNL     1      10.053  -5.981  13.441  1.00  0.00     0.064 A 
ATOM     84  C   UNL     1       9.321  -5.982  14.637  1.00  0.00     0.173 A 
ATOM     85  C   UNL     1      11.433  -6.230  13.515  1.00  0.00     0.173 A 
ATOM     86  F   UNL     1       8.002  -5.738  14.622  1.00  0.00    -0.203 F 
ATOM     87  C   UNL     1       9.953  -6.182  15.862  1.00  0.00     0.198 A 
ATOM     88  C   UNL     1      12.054  -6.468  14.738  1.00  0.00     0.198 A 
ATOM     89  F   UNL     1      12.178  -6.253  12.400  1.00  0.00    -0.203 F 
ATOM     90  F   UNL     1       9.244  -6.112  16.997  1.00  0.00    -0.200 F 
ATOM     91  C   UNL     1      11.316  -6.431  15.911  1.00  0.00     0.200 A 
ATOM     92  F   UNL     1      13.368  -6.728  14.780  1.00  0.00    -0.200 F 
ATOM     93  F   UNL     1      11.921  -6.627  17.090  1.00  0.00    -0.200 F 
ENDBRANCH  60  83
ENDBRANCH  34  35
ENDBRANCH  27  29
ENDBRANCH  26  27
ENDBRANCH  25  26
ENDBRANCH  24  25
ENDBRANCH  23  24
ENDBRANCH   1  23
TORSDOF 17
