REMARK SMILES Cc1ccccc1OC1(C(=O)OCCOCCOC(=O)c2ccc(-c3c4nc(c(-c5c(F)c(F)c(F)c(F)c5F)c5ccc([nH]5)c(-c5c(F)c(F)c(F)c(F)c5F)c5nc(c(-c6c(F)c(F)c(F)c(F)c6F)c6ccc3[nH]6)C=C5)C=C4)cc2)CCN(C(=O)[C@H]2CCCCO2)CC1
REMARK SMILES IDX 15 1 14 2 13 3 12 4 10 5 11 6 9 7 84 8 96 9 85 10 95 11
REMARK SMILES IDX 86 12 87 13 88 14 8 15 7 16 1 17 2 18 3 19 4 20 6 21 5 22
REMARK SMILES IDX 89 23 90 24 94 25 91 26 93 27 92 28 16 29 17 30 18 31 19 32
REMARK SMILES IDX 20 33 21 34 22 35 83 36 23 37 82 38 24 39 25 40 26 41 76 42
REMARK SMILES IDX 27 43 81 44 75 45 77 46 28 47 80 48 74 49 73 50 29 52 61 53
REMARK SMILES IDX 41 54 60 55 42 56 45 57 59 58 78 59 43 60 44 61 58 63 79 64
REMARK SMILES IDX 46 65 30 66 31 67 39 68 32 69 33 70 37 71 40 72 34 73 35 74
REMARK SMILES IDX 38 75 36 76 62 77 63 78 71 79 64 80 65 81 69 82 72 83 66 84
REMARK SMILES IDX 67 85 70 86 68 87 47 88 48 89 56 90 49 91 50 92 54 93 57 94
REMARK SMILES IDX 51 95 52 96 55 97 53 98
REMARK H PARENT 77 51 45 62
REMARK Flexibility Score: inf
ROOT
ATOM      1  O   UNL     1       8.235  -7.844  -2.880  1.00  0.00    -0.374 OA
ENDROOT
BRANCH   1   2
ATOM      2  C   UNL     1       8.988  -6.731  -2.444  1.00  0.00     0.202 C 
BRANCH   2   3
ATOM      3  C   UNL     1       8.312  -5.513  -3.021  1.00  0.00     0.261 C 
BRANCH   3   4
ATOM      4  O   UNL     1       6.998  -5.239  -2.471  1.00  0.00    -0.460 OA
BRANCH   4   5
ATOM      5  C   UNL     1       5.983  -6.170  -2.444  1.00  0.00     0.350 C 
ATOM      6  O   UNL     1       5.728  -6.954  -3.345  1.00  0.00    -0.247 OA
BRANCH   5   7
ATOM      7  C   UNL     1       5.183  -5.993  -1.110  1.00  0.00     0.209 C 
ATOM      8  C   UNL     1       6.278  -5.947  -0.042  1.00  0.00     0.082 C 
ATOM      9  C   UNL     1       4.306  -4.761  -1.357  1.00  0.00     0.082 C 
ATOM     10  C   UNL     1       6.790  -4.543   0.241  1.00  0.00     0.124 C 
ATOM     11  C   UNL     1       4.703  -3.467  -0.661  1.00  0.00     0.124 C 
ATOM     12  N   UNL     1       5.732  -3.548   0.371  1.00  0.00    -0.340 N 
ATOM     13  C   UNL     1       5.895  -2.582   1.371  1.00  0.00     0.251 C 
ATOM     14  O   UNL     1       6.881  -2.607   2.114  1.00  0.00    -0.272 OA
BRANCH   7  15
ATOM     15  O   UNL     1       4.367  -7.167  -0.932  1.00  0.00    -0.475 OA
BRANCH  15  16
ATOM     16  C   UNL     1       3.444  -7.424   0.052  1.00  0.00     0.123 A 
ATOM     17  C   UNL     1       3.916  -5.730   1.992  1.00  0.00     0.048 C 
ATOM     18  C   UNL     1       3.189  -6.839   1.307  1.00  0.00    -0.009 A 
ATOM     19  C   UNL     1       2.175  -7.377   2.139  1.00  0.00     0.007 A 
ATOM     20  C   UNL     1       1.409  -8.466   1.757  1.00  0.00     0.001 A 
ATOM     21  C   UNL     1       2.647  -8.530  -0.310  1.00  0.00     0.047 A 
ATOM     22  C   UNL     1       1.647  -9.046   0.525  1.00  0.00     0.004 A 
ENDBRANCH  15  16
ENDBRANCH   7  15
BRANCH  13  23
ATOM     23  C   UNL     1       4.789  -1.512   1.552  1.00  0.00     0.207 C 
ATOM     24  C   UNL     1       3.616  -2.123   2.334  1.00  0.00     0.042 C 
ATOM     25  O   UNL     1       5.347  -0.404   2.268  1.00  0.00    -0.368 OA
ATOM     26  C   UNL     1       2.598  -1.071   2.754  1.00  0.00     0.006 C 
ATOM     27  C   UNL     1       4.408   0.622   2.558  1.00  0.00     0.161 C 
ATOM     28  C   UNL     1       3.298   0.087   3.447  1.00  0.00     0.029 C 
ENDBRANCH  13  23
ENDBRANCH   5   7
ENDBRANCH   4   5
ENDBRANCH   3   4
ENDBRANCH   2   3
ENDBRANCH   1   2
BRANCH   1  29
ATOM     29  C   UNL     1       8.580  -9.098  -2.324  1.00  0.00     0.202 C 
BRANCH  29  30
ATOM     30  C   UNL     1      10.013  -9.527  -2.663  1.00  0.00     0.261 C 
BRANCH  30  31
ATOM     31  O   UNL     1      10.150  -9.713  -4.089  1.00  0.00    -0.460 OA
BRANCH  31  32
ATOM     32  C   UNL     1      10.678  -8.664  -4.775  1.00  0.00     0.338 C 
ATOM     33  O   UNL     1      11.746  -8.121  -4.520  1.00  0.00    -0.246 OA
BRANCH  32  34
ATOM     34  C   UNL     1       9.654  -8.091  -5.694  1.00  0.00     0.060 A 
ATOM     35  C   UNL     1       9.856  -6.827  -6.283  1.00  0.00     0.016 A 
ATOM     36  C   UNL     1       8.382  -8.656  -5.692  1.00  0.00     0.016 A 
ATOM     37  C   UNL     1       8.758  -6.070  -6.722  1.00  0.00     0.010 A 
ATOM     38  C   UNL     1       7.303  -7.857  -6.000  1.00  0.00     0.010 A 
ATOM     39  C   UNL     1       7.473  -6.554  -6.494  1.00  0.00    -0.014 A 
BRANCH  39  40
ATOM     40  C   UNL     1       6.216  -5.816  -6.655  1.00  0.00     0.031 A 
ATOM     41  C   UNL     1       5.201  -6.372  -7.588  1.00  0.00     0.074 A 
ATOM     42  C   UNL     1       5.852  -4.839  -5.785  1.00  0.00     0.049 A 
ATOM     43  N   UNL     1       4.089  -5.786  -7.858  1.00  0.00    -0.248 NA
ATOM     44  C   UNL     1       5.359  -7.621  -8.338  1.00  0.00     0.031 C 
ATOM     45  C   UNL     1       4.493  -4.405  -5.448  1.00  0.00     0.029 A 
ATOM     46  N   UNL     1       6.647  -3.984  -5.004  1.00  0.00    -0.354 N 
ATOM     47  C   UNL     1       3.274  -6.689  -8.491  1.00  0.00     0.074 A 
ATOM     48  C   UNL     1       4.147  -7.759  -8.889  1.00  0.00     0.031 C 
ATOM     49  C   UNL     1       4.540  -3.223  -4.811  1.00  0.00     0.029 A 
ATOM     50  C   UNL     1       5.923  -2.791  -4.822  1.00  0.00     0.049 A 
ATOM     51  H   UNL     1       7.544  -4.182  -4.649  1.00  0.00     0.167 HD
ATOM     52  C   UNL     1       1.933  -6.449  -8.480  1.00  0.00     0.037 A 
ATOM     53  C   UNL     1       6.394  -1.593  -5.261  1.00  0.00     0.037 A 
ATOM     54  C   UNL     1       1.664  -5.086  -8.001  1.00  0.00     0.049 A 
ATOM     55  C   UNL     1       5.448  -1.043  -6.284  1.00  0.00     0.074 A 
ATOM     56  C   UNL     1       1.103  -4.563  -6.850  1.00  0.00     0.029 A 
ATOM     57  N   UNL     1       2.279  -4.016  -8.657  1.00  0.00    -0.354 N 
ATOM     58  N   UNL     1       4.658  -1.817  -6.978  1.00  0.00    -0.248 NA
ATOM     59  C   UNL     1       5.218   0.373  -6.536  1.00  0.00     0.031 C 
ATOM     60  C   UNL     1       1.471  -3.186  -6.778  1.00  0.00     0.029 A 
ATOM     61  C   UNL     1       2.212  -2.860  -7.906  1.00  0.00     0.049 A 
ATOM     62  H   UNL     1       2.706  -4.079  -9.542  1.00  0.00     0.167 HD
ATOM     63  C   UNL     1       3.777  -1.053  -7.672  1.00  0.00     0.074 A 
ATOM     64  C   UNL     1       4.192   0.314  -7.405  1.00  0.00     0.031 C 
ATOM     65  C   UNL     1       2.769  -1.603  -8.403  1.00  0.00     0.037 A 
BRANCH  52  66
ATOM     66  C   UNL     1       0.847  -7.467  -8.767  1.00  0.00     0.064 A 
ATOM     67  C   UNL     1      -0.504  -7.058  -8.830  1.00  0.00     0.173 A 
ATOM     68  C   UNL     1       1.040  -8.860  -8.896  1.00  0.00     0.173 A 
ATOM     69  F   UNL     1      -0.845  -5.769  -8.690  1.00  0.00    -0.203 F 
ATOM     70  C   UNL     1      -1.559  -7.960  -9.022  1.00  0.00     0.198 A 
ATOM     71  C   UNL     1      -0.009  -9.754  -9.143  1.00  0.00     0.198 A 
ATOM     72  F   UNL     1       2.236  -9.434  -8.731  1.00  0.00    -0.203 F 
ATOM     73  F   UNL     1      -2.823  -7.516  -9.027  1.00  0.00    -0.200 F 
ATOM     74  C   UNL     1      -1.310  -9.306  -9.197  1.00  0.00     0.200 A 
ATOM     75  F   UNL     1       0.256 -11.060  -9.301  1.00  0.00    -0.200 F 
ATOM     76  F   UNL     1      -2.316 -10.168  -9.397  1.00  0.00    -0.200 F 
ENDBRANCH  52  66
BRANCH  53  77
ATOM     77  C   UNL     1       7.878  -1.515  -5.197  1.00  0.00     0.064 A 
ATOM     78  C   UNL     1       8.443  -1.465  -3.904  1.00  0.00     0.173 A 
ATOM     79  C   UNL     1       8.685  -2.007  -6.232  1.00  0.00     0.173 A 
ATOM     80  F   UNL     1       7.706  -1.023  -2.872  1.00  0.00    -0.203 F 
ATOM     81  C   UNL     1       9.690  -2.027  -3.633  1.00  0.00     0.198 A 
ATOM     82  C   UNL     1       9.937  -2.569  -5.954  1.00  0.00     0.198 A 
ATOM     83  F   UNL     1       8.207  -2.090  -7.482  1.00  0.00    -0.203 F 
ATOM     84  F   UNL     1      10.123  -2.116  -2.367  1.00  0.00    -0.200 F 
ATOM     85  C   UNL     1      10.415  -2.619  -4.652  1.00  0.00     0.200 A 
ATOM     86  F   UNL     1      10.633  -3.169  -6.931  1.00  0.00    -0.200 F 
ATOM     87  F   UNL     1      11.536  -3.299  -4.368  1.00  0.00    -0.200 F 
ENDBRANCH  53  77
BRANCH  65  88
ATOM     88  C   UNL     1       2.188  -0.939  -9.620  1.00  0.00     0.064 A 
ATOM     89  C   UNL     1       2.872   0.049 -10.352  1.00  0.00     0.173 A 
ATOM     90  C   UNL     1       0.998  -1.421 -10.207  1.00  0.00     0.173 A 
ATOM     91  F   UNL     1       4.082   0.492  -9.981  1.00  0.00    -0.203 F 
ATOM     92  C   UNL     1       2.363   0.575 -11.537  1.00  0.00     0.198 A 
ATOM     93  C   UNL     1       0.530  -0.943 -11.428  1.00  0.00     0.198 A 
ATOM     94  F   UNL     1       0.277  -2.398  -9.639  1.00  0.00    -0.203 F 
ATOM     95  F   UNL     1       3.030   1.553 -12.165  1.00  0.00    -0.200 F 
ATOM     96  C   UNL     1       1.199   0.071 -12.081  1.00  0.00     0.200 A 
ATOM     97  F   UNL     1      -0.561  -1.491 -11.980  1.00  0.00    -0.200 F 
ATOM     98  F   UNL     1       0.739   0.545 -13.245  1.00  0.00    -0.200 F 
ENDBRANCH  65  88
ENDBRANCH  39  40
ENDBRANCH  32  34
ENDBRANCH  31  32
ENDBRANCH  30  31
ENDBRANCH  29  30
ENDBRANCH   1  29
TORSDOF 17
