REMARK SMILES C[C@H]1CC[C@H]([N@@H+](CC(=O)OCCOCCOC(=O)c2ccc(-c3c4nc(c(-c5c(F)c(F)c(F)c(F)c5F)c5ccc([nH]5)c(-c5c(F)c(F)c(F)c(F)c5F)c5nc(c(-c6c(F)c(F)c(F)c(F)c6F)c6ccc3[nH]6)C=C5)C=C4)cc2)C(C)(C)C)C[C@@H]1C
REMARK SMILES IDX 13 1 12 2 11 3 10 4 8 5 9 6 7 7 6 8 5 10 1 11 2 12 3 13
REMARK SMILES IDX 87 14 4 15 86 16 88 17 82 18 83 19 84 20 85 21 14 22 15 23
REMARK SMILES IDX 16 24 17 25 18 26 19 27 20 28 81 29 21 30 80 31 22 32 23 33
REMARK SMILES IDX 24 34 74 35 25 36 79 37 73 38 75 39 26 40 78 41 72 42 71 43
REMARK SMILES IDX 27 45 59 46 39 47 58 48 40 49 43 50 57 51 76 52 41 53 42 54
REMARK SMILES IDX 56 56 77 57 44 58 28 59 29 60 37 61 30 62 31 63 35 64 38 65
REMARK SMILES IDX 32 66 33 67 36 68 34 69 60 70 61 71 69 72 62 73 63 74 67 75
REMARK SMILES IDX 70 76 64 77 65 78 68 79 66 80 45 81 46 82 54 83 47 84 48 85
REMARK SMILES IDX 52 86 55 87 49 88 50 89 53 90 51 91
REMARK H PARENT 6 9 75 44 43 55
REMARK Flexibility Score: inf
ROOT
ATOM      1  O   UNL     1      -3.758   2.962  -1.390  1.00  0.00    -0.374 OA
ENDROOT
BRANCH   1   2
ATOM      2  C   UNL     1      -3.512   2.485  -0.065  1.00  0.00     0.202 C 
BRANCH   2   3
ATOM      3  C   UNL     1      -4.537   1.454   0.418  1.00  0.00     0.261 C 
BRANCH   3   4
ATOM      4  O   UNL     1      -4.001   0.117   0.301  1.00  0.00    -0.459 OA
BRANCH   4   5
ATOM      5  C   UNL     1      -4.614  -0.805  -0.480  1.00  0.00     0.361 C 
ATOM      6  O   UNL     1      -5.559  -0.544  -1.217  1.00  0.00    -0.245 OA
BRANCH   5   7
ATOM      7  C   UNL     1      -4.090  -2.241  -0.245  1.00  0.00     0.387 C 
BRANCH   7   8
ATOM      8  N   UNL     1      -2.662  -2.556  -0.553  1.00  0.00    -0.319 N 
ATOM      9  H   UNL     1      -2.570  -3.559  -0.709  1.00  0.00     0.349 HD
BRANCH   8  10
ATOM     10  C   UNL     1      -1.750  -2.505   0.627  1.00  0.00     0.185 C 
ATOM     11  C   UNL     1       1.646  -1.064   3.167  1.00  0.00     0.008 C 
ATOM     12  C   UNL     1       0.617  -1.283   2.057  1.00  0.00    -0.011 C 
ATOM     13  C   UNL     1       0.589  -2.765   1.663  1.00  0.00     0.010 C 
ATOM     14  C   UNL     1      -0.806  -0.869   2.454  1.00  0.00    -0.006 C 
ATOM     15  C   UNL     1      -0.296  -2.975   0.437  1.00  0.00     0.065 C 
ATOM     16  C   UNL     1      -1.793  -1.137   1.319  1.00  0.00     0.068 C 
ATOM     17  C   UNL     1      -0.953   0.607   2.823  1.00  0.00     0.008 C 
ENDBRANCH   8  10
BRANCH   8  18
ATOM     18  C   UNL     1      -2.195  -2.420  -1.959  1.00  0.00     0.090 C 
ATOM     19  C   UNL     1      -1.483  -1.078  -2.171  1.00  0.00     0.078 C 
ATOM     20  C   UNL     1      -1.236  -3.559  -2.394  1.00  0.00     0.078 C 
ATOM     21  C   UNL     1      -3.353  -2.504  -2.993  1.00  0.00     0.078 C 
ENDBRANCH   8  18
ENDBRANCH   7   8
ENDBRANCH   5   7
ENDBRANCH   4   5
ENDBRANCH   3   4
ENDBRANCH   2   3
ENDBRANCH   1   2
BRANCH   1  22
ATOM     22  C   UNL     1      -3.359   2.076  -2.433  1.00  0.00     0.202 C 
BRANCH  22  23
ATOM     23  C   UNL     1      -1.902   2.278  -2.881  1.00  0.00     0.261 C 
BRANCH  23  24
ATOM     24  O   UNL     1      -0.965   2.126  -1.791  1.00  0.00    -0.460 OA
BRANCH  24  25
ATOM     25  C   UNL     1      -0.374   3.280  -1.390  1.00  0.00     0.338 C 
ATOM     26  O   UNL     1      -0.454   4.369  -1.928  1.00  0.00    -0.246 OA
BRANCH  25  27
ATOM     27  C   UNL     1       0.315   3.113  -0.088  1.00  0.00     0.060 A 
ATOM     28  C   UNL     1       0.058   4.080   0.890  1.00  0.00     0.016 A 
ATOM     29  C   UNL     1       1.261   2.117   0.157  1.00  0.00     0.016 A 
ATOM     30  C   UNL     1       0.782   4.094   2.086  1.00  0.00     0.010 A 
ATOM     31  C   UNL     1       1.977   2.126   1.370  1.00  0.00     0.010 A 
ATOM     32  C   UNL     1       1.775   3.137   2.334  1.00  0.00    -0.014 A 
BRANCH  32  33
ATOM     33  C   UNL     1       2.670   3.298   3.526  1.00  0.00     0.031 A 
ATOM     34  C   UNL     1       4.123   3.659   3.320  1.00  0.00     0.074 A 
ATOM     35  C   UNL     1       2.207   3.204   4.791  1.00  0.00     0.049 A 
ATOM     36  N   UNL     1       5.042   3.952   4.210  1.00  0.00    -0.248 NA
ATOM     37  C   UNL     1       4.604   3.707   1.932  1.00  0.00     0.031 C 
ATOM     38  C   UNL     1       0.832   2.899   5.173  1.00  0.00     0.029 A 
ATOM     39  N   UNL     1       2.850   3.362   6.000  1.00  0.00    -0.354 N 
ATOM     40  C   UNL     1       6.196   4.232   3.487  1.00  0.00     0.074 A 
ATOM     41  C   UNL     1       5.885   3.998   2.094  1.00  0.00     0.031 C 
ATOM     42  C   UNL     1       0.738   2.853   6.513  1.00  0.00     0.029 A 
ATOM     43  C   UNL     1       2.040   3.163   7.094  1.00  0.00     0.049 A 
ATOM     44  H   UNL     1       3.804   3.596   6.074  1.00  0.00     0.167 HD
ATOM     45  C   UNL     1       7.394   4.684   3.929  1.00  0.00     0.037 A 
ATOM     46  C   UNL     1       2.299   3.245   8.415  1.00  0.00     0.037 A 
ATOM     47  C   UNL     1       7.722   4.936   5.307  1.00  0.00     0.049 A 
ATOM     48  C   UNL     1       3.659   3.692   8.886  1.00  0.00     0.074 A 
ATOM     49  C   UNL     1       8.902   5.434   5.835  1.00  0.00     0.029 A 
ATOM     50  N   UNL     1       6.875   4.700   6.378  1.00  0.00    -0.354 N 
ATOM     51  N   UNL     1       4.707   4.042   8.183  1.00  0.00    -0.248 NA
ATOM     52  C   UNL     1       3.860   3.789  10.341  1.00  0.00     0.031 C 
ATOM     53  C   UNL     1       8.790   5.444   7.229  1.00  0.00     0.029 A 
ATOM     54  C   UNL     1       7.518   5.014   7.566  1.00  0.00     0.049 A 
ATOM     55  H   UNL     1       5.954   4.361   6.306  1.00  0.00     0.167 HD
ATOM     56  C   UNL     1       5.668   4.444   9.103  1.00  0.00     0.074 A 
ATOM     57  C   UNL     1       5.078   4.305  10.415  1.00  0.00     0.031 C 
ATOM     58  C   UNL     1       6.926   4.894   8.874  1.00  0.00     0.037 A 
BRANCH  45  59
ATOM     59  C   UNL     1       8.454   4.943   2.895  1.00  0.00     0.064 A 
ATOM     60  C   UNL     1       8.347   6.006   1.984  1.00  0.00     0.173 A 
ATOM     61  C   UNL     1       9.600   4.138   2.832  1.00  0.00     0.173 A 
ATOM     62  F   UNL     1       7.266   6.800   1.996  1.00  0.00    -0.203 F 
ATOM     63  C   UNL     1       9.331   6.229   1.025  1.00  0.00     0.198 A 
ATOM     64  C   UNL     1      10.599   4.386   1.894  1.00  0.00     0.198 A 
ATOM     65  F   UNL     1       9.757   3.115   3.686  1.00  0.00    -0.203 F 
ATOM     66  F   UNL     1       9.179   7.213   0.128  1.00  0.00    -0.200 F 
ATOM     67  C   UNL     1      10.459   5.423   0.985  1.00  0.00     0.200 A 
ATOM     68  F   UNL     1      11.695   3.616   1.867  1.00  0.00    -0.200 F 
ATOM     69  F   UNL     1      11.407   5.641   0.064  1.00  0.00    -0.200 F 
ENDBRANCH  45  59
BRANCH  46  70
ATOM     70  C   UNL     1       1.233   2.939   9.410  1.00  0.00     0.064 A 
ATOM     71  C   UNL     1       0.688   3.943  10.224  1.00  0.00     0.173 A 
ATOM     72  C   UNL     1       0.780   1.626   9.607  1.00  0.00     0.173 A 
ATOM     73  F   UNL     1       1.106   5.211  10.092  1.00  0.00    -0.203 F 
ATOM     74  C   UNL     1      -0.239   3.641  11.220  1.00  0.00     0.198 A 
ATOM     75  C   UNL     1      -0.170   1.330  10.583  1.00  0.00     0.198 A 
ATOM     76  F   UNL     1       1.268   0.628   8.855  1.00  0.00    -0.203 F 
ATOM     77  F   UNL     1      -0.692   4.611  12.026  1.00  0.00    -0.200 F 
ATOM     78  C   UNL     1      -0.669   2.335  11.397  1.00  0.00     0.200 A 
ATOM     79  F   UNL     1      -0.590   0.068  10.745  1.00  0.00    -0.200 F 
ATOM     80  F   UNL     1      -1.553   2.043  12.361  1.00  0.00    -0.200 F 
ENDBRANCH  46  70
BRANCH  58  81
ATOM     81  C   UNL     1       7.746   5.321  10.060  1.00  0.00     0.064 A 
ATOM     82  C   UNL     1       8.226   4.400  11.002  1.00  0.00     0.173 A 
ATOM     83  C   UNL     1       8.092   6.671  10.232  1.00  0.00     0.173 A 
ATOM     84  F   UNL     1       7.915   3.099  10.895  1.00  0.00    -0.203 F 
ATOM     85  C   UNL     1       8.997   4.817  12.085  1.00  0.00     0.198 A 
ATOM     86  C   UNL     1       8.893   7.080  11.296  1.00  0.00     0.198 A 
ATOM     87  F   UNL     1       7.667   7.596   9.357  1.00  0.00    -0.203 F 
ATOM     88  F   UNL     1       9.401   3.924  13.001  1.00  0.00    -0.200 F 
ATOM     89  C   UNL     1       9.337   6.154  12.226  1.00  0.00     0.200 A 
ATOM     90  F   UNL     1       9.234   8.370  11.419  1.00  0.00    -0.200 F 
ATOM     91  F   UNL     1      10.088   6.551  13.263  1.00  0.00    -0.200 F 
ENDBRANCH  58  81
ENDBRANCH  32  33
ENDBRANCH  25  27
ENDBRANCH  24  25
ENDBRANCH  23  24
ENDBRANCH  22  23
ENDBRANCH   1  22
TORSDOF 17
