REMARK SMILES Cc1ncc(CC(=O)N2CCc3c(c(C(=O)OCCOCCOC(=O)c4ccc(-c5c6nc(c(-c7c(F)c(F)c(F)c(F)c7F)c7ccc([nH]7)c(-c7c(F)c(F)c(F)c(F)c7F)c7nc(c(-c8c(F)c(F)c(F)c(F)c8F)c8ccc5[nH]8)C=C7)C=C6)cc4)nn3CC3CC3)C2)c(=O)[nH]1
REMARK SMILES IDX 19 1 18 2 17 3 15 4 16 5 14 6 9 7 10 8 95 9 11 10 13 11
REMARK SMILES IDX 12 12 90 13 89 14 7 15 8 16 6 17 5 18 1 19 2 20 3 21 98 22
REMARK SMILES IDX 4 23 96 24 97 26 91 27 92 28 93 29 94 30 20 31 21 32 22 33
REMARK SMILES IDX 23 34 24 35 25 36 26 37 27 38 88 39 28 40 87 41 29 42 30 43
REMARK SMILES IDX 31 44 81 45 32 46 86 47 80 48 82 49 33 50 85 51 79 52 78 53
REMARK SMILES IDX 34 55 66 56 46 57 65 58 47 59 50 60 64 61 83 62 48 63 49 64
REMARK SMILES IDX 63 66 84 67 51 68 35 69 36 70 44 71 37 72 38 73 42 74 45 75
REMARK SMILES IDX 39 76 40 77 43 78 41 79 67 80 68 81 76 82 69 83 70 84 74 85
REMARK SMILES IDX 77 86 71 87 72 88 75 89 73 90 52 91 53 92 61 93 54 94 55 95
REMARK SMILES IDX 59 96 62 97 56 98 57 99 60 100 58 101
REMARK H PARENT 98 25 82 54 50 65
REMARK Flexibility Score: inf
ROOT
ATOM      1  C   UNL     1       5.036   6.207   8.083  1.00  0.00     0.202 C 
ENDROOT
BRANCH   1   2
ATOM      2  C   UNL     1       4.307   7.053   7.037  1.00  0.00     0.261 C 
BRANCH   2   3
ATOM      3  O   UNL     1       3.067   6.471   6.611  1.00  0.00    -0.458 OA
BRANCH   3   4
ATOM      4  C   UNL     1       3.101   5.890   5.373  1.00  0.00     0.359 C 
ATOM      5  O   UNL     1       4.086   5.874   4.644  1.00  0.00    -0.244 OA
BRANCH   4   6
ATOM      6  C   UNL     1       1.885   5.130   5.057  1.00  0.00     0.175 A 
ATOM      7  N   UNL     1       2.325   2.180   2.757  1.00  0.00    -0.338 N 
ATOM      8  C   UNL     1       1.089   1.486   3.167  1.00  0.00     0.126 C 
ATOM      9  C   UNL     1       2.934   3.048   3.779  1.00  0.00     0.159 C 
ATOM     10  C   UNL     1      -0.059   2.478   3.437  1.00  0.00     0.078 C 
ATOM     11  C   UNL     1       1.840   3.905   4.338  1.00  0.00     0.028 A 
ATOM     12  C   UNL     1       0.496   3.617   4.215  1.00  0.00     0.046 A 
ATOM     13  N   UNL     1      -0.182   4.606   4.858  1.00  0.00    -0.268 N 
ATOM     14  N   UNL     1       0.643   5.521   5.419  1.00  0.00    -0.165 NA
BRANCH   7  15
ATOM     15  C   UNL     1       3.026   1.993   1.579  1.00  0.00     0.227 C 
ATOM     16  O   UNL     1       4.260   2.063   1.568  1.00  0.00    -0.275 OA
BRANCH  15  17
ATOM     17  C   UNL     1       2.270   2.039   0.241  1.00  0.00     0.143 C 
BRANCH  17  18
ATOM     18  C   UNL     1       1.060   1.192   0.065  1.00  0.00     0.045 A 
ATOM     19  C   UNL     1      -2.356  -1.292  -0.084  1.00  0.00     0.087 C 
ATOM     20  C   UNL     1      -1.171  -0.373  -0.082  1.00  0.00     0.105 A 
ATOM     21  N   UNL     1      -1.325   0.910  -0.113  1.00  0.00    -0.243 NA
ATOM     22  N   UNL     1       0.051  -0.981  -0.023  1.00  0.00    -0.311 N 
ATOM     23  C   UNL     1      -0.187   1.669  -0.065  1.00  0.00     0.123 A 
ATOM     24  C   UNL     1       1.217  -0.276   0.041  1.00  0.00     0.254 A 
ATOM     25  H   UNL     1       0.091  -1.965  -0.027  1.00  0.00     0.171 HD
ATOM     26  O   UNL     1       2.309  -0.823   0.111  1.00  0.00    -0.269 OA
ENDBRANCH  17  18
ENDBRANCH  15  17
ENDBRANCH   7  15
BRANCH  13  27
ATOM     27  C   UNL     1      -1.626   4.806   4.891  1.00  0.00     0.148 C 
BRANCH  27  28
ATOM     28  C   UNL     1      -2.329   4.246   6.096  1.00  0.00     0.011 C 
ATOM     29  C   UNL     1      -1.643   3.682   7.322  1.00  0.00     0.006 C 
ATOM     30  C   UNL     1      -2.301   5.029   7.388  1.00  0.00     0.006 C 
ENDBRANCH  27  28
ENDBRANCH  13  27
ENDBRANCH   4   6
ENDBRANCH   3   4
ENDBRANCH   2   3
ENDBRANCH   1   2
BRANCH   1  31
ATOM     31  O   UNL     1       5.521   4.921   7.700  1.00  0.00    -0.374 OA
BRANCH  31  32
ATOM     32  C   UNL     1       4.611   3.853   7.465  1.00  0.00     0.202 C 
BRANCH  32  33
ATOM     33  C   UNL     1       3.892   3.236   8.653  1.00  0.00     0.261 C 
BRANCH  33  34
ATOM     34  O   UNL     1       3.134   4.192   9.373  1.00  0.00    -0.460 OA
BRANCH  34  35
ATOM     35  C   UNL     1       3.729   4.621  10.511  1.00  0.00     0.338 C 
ATOM     36  O   UNL     1       4.891   4.490  10.836  1.00  0.00    -0.246 OA
BRANCH  35  37
ATOM     37  C   UNL     1       2.668   5.086  11.411  1.00  0.00     0.060 A 
ATOM     38  C   UNL     1       3.037   5.199  12.750  1.00  0.00     0.016 A 
ATOM     39  C   UNL     1       1.325   5.034  11.002  1.00  0.00     0.016 A 
ATOM     40  C   UNL     1       2.069   4.980  13.697  1.00  0.00     0.010 A 
ATOM     41  C   UNL     1       0.361   4.801  11.950  1.00  0.00     0.010 A 
ATOM     42  C   UNL     1       0.766   4.683  13.275  1.00  0.00    -0.014 A 
BRANCH  42  43
ATOM     43  C   UNL     1      -0.206   4.392  14.301  1.00  0.00     0.031 A 
ATOM     44  C   UNL     1      -0.531   5.598  15.086  1.00  0.00     0.074 A 
ATOM     45  C   UNL     1      -0.766   3.181  14.468  1.00  0.00     0.049 A 
ATOM     46  N   UNL     1      -0.205   5.834  16.312  1.00  0.00    -0.248 NA
ATOM     47  C   UNL     1      -1.080   6.759  14.368  1.00  0.00     0.031 C 
ATOM     48  C   UNL     1      -0.676   2.005  13.602  1.00  0.00     0.029 A 
ATOM     49  N   UNL     1      -1.619   2.774  15.446  1.00  0.00    -0.354 N 
ATOM     50  C   UNL     1      -0.702   7.101  16.584  1.00  0.00     0.074 A 
ATOM     51  C   UNL     1      -1.035   7.694  15.317  1.00  0.00     0.031 C 
ATOM     52  C   UNL     1      -1.620   1.107  13.971  1.00  0.00     0.029 A 
ATOM     53  C   UNL     1      -2.288   1.589  15.169  1.00  0.00     0.049 A 
ATOM     54  H   UNL     1      -1.752   3.279  16.281  1.00  0.00     0.167 HD
ATOM     55  C   UNL     1      -1.091   7.414  17.847  1.00  0.00     0.037 A 
ATOM     56  C   UNL     1      -3.361   1.107  15.847  1.00  0.00     0.037 A 
ATOM     57  C   UNL     1      -0.460   6.546  18.812  1.00  0.00     0.049 A 
ATOM     58  C   UNL     1      -3.374   1.765  17.180  1.00  0.00     0.074 A 
ATOM     59  C   UNL     1       0.849   6.263  19.155  1.00  0.00     0.029 A 
ATOM     60  N   UNL     1      -1.209   5.520  19.334  1.00  0.00    -0.354 N 
ATOM     61  N   UNL     1      -2.485   1.535  18.106  1.00  0.00    -0.248 NA
ATOM     62  C   UNL     1      -4.093   3.024  17.306  1.00  0.00     0.031 C 
ATOM     63  C   UNL     1       0.866   4.866  19.450  1.00  0.00     0.029 A 
ATOM     64  C   UNL     1      -0.439   4.387  19.334  1.00  0.00     0.049 A 
ATOM     65  H   UNL     1      -2.138   5.587  19.652  1.00  0.00     0.167 HD
ATOM     66  C   UNL     1      -2.212   2.783  18.646  1.00  0.00     0.074 A 
ATOM     67  C   UNL     1      -3.292   3.647  18.175  1.00  0.00     0.031 C 
ATOM     68  C   UNL     1      -0.983   3.061  19.173  1.00  0.00     0.037 A 
BRANCH  55  69
ATOM     69  C   UNL     1      -2.372   8.160  18.139  1.00  0.00     0.064 A 
ATOM     70  C   UNL     1      -2.668   8.482  19.477  1.00  0.00     0.173 A 
ATOM     71  C   UNL     1      -3.454   8.272  17.234  1.00  0.00     0.173 A 
ATOM     72  F   UNL     1      -1.720   8.398  20.424  1.00  0.00    -0.203 F 
ATOM     73  C   UNL     1      -3.966   8.784  19.891  1.00  0.00     0.198 A 
ATOM     74  C   UNL     1      -4.735   8.628  17.643  1.00  0.00     0.198 A 
ATOM     75  F   UNL     1      -3.359   7.933  15.945  1.00  0.00    -0.203 F 
ATOM     76  F   UNL     1      -4.227   8.937  21.196  1.00  0.00    -0.200 F 
ATOM     77  C   UNL     1      -5.001   8.846  18.975  1.00  0.00     0.200 A 
ATOM     78  F   UNL     1      -5.726   8.662  16.740  1.00  0.00    -0.200 F 
ATOM     79  F   UNL     1      -6.259   9.062  19.379  1.00  0.00    -0.200 F 
ENDBRANCH  55  69
BRANCH  56  80
ATOM     80  C   UNL     1      -4.550   0.401  15.308  1.00  0.00     0.064 A 
ATOM     81  C   UNL     1      -5.462  -0.240  16.165  1.00  0.00     0.173 A 
ATOM     82  C   UNL     1      -4.972   0.587  13.977  1.00  0.00     0.173 A 
ATOM     83  F   UNL     1      -5.162  -0.415  17.460  1.00  0.00    -0.203 F 
ATOM     84  C   UNL     1      -6.728  -0.642  15.724  1.00  0.00     0.198 A 
ATOM     85  C   UNL     1      -6.232   0.179  13.537  1.00  0.00     0.198 A 
ATOM     86  F   UNL     1      -4.212   1.257  13.100  1.00  0.00    -0.203 F 
ATOM     87  F   UNL     1      -7.595  -1.190  16.588  1.00  0.00    -0.200 F 
ATOM     88  C   UNL     1      -7.116  -0.422  14.413  1.00  0.00     0.200 A 
ATOM     89  F   UNL     1      -6.609   0.433  12.275  1.00  0.00    -0.200 F 
ATOM     90  F   UNL     1      -8.350  -0.749  14.006  1.00  0.00    -0.200 F 
ENDBRANCH  56  80
BRANCH  68  91
ATOM     91  C   UNL     1      -0.053   1.903  19.406  1.00  0.00     0.064 A 
ATOM     92  C   UNL     1       0.445   1.068  18.389  1.00  0.00     0.173 A 
ATOM     93  C   UNL     1       0.437   1.699  20.702  1.00  0.00     0.173 A 
ATOM     94  F   UNL     1       0.107   1.262  17.108  1.00  0.00    -0.203 F 
ATOM     95  C   UNL     1       1.345   0.041  18.673  1.00  0.00     0.198 A 
ATOM     96  C   UNL     1       1.365   0.700  20.977  1.00  0.00     0.198 A 
ATOM     97  F   UNL     1       0.040   2.501  21.703  1.00  0.00    -0.203 F 
ATOM     98  F   UNL     1       1.786  -0.759  17.691  1.00  0.00    -0.200 F 
ATOM     99  C   UNL     1       1.807  -0.139  19.966  1.00  0.00     0.200 A 
ATOM    100  F   UNL     1       1.846   0.563  22.220  1.00  0.00    -0.200 F 
ATOM    101  F   UNL     1       2.697  -1.104  20.236  1.00  0.00    -0.200 F 
ENDBRANCH  68  91
ENDBRANCH  42  43
ENDBRANCH  35  37
ENDBRANCH  34  35
ENDBRANCH  33  34
ENDBRANCH  32  33
ENDBRANCH  31  32
ENDBRANCH   1  31
TORSDOF 19
