REMARK SMILES Cc1nn([C@H]2CCS(=O)(=O)C2)c(C)c1[C@@H]([NH3+])C(=O)OCCOCCOC(=O)c1ccc(-c2c3nc(c(-c4c(F)c(F)c(F)c(F)c4F)c4ccc([nH]4)c(-c4c(F)c(F)c(F)c(F)c4F)c4nc(c(-c5c(F)c(F)c(F)c(F)c5F)c5ccc2[nH]5)C=C4)C=C3)cc1
REMARK SMILES IDX 22 1 21 2 20 3 19 4 17 5 18 6 15 7 14 8 1 9 2 10 3 11 4 12
REMARK SMILES IDX 12 13 13 14 5 15 6 16 11 17 7 18 8 19 9 20 10 21 16 22 23 26
REMARK SMILES IDX 24 27 25 28 26 29 27 30 28 31 29 32 90 33 30 34 89 35 31 36
REMARK SMILES IDX 32 37 33 38 83 39 34 40 88 41 82 42 84 43 35 44 87 45 81 46
REMARK SMILES IDX 80 47 36 49 68 50 48 51 67 52 49 53 52 54 66 55 85 56 50 57
REMARK SMILES IDX 51 58 65 60 86 61 53 62 37 63 38 64 46 65 39 66 40 67 44 68
REMARK SMILES IDX 47 69 41 70 42 71 45 72 43 73 69 74 70 75 78 76 71 77 72 78
REMARK SMILES IDX 76 79 79 80 73 81 74 82 77 83 75 84 54 85 55 86 63 87 56 88
REMARK SMILES IDX 57 89 61 90 64 91 58 92 59 93 62 94 60 95
REMARK H PARENT 16 23 16 24 16 25 84 48 52 59
REMARK Flexibility Score: inf
ROOT
ATOM      1  O   UNL     1      -5.318   6.180   8.026  1.00  0.00    -0.374 OA
ENDROOT
BRANCH   1   2
ATOM      2  C   UNL     1      -4.047   6.834   8.042  1.00  0.00     0.202 C 
BRANCH   2   3
ATOM      3  C   UNL     1      -2.921   6.028   8.686  1.00  0.00     0.261 C 
BRANCH   3   4
ATOM      4  O   UNL     1      -2.611   4.884   7.871  1.00  0.00    -0.459 OA
BRANCH   4   5
ATOM      5  C   UNL     1      -2.748   3.662   8.449  1.00  0.00     0.369 C 
ATOM      6  O   UNL     1      -3.007   3.483   9.638  1.00  0.00    -0.245 OA
BRANCH   5   7
ATOM      7  C   UNL     1      -2.560   2.477   7.478  1.00  0.00     0.326 C 
BRANCH   7   8
ATOM      8  C   UNL     1      -2.388   2.785   6.014  1.00  0.00     0.065 A 
ATOM      9  C   UNL     1      -4.373   1.415   4.993  1.00  0.00     0.069 C 
ATOM     10  C   UNL     1      -3.182   2.302   4.936  1.00  0.00     0.069 A 
ATOM     11  N   UNL     1      -2.703   2.691   3.752  1.00  0.00    -0.177 NA
ATOM     12  N   UNL     1      -1.571   3.363   4.036  1.00  0.00    -0.265 N 
ATOM     13  C   UNL     1      -1.379   3.514   5.394  1.00  0.00     0.046 A 
ATOM     14  C   UNL     1      -0.274   4.264   6.053  1.00  0.00     0.067 C 
BRANCH  12  15
ATOM     15  C   UNL     1      -0.686   3.681   2.915  1.00  0.00     0.123 C 
ATOM     16  C   UNL     1      -1.436   4.104   1.632  1.00  0.00     0.044 C 
ATOM     17  C   UNL     1       0.305   4.785   3.220  1.00  0.00     0.164 C 
ATOM     18  C   UNL     1      -0.439   4.761   0.679  1.00  0.00     0.139 C 
ATOM     19  S   UNL     1       0.896   5.380   1.686  1.00  0.00     0.152 S 
ATOM     20  O   UNL     1       2.105   4.665   1.345  1.00  0.00    -0.229 OA
ATOM     21  O   UNL     1       0.857   6.822   1.773  1.00  0.00    -0.229 OA
ENDBRANCH  12  15
ENDBRANCH   7   8
BRANCH   7  22
ATOM     22  N   UNL     1      -1.387   1.686   7.900  1.00  0.00    -0.342 N 
ATOM     23  H   UNL     1      -0.543   2.252   7.805  1.00  0.00     0.345 HD
ATOM     24  H   UNL     1      -1.307   0.856   7.313  1.00  0.00     0.345 HD
ATOM     25  H   UNL     1      -1.499   1.405   8.874  1.00  0.00     0.345 HD
ENDBRANCH   7  22
ENDBRANCH   5   7
ENDBRANCH   4   5
ENDBRANCH   3   4
ENDBRANCH   2   3
ENDBRANCH   1   2
BRANCH   1  26
ATOM     26  C   UNL     1      -5.519   5.150   7.063  1.00  0.00     0.202 C 
BRANCH  26  27
ATOM     27  C   UNL     1      -5.800   5.606   5.639  1.00  0.00     0.261 C 
BRANCH  27  28
ATOM     28  O   UNL     1      -4.710   6.324   5.067  1.00  0.00    -0.460 OA
BRANCH  28  29
ATOM     29  C   UNL     1      -4.891   7.668   4.943  1.00  0.00     0.338 C 
ATOM     30  O   UNL     1      -5.691   8.361   5.519  1.00  0.00    -0.246 OA
BRANCH  29  31
ATOM     31  C   UNL     1      -4.088   8.093   3.778  1.00  0.00     0.060 A 
ATOM     32  C   UNL     1      -4.492   9.240   3.089  1.00  0.00     0.016 A 
ATOM     33  C   UNL     1      -3.127   7.239   3.240  1.00  0.00     0.016 A 
ATOM     34  C   UNL     1      -4.112   9.399   1.762  1.00  0.00     0.010 A 
ATOM     35  C   UNL     1      -2.761   7.413   1.925  1.00  0.00     0.010 A 
ATOM     36  C   UNL     1      -3.338   8.413   1.153  1.00  0.00    -0.014 A 
BRANCH  36  37
ATOM     37  C   UNL     1      -2.935   8.518  -0.243  1.00  0.00     0.031 A 
ATOM     38  C   UNL     1      -1.755   9.394  -0.395  1.00  0.00     0.074 A 
ATOM     39  C   UNL     1      -3.371   7.741  -1.259  1.00  0.00     0.049 A 
ATOM     40  N   UNL     1      -1.729  10.676  -0.550  1.00  0.00    -0.248 NA
ATOM     41  C   UNL     1      -0.447   8.817  -0.082  1.00  0.00     0.031 C 
ATOM     42  C   UNL     1      -4.256   6.575  -1.202  1.00  0.00     0.029 A 
ATOM     43  N   UNL     1      -3.051   7.815  -2.589  1.00  0.00    -0.354 N 
ATOM     44  C   UNL     1      -0.371  10.978  -0.632  1.00  0.00     0.074 A 
ATOM     45  C   UNL     1       0.311   9.908   0.031  1.00  0.00     0.031 C 
ATOM     46  C   UNL     1      -4.276   5.960  -2.411  1.00  0.00     0.029 A 
ATOM     47  C   UNL     1      -3.507   6.748  -3.363  1.00  0.00     0.049 A 
ATOM     48  H   UNL     1      -2.538   8.564  -2.969  1.00  0.00     0.167 HD
ATOM     49  C   UNL     1       0.092  11.768  -1.640  1.00  0.00     0.037 A 
ATOM     50  C   UNL     1      -3.260   6.539  -4.684  1.00  0.00     0.037 A 
ATOM     51  C   UNL     1      -1.017  12.402  -2.315  1.00  0.00     0.049 A 
ATOM     52  C   UNL     1      -2.869   7.844  -5.267  1.00  0.00     0.074 A 
ATOM     53  C   UNL     1      -2.033  13.269  -1.973  1.00  0.00     0.029 A 
ATOM     54  N   UNL     1      -1.406  11.755  -3.457  1.00  0.00    -0.354 N 
ATOM     55  N   UNL     1      -3.695   8.835  -5.440  1.00  0.00    -0.248 NA
ATOM     56  C   UNL     1      -1.455   8.184  -5.376  1.00  0.00     0.031 C 
ATOM     57  C   UNL     1      -3.132  12.938  -2.821  1.00  0.00     0.029 A 
ATOM     58  C   UNL     1      -2.738  11.929  -3.699  1.00  0.00     0.049 A 
ATOM     59  H   UNL     1      -0.801  11.230  -4.031  1.00  0.00     0.167 HD
ATOM     60  C   UNL     1      -2.928   9.958  -5.204  1.00  0.00     0.074 A 
ATOM     61  C   UNL     1      -1.550   9.516  -5.372  1.00  0.00     0.031 C 
ATOM     62  C   UNL     1      -3.473  11.031  -4.561  1.00  0.00     0.037 A 
BRANCH  49  63
ATOM     63  C   UNL     1       1.412  11.562  -2.379  1.00  0.00     0.064 A 
ATOM     64  C   UNL     1       1.792  12.540  -3.321  1.00  0.00     0.173 A 
ATOM     65  C   UNL     1       2.131  10.346  -2.459  1.00  0.00     0.173 A 
ATOM     66  F   UNL     1       1.165  13.726  -3.361  1.00  0.00    -0.203 F 
ATOM     67  C   UNL     1       2.745  12.287  -4.313  1.00  0.00     0.198 A 
ATOM     68  C   UNL     1       3.121  10.118  -3.414  1.00  0.00     0.198 A 
ATOM     69  F   UNL     1       1.842   9.275  -1.716  1.00  0.00    -0.203 F 
ATOM     70  F   UNL     1       2.965  13.197  -5.271  1.00  0.00    -0.200 F 
ATOM     71  C   UNL     1       3.404  11.074  -4.363  1.00  0.00     0.200 A 
ATOM     72  F   UNL     1       3.724   8.921  -3.462  1.00  0.00    -0.200 F 
ATOM     73  F   UNL     1       4.265  10.802  -5.351  1.00  0.00    -0.200 F 
ENDBRANCH  49  63
BRANCH  50  74
ATOM     74  C   UNL     1      -3.191   5.302  -5.505  1.00  0.00     0.064 A 
ATOM     75  C   UNL     1      -3.196   5.362  -6.915  1.00  0.00     0.173 A 
ATOM     76  C   UNL     1      -2.804   4.075  -4.941  1.00  0.00     0.173 A 
ATOM     77  F   UNL     1      -3.526   6.500  -7.545  1.00  0.00    -0.203 F 
ATOM     78  C   UNL     1      -2.780   4.284  -7.704  1.00  0.00     0.198 A 
ATOM     79  C   UNL     1      -2.396   2.996  -5.731  1.00  0.00     0.198 A 
ATOM     80  F   UNL     1      -2.714   3.934  -3.611  1.00  0.00    -0.203 F 
ATOM     81  F   UNL     1      -2.718   4.415  -9.037  1.00  0.00    -0.200 F 
ATOM     82  C   UNL     1      -2.364   3.107  -7.110  1.00  0.00     0.200 A 
ATOM     83  F   UNL     1      -1.963   1.871  -5.144  1.00  0.00    -0.200 F 
ATOM     84  F   UNL     1      -1.890   2.101  -7.858  1.00  0.00    -0.200 F 
ENDBRANCH  50  74
BRANCH  62  85
ATOM     85  C   UNL     1      -4.962  11.196  -4.645  1.00  0.00     0.064 A 
ATOM     86  C   UNL     1      -5.907  10.284  -4.148  1.00  0.00     0.173 A 
ATOM     87  C   UNL     1      -5.445  12.381  -5.220  1.00  0.00     0.173 A 
ATOM     88  F   UNL     1      -5.528   9.172  -3.503  1.00  0.00    -0.203 F 
ATOM     89  C   UNL     1      -7.274  10.525  -4.280  1.00  0.00     0.198 A 
ATOM     90  C   UNL     1      -6.808  12.640  -5.306  1.00  0.00     0.198 A 
ATOM     91  F   UNL     1      -4.587  13.307  -5.676  1.00  0.00    -0.203 F 
ATOM     92  F   UNL     1      -8.161   9.623  -3.834  1.00  0.00    -0.200 F 
ATOM     93  C   UNL     1      -7.722  11.705  -4.852  1.00  0.00     0.200 A 
ATOM     94  F   UNL     1      -7.232  13.804  -5.817  1.00  0.00    -0.200 F 
ATOM     95  F   UNL     1      -9.036  11.950  -4.950  1.00  0.00    -0.200 F 
ENDBRANCH  62  85
ENDBRANCH  36  37
ENDBRANCH  29  31
ENDBRANCH  28  29
ENDBRANCH  27  28
ENDBRANCH  26  27
ENDBRANCH   1  26
TORSDOF 17
