REMARK SMILES O=C(Cn1ccc(C(=O)NCCC[NH+]2CCOCC2)n1)OCCOCCOC(=O)c1ccc(-c2c3nc(c(-c4c(F)c(F)c(F)c(F)c4F)c4ccc([nH]4)c(-c4c(F)c(F)c(F)c(F)c4F)c4nc(c(-c5c(F)c(F)c(F)c(F)c5F)c5ccc2[nH]5)C=C4)C=C3)cc1
REMARK SMILES IDX 22 1 21 2 2 3 1 4 3 5 4 6 5 7 20 8 6 9 7 10 8 11 9 12 10 13
REMARK SMILES IDX 11 15 12 16 13 17 14 18 15 19 19 20 16 22 18 23 17 24 23 25
REMARK SMILES IDX 24 26 25 27 26 28 27 29 28 30 29 31 30 32 31 33 92 34 32 35
REMARK SMILES IDX 91 36 33 37 34 38 35 39 85 40 36 41 90 42 84 43 86 44 37 45
REMARK SMILES IDX 89 46 83 47 82 48 38 50 70 51 50 52 69 53 51 54 54 55 68 56
REMARK SMILES IDX 87 57 52 58 53 59 67 61 88 62 55 63 39 64 40 65 48 66 41 67
REMARK SMILES IDX 42 68 46 69 49 70 43 71 44 72 47 73 45 74 71 75 72 76 80 77
REMARK SMILES IDX 73 78 74 79 78 80 81 81 75 82 76 83 79 84 77 85 56 86 57 87
REMARK SMILES IDX 65 88 58 89 59 90 63 91 66 92 60 93 61 94 64 95 62 96
REMARK H PARENT 10 14 14 21 86 49 54 60
REMARK Flexibility Score: inf
ROOT
ATOM      1  C   UNL     1       4.364  -0.767  -0.426  1.00  0.00     0.261 C 
ENDROOT
BRANCH   1   2
ATOM      2  O   UNL     1       2.937  -0.858  -0.293  1.00  0.00    -0.462 OA
BRANCH   2   3
ATOM      3  C   UNL     1       2.208  -0.725   0.842  1.00  0.00     0.327 C 
ATOM      4  O   UNL     1       0.982  -0.832   0.747  1.00  0.00    -0.250 OA
BRANCH   3   5
ATOM      5  C   UNL     1       2.834  -0.304   2.156  1.00  0.00     0.266 C 
BRANCH   5   6
ATOM      6  N   UNL     1       3.866  -1.191   2.625  1.00  0.00    -0.261 N 
ATOM      7  C   UNL     1       5.187  -0.935   2.844  1.00  0.00     0.110 A 
ATOM      8  N   UNL     1       3.554  -2.473   2.772  1.00  0.00    -0.167 NA
ATOM      9  C   UNL     1       5.786  -2.179   2.884  1.00  0.00     0.056 A 
ATOM     10  C   UNL     1       4.728  -3.114   2.696  1.00  0.00     0.150 A 
BRANCH  10  11
ATOM     11  C   UNL     1       4.815  -4.559   2.446  1.00  0.00     0.271 C 
ATOM     12  O   UNL     1       5.803  -5.214   2.776  1.00  0.00    -0.267 OA
ATOM     13  N   UNL     1       3.792  -5.197   1.768  1.00  0.00    -0.350 N 
ATOM     14  H   UNL     1       3.890  -6.173   1.693  1.00  0.00     0.163 HD
BRANCH  13  15
ATOM     15  C   UNL     1       2.590  -4.651   1.145  1.00  0.00     0.122 C 
BRANCH  15  16
ATOM     16  C   UNL     1       2.543  -4.904  -0.357  1.00  0.00     0.083 C 
BRANCH  16  17
ATOM     17  C   UNL     1       1.915  -6.244  -0.738  1.00  0.00     0.264 C 
BRANCH  17  18
ATOM     18  N   UNL     1       0.563  -6.503  -0.213  1.00  0.00    -0.331 N 
ATOM     19  C   UNL     1      -0.034  -7.687  -0.875  1.00  0.00     0.291 C 
ATOM     20  C   UNL     1      -0.399  -5.387  -0.352  1.00  0.00     0.291 C 
ATOM     21  H   UNL     1       0.714  -6.648   0.785  1.00  0.00     0.348 HD
ATOM     22  C   UNL     1      -0.518  -7.412  -2.314  1.00  0.00     0.221 C 
ATOM     23  C   UNL     1      -0.828  -5.126  -1.801  1.00  0.00     0.221 C 
ATOM     24  O   UNL     1      -1.418  -6.298  -2.376  1.00  0.00    -0.370 OA
ENDBRANCH  17  18
ENDBRANCH  16  17
ENDBRANCH  15  16
ENDBRANCH  13  15
ENDBRANCH  10  11
ENDBRANCH   5   6
ENDBRANCH   3   5
ENDBRANCH   2   3
ENDBRANCH   1   2
BRANCH   1  25
ATOM     25  C   UNL     1       4.888   0.655  -0.591  1.00  0.00     0.202 C 
BRANCH  25  26
ATOM     26  O   UNL     1       4.471   1.608   0.386  1.00  0.00    -0.374 OA
BRANCH  26  27
ATOM     27  C   UNL     1       3.199   2.243   0.211  1.00  0.00     0.202 C 
BRANCH  27  28
ATOM     28  C   UNL     1       3.116   3.375  -0.782  1.00  0.00     0.261 C 
BRANCH  28  29
ATOM     29  O   UNL     1       3.283   2.858  -2.084  1.00  0.00    -0.460 OA
BRANCH  29  30
ATOM     30  C   UNL     1       4.516   3.020  -2.608  1.00  0.00     0.338 C 
ATOM     31  O   UNL     1       5.542   3.316  -2.031  1.00  0.00    -0.246 OA
BRANCH  30  32
ATOM     32  C   UNL     1       4.344   2.973  -4.059  1.00  0.00     0.060 A 
ATOM     33  C   UNL     1       5.437   3.412  -4.801  1.00  0.00     0.016 A 
ATOM     34  C   UNL     1       3.041   2.912  -4.581  1.00  0.00     0.016 A 
ATOM     35  C   UNL     1       5.174   4.053  -5.984  1.00  0.00     0.010 A 
ATOM     36  C   UNL     1       2.775   3.596  -5.731  1.00  0.00     0.010 A 
ATOM     37  C   UNL     1       3.838   4.223  -6.369  1.00  0.00    -0.014 A 
BRANCH  37  38
ATOM     38  C   UNL     1       3.575   4.906  -7.607  1.00  0.00     0.031 A 
ATOM     39  C   UNL     1       3.888   4.025  -8.748  1.00  0.00     0.074 A 
ATOM     40  C   UNL     1       3.035   6.133  -7.668  1.00  0.00     0.049 A 
ATOM     41  N   UNL     1       4.933   4.087  -9.499  1.00  0.00    -0.248 NA
ATOM     42  C   UNL     1       3.113   2.780  -8.892  1.00  0.00     0.031 C 
ATOM     43  C   UNL     1       2.455   6.937  -6.592  1.00  0.00     0.029 A 
ATOM     44  N   UNL     1       2.826   6.898  -8.769  1.00  0.00    -0.354 N 
ATOM     45  C   UNL     1       4.814   3.015 -10.373  1.00  0.00     0.074 A 
ATOM     46  C   UNL     1       3.853   2.124  -9.787  1.00  0.00     0.031 C 
ATOM     47  C   UNL     1       1.767   7.973  -7.131  1.00  0.00     0.029 A 
ATOM     48  C   UNL     1       1.974   7.978  -8.569  1.00  0.00     0.049 A 
ATOM     49  H   UNL     1       3.244   6.704  -9.639  1.00  0.00     0.167 HD
ATOM     50  C   UNL     1       5.261   3.137 -11.650  1.00  0.00     0.037 A 
ATOM     51  C   UNL     1       1.444   8.743  -9.557  1.00  0.00     0.037 A 
ATOM     52  C   UNL     1       6.196   4.235 -11.749  1.00  0.00     0.049 A 
ATOM     53  C   UNL     1       2.287   8.538 -10.768  1.00  0.00     0.074 A 
ATOM     54  C   UNL     1       7.416   4.526 -11.169  1.00  0.00     0.029 A 
ATOM     55  N   UNL     1       5.710   5.428 -12.226  1.00  0.00    -0.354 N 
ATOM     56  N   UNL     1       3.519   8.954 -10.867  1.00  0.00    -0.248 NA
ATOM     57  C   UNL     1       1.921   7.454 -11.668  1.00  0.00     0.031 C 
ATOM     58  C   UNL     1       7.396   5.934 -10.938  1.00  0.00     0.029 A 
ATOM     59  C   UNL     1       6.207   6.447 -11.458  1.00  0.00     0.049 A 
ATOM     60  H   UNL     1       5.104   5.534 -12.995  1.00  0.00     0.167 HD
ATOM     61  C   UNL     1       4.191   7.917 -11.498  1.00  0.00     0.074 A 
ATOM     62  C   UNL     1       3.141   7.059 -12.042  1.00  0.00     0.031 C 
ATOM     63  C   UNL     1       5.518   7.700 -11.254  1.00  0.00     0.037 A 
BRANCH  50  64
ATOM     64  C   UNL     1       4.513   2.598 -12.851  1.00  0.00     0.064 A 
ATOM     65  C   UNL     1       5.071   2.809 -14.127  1.00  0.00     0.173 A 
ATOM     66  C   UNL     1       3.164   2.172 -12.850  1.00  0.00     0.173 A 
ATOM     67  F   UNL     1       6.344   3.213 -14.258  1.00  0.00    -0.203 F 
ATOM     68  C   UNL     1       4.309   2.715 -15.293  1.00  0.00     0.198 A 
ATOM     69  C   UNL     1       2.421   2.031 -14.019  1.00  0.00     0.198 A 
ATOM     70  F   UNL     1       2.461   1.971 -11.732  1.00  0.00    -0.203 F 
ATOM     71  F   UNL     1       4.849   3.066 -16.467  1.00  0.00    -0.200 F 
ATOM     72  C   UNL     1       2.981   2.339 -15.237  1.00  0.00     0.200 A 
ATOM     73  F   UNL     1       1.130   1.677 -13.937  1.00  0.00    -0.200 F 
ATOM     74  F   UNL     1       2.229   2.315 -16.345  1.00  0.00    -0.200 F 
ENDBRANCH  50  64
BRANCH  51  75
ATOM     75  C   UNL     1       0.096   9.357  -9.640  1.00  0.00     0.064 A 
ATOM     76  C   UNL     1      -0.197  10.319 -10.622  1.00  0.00     0.173 A 
ATOM     77  C   UNL     1      -1.006   8.800  -8.964  1.00  0.00     0.173 A 
ATOM     78  F   UNL     1       0.791  10.866 -11.345  1.00  0.00    -0.203 F 
ATOM     79  C   UNL     1      -1.514  10.677 -10.932  1.00  0.00     0.198 A 
ATOM     80  C   UNL     1      -2.320   9.162  -9.270  1.00  0.00     0.198 A 
ATOM     81  F   UNL     1      -0.838   7.822  -8.063  1.00  0.00    -0.203 F 
ATOM     82  F   UNL     1      -1.755  11.547 -11.923  1.00  0.00    -0.200 F 
ATOM     83  C   UNL     1      -2.574  10.088 -10.264  1.00  0.00     0.200 A 
ATOM     84  F   UNL     1      -3.338   8.556  -8.644  1.00  0.00    -0.200 F 
ATOM     85  F   UNL     1      -3.837  10.379 -10.607  1.00  0.00    -0.200 F 
ENDBRANCH  51  75
BRANCH  63  86
ATOM     86  C   UNL     1       6.280   8.782 -10.538  1.00  0.00     0.064 A 
ATOM     87  C   UNL     1       6.019   9.206  -9.223  1.00  0.00     0.173 A 
ATOM     88  C   UNL     1       7.413   9.310 -11.172  1.00  0.00     0.173 A 
ATOM     89  F   UNL     1       5.013   8.678  -8.513  1.00  0.00    -0.203 F 
ATOM     90  C   UNL     1       6.835  10.146  -8.593  1.00  0.00     0.198 A 
ATOM     91  C   UNL     1       8.248  10.217 -10.527  1.00  0.00     0.198 A 
ATOM     92  F   UNL     1       7.740   8.903 -12.409  1.00  0.00    -0.203 F 
ATOM     93  F   UNL     1       6.559  10.546  -7.342  1.00  0.00    -0.200 F 
ATOM     94  C   UNL     1       7.953  10.643  -9.242  1.00  0.00     0.200 A 
ATOM     95  F   UNL     1       9.355  10.654 -11.142  1.00  0.00    -0.200 F 
ATOM     96  F   UNL     1       8.762  11.513  -8.622  1.00  0.00    -0.200 F 
ENDBRANCH  63  86
ENDBRANCH  37  38
ENDBRANCH  30  32
ENDBRANCH  29  30
ENDBRANCH  28  29
ENDBRANCH  27  28
ENDBRANCH  26  27
ENDBRANCH  25  26
ENDBRANCH   1  25
TORSDOF 20
