REMARK SMILES C[C@](Nc1ccc(C(N)=O)nn1)(C(=O)OCCOCCOC(=O)c1ccc(-c2c3nc(c(-c4c(F)c(F)c(F)c(F)c4F)c4ccc([nH]4)c(-c4c(F)c(F)c(F)c(F)c4F)c4nc(c(-c5c(F)c(F)c(F)c(F)c5F)c5ccc2[nH]5)C=C4)C=C3)cc1)c1ccccc1
REMARK SMILES IDX 17 1 16 2 15 3 13 4 14 5 2 6 1 7 87 8 88 9 92 10 89 11 91 12
REMARK SMILES IDX 90 13 3 14 4 16 5 17 12 18 6 19 11 20 7 21 8 22 9 23 10 24
REMARK SMILES IDX 18 27 19 28 20 29 21 30 22 31 23 32 24 33 25 34 86 35 26 36
REMARK SMILES IDX 85 37 27 38 28 39 29 40 79 41 30 42 84 43 78 44 80 45 31 46
REMARK SMILES IDX 83 47 77 48 76 49 32 51 64 52 44 53 63 54 45 55 48 56 62 57
REMARK SMILES IDX 81 58 46 59 47 60 61 62 82 63 49 64 33 65 34 66 42 67 35 68
REMARK SMILES IDX 36 69 40 70 43 71 37 72 38 73 41 74 39 75 65 76 66 77 74 78
REMARK SMILES IDX 67 79 68 80 72 81 75 82 69 83 70 84 73 85 71 86 50 87 51 88
REMARK SMILES IDX 59 89 52 90 53 91 57 92 60 93 54 94 55 95 58 96 56 97
REMARK H PARENT 3 15 9 25 9 26 80 50 48 61
REMARK Flexibility Score: inf
ROOT
ATOM      1  C   UNL     1      -3.672  -0.320  -0.589  1.00  0.00     0.202 C 
ENDROOT
BRANCH   1   2
ATOM      2  C   UNL     1      -2.876  -1.482  -1.182  1.00  0.00     0.261 C 
BRANCH   2   3
ATOM      3  O   UNL     1      -1.473  -1.341  -0.892  1.00  0.00    -0.461 OA
BRANCH   3   4
ATOM      4  C   UNL     1      -0.632  -1.418  -1.969  1.00  0.00     0.336 C 
ATOM      5  O   UNL     1      -1.003  -1.678  -3.109  1.00  0.00    -0.249 OA
BRANCH   4   6
ATOM      6  C   UNL     1       0.869  -1.167  -1.563  1.00  0.00     0.160 C 
ATOM      7  C   UNL     1       1.503  -2.564  -1.710  1.00  0.00     0.053 C 
BRANCH   6   8
ATOM      8  C   UNL     1       1.434  -0.114  -2.546  1.00  0.00    -0.012 A 
ATOM      9  C   UNL     1       2.038  -0.488  -3.762  1.00  0.00     0.007 A 
ATOM     10  C   UNL     1       1.240   1.266  -2.326  1.00  0.00     0.007 A 
ATOM     11  C   UNL     1       2.404   0.465  -4.718  1.00  0.00     0.000 A 
ATOM     12  C   UNL     1       1.593   2.218  -3.289  1.00  0.00     0.000 A 
ATOM     13  C   UNL     1       2.169   1.815  -4.488  1.00  0.00     0.000 A 
ENDBRANCH   6   8
BRANCH   6  14
ATOM     14  N   UNL     1       0.948  -0.629  -0.175  1.00  0.00    -0.350 N 
ATOM     15  H   UNL     1       0.535   0.255  -0.045  1.00  0.00     0.163 HD
BRANCH  14  16
ATOM     16  C   UNL     1       1.510  -1.179   0.947  1.00  0.00     0.149 A 
ATOM     17  C   UNL     1       2.736  -1.821   0.987  1.00  0.00     0.051 A 
ATOM     18  N   UNL     1       0.789  -1.059   2.086  1.00  0.00    -0.132 NA
ATOM     19  C   UNL     1       3.161  -2.441   2.162  1.00  0.00     0.040 A 
ATOM     20  N   UNL     1       1.204  -1.640   3.265  1.00  0.00    -0.143 NA
ATOM     21  C   UNL     1       2.358  -2.340   3.281  1.00  0.00     0.150 A 
BRANCH  21  22
ATOM     22  C   UNL     1       2.731  -3.016   4.554  1.00  0.00     0.269 C 
ATOM     23  N   UNL     1       1.950  -2.738   5.643  1.00  0.00    -0.364 N 
ATOM     24  O   UNL     1       3.683  -3.783   4.628  1.00  0.00    -0.268 OA
ATOM     25  H   UNL     1       1.190  -2.118   5.559  1.00  0.00     0.160 HD
ATOM     26  H   UNL     1       2.148  -3.158   6.511  1.00  0.00     0.160 HD
ENDBRANCH  21  22
ENDBRANCH  14  16
ENDBRANCH   6  14
ENDBRANCH   4   6
ENDBRANCH   3   4
ENDBRANCH   2   3
ENDBRANCH   1   2
BRANCH   1  27
ATOM     27  O   UNL     1      -3.489   0.952  -1.214  1.00  0.00    -0.374 OA
BRANCH  27  28
ATOM     28  C   UNL     1      -2.246   1.616  -1.000  1.00  0.00     0.202 C 
BRANCH  28  29
ATOM     29  C   UNL     1      -2.092   2.365   0.329  1.00  0.00     0.261 C 
BRANCH  29  30
ATOM     30  O   UNL     1      -2.298   1.508   1.464  1.00  0.00    -0.460 OA
BRANCH  30  31
ATOM     31  C   UNL     1      -3.456   1.740   2.124  1.00  0.00     0.338 C 
ATOM     32  O   UNL     1      -4.249   2.653   1.928  1.00  0.00    -0.246 OA
BRANCH  31  33
ATOM     33  C   UNL     1      -3.769   0.639   3.052  1.00  0.00     0.060 A 
ATOM     34  C   UNL     1      -5.063   0.107   2.983  1.00  0.00     0.016 A 
ATOM     35  C   UNL     1      -2.876   0.209   4.037  1.00  0.00     0.016 A 
ATOM     36  C   UNL     1      -5.502  -0.787   3.953  1.00  0.00     0.010 A 
ATOM     37  C   UNL     1      -3.322  -0.685   5.019  1.00  0.00     0.010 A 
ATOM     38  C   UNL     1      -4.654  -1.140   5.011  1.00  0.00    -0.014 A 
BRANCH  38  39
ATOM     39  C   UNL     1      -5.252  -1.808   6.193  1.00  0.00     0.031 A 
ATOM     40  C   UNL     1      -5.682  -0.959   7.359  1.00  0.00     0.074 A 
ATOM     41  C   UNL     1      -5.504  -3.128   6.189  1.00  0.00     0.049 A 
ATOM     42  N   UNL     1      -6.316  -1.303   8.452  1.00  0.00    -0.248 NA
ATOM     43  C   UNL     1      -5.357   0.475   7.281  1.00  0.00     0.031 C 
ATOM     44  C   UNL     1      -5.171  -4.046   5.103  1.00  0.00     0.029 A 
ATOM     45  N   UNL     1      -6.117  -3.919   7.128  1.00  0.00    -0.354 N 
ATOM     46  C   UNL     1      -6.466  -0.133   9.185  1.00  0.00     0.074 A 
ATOM     47  C   UNL     1      -5.828   0.925   8.434  1.00  0.00     0.031 C 
ATOM     48  C   UNL     1      -5.594  -5.279   5.433  1.00  0.00     0.029 A 
ATOM     49  C   UNL     1      -6.212  -5.237   6.757  1.00  0.00     0.049 A 
ATOM     50  H   UNL     1      -6.455  -3.574   7.985  1.00  0.00     0.167 HD
ATOM     51  C   UNL     1      -7.092   0.047  10.373  1.00  0.00     0.037 A 
ATOM     52  C   UNL     1      -6.743  -6.286   7.415  1.00  0.00     0.037 A 
ATOM     53  C   UNL     1      -7.736  -1.002  11.117  1.00  0.00     0.049 A 
ATOM     54  C   UNL     1      -7.390  -6.067   8.758  1.00  0.00     0.074 A 
ATOM     55  C   UNL     1      -8.416  -0.917  12.319  1.00  0.00     0.029 A 
ATOM     56  N   UNL     1      -7.773  -2.333  10.729  1.00  0.00    -0.354 N 
ATOM     57  N   UNL     1      -7.562  -4.952   9.425  1.00  0.00    -0.248 NA
ATOM     58  C   UNL     1      -7.928  -7.257   9.434  1.00  0.00     0.031 C 
ATOM     59  C   UNL     1      -8.826  -2.205  12.681  1.00  0.00     0.029 A 
ATOM     60  C   UNL     1      -8.444  -3.084  11.680  1.00  0.00     0.049 A 
ATOM     61  H   UNL     1      -7.381  -2.690   9.899  1.00  0.00     0.167 HD
ATOM     62  C   UNL     1      -8.255  -5.298  10.578  1.00  0.00     0.074 A 
ATOM     63  C   UNL     1      -8.480  -6.727  10.516  1.00  0.00     0.031 C 
ATOM     64  C   UNL     1      -8.670  -4.504  11.596  1.00  0.00     0.037 A 
BRANCH  51  65
ATOM     65  C   UNL     1      -7.087   1.431  10.952  1.00  0.00     0.064 A 
ATOM     66  C   UNL     1      -7.869   2.462  10.410  1.00  0.00     0.173 A 
ATOM     67  C   UNL     1      -6.304   1.724  12.079  1.00  0.00     0.173 A 
ATOM     68  F   UNL     1      -8.623   2.237   9.323  1.00  0.00    -0.203 F 
ATOM     69  C   UNL     1      -7.848   3.741  10.959  1.00  0.00     0.198 A 
ATOM     70  C   UNL     1      -6.306   2.997  12.642  1.00  0.00     0.198 A 
ATOM     71  F   UNL     1      -5.540   0.773  12.636  1.00  0.00    -0.203 F 
ATOM     72  F   UNL     1      -8.567   4.723  10.398  1.00  0.00    -0.200 F 
ATOM     73  C   UNL     1      -7.071   4.006  12.078  1.00  0.00     0.200 A 
ATOM     74  F   UNL     1      -5.561   3.249  13.727  1.00  0.00    -0.200 F 
ATOM     75  F   UNL     1      -7.054   5.237  12.607  1.00  0.00    -0.200 F 
ENDBRANCH  51  65
BRANCH  52  76
ATOM     76  C   UNL     1      -6.702  -7.641   6.806  1.00  0.00     0.064 A 
ATOM     77  C   UNL     1      -7.874  -8.270   6.363  1.00  0.00     0.173 A 
ATOM     78  C   UNL     1      -5.495  -8.341   6.675  1.00  0.00     0.173 A 
ATOM     79  F   UNL     1      -9.056  -7.651   6.492  1.00  0.00    -0.203 F 
ATOM     80  C   UNL     1      -7.841  -9.556   5.827  1.00  0.00     0.198 A 
ATOM     81  C   UNL     1      -5.460  -9.617   6.116  1.00  0.00     0.198 A 
ATOM     82  F   UNL     1      -4.347  -7.784   7.088  1.00  0.00    -0.203 F 
ATOM     83  F   UNL     1      -8.981 -10.153   5.453  1.00  0.00    -0.200 F 
ATOM     84  C   UNL     1      -6.633 -10.226   5.699  1.00  0.00     0.200 A 
ATOM     85  F   UNL     1      -4.290 -10.257   5.986  1.00  0.00    -0.200 F 
ATOM     86  F   UNL     1      -6.602 -11.463   5.184  1.00  0.00    -0.200 F 
ENDBRANCH  52  76
BRANCH  64  87
ATOM     87  C   UNL     1      -9.447  -5.154  12.703  1.00  0.00     0.064 A 
ATOM     88  C   UNL     1      -8.832  -5.997  13.639  1.00  0.00     0.173 A 
ATOM     89  C   UNL     1     -10.820  -4.903  12.847  1.00  0.00     0.173 A 
ATOM     90  F   UNL     1      -7.524  -6.279  13.537  1.00  0.00    -0.203 F 
ATOM     91  C   UNL     1      -9.569  -6.588  14.662  1.00  0.00     0.198 A 
ATOM     92  C   UNL     1     -11.548  -5.473  13.888  1.00  0.00     0.198 A 
ATOM     93  F   UNL     1     -11.455  -4.096  11.982  1.00  0.00    -0.203 F 
ATOM     94  F   UNL     1      -8.970  -7.430  15.517  1.00  0.00    -0.200 F 
ATOM     95  C   UNL     1     -10.924  -6.321  14.789  1.00  0.00     0.200 A 
ATOM     96  F   UNL     1     -12.855  -5.203  14.016  1.00  0.00    -0.200 F 
ATOM     97  F   UNL     1     -11.631  -6.889  15.776  1.00  0.00    -0.200 F 
ENDBRANCH  64  87
ENDBRANCH  38  39
ENDBRANCH  31  33
ENDBRANCH  30  31
ENDBRANCH  29  30
ENDBRANCH  28  29
ENDBRANCH  27  28
ENDBRANCH   1  27
TORSDOF 18
