REMARK SMILES O=C(OCCOCCOC(=O)c1cc(-c2ccn(C(F)F)c(=O)c2)ccc1O)c1ccc(-c2c3nc(c(-c4c(F)c(F)c(F)c(F)c4F)c4ccc([nH]4)c(-c4c(F)c(F)c(F)c(F)c4F)c4nc(c(-c5c(F)c(F)c(F)c(F)c5F)c5ccc2[nH]5)C=C4)C=C3)cc1
REMARK SMILES IDX 6 1 5 2 4 3 3 4 2 5 1 6 29 7 30 8 91 9 31 10 90 11 32 12
REMARK SMILES IDX 33 13 34 14 84 15 35 16 89 17 83 18 85 19 36 20 88 21 82 22
REMARK SMILES IDX 81 23 37 25 69 26 49 27 68 28 50 29 53 30 67 31 86 32 51 33
REMARK SMILES IDX 52 34 66 36 87 37 54 38 38 39 39 40 47 41 40 42 41 43 45 44
REMARK SMILES IDX 48 45 42 46 43 47 46 48 44 49 70 50 71 51 79 52 72 53 73 54
REMARK SMILES IDX 77 55 80 56 74 57 75 58 78 59 76 60 55 61 56 62 64 63 57 64
REMARK SMILES IDX 58 65 62 66 65 67 59 68 60 69 63 70 61 71 7 72 8 73 9 74
REMARK SMILES IDX 10 75 11 76 12 77 13 78 27 79 14 80 26 81 25 82 28 83 15 85
REMARK SMILES IDX 16 86 24 87 17 88 22 89 18 90 23 91 19 92 20 93 21 94
REMARK H PARENT 85 24 53 35 28 84
REMARK Flexibility Score: inf
ROOT
ATOM      1  O   UNL     1       4.442   0.642   1.317  1.00  0.00    -0.374 OA
ENDROOT
BRANCH   1   2
ATOM      2  C   UNL     1       4.698   1.303   0.081  1.00  0.00     0.202 C 
BRANCH   2   3
ATOM      3  C   UNL     1       4.283   0.567  -1.192  1.00  0.00     0.261 C 
BRANCH   3   4
ATOM      4  O   UNL     1       2.926   0.106  -1.156  1.00  0.00    -0.460 OA
BRANCH   4   5
ATOM      5  C   UNL     1       2.549  -1.178  -0.938  1.00  0.00     0.338 C 
ATOM      6  O   UNL     1       1.532  -1.616  -1.470  1.00  0.00    -0.246 OA
BRANCH   5   7
ATOM      7  C   UNL     1       3.193  -1.984   0.141  1.00  0.00     0.060 A 
ATOM      8  C   UNL     1       2.338  -2.757   0.947  1.00  0.00     0.016 A 
ATOM      9  C   UNL     1       4.566  -2.037   0.388  1.00  0.00     0.016 A 
ATOM     10  C   UNL     1       2.846  -3.531   1.994  1.00  0.00     0.010 A 
ATOM     11  C   UNL     1       5.071  -2.742   1.472  1.00  0.00     0.010 A 
ATOM     12  C   UNL     1       4.218  -3.516   2.260  1.00  0.00    -0.014 A 
BRANCH  12  13
ATOM     13  C   UNL     1       4.843  -4.478   3.181  1.00  0.00     0.031 A 
ATOM     14  C   UNL     1       5.110  -4.137   4.608  1.00  0.00     0.074 A 
ATOM     15  C   UNL     1       5.289  -5.621   2.630  1.00  0.00     0.049 A 
ATOM     16  N   UNL     1       5.597  -4.904   5.547  1.00  0.00    -0.248 NA
ATOM     17  C   UNL     1       4.812  -2.763   5.040  1.00  0.00     0.031 C 
ATOM     18  C   UNL     1       5.161  -5.967   1.209  1.00  0.00     0.029 A 
ATOM     19  N   UNL     1       5.971  -6.674   3.169  1.00  0.00    -0.354 N 
ATOM     20  C   UNL     1       5.622  -4.125   6.694  1.00  0.00     0.074 A 
ATOM     21  C   UNL     1       5.159  -2.805   6.322  1.00  0.00     0.031 C 
ATOM     22  C   UNL     1       5.768  -7.139   0.986  1.00  0.00     0.029 A 
ATOM     23  C   UNL     1       6.298  -7.638   2.249  1.00  0.00     0.049 A 
ATOM     24  H   UNL     1       6.205  -6.736   4.123  1.00  0.00     0.167 HD
ATOM     25  C   UNL     1       5.981  -4.511   7.940  1.00  0.00     0.037 A 
ATOM     26  C   UNL     1       6.931  -8.811   2.416  1.00  0.00     0.037 A 
ATOM     27  C   UNL     1       6.475  -5.829   8.251  1.00  0.00     0.049 A 
ATOM     28  C   UNL     1       7.305  -9.218   3.810  1.00  0.00     0.074 A 
ATOM     29  C   UNL     1       6.789  -6.364   9.487  1.00  0.00     0.029 A 
ATOM     30  N   UNL     1       6.750  -6.811   7.308  1.00  0.00    -0.354 N 
ATOM     31  N   UNL     1       7.162  -8.545   4.926  1.00  0.00    -0.248 NA
ATOM     32  C   UNL     1       7.889 -10.552   3.979  1.00  0.00     0.031 C 
ATOM     33  C   UNL     1       7.306  -7.647   9.287  1.00  0.00     0.029 A 
ATOM     34  C   UNL     1       7.261  -7.936   7.932  1.00  0.00     0.049 A 
ATOM     35  H   UNL     1       6.604  -6.720   6.338  1.00  0.00     0.167 HD
ATOM     36  C   UNL     1       7.604  -9.383   5.935  1.00  0.00     0.074 A 
ATOM     37  C   UNL     1       8.017 -10.619   5.298  1.00  0.00     0.031 C 
ATOM     38  C   UNL     1       7.658  -9.153   7.269  1.00  0.00     0.037 A 
BRANCH  25  39
ATOM     39  C   UNL     1       5.815  -3.542   9.074  1.00  0.00     0.064 A 
ATOM     40  C   UNL     1       4.539  -3.212   9.556  1.00  0.00     0.173 A 
ATOM     41  C   UNL     1       6.927  -3.067   9.786  1.00  0.00     0.173 A 
ATOM     42  F   UNL     1       3.442  -3.642   8.915  1.00  0.00    -0.203 F 
ATOM     43  C   UNL     1       4.383  -2.451  10.712  1.00  0.00     0.198 A 
ATOM     44  C   UNL     1       6.767  -2.324  10.954  1.00  0.00     0.198 A 
ATOM     45  F   UNL     1       8.169  -3.363   9.377  1.00  0.00    -0.203 F 
ATOM     46  F   UNL     1       3.153  -2.151  11.154  1.00  0.00    -0.200 F 
ATOM     47  C   UNL     1       5.496  -2.020  11.418  1.00  0.00     0.200 A 
ATOM     48  F   UNL     1       7.843  -1.926  11.648  1.00  0.00    -0.200 F 
ATOM     49  F   UNL     1       5.343  -1.322  12.552  1.00  0.00    -0.200 F 
ENDBRANCH  25  39
BRANCH  26  50
ATOM     50  C   UNL     1       7.119  -9.702   1.247  1.00  0.00     0.064 A 
ATOM     51  C   UNL     1       6.326 -10.847   1.091  1.00  0.00     0.173 A 
ATOM     52  C   UNL     1       8.020  -9.385   0.220  1.00  0.00     0.173 A 
ATOM     53  F   UNL     1       5.447 -11.186   2.046  1.00  0.00    -0.203 F 
ATOM     54  C   UNL     1       6.436 -11.649  -0.041  1.00  0.00     0.198 A 
ATOM     55  C   UNL     1       8.112 -10.176  -0.924  1.00  0.00     0.198 A 
ATOM     56  F   UNL     1       8.781  -8.284   0.310  1.00  0.00    -0.203 F 
ATOM     57  F   UNL     1       5.679 -12.749  -0.155  1.00  0.00    -0.200 F 
ATOM     58  C   UNL     1       7.323 -11.309  -1.051  1.00  0.00     0.200 A 
ATOM     59  F   UNL     1       8.953  -9.831  -1.909  1.00  0.00    -0.200 F 
ATOM     60  F   UNL     1       7.415 -12.072  -2.148  1.00  0.00    -0.200 F 
ENDBRANCH  26  50
BRANCH  38  61
ATOM     61  C   UNL     1       8.172 -10.259   8.137  1.00  0.00     0.064 A 
ATOM     62  C   UNL     1       9.538 -10.569   8.188  1.00  0.00     0.173 A 
ATOM     63  C   UNL     1       7.304 -10.943   9.002  1.00  0.00     0.173 A 
ATOM     64  F   UNL     1      10.402  -9.950   7.370  1.00  0.00    -0.203 F 
ATOM     65  C   UNL     1      10.017 -11.527   9.075  1.00  0.00     0.198 A 
ATOM     66  C   UNL     1       7.791 -11.880   9.907  1.00  0.00     0.198 A 
ATOM     67  F   UNL     1       5.989 -10.674   8.993  1.00  0.00    -0.203 F 
ATOM     68  F   UNL     1      11.324 -11.824   9.094  1.00  0.00    -0.200 F 
ATOM     69  C   UNL     1       9.146 -12.171   9.942  1.00  0.00     0.200 A 
ATOM     70  F   UNL     1       6.952 -12.489  10.755  1.00  0.00    -0.200 F 
ATOM     71  F   UNL     1       9.615 -13.073  10.815  1.00  0.00    -0.200 F 
ENDBRANCH  38  61
ENDBRANCH  12  13
ENDBRANCH   5   7
ENDBRANCH   4   5
ENDBRANCH   3   4
ENDBRANCH   2   3
ENDBRANCH   1   2
BRANCH   1  72
ATOM     72  C   UNL     1       3.181   0.961   1.918  1.00  0.00     0.202 C 
BRANCH  72  73
ATOM     73  C   UNL     1       3.220   2.206   2.814  1.00  0.00     0.261 C 
BRANCH  73  74
ATOM     74  O   UNL     1       3.544   3.384   2.060  1.00  0.00    -0.460 OA
BRANCH  74  75
ATOM     75  C   UNL     1       4.840   3.801   2.127  1.00  0.00     0.342 C 
ATOM     76  O   UNL     1       5.734   3.329   2.791  1.00  0.00    -0.246 OA
BRANCH  75  77
ATOM     77  C   UNL     1       5.056   4.779   1.035  1.00  0.00     0.102 A 
ATOM     78  C   UNL     1       6.041   4.479   0.076  1.00  0.00     0.028 A 
ATOM     79  C   UNL     1       4.272   5.926   0.904  1.00  0.00     0.130 A 
ATOM     80  C   UNL     1       6.190   5.294  -1.049  1.00  0.00    -0.017 A 
ATOM     81  C   UNL     1       4.450   6.766  -0.192  1.00  0.00     0.048 A 
ATOM     82  C   UNL     1       5.397   6.444  -1.168  1.00  0.00     0.012 A 
BRANCH  79  83
ATOM     83  O   UNL     1       3.340   6.236   1.853  1.00  0.00    -0.507 OA
ATOM     84  H   UNL     1       3.218   5.672   2.591  1.00  0.00     0.293 HD
ENDBRANCH  79  83
BRANCH  80  85
ATOM     85  C   UNL     1       7.147   4.980  -2.125  1.00  0.00    -0.011 A 
ATOM     86  C   UNL     1       8.448   5.610  -2.214  1.00  0.00     0.027 A 
ATOM     87  C   UNL     1       6.743   4.170  -3.120  1.00  0.00     0.080 A 
ATOM     88  C   UNL     1       9.199   5.467  -3.312  1.00  0.00     0.095 A 
ATOM     89  C   UNL     1       7.589   3.967  -4.333  1.00  0.00     0.255 A 
ATOM     90  N   UNL     1       8.774   4.683  -4.369  1.00  0.00    -0.258 N 
ATOM     91  O   UNL     1       7.174   3.221  -5.214  1.00  0.00    -0.269 OA
BRANCH  90  92
ATOM     92  C   UNL     1       9.547   4.614  -5.585  1.00  0.00     0.451 C 
ATOM     93  F   UNL     1       9.900   3.340  -5.877  1.00  0.00    -0.185 F 
ATOM     94  F   UNL     1       8.839   5.105  -6.632  1.00  0.00    -0.185 F 
ENDBRANCH  90  92
ENDBRANCH  80  85
ENDBRANCH  75  77
ENDBRANCH  74  75
ENDBRANCH  73  74
ENDBRANCH  72  73
ENDBRANCH   1  72
TORSDOF 17
