REMARK SMILES CCCN(CCC)c1cc(C(=O)OCCOCCOC(=O)c2ccc(-c3c4nc(c(-c5c(F)c(F)c(F)c(F)c5F)c5ccc([nH]5)c(-c5c(F)c(F)c(F)c(F)c5F)c5nc(c(-c6c(F)c(F)c(F)c(F)c6F)c6ccc3[nH]6)C=C5)C=C4)cc2)cc(C(F)(F)F)c1
REMARK SMILES IDX 15 1 14 2 13 3 11 4 12 5 10 6 8 7 9 8 91 9 86 10 85 11 4 12
REMARK SMILES IDX 3 13 2 14 1 15 5 16 6 17 7 18 87 19 88 20 89 21 90 22 16 23
REMARK SMILES IDX 17 24 18 25 19 26 20 27 21 28 22 29 23 30 84 31 24 32 83 33
REMARK SMILES IDX 25 34 26 35 27 36 77 37 28 38 82 39 76 40 78 41 29 42 81 43
REMARK SMILES IDX 75 44 74 45 30 47 62 48 42 49 61 50 43 51 46 52 60 53 79 54
REMARK SMILES IDX 44 55 45 56 59 58 80 59 47 60 31 61 32 62 40 63 33 64 34 65
REMARK SMILES IDX 38 66 41 67 35 68 36 69 39 70 37 71 63 72 64 73 72 74 65 75
REMARK SMILES IDX 66 76 70 77 73 78 67 79 68 80 71 81 69 82 48 83 49 84 57 85
REMARK SMILES IDX 50 86 51 87 55 88 58 89 52 90 53 91 56 92 54 93
REMARK H PARENT 78 46 46 57
REMARK Flexibility Score: inf
ROOT
ATOM      1  C   UNL     1       1.689   1.242  -8.532  1.00  0.00     0.202 C 
ENDROOT
BRANCH   1   2
ATOM      2  C   UNL     1       2.969   1.051  -7.713  1.00  0.00     0.261 C 
BRANCH   2   3
ATOM      3  O   UNL     1       2.659   0.453  -6.442  1.00  0.00    -0.460 OA
BRANCH   3   4
ATOM      4  C   UNL     1       3.115   1.116  -5.349  1.00  0.00     0.338 C 
ATOM      5  O   UNL     1       3.895   2.049  -5.330  1.00  0.00    -0.246 OA
BRANCH   4   6
ATOM      6  C   UNL     1       2.320   0.676  -4.178  1.00  0.00     0.062 A 
ATOM      7  C   UNL     1       1.010   1.378  -2.251  1.00  0.00     0.038 A 
ATOM      8  C   UNL     1       1.933   1.658  -3.259  1.00  0.00     0.041 A 
ATOM      9  C   UNL     1       0.536   0.066  -2.148  1.00  0.00     0.039 A 
ATOM     10  C   UNL     1       1.019  -0.966  -2.969  1.00  0.00     0.058 A 
ATOM     11  C   UNL     1       1.882  -0.642  -4.024  1.00  0.00     0.029 A 
BRANCH   7  12
ATOM     12  N   UNL     1       0.604   2.348  -1.357  1.00  0.00    -0.372 N 
BRANCH  12  13
ATOM     13  C   UNL     1       1.238   2.407  -0.034  1.00  0.00     0.116 C 
BRANCH  13  14
ATOM     14  C   UNL     1       0.660   1.367   0.934  1.00  0.00     0.018 C 
ATOM     15  C   UNL     1       1.513   0.107   1.044  1.00  0.00     0.006 C 
ENDBRANCH  13  14
ENDBRANCH  12  13
BRANCH  12  16
ATOM     16  C   UNL     1      -0.396   3.358  -1.727  1.00  0.00     0.116 C 
BRANCH  16  17
ATOM     17  C   UNL     1       0.168   4.454  -2.638  1.00  0.00     0.018 C 
ATOM     18  C   UNL     1      -0.138   4.193  -4.105  1.00  0.00     0.006 C 
ENDBRANCH  16  17
ENDBRANCH  12  16
ENDBRANCH   7  12
BRANCH  10  19
ATOM     19  C   UNL     1       0.638  -2.399  -2.701  1.00  0.00     0.416 C 
ATOM     20  F   UNL     1      -0.252  -2.885  -3.606  1.00  0.00    -0.166 F 
ATOM     21  F   UNL     1       1.714  -3.235  -2.744  1.00  0.00    -0.166 F 
ATOM     22  F   UNL     1       0.075  -2.591  -1.475  1.00  0.00    -0.166 F 
ENDBRANCH  10  19
ENDBRANCH   4   6
ENDBRANCH   3   4
ENDBRANCH   2   3
ENDBRANCH   1   2
BRANCH   1  23
ATOM     23  O   UNL     1       0.802   2.283  -8.123  1.00  0.00    -0.374 OA
BRANCH  23  24
ATOM     24  C   UNL     1       0.048   2.076  -6.934  1.00  0.00     0.202 C 
BRANCH  24  25
ATOM     25  C   UNL     1      -1.220   1.216  -7.023  1.00  0.00     0.261 C 
BRANCH  25  26
ATOM     26  O   UNL     1      -1.009  -0.045  -7.667  1.00  0.00    -0.460 OA
BRANCH  26  27
ATOM     27  C   UNL     1      -1.381  -0.066  -8.973  1.00  0.00     0.338 C 
ATOM     28  O   UNL     1      -1.925   0.812  -9.611  1.00  0.00    -0.246 OA
BRANCH  27  29
ATOM     29  C   UNL     1      -0.858  -1.298  -9.586  1.00  0.00     0.060 A 
ATOM     30  C   UNL     1       0.026  -1.165 -10.664  1.00  0.00     0.016 A 
ATOM     31  C   UNL     1      -1.241  -2.556  -9.122  1.00  0.00     0.016 A 
ATOM     32  C   UNL     1       0.529  -2.301 -11.292  1.00  0.00     0.010 A 
ATOM     33  C   UNL     1      -0.747  -3.693  -9.762  1.00  0.00     0.010 A 
ATOM     34  C   UNL     1       0.128  -3.570 -10.857  1.00  0.00    -0.014 A 
BRANCH  34  35
ATOM     35  C   UNL     1       0.553  -4.780 -11.596  1.00  0.00     0.031 A 
ATOM     36  C   UNL     1      -0.415  -5.446 -12.527  1.00  0.00     0.074 A 
ATOM     37  C   UNL     1       1.787  -5.282 -11.417  1.00  0.00     0.049 A 
ATOM     38  N   UNL     1      -0.296  -6.570 -13.184  1.00  0.00    -0.248 NA
ATOM     39  C   UNL     1      -1.695  -4.753 -12.741  1.00  0.00     0.031 C 
ATOM     40  C   UNL     1       2.822  -4.693 -10.569  1.00  0.00     0.029 A 
ATOM     41  N   UNL     1       2.370  -6.415 -11.924  1.00  0.00    -0.354 N 
ATOM     42  C   UNL     1      -1.486  -6.726 -13.881  1.00  0.00     0.074 A 
ATOM     43  C   UNL     1      -2.326  -5.595 -13.546  1.00  0.00     0.031 C 
ATOM     44  C   UNL     1       3.909  -5.482 -10.599  1.00  0.00     0.029 A 
ATOM     45  C   UNL     1       3.628  -6.651 -11.428  1.00  0.00     0.049 A 
ATOM     46  H   UNL     1       1.929  -7.002 -12.581  1.00  0.00     0.167 HD
ATOM     47  C   UNL     1      -1.839  -7.723 -14.726  1.00  0.00     0.037 A 
ATOM     48  C   UNL     1       4.441  -7.712 -11.595  1.00  0.00     0.037 A 
ATOM     49  C   UNL     1      -0.995  -8.845 -15.046  1.00  0.00     0.049 A 
ATOM     50  C   UNL     1       3.984  -8.855 -12.465  1.00  0.00     0.074 A 
ATOM     51  C   UNL     1      -1.245  -9.893 -15.914  1.00  0.00     0.029 A 
ATOM     52  N   UNL     1       0.259  -9.071 -14.496  1.00  0.00    -0.354 N 
ATOM     53  N   UNL     1       2.873  -8.983 -13.150  1.00  0.00    -0.248 NA
ATOM     54  C   UNL     1       4.894 -10.004 -12.581  1.00  0.00     0.031 C 
ATOM     55  C   UNL     1      -0.172 -10.787 -15.838  1.00  0.00     0.029 A 
ATOM     56  C   UNL     1       0.776 -10.265 -14.973  1.00  0.00     0.049 A 
ATOM     57  H   UNL     1       0.714  -8.472 -13.862  1.00  0.00     0.167 HD
ATOM     58  C   UNL     1       2.958 -10.212 -13.792  1.00  0.00     0.074 A 
ATOM     59  C   UNL     1       4.241 -10.781 -13.433  1.00  0.00     0.031 C 
ATOM     60  C   UNL     1       2.054 -10.819 -14.601  1.00  0.00     0.037 A 
BRANCH  47  61
ATOM     61  C   UNL     1      -3.209  -7.666 -15.338  1.00  0.00     0.064 A 
ATOM     62  C   UNL     1      -3.551  -6.706 -16.303  1.00  0.00     0.173 A 
ATOM     63  C   UNL     1      -4.184  -8.611 -14.982  1.00  0.00     0.173 A 
ATOM     64  F   UNL     1      -2.661  -5.771 -16.671  1.00  0.00    -0.203 F 
ATOM     65  C   UNL     1      -4.824  -6.678 -16.867  1.00  0.00     0.198 A 
ATOM     66  C   UNL     1      -5.445  -8.600 -15.572  1.00  0.00     0.198 A 
ATOM     67  F   UNL     1      -3.909  -9.553 -14.067  1.00  0.00    -0.203 F 
ATOM     68  F   UNL     1      -5.143  -5.723 -17.752  1.00  0.00    -0.200 F 
ATOM     69  C   UNL     1      -5.766  -7.630 -16.508  1.00  0.00     0.200 A 
ATOM     70  F   UNL     1      -6.349  -9.530 -15.233  1.00  0.00    -0.200 F 
ATOM     71  F   UNL     1      -6.987  -7.609 -17.060  1.00  0.00    -0.200 F 
ENDBRANCH  47  61
BRANCH  48  72
ATOM     72  C   UNL     1       5.753  -7.761 -10.898  1.00  0.00     0.064 A 
ATOM     73  C   UNL     1       6.955  -7.725 -11.618  1.00  0.00     0.173 A 
ATOM     74  C   UNL     1       5.834  -7.861  -9.501  1.00  0.00     0.173 A 
ATOM     75  F   UNL     1       6.931  -7.656 -12.957  1.00  0.00    -0.203 F 
ATOM     76  C   UNL     1       8.186  -7.807 -10.969  1.00  0.00     0.198 A 
ATOM     77  C   UNL     1       7.065  -7.910  -8.851  1.00  0.00     0.198 A 
ATOM     78  F   UNL     1       4.714  -7.902  -8.764  1.00  0.00    -0.203 F 
ATOM     79  F   UNL     1       9.318  -7.822 -11.685  1.00  0.00    -0.200 F 
ATOM     80  C   UNL     1       8.240  -7.892  -9.586  1.00  0.00     0.200 A 
ATOM     81  F   UNL     1       7.112  -7.978  -7.513  1.00  0.00    -0.200 F 
ATOM     82  F   UNL     1       9.424  -7.967  -8.963  1.00  0.00    -0.200 F 
ENDBRANCH  48  72
BRANCH  60  83
ATOM     83  C   UNL     1       2.426 -12.160 -15.167  1.00  0.00     0.064 A 
ATOM     84  C   UNL     1       2.487 -13.306 -14.360  1.00  0.00     0.173 A 
ATOM     85  C   UNL     1       2.678 -12.311 -16.539  1.00  0.00     0.173 A 
ATOM     86  F   UNL     1       2.270 -13.215 -13.039  1.00  0.00    -0.203 F 
ATOM     87  C   UNL     1       2.810 -14.548 -14.902  1.00  0.00     0.198 A 
ATOM     88  C   UNL     1       2.966 -13.559 -17.083  1.00  0.00     0.198 A 
ATOM     89  F   UNL     1       2.626 -11.249 -17.357  1.00  0.00    -0.203 F 
ATOM     90  F   UNL     1       2.910 -15.620 -14.104  1.00  0.00    -0.200 F 
ATOM     91  C   UNL     1       3.039 -14.675 -16.264  1.00  0.00     0.200 A 
ATOM     92  F   UNL     1       3.171 -13.683 -18.402  1.00  0.00    -0.200 F 
ATOM     93  F   UNL     1       3.338 -15.873 -16.785  1.00  0.00    -0.200 F 
ENDBRANCH  60  83
ENDBRANCH  34  35
ENDBRANCH  27  29
ENDBRANCH  26  27
ENDBRANCH  25  26
ENDBRANCH  24  25
ENDBRANCH  23  24
ENDBRANCH   1  23
TORSDOF 20
