REMARK SMILES O=C(C[C@H]1C(=O)NCC[N@@H+]1Cc1ccc(Cl)c(F)c1)OCCOCCOC(=O)c1ccc(-c2c3nc(c(-c4c(F)c(F)c(F)c(F)c4F)c4ccc([nH]4)c(-c4c(F)c(F)c(F)c(F)c4F)c4nc(c(-c5c(F)c(F)c(F)c(F)c5F)c5ccc2[nH]5)C=C4)C=C3)cc1
REMARK SMILES IDX 22 1 21 2 20 3 2 4 1 5 3 6 4 7 5 8 10 9 6 10 7 11 9 12 8 14
REMARK SMILES IDX 11 16 12 17 13 18 19 19 14 20 17 21 15 22 18 23 16 24 23 25
REMARK SMILES IDX 24 26 25 27 26 28 27 29 28 30 29 31 30 32 91 33 31 34 90 35
REMARK SMILES IDX 32 36 33 37 34 38 84 39 35 40 89 41 83 42 85 43 36 44 88 45
REMARK SMILES IDX 82 46 81 47 37 49 69 50 49 51 68 52 50 53 53 54 67 55 86 56
REMARK SMILES IDX 51 57 52 58 66 60 87 61 54 62 38 63 39 64 47 65 40 66 41 67
REMARK SMILES IDX 45 68 48 69 42 70 43 71 46 72 44 73 70 74 71 75 79 76 72 77
REMARK SMILES IDX 73 78 77 79 80 80 74 81 75 82 78 83 76 84 55 85 56 86 64 87
REMARK SMILES IDX 57 88 58 89 62 90 65 91 59 92 60 93 63 94 61 95
REMARK H PARENT 10 13 7 15 85 48 53 59
REMARK Flexibility Score: inf
ROOT
ATOM      1  C   UNL     1       1.343   0.146  -1.171  1.00  0.00     0.202 C 
ENDROOT
BRANCH   1   2
ATOM      2  C   UNL     1       2.745   0.737  -1.016  1.00  0.00     0.261 C 
BRANCH   2   3
ATOM      3  O   UNL     1       3.464   0.973  -2.227  1.00  0.00    -0.463 OA
BRANCH   3   4
ATOM      4  C   UNL     1       4.203   0.050  -2.882  1.00  0.00     0.312 C 
ATOM      5  O   UNL     1       4.865   0.399  -3.861  1.00  0.00    -0.252 OA
BRANCH   4   6
ATOM      6  C   UNL     1       4.118  -1.410  -2.508  1.00  0.00     0.198 C 
BRANCH   6   7
ATOM      7  C   UNL     1       4.678  -1.794  -1.145  1.00  0.00     0.285 C 
ATOM      8  C   UNL     1       4.920  -3.304  -1.170  1.00  0.00     0.279 C 
ATOM      9  N   UNL     1       5.887  -1.010  -0.824  1.00  0.00    -0.319 N 
ATOM     10  O   UNL     1       4.048  -4.111  -0.850  1.00  0.00    -0.268 OA
ATOM     11  N   UNL     1       6.114  -3.739  -1.664  1.00  0.00    -0.345 N 
ATOM     12  C   UNL     1       7.024  -1.372  -1.678  1.00  0.00     0.284 C 
ATOM     13  H   UNL     1       5.669  -0.047  -1.081  1.00  0.00     0.349 HD
ATOM     14  C   UNL     1       7.233  -2.875  -1.969  1.00  0.00     0.177 C 
ATOM     15  H   UNL     1       6.221  -4.704  -1.824  1.00  0.00     0.163 HD
BRANCH   9  16
ATOM     16  C   UNL     1       6.167  -0.820   0.603  1.00  0.00     0.299 C 
BRANCH  16  17
ATOM     17  C   UNL     1       6.491  -2.081   1.359  1.00  0.00     0.009 A 
ATOM     18  C   UNL     1       5.484  -2.793   2.029  1.00  0.00     0.011 A 
ATOM     19  C   UNL     1       7.776  -2.627   1.278  1.00  0.00     0.050 A 
ATOM     20  C   UNL     1       5.733  -4.083   2.504  1.00  0.00     0.024 A 
ATOM     21  C   UNL     1       8.008  -3.922   1.723  1.00  0.00     0.142 A 
ATOM     22  C   UNL     1       6.988  -4.660   2.315  1.00  0.00     0.076 A 
ATOM     23  F   UNL     1       9.217  -4.460   1.509  1.00  0.00    -0.205 F 
ATOM     24  Cl  UNL     1       7.248  -6.296   2.778  1.00  0.00    -0.081 Cl
ENDBRANCH  16  17
ENDBRANCH   9  16
ENDBRANCH   6   7
ENDBRANCH   4   6
ENDBRANCH   3   4
ENDBRANCH   2   3
ENDBRANCH   1   2
BRANCH   1  25
ATOM     25  O   UNL     1       1.089  -0.821  -2.178  1.00  0.00    -0.374 OA
BRANCH  25  26
ATOM     26  C   UNL     1       1.050  -0.403  -3.546  1.00  0.00     0.202 C 
BRANCH  26  27
ATOM     27  C   UNL     1      -0.167   0.384  -4.030  1.00  0.00     0.261 C 
BRANCH  27  28
ATOM     28  O   UNL     1      -0.218   1.687  -3.435  1.00  0.00    -0.460 OA
BRANCH  28  29
ATOM     29  C   UNL     1      -1.156   1.835  -2.474  1.00  0.00     0.338 C 
ATOM     30  O   UNL     1      -1.997   1.020  -2.120  1.00  0.00    -0.246 OA
BRANCH  29  31
ATOM     31  C   UNL     1      -0.866   3.062  -1.716  1.00  0.00     0.060 A 
ATOM     32  C   UNL     1      -0.845   2.975  -0.316  1.00  0.00     0.016 A 
ATOM     33  C   UNL     1      -0.645   4.278  -2.364  1.00  0.00     0.016 A 
ATOM     34  C   UNL     1      -0.675   4.122   0.448  1.00  0.00     0.010 A 
ATOM     35  C   UNL     1      -0.495   5.431  -1.599  1.00  0.00     0.010 A 
ATOM     36  C   UNL     1      -0.563   5.359  -0.196  1.00  0.00    -0.014 A 
BRANCH  36  37
ATOM     37  C   UNL     1      -0.764   6.594   0.586  1.00  0.00     0.031 A 
ATOM     38  C   UNL     1      -2.131   7.215   0.571  1.00  0.00     0.074 A 
ATOM     39  C   UNL     1       0.238   7.129   1.299  1.00  0.00     0.049 A 
ATOM     40  N   UNL     1      -2.543   8.335   1.105  1.00  0.00    -0.248 NA
ATOM     41  C   UNL     1      -3.178   6.474  -0.155  1.00  0.00     0.031 C 
ATOM     42  C   UNL     1       1.583   6.571   1.415  1.00  0.00     0.029 A 
ATOM     43  N   UNL     1       0.277   8.273   2.051  1.00  0.00    -0.354 N 
ATOM     44  C   UNL     1      -3.886   8.438   0.767  1.00  0.00     0.074 A 
ATOM     45  C   UNL     1      -4.215   7.287  -0.043  1.00  0.00     0.031 C 
ATOM     46  C   UNL     1       2.326   7.388   2.181  1.00  0.00     0.029 A 
ATOM     47  C   UNL     1       1.517   8.540   2.573  1.00  0.00     0.049 A 
ATOM     48  H   UNL     1      -0.508   8.847   2.202  1.00  0.00     0.167 HD
ATOM     49  C   UNL     1      -4.765   9.407   1.111  1.00  0.00     0.037 A 
ATOM     50  C   UNL     1       1.945   9.613   3.263  1.00  0.00     0.037 A 
ATOM     51  C   UNL     1      -4.417  10.545   1.918  1.00  0.00     0.049 A 
ATOM     52  C   UNL     1       0.965  10.716   3.572  1.00  0.00     0.074 A 
ATOM     53  C   UNL     1      -5.226  11.582   2.345  1.00  0.00     0.029 A 
ATOM     54  N   UNL     1      -3.144  10.797   2.413  1.00  0.00    -0.354 N 
ATOM     55  N   UNL     1      -0.309  10.803   3.271  1.00  0.00    -0.248 NA
ATOM     56  C   UNL     1       1.482  11.868   4.322  1.00  0.00     0.031 C 
ATOM     57  C   UNL     1      -4.430  12.492   3.048  1.00  0.00     0.029 A 
ATOM     58  C   UNL     1      -3.139  11.989   3.118  1.00  0.00     0.049 A 
ATOM     59  H   UNL     1      -2.362  10.215   2.283  1.00  0.00     0.167 HD
ATOM     60  C   UNL     1      -0.753  12.000   3.818  1.00  0.00     0.074 A 
ATOM     61  C   UNL     1       0.387  12.597   4.483  1.00  0.00     0.031 C 
ATOM     62  C   UNL     1      -1.990  12.556   3.777  1.00  0.00     0.037 A 
BRANCH  49  63
ATOM     63  C   UNL     1      -6.167   9.292   0.588  1.00  0.00     0.064 A 
ATOM     64  C   UNL     1      -7.048   8.296   1.037  1.00  0.00     0.173 A 
ATOM     65  C   UNL     1      -6.642  10.204  -0.366  1.00  0.00     0.173 A 
ATOM     66  F   UNL     1      -6.638   7.386   1.934  1.00  0.00    -0.203 F 
ATOM     67  C   UNL     1      -8.342   8.202   0.530  1.00  0.00     0.198 A 
ATOM     68  C   UNL     1      -7.947  10.127  -0.846  1.00  0.00     0.198 A 
ATOM     69  F   UNL     1      -5.842  11.175  -0.832  1.00  0.00    -0.203 F 
ATOM     70  F   UNL     1      -9.148   7.210   0.935  1.00  0.00    -0.200 F 
ATOM     71  C   UNL     1      -8.793   9.122  -0.404  1.00  0.00     0.200 A 
ATOM     72  F   UNL     1      -8.384  11.025  -1.741  1.00  0.00    -0.200 F 
ATOM     73  F   UNL     1     -10.041   9.035  -0.885  1.00  0.00    -0.200 F 
ENDBRANCH  49  63
BRANCH  50  74
ATOM     74  C   UNL     1       3.364   9.702   3.695  1.00  0.00     0.064 A 
ATOM     75  C   UNL     1       3.711   9.656   5.051  1.00  0.00     0.173 A 
ATOM     76  C   UNL     1       4.402   9.843   2.761  1.00  0.00     0.173 A 
ATOM     77  F   UNL     1       2.754   9.542   5.984  1.00  0.00    -0.203 F 
ATOM     78  C   UNL     1       5.039   9.769   5.459  1.00  0.00     0.198 A 
ATOM     79  C   UNL     1       5.732   9.925   3.168  1.00  0.00     0.198 A 
ATOM     80  F   UNL     1       4.125   9.890   1.450  1.00  0.00    -0.203 F 
ATOM     81  F   UNL     1       5.338   9.769   6.765  1.00  0.00    -0.200 F 
ATOM     82  C   UNL     1       6.049   9.896   4.517  1.00  0.00     0.200 A 
ATOM     83  F   UNL     1       6.705  10.031   2.253  1.00  0.00    -0.200 F 
ATOM     84  F   UNL     1       7.325   9.999   4.910  1.00  0.00    -0.200 F 
ENDBRANCH  50  74
BRANCH  62  85
ATOM     85  C   UNL     1      -2.183  13.855   4.507  1.00  0.00     0.064 A 
ATOM     86  C   UNL     1      -1.622  15.054   4.045  1.00  0.00     0.173 A 
ATOM     87  C   UNL     1      -2.980  13.904   5.662  1.00  0.00     0.173 A 
ATOM     88  F   UNL     1      -0.842  15.058   2.953  1.00  0.00    -0.203 F 
ATOM     89  C   UNL     1      -1.825  16.249   4.729  1.00  0.00     0.198 A 
ATOM     90  C   UNL     1      -3.211  15.106   6.322  1.00  0.00     0.198 A 
ATOM     91  F   UNL     1      -3.549  12.787   6.140  1.00  0.00    -0.203 F 
ATOM     92  F   UNL     1      -1.235  17.373   4.301  1.00  0.00    -0.200 F 
ATOM     93  C   UNL     1      -2.626  16.276   5.862  1.00  0.00     0.200 A 
ATOM     94  F   UNL     1      -4.000  15.133   7.405  1.00  0.00    -0.200 F 
ATOM     95  F   UNL     1      -2.829  17.429   6.513  1.00  0.00    -0.200 F 
ENDBRANCH  62  85
ENDBRANCH  36  37
ENDBRANCH  29  31
ENDBRANCH  28  29
ENDBRANCH  27  28
ENDBRANCH  26  27
ENDBRANCH  25  26
ENDBRANCH   1  25
TORSDOF 17
