REMARK SMILES O=C(OCCOCCOC(=O)[C@H]1C[N@H+](Cc2ccc(Cl)c(Cl)c2)CC12CCCCC2)c1ccc(-c2c3nc(c(-c4c(F)c(F)c(F)c(F)c4F)c4ccc([nH]4)c(-c4c(F)c(F)c(F)c(F)c4F)c4nc(c(-c5c(F)c(F)c(F)c(F)c5F)c5ccc2[nH]5)C=C4)C=C3)cc1
REMARK SMILES IDX 6 1 5 2 4 3 3 4 2 5 1 6 31 7 32 8 93 9 33 10 92 11 34 12
REMARK SMILES IDX 35 13 36 14 86 15 37 16 91 17 85 18 87 19 38 20 90 21 84 22
REMARK SMILES IDX 83 23 39 25 71 26 51 27 70 28 52 29 55 30 69 31 88 32 53 33
REMARK SMILES IDX 54 34 68 36 89 37 56 38 40 39 41 40 49 41 42 42 43 43 47 44
REMARK SMILES IDX 50 45 44 46 45 47 48 48 46 49 72 50 73 51 81 52 74 53 75 54
REMARK SMILES IDX 79 55 82 56 76 57 77 58 80 59 78 60 57 61 58 62 66 63 59 64
REMARK SMILES IDX 60 65 64 66 67 67 61 68 62 69 65 70 63 71 7 72 8 73 9 74
REMARK SMILES IDX 10 75 11 76 12 77 13 78 25 79 14 80 24 81 26 82 30 83 27 85
REMARK SMILES IDX 29 86 28 87 15 88 16 89 17 90 23 91 18 92 21 93 19 94 22 95
REMARK SMILES IDX 20 96
REMARK H PARENT 87 24 55 35 14 84
REMARK Flexibility Score: inf
ROOT
ATOM      1  O   UNL     1       4.352   0.204   1.783  1.00  0.00    -0.374 OA
ENDROOT
BRANCH   1   2
ATOM      2  C   UNL     1       5.039   0.582   0.581  1.00  0.00     0.202 C 
BRANCH   2   3
ATOM      3  C   UNL     1       4.516   0.252  -0.843  1.00  0.00     0.261 C 
BRANCH   3   4
ATOM      4  O   UNL     1       3.079   0.247  -0.980  1.00  0.00    -0.460 OA
BRANCH   4   5
ATOM      5  C   UNL     1       2.271  -0.851  -0.995  1.00  0.00     0.338 C 
ATOM      6  O   UNL     1       1.074  -0.756  -1.213  1.00  0.00    -0.246 OA
BRANCH   5   7
ATOM      7  C   UNL     1       2.864  -2.182  -0.727  1.00  0.00     0.060 A 
ATOM      8  C   UNL     1       3.893  -2.319   0.189  1.00  0.00     0.016 A 
ATOM      9  C   UNL     1       2.397  -3.324  -1.370  1.00  0.00     0.016 A 
ATOM     10  C   UNL     1       4.623  -3.452   0.321  1.00  0.00     0.010 A 
ATOM     11  C   UNL     1       3.029  -4.548  -1.124  1.00  0.00     0.010 A 
ATOM     12  C   UNL     1       4.159  -4.592  -0.293  1.00  0.00    -0.014 A 
BRANCH  12  13
ATOM     13  C   UNL     1       5.017  -5.752  -0.087  1.00  0.00     0.031 A 
ATOM     14  C   UNL     1       5.857  -6.183  -1.235  1.00  0.00     0.074 A 
ATOM     15  C   UNL     1       5.207  -6.183   1.175  1.00  0.00     0.049 A 
ATOM     16  N   UNL     1       6.634  -7.219  -1.335  1.00  0.00    -0.248 NA
ATOM     17  C   UNL     1       5.830  -5.323  -2.434  1.00  0.00     0.031 C 
ATOM     18  C   UNL     1       4.578  -5.605   2.375  1.00  0.00     0.029 A 
ATOM     19  N   UNL     1       6.029  -7.147   1.673  1.00  0.00    -0.354 N 
ATOM     20  C   UNL     1       7.124  -7.184  -2.630  1.00  0.00     0.074 A 
ATOM     21  C   UNL     1       6.587  -6.009  -3.275  1.00  0.00     0.031 C 
ATOM     22  C   UNL     1       5.071  -6.205   3.466  1.00  0.00     0.029 A 
ATOM     23  C   UNL     1       5.933  -7.291   3.035  1.00  0.00     0.049 A 
ATOM     24  H   UNL     1       6.633  -7.687   1.112  1.00  0.00     0.167 HD
ATOM     25  C   UNL     1       7.929  -8.097  -3.211  1.00  0.00     0.037 A 
ATOM     26  C   UNL     1       6.433  -8.259   3.820  1.00  0.00     0.037 A 
ATOM     27  C   UNL     1       8.432  -9.233  -2.488  1.00  0.00     0.049 A 
ATOM     28  C   UNL     1       7.223  -9.331   3.125  1.00  0.00     0.074 A 
ATOM     29  C   UNL     1       9.176 -10.298  -2.947  1.00  0.00     0.029 A 
ATOM     30  N   UNL     1       8.231  -9.433  -1.123  1.00  0.00    -0.354 N 
ATOM     31  N   UNL     1       7.572  -9.406   1.860  1.00  0.00    -0.248 NA
ATOM     32  C   UNL     1       7.658 -10.463   3.942  1.00  0.00     0.031 C 
ATOM     33  C   UNL     1       9.380 -11.169  -1.871  1.00  0.00     0.029 A 
ATOM     34  C   UNL     1       8.822 -10.616  -0.725  1.00  0.00     0.049 A 
ATOM     35  H   UNL     1       7.739  -8.820  -0.530  1.00  0.00     0.167 HD
ATOM     36  C   UNL     1       8.283 -10.585   1.728  1.00  0.00     0.074 A 
ATOM     37  C   UNL     1       8.332 -11.180   3.053  1.00  0.00     0.031 C 
ATOM     38  C   UNL     1       8.841 -11.139   0.621  1.00  0.00     0.037 A 
BRANCH  25  39
ATOM     39  C   UNL     1       8.178  -7.949  -4.680  1.00  0.00     0.064 A 
ATOM     40  C   UNL     1       8.956  -6.910  -5.214  1.00  0.00     0.173 A 
ATOM     41  C   UNL     1       7.559  -8.830  -5.580  1.00  0.00     0.173 A 
ATOM     42  F   UNL     1       9.531  -6.011  -4.401  1.00  0.00    -0.203 F 
ATOM     43  C   UNL     1       9.079  -6.743  -6.592  1.00  0.00     0.198 A 
ATOM     44  C   UNL     1       7.709  -8.679  -6.956  1.00  0.00     0.198 A 
ATOM     45  F   UNL     1       6.784  -9.826  -5.126  1.00  0.00    -0.203 F 
ATOM     46  F   UNL     1       9.766  -5.700  -7.080  1.00  0.00    -0.200 F 
ATOM     47  C   UNL     1       8.461  -7.630  -7.461  1.00  0.00     0.200 A 
ATOM     48  F   UNL     1       7.106  -9.535  -7.792  1.00  0.00    -0.200 F 
ATOM     49  F   UNL     1       8.571  -7.460  -8.786  1.00  0.00    -0.200 F 
ENDBRANCH  25  39
BRANCH  26  50
ATOM     50  C   UNL     1       6.108  -8.305   5.271  1.00  0.00     0.064 A 
ATOM     51  C   UNL     1       7.111  -8.226   6.245  1.00  0.00     0.173 A 
ATOM     52  C   UNL     1       4.781  -8.433   5.719  1.00  0.00     0.173 A 
ATOM     53  F   UNL     1       8.395  -8.116   5.875  1.00  0.00    -0.203 F 
ATOM     54  C   UNL     1       6.804  -8.293   7.604  1.00  0.00     0.198 A 
ATOM     55  C   UNL     1       4.472  -8.463   7.077  1.00  0.00     0.198 A 
ATOM     56  F   UNL     1       3.775  -8.514   4.835  1.00  0.00    -0.203 F 
ATOM     57  F   UNL     1       7.789  -8.264   8.512  1.00  0.00    -0.200 F 
ATOM     58  C   UNL     1       5.485  -8.405   8.019  1.00  0.00     0.200 A 
ATOM     59  F   UNL     1       3.194  -8.550   7.470  1.00  0.00    -0.200 F 
ATOM     60  F   UNL     1       5.192  -8.466   9.325  1.00  0.00    -0.200 F 
ENDBRANCH  26  50
BRANCH  38  61
ATOM     61  C   UNL     1       9.589 -12.417   0.830  1.00  0.00     0.064 A 
ATOM     62  C   UNL     1       8.926 -13.624   1.086  1.00  0.00     0.173 A 
ATOM     63  C   UNL     1      10.987 -12.431   0.718  1.00  0.00     0.173 A 
ATOM     64  F   UNL     1       7.591 -13.648   1.219  1.00  0.00    -0.203 F 
ATOM     65  C   UNL     1       9.643 -14.803   1.249  1.00  0.00     0.198 A 
ATOM     66  C   UNL     1      11.696 -13.618   0.844  1.00  0.00     0.198 A 
ATOM     67  F   UNL     1      11.658 -11.297   0.466  1.00  0.00    -0.203 F 
ATOM     68  F   UNL     1       8.999 -15.939   1.547  1.00  0.00    -0.200 F 
ATOM     69  C   UNL     1      11.025 -14.801   1.117  1.00  0.00     0.200 A 
ATOM     70  F   UNL     1      13.027 -13.618   0.697  1.00  0.00    -0.200 F 
ATOM     71  F   UNL     1      11.712 -15.942   1.260  1.00  0.00    -0.200 F 
ENDBRANCH  38  61
ENDBRANCH  12  13
ENDBRANCH   5   7
ENDBRANCH   4   5
ENDBRANCH   3   4
ENDBRANCH   2   3
ENDBRANCH   1   2
BRANCH   1  72
ATOM     72  C   UNL     1       2.926   0.276   1.916  1.00  0.00     0.202 C 
BRANCH  72  73
ATOM     73  C   UNL     1       2.530   0.847   3.277  1.00  0.00     0.261 C 
BRANCH  73  74
ATOM     74  O   UNL     1       2.852   2.238   3.247  1.00  0.00    -0.463 OA
BRANCH  74  75
ATOM     75  C   UNL     1       4.179   2.447   3.392  1.00  0.00     0.315 C 
ATOM     76  O   UNL     1       4.920   1.754   4.082  1.00  0.00    -0.252 OA
BRANCH  75  77
ATOM     77  C   UNL     1       4.630   3.692   2.687  1.00  0.00     0.166 C 
ATOM     78  C   UNL     1       6.139   3.564   2.458  1.00  0.00     0.278 C 
ATOM     79  C   UNL     1       4.039   4.274   1.353  1.00  0.00     0.038 C 
ATOM     80  N   UNL     1       6.482   4.637   1.539  1.00  0.00    -0.330 N 
ATOM     81  C   UNL     1       5.335   4.763   0.628  1.00  0.00     0.270 C 
ATOM     82  C   UNL     1       3.179   3.357   0.454  1.00  0.00     0.014 C 
ATOM     83  C   UNL     1       3.068   5.430   1.686  1.00  0.00     0.014 C 
ATOM     84  H   UNL     1       7.305   4.418   0.977  1.00  0.00     0.348 HD
ATOM     85  C   UNL     1       2.605   4.010  -0.804  1.00  0.00     0.001 C 
ATOM     86  C   UNL     1       2.506   6.158   0.464  1.00  0.00     0.001 C 
ATOM     87  C   UNL     1       1.748   5.209  -0.449  1.00  0.00     0.000 C 
BRANCH  80  88
ATOM     88  C   UNL     1       7.022   5.853   2.175  1.00  0.00     0.299 C 
BRANCH  88  89
ATOM     89  C   UNL     1       6.136   6.573   3.176  1.00  0.00     0.008 A 
ATOM     90  C   UNL     1       5.913   6.051   4.461  1.00  0.00     0.011 A 
ATOM     91  C   UNL     1       5.413   7.708   2.782  1.00  0.00     0.031 A 
ATOM     92  C   UNL     1       4.824   6.486   5.223  1.00  0.00     0.022 A 
ATOM     93  C   UNL     1       4.351   8.182   3.568  1.00  0.00     0.060 A 
ATOM     94  C   UNL     1       4.015   7.523   4.756  1.00  0.00     0.059 A 
ATOM     95  Cl  UNL     1       3.400   9.473   2.926  1.00  0.00    -0.083 Cl
ATOM     96  Cl  UNL     1       2.564   7.864   5.629  1.00  0.00    -0.083 Cl
ENDBRANCH  88  89
ENDBRANCH  80  88
ENDBRANCH  75  77
ENDBRANCH  74  75
ENDBRANCH  73  74
ENDBRANCH  72  73
ENDBRANCH   1  72
TORSDOF 16
