REMARK SMILES CN(CC(C)(C)O)S(=O)(=O)CCCC(=O)OCCOCCOC(=O)c1ccc(-c2c3nc(c(-c4c(F)c(F)c(F)c(F)c4F)c4ccc([nH]4)c(-c4c(F)c(F)c(F)c(F)c4F)c4nc(c(-c5c(F)c(F)c(F)c(F)c5F)c5ccc2[nH]5)C=C4)C=C3)cc1
REMARK SMILES IDX 17 1 16 2 14 3 15 4 13 5 12 6 11 7 8 8 9 9 10 10 2 11 1 12
REMARK SMILES IDX 3 13 4 14 5 15 6 16 7 17 18 19 19 20 20 21 21 22 22 23 23 24
REMARK SMILES IDX 24 25 25 26 26 27 87 28 27 29 86 30 28 31 29 32 30 33 80 34
REMARK SMILES IDX 31 35 85 36 79 37 81 38 32 39 84 40 78 41 77 42 33 44 65 45
REMARK SMILES IDX 45 46 64 47 46 48 49 49 63 50 82 51 47 52 48 53 62 55 83 56
REMARK SMILES IDX 50 57 34 58 35 59 43 60 36 61 37 62 41 63 44 64 38 65 39 66
REMARK SMILES IDX 42 67 40 68 66 69 67 70 75 71 68 72 69 73 73 74 76 75 70 76
REMARK SMILES IDX 71 77 74 78 72 79 51 80 52 81 60 82 53 83 54 84 58 85 61 86
REMARK SMILES IDX 55 87 56 88 59 89 57 90
REMARK H PARENT 7 18 81 43 49 54
REMARK Flexibility Score: inf
ROOT
ATOM      1  C   UNL     1      -2.975   1.502  -3.372  1.00  0.00     0.261 C 
ENDROOT
BRANCH   1   2
ATOM      2  O   UNL     1      -1.586   1.869  -3.291  1.00  0.00    -0.463 OA
BRANCH   2   3
ATOM      3  C   UNL     1      -0.699   0.876  -3.567  1.00  0.00     0.305 C 
ATOM      4  O   UNL     1      -1.010  -0.286  -3.801  1.00  0.00    -0.252 OA
BRANCH   3   5
ATOM      5  C   UNL     1       0.743   1.334  -3.570  1.00  0.00     0.124 C 
BRANCH   5   6
ATOM      6  C   UNL     1       1.066   2.799  -3.278  1.00  0.00     0.029 C 
BRANCH   6   7
ATOM      7  C   UNL     1       0.778   3.338  -1.882  1.00  0.00     0.155 C 
BRANCH   7   8
ATOM      8  S   UNL     1       1.578   2.479  -0.532  1.00  0.00     0.213 S 
ATOM      9  O   UNL     1       1.444   3.299   0.647  1.00  0.00    -0.212 OA
ATOM     10  O   UNL     1       2.898   2.083  -0.987  1.00  0.00    -0.212 OA
BRANCH   8  11
ATOM     11  N   UNL     1       0.672   1.081  -0.313  1.00  0.00    -0.202 NA
ATOM     12  C   UNL     1       1.325   0.002   0.458  1.00  0.00     0.124 C 
BRANCH  11  13
ATOM     13  C   UNL     1      -0.812   1.073  -0.234  1.00  0.00     0.136 C 
BRANCH  13  14
ATOM     14  C   UNL     1      -1.520   1.372   1.106  1.00  0.00     0.073 C 
ATOM     15  C   UNL     1      -1.321   2.804   1.600  1.00  0.00     0.043 C 
ATOM     16  C   UNL     1      -3.028   1.147   0.885  1.00  0.00     0.043 C 
BRANCH  14  17
ATOM     17  O   UNL     1      -1.112   0.439   2.107  1.00  0.00    -0.389 OA
ATOM     18  H   UNL     1      -0.164   0.545   2.280  1.00  0.00     0.211 HD
ENDBRANCH  14  17
ENDBRANCH  13  14
ENDBRANCH  11  13
ENDBRANCH   8  11
ENDBRANCH   7   8
ENDBRANCH   6   7
ENDBRANCH   5   6
ENDBRANCH   3   5
ENDBRANCH   2   3
ENDBRANCH   1   2
BRANCH   1  19
ATOM     19  C   UNL     1      -3.801   2.485  -4.207  1.00  0.00     0.202 C 
BRANCH  19  20
ATOM     20  O   UNL     1      -3.325   2.801  -5.509  1.00  0.00    -0.374 OA
BRANCH  20  21
ATOM     21  C   UNL     1      -2.078   3.479  -5.628  1.00  0.00     0.202 C 
BRANCH  21  22
ATOM     22  C   UNL     1      -1.961   4.896  -5.042  1.00  0.00     0.261 C 
BRANCH  22  23
ATOM     23  O   UNL     1      -2.251   5.001  -3.632  1.00  0.00    -0.460 OA
BRANCH  23  24
ATOM     24  C   UNL     1      -3.336   5.769  -3.351  1.00  0.00     0.338 C 
ATOM     25  O   UNL     1      -4.067   6.333  -4.150  1.00  0.00    -0.246 OA
BRANCH  24  26
ATOM     26  C   UNL     1      -3.655   5.774  -1.912  1.00  0.00     0.060 A 
ATOM     27  C   UNL     1      -4.890   5.243  -1.523  1.00  0.00     0.016 A 
ATOM     28  C   UNL     1      -2.876   6.492  -1.003  1.00  0.00     0.016 A 
ATOM     29  C   UNL     1      -5.381   5.488  -0.241  1.00  0.00     0.010 A 
ATOM     30  C   UNL     1      -3.370   6.730   0.288  1.00  0.00     0.010 A 
ATOM     31  C   UNL     1      -4.647   6.271   0.662  1.00  0.00    -0.014 A 
BRANCH  31  32
ATOM     32  C   UNL     1      -5.284   6.694   1.939  1.00  0.00     0.031 A 
ATOM     33  C   UNL     1      -5.788   8.106   2.100  1.00  0.00     0.074 A 
ATOM     34  C   UNL     1      -5.479   5.801   2.927  1.00  0.00     0.049 A 
ATOM     35  N   UNL     1      -6.397   8.660   3.120  1.00  0.00    -0.248 NA
ATOM     36  C   UNL     1      -5.582   9.014   0.962  1.00  0.00     0.031 C 
ATOM     37  C   UNL     1      -5.069   4.399   2.885  1.00  0.00     0.029 A 
ATOM     38  N   UNL     1      -6.074   5.941   4.156  1.00  0.00    -0.354 N 
ATOM     39  C   UNL     1      -6.654   9.973   2.744  1.00  0.00     0.074 A 
ATOM     40  C   UNL     1      -6.092  10.148   1.422  1.00  0.00     0.031 C 
ATOM     41  C   UNL     1      -5.421   3.807   4.038  1.00  0.00     0.029 A 
ATOM     42  C   UNL     1      -6.053   4.794   4.911  1.00  0.00     0.049 A 
ATOM     43  H   UNL     1      -6.478   6.784   4.467  1.00  0.00     0.167 HD
ATOM     44  C   UNL     1      -7.315  10.940   3.428  1.00  0.00     0.037 A 
ATOM     45  C   UNL     1      -6.480   4.569   6.169  1.00  0.00     0.037 A 
ATOM     46  C   UNL     1      -7.869  10.772   4.748  1.00  0.00     0.049 A 
ATOM     47  C   UNL     1      -7.148   5.682   6.935  1.00  0.00     0.074 A 
ATOM     48  C   UNL     1      -8.553  11.694   5.523  1.00  0.00     0.029 A 
ATOM     49  N   UNL     1      -7.800   9.604   5.493  1.00  0.00    -0.354 N 
ATOM     50  N   UNL     1      -7.408   6.910   6.558  1.00  0.00    -0.248 NA
ATOM     51  C   UNL     1      -7.596   5.369   8.300  1.00  0.00     0.031 C 
ATOM     52  C   UNL     1      -8.852  11.101   6.754  1.00  0.00     0.029 A 
ATOM     53  C   UNL     1      -8.410   9.788   6.724  1.00  0.00     0.049 A 
ATOM     54  H   UNL     1      -7.378   8.767   5.191  1.00  0.00     0.167 HD
ATOM     55  C   UNL     1      -8.072   7.505   7.623  1.00  0.00     0.074 A 
ATOM     56  C   UNL     1      -8.198   6.495   8.652  1.00  0.00     0.031 C 
ATOM     57  C   UNL     1      -8.535   8.775   7.741  1.00  0.00     0.037 A 
BRANCH  44  58
ATOM     58  C   UNL     1      -7.471  12.281   2.765  1.00  0.00     0.064 A 
ATOM     59  C   UNL     1      -8.322  12.461   1.664  1.00  0.00     0.173 A 
ATOM     60  C   UNL     1      -6.807  13.410   3.269  1.00  0.00     0.173 A 
ATOM     61  F   UNL     1      -8.975  11.414   1.137  1.00  0.00    -0.203 F 
ATOM     62  C   UNL     1      -8.483  13.715   1.078  1.00  0.00     0.198 A 
ATOM     63  C   UNL     1      -6.994  14.668   2.700  1.00  0.00     0.198 A 
ATOM     64  F   UNL     1      -5.988  13.298   4.326  1.00  0.00    -0.203 F 
ATOM     65  F   UNL     1      -9.267  13.853   0.000  1.00  0.00    -0.200 F 
ATOM     66  C   UNL     1      -7.825  14.818   1.601  1.00  0.00     0.200 A 
ATOM     67  F   UNL     1      -6.371  15.735   3.218  1.00  0.00    -0.200 F 
ATOM     68  F   UNL     1      -7.990  16.025   1.044  1.00  0.00    -0.200 F 
ENDBRANCH  44  58
BRANCH  45  69
ATOM     69  C   UNL     1      -6.274   3.236   6.796  1.00  0.00     0.064 A 
ATOM     70  C   UNL     1      -7.357   2.414   7.138  1.00  0.00     0.173 A 
ATOM     71  C   UNL     1      -4.984   2.773   7.100  1.00  0.00     0.173 A 
ATOM     72  F   UNL     1      -8.610   2.820   6.888  1.00  0.00    -0.203 F 
ATOM     73  C   UNL     1      -7.160   1.197   7.788  1.00  0.00     0.198 A 
ATOM     74  C   UNL     1      -4.787   1.540   7.717  1.00  0.00     0.198 A 
ATOM     75  F   UNL     1      -3.913   3.517   6.789  1.00  0.00    -0.203 F 
ATOM     76  F   UNL     1      -8.216   0.460   8.158  1.00  0.00    -0.200 F 
ATOM     77  C   UNL     1      -5.875   0.759   8.072  1.00  0.00     0.200 A 
ATOM     78  F   UNL     1      -3.543   1.113   7.971  1.00  0.00    -0.200 F 
ATOM     79  F   UNL     1      -5.687  -0.412   8.696  1.00  0.00    -0.200 F 
ENDBRANCH  45  69
BRANCH  57  80
ATOM     80  C   UNL     1      -9.256   9.130   9.012  1.00  0.00     0.064 A 
ATOM     81  C   UNL     1      -8.588   9.221  10.243  1.00  0.00     0.173 A 
ATOM     82  C   UNL     1     -10.635   9.396   8.997  1.00  0.00     0.173 A 
ATOM     83  F   UNL     1      -7.273   8.964  10.317  1.00  0.00    -0.203 F 
ATOM     84  C   UNL     1      -9.279   9.521  11.415  1.00  0.00     0.198 A 
ATOM     85  C   UNL     1     -11.316   9.731  10.164  1.00  0.00     0.198 A 
ATOM     86  F   UNL     1     -11.323   9.333   7.847  1.00  0.00    -0.203 F 
ATOM     87  F   UNL     1      -8.630   9.535  12.588  1.00  0.00    -0.200 F 
ATOM     88  C   UNL     1     -10.640   9.781  11.374  1.00  0.00     0.200 A 
ATOM     89  F   UNL     1     -12.628   9.998  10.120  1.00  0.00    -0.200 F 
ATOM     90  F   UNL     1     -11.303  10.069  12.502  1.00  0.00    -0.200 F 
ENDBRANCH  57  80
ENDBRANCH  31  32
ENDBRANCH  24  26
ENDBRANCH  23  24
ENDBRANCH  22  23
ENDBRANCH  21  22
ENDBRANCH  20  21
ENDBRANCH  19  20
ENDBRANCH   1  19
TORSDOF 21
