REMARK SMILES CC(C)(CC(=O)OCCOCCOC(=O)c1ccc(-c2c3nc(c(-c4c(F)c(F)c(F)c(F)c4F)c4ccc([nH]4)c(-c4c(F)c(F)c(F)c(F)c4F)c4nc(c(-c5c(F)c(F)c(F)c(F)c5F)c5ccc2[nH]5)C=C4)C=C3)cc1)Cc1nc([C@@]2(C)CCCO2)no1
REMARK SMILES IDX 9 1 8 2 7 3 5 4 6 5 4 6 2 7 1 8 3 9 79 10 80 11 81 12 90 13
REMARK SMILES IDX 82 14 89 15 83 16 84 17 85 18 88 19 86 20 87 21 10 22 11 23
REMARK SMILES IDX 12 24 13 25 14 26 15 27 16 28 17 29 78 30 18 31 77 32 19 33
REMARK SMILES IDX 20 34 21 35 71 36 22 37 76 38 70 39 72 40 23 41 75 42 69 43
REMARK SMILES IDX 68 44 24 46 56 47 36 48 55 49 37 50 40 51 54 52 73 53 38 54
REMARK SMILES IDX 39 55 53 57 74 58 41 59 25 60 26 61 34 62 27 63 28 64 32 65
REMARK SMILES IDX 35 66 29 67 30 68 33 69 31 70 57 71 58 72 66 73 59 74 60 75
REMARK SMILES IDX 64 76 67 77 61 78 62 79 65 80 63 81 42 82 43 83 51 84 44 85
REMARK SMILES IDX 45 86 49 87 52 88 46 89 47 90 50 91 48 92
REMARK H PARENT 72 45 40 56
REMARK Flexibility Score: inf
ROOT
ATOM      1  C   UNL     1      -2.962  -0.616  -3.140  1.00  0.00     0.202 C 
ENDROOT
BRANCH   1   2
ATOM      2  C   UNL     1      -2.796   0.320  -1.933  1.00  0.00     0.261 C 
BRANCH   2   3
ATOM      3  O   UNL     1      -1.673   0.009  -1.077  1.00  0.00    -0.463 OA
BRANCH   3   4
ATOM      4  C   UNL     1      -1.968  -0.544   0.114  1.00  0.00     0.306 C 
ATOM      5  O   UNL     1      -3.111  -0.626   0.560  1.00  0.00    -0.252 OA
BRANCH   4   6
ATOM      6  C   UNL     1      -0.814  -1.203   0.867  1.00  0.00     0.129 C 
BRANCH   6   7
ATOM      7  C   UNL     1       0.728  -1.146   0.587  1.00  0.00    -0.016 C 
ATOM      8  C   UNL     1       1.195   0.175  -0.039  1.00  0.00     0.012 C 
ATOM      9  C   UNL     1       1.352  -1.183   2.027  1.00  0.00     0.012 C 
BRANCH   7  10
ATOM     10  C   UNL     1       1.359  -2.397  -0.163  1.00  0.00     0.107 C 
BRANCH  10  11
ATOM     11  C   UNL     1       0.998  -2.625  -1.606  1.00  0.00     0.227 A 
ATOM     12  N   UNL     1       1.059  -3.899  -2.637  1.00  0.00    -0.193 NA
ATOM     13  O   UNL     1      -0.343  -1.507  -2.253  1.00  0.00    -0.339 OA
ATOM     14  C   UNL     1      -0.051  -3.682  -4.129  1.00  0.00     0.203 A 
ATOM     15  N   UNL     1      -0.943  -2.258  -3.977  1.00  0.00    -0.059 NA
BRANCH  14  16
ATOM     16  C   UNL     1      -0.488  -4.656  -5.195  1.00  0.00     0.128 C 
ATOM     17  C   UNL     1      -0.375  -6.116  -4.772  1.00  0.00     0.051 C 
ATOM     18  C   UNL     1      -1.963  -4.349  -5.599  1.00  0.00     0.046 C 
ATOM     19  O   UNL     1       0.276  -4.504  -6.418  1.00  0.00    -0.367 OA
ATOM     20  C   UNL     1      -1.964  -4.384  -7.103  1.00  0.00     0.032 C 
ATOM     21  C   UNL     1      -0.563  -3.923  -7.420  1.00  0.00     0.161 C 
ENDBRANCH  14  16
ENDBRANCH  10  11
ENDBRANCH   7  10
ENDBRANCH   6   7
ENDBRANCH   4   6
ENDBRANCH   3   4
ENDBRANCH   2   3
ENDBRANCH   1   2
BRANCH   1  22
ATOM     22  O   UNL     1      -3.224  -2.006  -2.950  1.00  0.00    -0.374 OA
BRANCH  22  23
ATOM     23  C   UNL     1      -2.412  -2.810  -2.115  1.00  0.00     0.202 C 
BRANCH  23  24
ATOM     24  C   UNL     1      -0.812  -3.286  -2.311  1.00  0.00     0.261 C 
BRANCH  24  25
ATOM     25  O   UNL     1       0.693  -2.216  -3.332  1.00  0.00    -0.460 OA
BRANCH  25  26
ATOM     26  C   UNL     1       1.708  -1.915  -4.203  1.00  0.00     0.338 C 
ATOM     27  O   UNL     1       2.365  -2.667  -4.907  1.00  0.00    -0.246 OA
BRANCH  26  28
ATOM     28  C   UNL     1       1.772  -0.457  -4.415  1.00  0.00     0.060 A 
ATOM     29  C   UNL     1       0.837   0.159  -5.263  1.00  0.00     0.016 A 
ATOM     30  C   UNL     1       2.920   0.218  -4.008  1.00  0.00     0.016 A 
ATOM     31  C   UNL     1       1.107   1.420  -5.795  1.00  0.00     0.010 A 
ATOM     32  C   UNL     1       3.177   1.485  -4.523  1.00  0.00     0.010 A 
ATOM     33  C   UNL     1       2.311   2.057  -5.474  1.00  0.00    -0.014 A 
BRANCH  33  34
ATOM     34  C   UNL     1       2.790   3.230  -6.241  1.00  0.00     0.031 A 
ATOM     35  C   UNL     1       3.926   3.041  -7.211  1.00  0.00     0.074 A 
ATOM     36  C   UNL     1       2.260   4.445  -6.027  1.00  0.00     0.049 A 
ATOM     37  N   UNL     1       4.663   3.937  -7.815  1.00  0.00    -0.248 NA
ATOM     38  C   UNL     1       4.289   1.649  -7.531  1.00  0.00     0.031 C 
ATOM     39  C   UNL     1       1.120   4.725  -5.159  1.00  0.00     0.029 A 
ATOM     40  N   UNL     1       2.641   5.675  -6.498  1.00  0.00    -0.354 N 
ATOM     41  C   UNL     1       5.588   3.220  -8.566  1.00  0.00     0.074 A 
ATOM     42  C   UNL     1       5.340   1.817  -8.321  1.00  0.00     0.031 C 
ATOM     43  C   UNL     1       0.909   6.051  -5.133  1.00  0.00     0.029 A 
ATOM     44  C   UNL     1       1.937   6.710  -5.934  1.00  0.00     0.049 A 
ATOM     45  H   UNL     1       3.347   5.803  -7.172  1.00  0.00     0.167 HD
ATOM     46  C   UNL     1       6.554   3.699  -9.386  1.00  0.00     0.037 A 
ATOM     47  C   UNL     1       2.139   8.039  -6.020  1.00  0.00     0.037 A 
ATOM     48  C   UNL     1       6.787   5.103  -9.608  1.00  0.00     0.049 A 
ATOM     49  C   UNL     1       3.286   8.546  -6.857  1.00  0.00     0.074 A 
ATOM     50  C   UNL     1       7.737   5.707 -10.411  1.00  0.00     0.029 A 
ATOM     51  N   UNL     1       6.056   6.123  -9.014  1.00  0.00    -0.354 N 
ATOM     52  N   UNL     1       4.164   7.871  -7.559  1.00  0.00    -0.248 NA
ATOM     53  C   UNL     1       3.469  10.003  -6.914  1.00  0.00     0.031 C 
ATOM     54  C   UNL     1       7.621   7.092 -10.255  1.00  0.00     0.029 A 
ATOM     55  C   UNL     1       6.546   7.353  -9.420  1.00  0.00     0.049 A 
ATOM     56  H   UNL     1       5.300   5.992  -8.397  1.00  0.00     0.167 HD
ATOM     57  C   UNL     1       4.965   8.818  -8.184  1.00  0.00     0.074 A 
ATOM     58  C   UNL     1       4.470  10.115  -7.775  1.00  0.00     0.031 C 
ATOM     59  C   UNL     1       6.011   8.632  -9.026  1.00  0.00     0.037 A 
BRANCH  46  60
ATOM     60  C   UNL     1       7.445   2.709 -10.085  1.00  0.00     0.064 A 
ATOM     61  C   UNL     1       6.962   1.864 -11.096  1.00  0.00     0.173 A 
ATOM     62  C   UNL     1       8.814   2.642  -9.780  1.00  0.00     0.173 A 
ATOM     63  F   UNL     1       5.662   1.881 -11.427  1.00  0.00    -0.203 F 
ATOM     64  C   UNL     1       7.808   0.974 -11.755  1.00  0.00     0.198 A 
ATOM     65  C   UNL     1       9.664   1.777 -10.466  1.00  0.00     0.198 A 
ATOM     66  F   UNL     1       9.336   3.433  -8.830  1.00  0.00    -0.203 F 
ATOM     67  F   UNL     1       7.313   0.148 -12.688  1.00  0.00    -0.200 F 
ATOM     68  C   UNL     1       9.159   0.938 -11.447  1.00  0.00     0.200 A 
ATOM     69  F   UNL     1      10.973   1.760 -10.180  1.00  0.00    -0.200 F 
ATOM     70  F   UNL     1       9.975   0.094 -12.094  1.00  0.00    -0.200 F 
ENDBRANCH  46  60
BRANCH  47  71
ATOM     71  C   UNL     1       1.252   8.980  -5.286  1.00  0.00     0.064 A 
ATOM     72  C   UNL     1       0.427   9.875  -5.981  1.00  0.00     0.173 A 
ATOM     73  C   UNL     1       1.227   9.027  -3.884  1.00  0.00     0.173 A 
ATOM     74  F   UNL     1       0.425   9.881  -7.322  1.00  0.00    -0.203 F 
ATOM     75  C   UNL     1      -0.360  10.804  -5.304  1.00  0.00     0.198 A 
ATOM     76  C   UNL     1       0.410   9.930  -3.207  1.00  0.00     0.198 A 
ATOM     77  F   UNL     1       1.991   8.188  -3.168  1.00  0.00    -0.203 F 
ATOM     78  F   UNL     1      -1.088  11.691  -5.995  1.00  0.00    -0.200 F 
ATOM     79  C   UNL     1      -0.371  10.828  -3.918  1.00  0.00     0.200 A 
ATOM     80  F   UNL     1       0.386   9.934  -1.868  1.00  0.00    -0.200 F 
ATOM     81  F   UNL     1      -1.127  11.723  -3.267  1.00  0.00    -0.200 F 
ENDBRANCH  47  71
BRANCH  59  82
ATOM     82  C   UNL     1       6.635   9.854  -9.638  1.00  0.00     0.064 A 
ATOM     83  C   UNL     1       7.407  10.755  -8.891  1.00  0.00     0.173 A 
ATOM     84  C   UNL     1       6.503  10.089 -11.017  1.00  0.00     0.173 A 
ATOM     85  F   UNL     1       7.552  10.585  -7.568  1.00  0.00    -0.203 F 
ATOM     86  C   UNL     1       8.003  11.858  -9.496  1.00  0.00     0.198 A 
ATOM     87  C   UNL     1       7.133  11.169 -11.625  1.00  0.00     0.198 A 
ATOM     88  F   UNL     1       5.781   9.253 -11.779  1.00  0.00    -0.203 F 
ATOM     89  F   UNL     1       8.694  12.734  -8.754  1.00  0.00    -0.200 F 
ATOM     90  C   UNL     1       7.876  12.057 -10.863  1.00  0.00     0.200 A 
ATOM     91  F   UNL     1       7.025  11.348 -12.948  1.00  0.00    -0.200 F 
ATOM     92  F   UNL     1       8.466  13.110 -11.446  1.00  0.00    -0.200 F 
ENDBRANCH  59  82
ENDBRANCH  33  34
ENDBRANCH  26  28
ENDBRANCH  25  26
ENDBRANCH  24  25
ENDBRANCH  23  24
ENDBRANCH  22  23
ENDBRANCH   1  22
TORSDOF 18
