REMARK SMILES C[C@H](CSc1ccc(C(=O)N(C)C)cn1)C(=O)OCCOCCOC(=O)c1ccc(-c2c3nc(c(-c4c(F)c(F)c(F)c(F)c4F)c4ccc([nH]4)c(-c4c(F)c(F)c(F)c(F)c4F)c4nc(c(-c5c(F)c(F)c(F)c(F)c5F)c5ccc2[nH]5)C=C4)C=C3)cc1
REMARK SMILES IDX 20 1 19 2 18 3 16 4 17 5 2 6 1 7 3 8 4 9 5 10 6 11 15 12
REMARK SMILES IDX 7 13 14 14 8 15 9 16 10 17 11 18 12 19 13 20 21 21 22 22
REMARK SMILES IDX 23 23 24 24 25 25 26 26 27 27 28 28 89 29 29 30 88 31 30 32
REMARK SMILES IDX 31 33 32 34 82 35 33 36 87 37 81 38 83 39 34 40 86 41 80 42
REMARK SMILES IDX 79 43 35 45 67 46 47 47 66 48 48 49 51 50 65 51 84 52 49 53
REMARK SMILES IDX 50 54 64 56 85 57 52 58 36 59 37 60 45 61 38 62 39 63 43 64
REMARK SMILES IDX 46 65 40 66 41 67 44 68 42 69 68 70 69 71 77 72 70 73 71 74
REMARK SMILES IDX 75 75 78 76 72 77 73 78 76 79 74 80 53 81 54 82 62 83 55 84
REMARK SMILES IDX 56 85 60 86 63 87 57 88 58 89 61 90 59 91
REMARK H PARENT 83 44 51 55
REMARK Flexibility Score: inf
ROOT
ATOM      1  C   UNL     1      -3.349  -0.124  -0.154  1.00  0.00     0.202 C 
ENDROOT
BRANCH   1   2
ATOM      2  C   UNL     1      -2.919   1.919   0.490  1.00  0.00     0.261 C 
BRANCH   2   3
ATOM      3  O   UNL     1      -1.402   2.559   0.704  1.00  0.00    -0.463 OA
BRANCH   3   4
ATOM      4  C   UNL     1      -0.711   2.399   1.873  1.00  0.00     0.309 C 
ATOM      5  O   UNL     1      -1.166   2.715   2.967  1.00  0.00    -0.252 OA
BRANCH   4   6
ATOM      6  C   UNL     1       0.712   1.821   1.682  1.00  0.00     0.106 C 
ATOM      7  C   UNL     1       1.725   2.892   1.294  1.00  0.00     0.021 C 
BRANCH   6   8
ATOM      8  C   UNL     1       0.882   0.549   0.828  1.00  0.00     0.091 C 
BRANCH   8   9
ATOM      9  S   UNL     1       0.191   0.555  -0.845  1.00  0.00    -0.106 SA
BRANCH   9  10
ATOM     10  C   UNL     1      -1.518   0.698  -0.388  1.00  0.00     0.096 A 
ATOM     11  C   UNL     1      -2.675   1.359  -1.561  1.00  0.00     0.036 A 
ATOM     12  N   UNL     1      -2.066   0.336   1.282  1.00  0.00    -0.249 NA
ATOM     13  C   UNL     1      -4.389   1.539  -1.092  1.00  0.00     0.018 A 
ATOM     14  C   UNL     1      -3.796   0.530   1.726  1.00  0.00     0.126 A 
ATOM     15  C   UNL     1      -4.969   1.144   0.542  1.00  0.00     0.058 A 
BRANCH  15  16
ATOM     16  C   UNL     1      -6.443   1.124   0.783  1.00  0.00     0.254 C 
ATOM     17  O   UNL     1      -6.833   1.637   1.827  1.00  0.00    -0.269 OA
ATOM     18  N   UNL     1      -7.324   0.606  -0.188  1.00  0.00    -0.345 N 
ATOM     19  C   UNL     1      -7.033  -0.419  -1.175  1.00  0.00     0.146 C 
ATOM     20  C   UNL     1      -8.744   0.910  -0.093  1.00  0.00     0.146 C 
ENDBRANCH  15  16
ENDBRANCH   9  10
ENDBRANCH   8   9
ENDBRANCH   6   8
ENDBRANCH   4   6
ENDBRANCH   3   4
ENDBRANCH   2   3
ENDBRANCH   1   2
BRANCH   1  21
ATOM     21  O   UNL     1      -3.167  -1.487   0.592  1.00  0.00    -0.374 OA
BRANCH  21  22
ATOM     22  C   UNL     1      -1.976  -2.240   0.317  1.00  0.00     0.202 C 
BRANCH  22  23
ATOM     23  C   UNL     1      -1.849  -2.937  -1.056  1.00  0.00     0.261 C 
BRANCH  23  24
ATOM     24  O   UNL     1      -2.000  -2.100  -2.228  1.00  0.00    -0.460 OA
BRANCH  24  25
ATOM     25  C   UNL     1      -3.204  -2.197  -2.853  1.00  0.00     0.338 C 
ATOM     26  O   UNL     1      -4.130  -2.927  -2.532  1.00  0.00    -0.246 OA
BRANCH  25  27
ATOM     27  C   UNL     1      -3.400  -1.094  -3.833  1.00  0.00     0.060 A 
ATOM     28  C   UNL     1      -4.597  -0.386  -3.703  1.00  0.00     0.016 A 
ATOM     29  C   UNL     1      -2.509  -0.720  -4.835  1.00  0.00     0.016 A 
ATOM     30  C   UNL     1      -4.885   0.737  -4.471  1.00  0.00     0.010 A 
ATOM     31  C   UNL     1      -2.832   0.366  -5.681  1.00  0.00     0.010 A 
ATOM     32  C   UNL     1      -4.013   1.113  -5.488  1.00  0.00    -0.014 A 
BRANCH  32  33
ATOM     33  C   UNL     1      -4.499   2.132  -6.454  1.00  0.00     0.031 A 
ATOM     34  C   UNL     1      -5.305   1.642  -7.624  1.00  0.00     0.074 A 
ATOM     35  C   UNL     1      -4.387   3.456  -6.228  1.00  0.00     0.049 A 
ATOM     36  N   UNL     1      -5.726   2.285  -8.679  1.00  0.00    -0.248 NA
ATOM     37  C   UNL     1      -5.723   0.229  -7.576  1.00  0.00     0.031 C 
ATOM     38  C   UNL     1      -3.842   4.065  -5.014  1.00  0.00     0.029 A 
ATOM     39  N   UNL     1      -4.738   4.534  -7.008  1.00  0.00    -0.354 N 
ATOM     40  C   UNL     1      -6.405   1.344  -9.443  1.00  0.00     0.074 A 
ATOM     41  C   UNL     1      -6.391   0.101  -8.711  1.00  0.00     0.031 C 
ATOM     42  C   UNL     1      -3.861   5.404  -5.148  1.00  0.00     0.029 A 
ATOM     43  C   UNL     1      -4.340   5.745  -6.486  1.00  0.00     0.049 A 
ATOM     44  H   UNL     1      -5.227   4.448  -7.858  1.00  0.00     0.167 HD
ATOM     45  C   UNL     1      -6.952   1.506 -10.668  1.00  0.00     0.037 A 
ATOM     46  C   UNL     1      -4.298   6.967  -7.061  1.00  0.00     0.037 A 
ATOM     47  C   UNL     1      -6.963   2.760 -11.368  1.00  0.00     0.049 A 
ATOM     48  C   UNL     1      -4.779   7.096  -8.492  1.00  0.00     0.074 A 
ATOM     49  C   UNL     1      -7.445   3.040 -12.632  1.00  0.00     0.029 A 
ATOM     50  N   UNL     1      -6.455   3.945 -10.854  1.00  0.00    -0.354 N 
ATOM     51  N   UNL     1      -5.335   6.190  -9.262  1.00  0.00    -0.248 NA
ATOM     52  C   UNL     1      -4.603   8.402  -9.145  1.00  0.00     0.031 C 
ATOM     53  C   UNL     1      -7.151   4.376 -12.916  1.00  0.00     0.029 A 
ATOM     54  C   UNL     1      -6.564   4.949 -11.797  1.00  0.00     0.049 A 
ATOM     55  H   UNL     1      -6.073   4.053  -9.954  1.00  0.00     0.167 HD
ATOM     56  C   UNL     1      -5.590   6.818 -10.475  1.00  0.00     0.074 A 
ATOM     57  C   UNL     1      -5.152   8.190 -10.333  1.00  0.00     0.031 C 
ATOM     58  C   UNL     1      -6.128   6.309 -11.612  1.00  0.00     0.037 A 
BRANCH  45  59
ATOM     59  C   UNL     1      -7.455   0.283 -11.377  1.00  0.00     0.064 A 
ATOM     60  C   UNL     1      -8.629  -0.386 -11.006  1.00  0.00     0.173 A 
ATOM     61  C   UNL     1      -6.735  -0.215 -12.476  1.00  0.00     0.173 A 
ATOM     62  F   UNL     1      -9.336   0.028  -9.944  1.00  0.00    -0.203 F 
ATOM     63  C   UNL     1      -9.058  -1.515 -11.702  1.00  0.00     0.198 A 
ATOM     64  C   UNL     1      -7.183  -1.323 -13.188  1.00  0.00     0.198 A 
ATOM     65  F   UNL     1      -5.596   0.379 -12.863  1.00  0.00    -0.203 F 
ATOM     66  F   UNL     1     -10.158  -2.168 -11.303  1.00  0.00    -0.200 F 
ATOM     67  C   UNL     1      -8.341  -1.975 -12.798  1.00  0.00     0.200 A 
ATOM     68  F   UNL     1      -6.490  -1.759 -14.249  1.00  0.00    -0.200 F 
ATOM     69  F   UNL     1      -8.763  -3.053 -13.473  1.00  0.00    -0.200 F 
ENDBRANCH  45  59
BRANCH  46  70
ATOM     70  C   UNL     1      -3.662   8.130  -6.367  1.00  0.00     0.064 A 
ATOM     71  C   UNL     1      -4.354   9.329  -6.135  1.00  0.00     0.173 A 
ATOM     72  C   UNL     1      -2.304   8.099  -6.005  1.00  0.00     0.173 A 
ATOM     73  F   UNL     1      -5.643   9.438  -6.491  1.00  0.00    -0.203 F 
ATOM     74  C   UNL     1      -3.711  10.450  -5.604  1.00  0.00     0.198 A 
ATOM     75  C   UNL     1      -1.673   9.205  -5.435  1.00  0.00     0.198 A 
ATOM     76  F   UNL     1      -1.575   6.994  -6.219  1.00  0.00    -0.203 F 
ATOM     77  F   UNL     1      -4.380  11.604  -5.470  1.00  0.00    -0.200 F 
ATOM     78  C   UNL     1      -2.373  10.385  -5.249  1.00  0.00     0.200 A 
ATOM     79  F   UNL     1      -0.381   9.129  -5.087  1.00  0.00    -0.200 F 
ATOM     80  F   UNL     1      -1.753  11.463  -4.749  1.00  0.00    -0.200 F 
ENDBRANCH  46  70
BRANCH  58  81
ATOM     81  C   UNL     1      -6.306   7.241 -12.774  1.00  0.00     0.064 A 
ATOM     82  C   UNL     1      -5.212   7.707 -13.517  1.00  0.00     0.173 A 
ATOM     83  C   UNL     1      -7.594   7.598 -13.202  1.00  0.00     0.173 A 
ATOM     84  F   UNL     1      -3.961   7.402 -13.142  1.00  0.00    -0.203 F 
ATOM     85  C   UNL     1      -5.402   8.512 -14.637  1.00  0.00     0.198 A 
ATOM     86  C   UNL     1      -7.781   8.369 -14.344  1.00  0.00     0.198 A 
ATOM     87  F   UNL     1      -8.673   7.166 -12.532  1.00  0.00    -0.203 F 
ATOM     88  F   UNL     1      -4.341   8.981 -15.309  1.00  0.00    -0.200 F 
ATOM     89  C   UNL     1      -6.685   8.831 -15.056  1.00  0.00     0.200 A 
ATOM     90  F   UNL     1      -9.022   8.654 -14.761  1.00  0.00    -0.200 F 
ATOM     91  F   UNL     1      -6.865   9.585 -16.149  1.00  0.00    -0.200 F 
ENDBRANCH  58  81
ENDBRANCH  32  33
ENDBRANCH  25  27
ENDBRANCH  24  25
ENDBRANCH  23  24
ENDBRANCH  22  23
ENDBRANCH  21  22
ENDBRANCH   1  21
TORSDOF 18
