REMARK SMILES C[C@@H](C(=O)OCCOCCOC(=O)c1ccc(-c2c3nc(c(-c4c(F)c(F)c(F)c(F)c4F)c4ccc([nH]4)c(-c4c(F)c(F)c(F)c(F)c4F)c4nc(c(-c5c(F)c(F)c(F)c(F)c5F)c5ccc2[nH]5)C=C4)C=C3)cc1)c1ccc(C[C@H]2CCC[C@@H]2O)cc1F
REMARK SMILES IDX 7 1 6 2 5 3 3 4 4 5 2 6 1 7 77 8 78 9 89 10 79 11 88 12
REMARK SMILES IDX 90 13 80 14 81 15 82 16 83 17 86 18 84 19 85 20 87 21 8 23
REMARK SMILES IDX 9 24 10 25 11 26 12 27 13 28 14 29 15 30 76 31 16 32 75 33
REMARK SMILES IDX 17 34 18 35 19 36 69 37 20 38 74 39 68 40 70 41 21 42 73 43
REMARK SMILES IDX 67 44 66 45 22 47 54 48 34 49 53 50 35 51 38 52 52 53 71 54
REMARK SMILES IDX 36 55 37 56 51 58 72 59 39 60 23 61 24 62 32 63 25 64 26 65
REMARK SMILES IDX 30 66 33 67 27 68 28 69 31 70 29 71 55 72 56 73 64 74 57 75
REMARK SMILES IDX 58 76 62 77 65 78 59 79 60 80 63 81 61 82 40 83 41 84 49 85
REMARK SMILES IDX 42 86 43 87 47 88 50 89 44 90 45 91 48 92 46 93
REMARK H PARENT 87 22 70 46 38 57
REMARK Flexibility Score: inf
ROOT
ATOM      1  C   UNL     1       2.259   2.603   3.635  1.00  0.00     0.202 C 
ENDROOT
BRANCH   1   2
ATOM      2  C   UNL     1       2.098   1.106   3.915  1.00  0.00     0.261 C 
BRANCH   2   3
ATOM      3  O   UNL     1       1.851   0.393   2.686  1.00  0.00    -0.463 OA
BRANCH   3   4
ATOM      4  C   UNL     1       0.809  -0.484   2.710  1.00  0.00     0.313 C 
ATOM      5  O   UNL     1       0.211  -0.802   3.732  1.00  0.00    -0.252 OA
BRANCH   4   6
ATOM      6  C   UNL     1       0.439  -1.008   1.312  1.00  0.00     0.129 C 
ATOM      7  C   UNL     1       1.235  -0.393   0.156  1.00  0.00     0.025 C 
BRANCH   6   8
ATOM      8  C   UNL     1      -1.068  -0.897   1.125  1.00  0.00     0.002 A 
ATOM      9  C   UNL     1      -1.701   0.287   0.718  1.00  0.00     0.008 A 
ATOM     10  C   UNL     1      -1.878  -1.967   1.520  1.00  0.00     0.127 A 
ATOM     11  C   UNL     1      -3.092   0.415   0.790  1.00  0.00     0.004 A 
ATOM     12  C   UNL     1      -3.263  -1.848   1.588  1.00  0.00     0.043 A 
ATOM     13  F   UNL     1      -1.316  -3.127   1.891  1.00  0.00    -0.207 F 
ATOM     14  C   UNL     1      -3.882  -0.633   1.273  1.00  0.00    -0.045 A 
BRANCH  14  15
ATOM     15  C   UNL     1      -5.363  -0.448   1.502  1.00  0.00     0.041 C 
BRANCH  15  16
ATOM     16  C   UNL     1      -5.762   0.194   2.845  1.00  0.00     0.022 C 
ATOM     17  C   UNL     1      -5.253  -0.502   4.118  1.00  0.00     0.007 C 
ATOM     18  C   UNL     1      -5.350   1.656   3.032  1.00  0.00     0.117 C 
ATOM     19  C   UNL     1      -5.026   0.610   5.148  1.00  0.00     0.003 C 
ATOM     20  C   UNL     1      -5.588   1.876   4.520  1.00  0.00     0.032 C 
BRANCH  18  21
ATOM     21  O   UNL     1      -6.146   2.517   2.240  1.00  0.00    -0.393 OA
ATOM     22  H   UNL     1      -7.082   2.385   2.460  1.00  0.00     0.210 HD
ENDBRANCH  18  21
ENDBRANCH  15  16
ENDBRANCH  14  15
ENDBRANCH   6   8
ENDBRANCH   4   6
ENDBRANCH   3   4
ENDBRANCH   2   3
ENDBRANCH   1   2
BRANCH   1  23
ATOM     23  O   UNL     1       1.056   3.312   3.323  1.00  0.00    -0.374 OA
BRANCH  23  24
ATOM     24  C   UNL     1       0.469   3.059   2.050  1.00  0.00     0.202 C 
BRANCH  24  25
ATOM     25  C   UNL     1       1.058   3.838   0.869  1.00  0.00     0.261 C 
BRANCH  25  26
ATOM     26  O   UNL     1       2.462   3.585   0.697  1.00  0.00    -0.460 OA
BRANCH  26  27
ATOM     27  C   UNL     1       3.262   4.620   1.046  1.00  0.00     0.338 C 
ATOM     28  O   UNL     1       2.917   5.751   1.365  1.00  0.00    -0.246 OA
BRANCH  27  29
ATOM     29  C   UNL     1       4.659   4.168   1.165  1.00  0.00     0.060 A 
ATOM     30  C   UNL     1       5.329   4.472   2.356  1.00  0.00     0.016 A 
ATOM     31  C   UNL     1       5.325   3.527   0.118  1.00  0.00     0.016 A 
ATOM     32  C   UNL     1       6.685   4.186   2.486  1.00  0.00     0.010 A 
ATOM     33  C   UNL     1       6.690   3.248   0.246  1.00  0.00     0.010 A 
ATOM     34  C   UNL     1       7.383   3.611   1.416  1.00  0.00    -0.014 A 
BRANCH  34  35
ATOM     35  C   UNL     1       8.863   3.542   1.474  1.00  0.00     0.031 A 
ATOM     36  C   UNL     1       9.667   4.620   0.800  1.00  0.00     0.074 A 
ATOM     37  C   UNL     1       9.481   2.565   2.159  1.00  0.00     0.049 A 
ATOM     38  N   UNL     1      10.965   4.767   0.727  1.00  0.00    -0.248 NA
ATOM     39  C   UNL     1       8.902   5.676   0.118  1.00  0.00     0.031 C 
ATOM     40  C   UNL     1       8.810   1.491   2.888  1.00  0.00     0.029 A 
ATOM     41  N   UNL     1      10.818   2.322   2.353  1.00  0.00    -0.354 N 
ATOM     42  C   UNL     1      11.172   5.926  -0.009  1.00  0.00     0.074 A 
ATOM     43  C   UNL     1       9.869   6.429  -0.386  1.00  0.00     0.031 C 
ATOM     44  C   UNL     1       9.740   0.698   3.448  1.00  0.00     0.029 A 
ATOM     45  C   UNL     1      11.069   1.194   3.094  1.00  0.00     0.049 A 
ATOM     46  H   UNL     1      11.529   2.901   1.995  1.00  0.00     0.167 HD
ATOM     47  C   UNL     1      12.344   6.522  -0.333  1.00  0.00     0.037 A 
ATOM     48  C   UNL     1      12.241   0.622   3.433  1.00  0.00     0.037 A 
ATOM     49  C   UNL     1      13.639   6.024   0.047  1.00  0.00     0.049 A 
ATOM     50  C   UNL     1      13.531   1.269   3.001  1.00  0.00     0.074 A 
ATOM     51  C   UNL     1      14.884   6.570  -0.211  1.00  0.00     0.029 A 
ATOM     52  N   UNL     1      13.855   4.856   0.763  1.00  0.00    -0.354 N 
ATOM     53  N   UNL     1      13.718   2.380   2.332  1.00  0.00    -0.248 NA
ATOM     54  C   UNL     1      14.775   0.579   3.374  1.00  0.00     0.031 C 
ATOM     55  C   UNL     1      15.856   5.707   0.306  1.00  0.00     0.029 A 
ATOM     56  C   UNL     1      15.215   4.649   0.930  1.00  0.00     0.049 A 
ATOM     57  H   UNL     1      13.147   4.262   1.102  1.00  0.00     0.167 HD
ATOM     58  C   UNL     1      15.094   2.539   2.229  1.00  0.00     0.074 A 
ATOM     59  C   UNL     1      15.696   1.415   2.915  1.00  0.00     0.031 C 
ATOM     60  C   UNL     1      15.797   3.528   1.624  1.00  0.00     0.037 A 
BRANCH  47  61
ATOM     61  C   UNL     1      12.281   7.769  -1.164  1.00  0.00     0.064 A 
ATOM     62  C   UNL     1      11.837   8.989  -0.631  1.00  0.00     0.173 A 
ATOM     63  C   UNL     1      12.703   7.751  -2.502  1.00  0.00     0.173 A 
ATOM     64  F   UNL     1      11.409   9.055   0.638  1.00  0.00    -0.203 F 
ATOM     65  C   UNL     1      11.798  10.139  -1.415  1.00  0.00     0.198 A 
ATOM     66  C   UNL     1      12.687   8.909  -3.274  1.00  0.00     0.198 A 
ATOM     67  F   UNL     1      13.138   6.611  -3.058  1.00  0.00    -0.203 F 
ATOM     68  F   UNL     1      11.331  11.285  -0.898  1.00  0.00    -0.200 F 
ATOM     69  C   UNL     1      12.229  10.100  -2.733  1.00  0.00     0.200 A 
ATOM     70  F   UNL     1      13.114   8.871  -4.544  1.00  0.00    -0.200 F 
ATOM     71  F   UNL     1      12.197  11.210  -3.483  1.00  0.00    -0.200 F 
ENDBRANCH  47  61
BRANCH  48  72
ATOM     72  C   UNL     1      12.252  -0.638   4.220  1.00  0.00     0.064 A 
ATOM     73  C   UNL     1      12.721  -0.663   5.541  1.00  0.00     0.173 A 
ATOM     74  C   UNL     1      11.815  -1.848   3.660  1.00  0.00     0.173 A 
ATOM     75  F   UNL     1      13.175   0.463   6.111  1.00  0.00    -0.203 F 
ATOM     76  C   UNL     1      12.769  -1.852   6.266  1.00  0.00     0.198 A 
ATOM     77  C   UNL     1      11.838  -3.031   4.395  1.00  0.00     0.198 A 
ATOM     78  F   UNL     1      11.361  -1.878   2.399  1.00  0.00    -0.203 F 
ATOM     79  F   UNL     1      13.265  -1.856   7.510  1.00  0.00    -0.200 F 
ATOM     80  C   UNL     1      12.322  -3.034   5.694  1.00  0.00     0.200 A 
ATOM     81  F   UNL     1      11.396  -4.169   3.841  1.00  0.00    -0.200 F 
ATOM     82  F   UNL     1      12.367  -4.177   6.391  1.00  0.00    -0.200 F 
ENDBRANCH  48  72
BRANCH  60  83
ATOM     83  C   UNL     1      17.294   3.461   1.704  1.00  0.00     0.064 A 
ATOM     84  C   UNL     1      18.030   2.523   0.965  1.00  0.00     0.173 A 
ATOM     85  C   UNL     1      18.004   4.375   2.498  1.00  0.00     0.173 A 
ATOM     86  F   UNL     1      17.397   1.619   0.202  1.00  0.00    -0.203 F 
ATOM     87  C   UNL     1      19.420   2.489   1.035  1.00  0.00     0.198 A 
ATOM     88  C   UNL     1      19.395   4.356   2.543  1.00  0.00     0.198 A 
ATOM     89  F   UNL     1      17.348   5.297   3.219  1.00  0.00    -0.203 F 
ATOM     90  F   UNL     1      20.100   1.556   0.354  1.00  0.00    -0.200 F 
ATOM     91  C   UNL     1      20.101   3.409   1.818  1.00  0.00     0.200 A 
ATOM     92  F   UNL     1      20.052   5.255   3.290  1.00  0.00    -0.200 F 
ATOM     93  F   UNL     1      21.440   3.379   1.878  1.00  0.00    -0.200 F 
ENDBRANCH  60  83
ENDBRANCH  34  35
ENDBRANCH  27  29
ENDBRANCH  26  27
ENDBRANCH  25  26
ENDBRANCH  24  25
ENDBRANCH  23  24
ENDBRANCH   1  23
TORSDOF 18
