REMARK SMILES COC(=O)c1ccc2c(c1)=N[C@H](c1cn(CCC(=O)OCCOCCOC(=O)c3ccc(-c4c5nc(c(-c6c(F)c(F)c(F)c(F)c6F)c6ccc([nH]6)c(-c6c(F)c(F)c(F)c(F)c6F)c6nc(c(-c7c(F)c(F)c(F)c(F)c7F)c7ccc4[nH]7)C=C6)C=C5)cc3)c3ccccc13)N=2
REMARK SMILES IDX 21 1 20 2 18 3 19 4 17 5 16 6 15 7 13 8 14 9 97 10 92 11
REMARK SMILES IDX 96 12 93 13 95 14 94 15 12 16 5 17 6 18 10 19 7 20 9 21 8 22
REMARK SMILES IDX 11 23 98 24 3 25 4 26 2 27 1 28 22 29 23 30 24 31 25 32
REMARK SMILES IDX 26 33 27 34 28 35 29 36 30 37 91 38 31 39 90 40 32 41 33 42
REMARK SMILES IDX 34 43 84 44 35 45 89 46 83 47 85 48 36 49 88 50 82 51 81 52
REMARK SMILES IDX 37 54 69 55 49 56 68 57 50 58 53 59 67 60 86 61 51 62 52 63
REMARK SMILES IDX 66 65 87 66 54 67 38 68 39 69 47 70 40 71 41 72 45 73 48 74
REMARK SMILES IDX 42 75 43 76 46 77 44 78 70 79 71 80 79 81 72 82 73 83 77 84
REMARK SMILES IDX 80 85 74 86 75 87 78 88 76 89 55 90 56 91 64 92 57 93 58 94
REMARK SMILES IDX 62 95 65 96 59 97 60 98 63 99 61 100
REMARK H PARENT 85 53 53 64
REMARK Flexibility Score: inf
ROOT
ATOM      1  C   UNL     1      -3.760 -13.608  -0.820  1.00  0.00     0.261 C 
ENDROOT
BRANCH   1   2
ATOM      2  O   UNL     1      -2.505 -13.237  -0.215  1.00  0.00    -0.463 OA
BRANCH   2   3
ATOM      3  C   UNL     1      -1.434 -14.011  -0.517  1.00  0.00     0.307 C 
ATOM      4  O   UNL     1      -1.449 -14.976  -1.271  1.00  0.00    -0.252 OA
BRANCH   3   5
ATOM      5  C   UNL     1      -0.186 -13.542   0.188  1.00  0.00     0.144 C 
BRANCH   5   6
ATOM      6  C   UNL     1       0.500 -12.350  -0.485  1.00  0.00     0.134 C 
BRANCH   6   7
ATOM      7  N   UNL     1       0.201 -11.083   0.158  1.00  0.00    -0.346 N 
ATOM      8  C   UNL     1       0.008  -9.655   1.814  1.00  0.00     0.024 A 
ATOM      9  C   UNL     1       0.938 -10.453   1.137  1.00  0.00     0.094 A 
ATOM     10  C   UNL     1      -1.284 -10.225   1.421  1.00  0.00     0.007 A 
ATOM     11  C   UNL     1      -0.951 -10.337   0.062  1.00  0.00     0.048 A 
ATOM     12  C   UNL     1      -2.599  -9.804   1.663  1.00  0.00     0.011 A 
ATOM     13  C   UNL     1      -1.369  -9.318  -0.810  1.00  0.00     0.027 A 
ATOM     14  C   UNL     1      -3.021  -8.738   0.883  1.00  0.00     0.001 A 
ATOM     15  C   UNL     1      -2.320  -8.426  -0.283  1.00  0.00     0.002 A 
BRANCH   8  16
ATOM     16  C   UNL     1       0.294  -8.384   2.595  1.00  0.00     0.255 C 
ATOM     17  C   UNL     1       0.335  -4.169   0.866  1.00  0.00     0.062 A 
ATOM     18  C   UNL     1      -1.018  -4.201   1.413  1.00  0.00     0.018 A 
ATOM     19  C   UNL     1       1.149  -5.241   0.926  1.00  0.00     0.046 A 
ATOM     20  C   UNL     1      -1.532  -5.269   2.046  1.00  0.00     0.031 A 
ATOM     21  C   UNL     1       0.670  -6.452   1.615  1.00  0.00     0.087 A 
ATOM     22  C   UNL     1      -0.681  -6.459   2.206  1.00  0.00     0.086 A 
ATOM     23  N   UNL     1       1.295  -7.556   1.836  1.00  0.00    -0.252 NA
ATOM     24  N   UNL     1      -0.929  -7.555   2.833  1.00  0.00    -0.252 NA
BRANCH  17  25
ATOM     25  C   UNL     1       0.895  -2.949   0.197  1.00  0.00     0.337 C 
ATOM     26  O   UNL     1       1.818  -2.974  -0.604  1.00  0.00    -0.246 OA
BRANCH  25  27
ATOM     27  O   UNL     1       0.265  -1.826   0.634  1.00  0.00    -0.465 OA
ATOM     28  C   UNL     1       0.784  -0.606   0.091  1.00  0.00     0.282 C 
ENDBRANCH  25  27
ENDBRANCH  17  25
ENDBRANCH   8  16
ENDBRANCH   6   7
ENDBRANCH   5   6
ENDBRANCH   3   5
ENDBRANCH   2   3
ENDBRANCH   1   2
BRANCH   1  29
ATOM     29  C   UNL     1      -4.082 -12.731  -2.032  1.00  0.00     0.202 C 
BRANCH  29  30
ATOM     30  O   UNL     1      -3.363 -13.036  -3.232  1.00  0.00    -0.374 OA
BRANCH  30  31
ATOM     31  C   UNL     1      -2.095 -12.388  -3.341  1.00  0.00     0.202 C 
BRANCH  31  32
ATOM     32  C   UNL     1      -2.124 -11.034  -4.065  1.00  0.00     0.261 C 
BRANCH  32  33
ATOM     33  O   UNL     1      -3.024 -10.141  -3.395  1.00  0.00    -0.460 OA
BRANCH  33  34
ATOM     34  C   UNL     1      -4.085  -9.697  -4.113  1.00  0.00     0.338 C 
ATOM     35  O   UNL     1      -4.174  -9.586  -5.323  1.00  0.00    -0.246 OA
BRANCH  34  36
ATOM     36  C   UNL     1      -5.223  -9.671  -3.174  1.00  0.00     0.060 A 
ATOM     37  C   UNL     1      -5.063  -9.127  -1.908  1.00  0.00     0.016 A 
ATOM     38  C   UNL     1      -6.345 -10.443  -3.464  1.00  0.00     0.016 A 
ATOM     39  C   UNL     1      -5.879  -9.546  -0.870  1.00  0.00     0.010 A 
ATOM     40  C   UNL     1      -7.225 -10.784  -2.437  1.00  0.00     0.010 A 
ATOM     41  C   UNL     1      -6.941 -10.423  -1.114  1.00  0.00    -0.014 A 
BRANCH  41  42
ATOM     42  C   UNL     1      -7.751 -10.846   0.048  1.00  0.00     0.031 A 
ATOM     43  C   UNL     1      -8.127  -9.745   1.000  1.00  0.00     0.074 A 
ATOM     44  C   UNL     1      -8.223 -12.102   0.219  1.00  0.00     0.049 A 
ATOM     45  N   UNL     1      -8.041  -9.723   2.295  1.00  0.00    -0.248 NA
ATOM     46  C   UNL     1      -8.549  -8.456   0.415  1.00  0.00     0.031 C 
ATOM     47  C   UNL     1      -8.086 -13.243  -0.690  1.00  0.00     0.029 A 
ATOM     48  N   UNL     1      -9.049 -12.600   1.192  1.00  0.00    -0.354 N 
ATOM     49  C   UNL     1      -8.532  -8.479   2.693  1.00  0.00     0.074 A 
ATOM     50  C   UNL     1      -8.694  -7.696   1.498  1.00  0.00     0.031 C 
ATOM     51  C   UNL     1      -9.017 -14.171  -0.388  1.00  0.00     0.029 A 
ATOM     52  C   UNL     1      -9.738 -13.743   0.797  1.00  0.00     0.049 A 
ATOM     53  H   UNL     1      -9.146 -12.190   2.082  1.00  0.00     0.167 HD
ATOM     54  C   UNL     1      -8.971  -8.231   3.958  1.00  0.00     0.037 A 
ATOM     55  C   UNL     1     -10.882 -14.248   1.326  1.00  0.00     0.037 A 
ATOM     56  C   UNL     1      -8.411  -9.140   4.914  1.00  0.00     0.049 A 
ATOM     57  C   UNL     1     -11.032 -13.697   2.693  1.00  0.00     0.074 A 
ATOM     58  C   UNL     1      -7.132  -9.419   5.354  1.00  0.00     0.029 A 
ATOM     59  N   UNL     1      -9.194 -10.159   5.392  1.00  0.00    -0.354 N 
ATOM     60  N   UNL     1     -10.265 -14.019   3.696  1.00  0.00    -0.248 NA
ATOM     61  C   UNL     1     -11.765 -12.449   2.838  1.00  0.00     0.031 C 
ATOM     62  C   UNL     1      -7.131 -10.815   5.632  1.00  0.00     0.029 A 
ATOM     63  C   UNL     1      -8.419 -11.288   5.388  1.00  0.00     0.049 A 
ATOM     64  H   UNL     1     -10.132 -10.092   5.683  1.00  0.00     0.167 HD
ATOM     65  C   UNL     1     -10.071 -12.828   4.376  1.00  0.00     0.074 A 
ATOM     66  C   UNL     1     -11.085 -11.916   3.855  1.00  0.00     0.031 C 
ATOM     67  C   UNL     1      -8.930 -12.601   5.088  1.00  0.00     0.037 A 
BRANCH  54  68
ATOM     68  C   UNL     1     -10.172  -7.369   4.262  1.00  0.00     0.064 A 
ATOM     69  C   UNL     1     -10.468  -7.022   5.595  1.00  0.00     0.173 A 
ATOM     70  C   UNL     1     -11.203  -7.126   3.327  1.00  0.00     0.173 A 
ATOM     71  F   UNL     1      -9.576  -7.241   6.573  1.00  0.00    -0.203 F 
ATOM     72  C   UNL     1     -11.722  -6.527   5.967  1.00  0.00     0.198 A 
ATOM     73  C   UNL     1     -12.431  -6.580   3.693  1.00  0.00     0.198 A 
ATOM     74  F   UNL     1     -11.107  -7.509   2.048  1.00  0.00    -0.203 F 
ATOM     75  F   UNL     1     -12.001  -6.324   7.262  1.00  0.00    -0.200 F 
ATOM     76  C   UNL     1     -12.703  -6.309   5.016  1.00  0.00     0.200 A 
ATOM     77  F   UNL     1     -13.373  -6.398   2.757  1.00  0.00    -0.200 F 
ATOM     78  F   UNL     1     -13.922  -5.890   5.376  1.00  0.00    -0.200 F 
ENDBRANCH  54  68
BRANCH  55  79
ATOM     79  C   UNL     1     -12.006 -14.899   0.598  1.00  0.00     0.064 A 
ATOM     80  C   UNL     1     -13.015 -15.599   1.281  1.00  0.00     0.173 A 
ATOM     81  C   UNL     1     -12.255 -14.632  -0.765  1.00  0.00     0.173 A 
ATOM     82  F   UNL     1     -12.895 -15.845   2.594  1.00  0.00    -0.203 F 
ATOM     83  C   UNL     1     -14.197 -15.999   0.643  1.00  0.00     0.198 A 
ATOM     84  C   UNL     1     -13.425 -15.045  -1.403  1.00  0.00     0.198 A 
ATOM     85  F   UNL     1     -11.414 -13.882  -1.489  1.00  0.00    -0.203 F 
ATOM     86  F   UNL     1     -15.161 -16.612   1.344  1.00  0.00    -0.200 F 
ATOM     87  C   UNL     1     -14.402 -15.718  -0.697  1.00  0.00     0.200 A 
ATOM     88  F   UNL     1     -13.624 -14.730  -2.691  1.00  0.00    -0.200 F 
ATOM     89  F   UNL     1     -15.553 -16.054  -1.296  1.00  0.00    -0.200 F 
ENDBRANCH  55  79
BRANCH  67  90
ATOM     90  C   UNL     1      -8.004 -13.754   5.342  1.00  0.00     0.064 A 
ATOM     91  C   UNL     1      -7.337 -14.460   4.326  1.00  0.00     0.173 A 
ATOM     92  C   UNL     1      -7.638 -14.029   6.667  1.00  0.00     0.173 A 
ATOM     93  F   UNL     1      -7.558 -14.186   3.034  1.00  0.00    -0.203 F 
ATOM     94  C   UNL     1      -6.370 -15.417   4.629  1.00  0.00     0.198 A 
ATOM     95  C   UNL     1      -6.646 -14.957   6.965  1.00  0.00     0.198 A 
ATOM     96  F   UNL     1      -8.204 -13.346   7.676  1.00  0.00    -0.203 F 
ATOM     97  F   UNL     1      -5.747 -16.078   3.642  1.00  0.00    -0.200 F 
ATOM     98  C   UNL     1      -6.018 -15.656   5.947  1.00  0.00     0.200 A 
ATOM     99  F   UNL     1      -6.272 -15.148   8.238  1.00  0.00    -0.200 F 
ATOM    100  F   UNL     1      -5.049 -16.537   6.235  1.00  0.00    -0.200 F 
ENDBRANCH  67  90
ENDBRANCH  41  42
ENDBRANCH  34  36
ENDBRANCH  33  34
ENDBRANCH  32  33
ENDBRANCH  31  32
ENDBRANCH  30  31
ENDBRANCH  29  30
ENDBRANCH   1  29
TORSDOF 19
