REMARK SMILES C#Cc1ccc2c(c1)C=C(C(=O)OCCOCCOC(=O)c1ccc(-c3c4nc(c(-c5c(F)c(F)c(F)c(F)c5F)c5ccc([nH]5)c(-c5c(F)c(F)c(F)c(F)c5F)c5nc(c(-c6c(F)c(F)c(F)c(F)c6F)c6ccc3[nH]6)C=C5)C=C4)cc1)[C@@H](C(F)(F)F)O2
REMARK SMILES IDX 17 1 16 2 15 3 14 4 13 5 11 6 12 7 10 8 3 9 4 10 8 11 5 12
REMARK SMILES IDX 7 13 6 14 9 15 90 16 85 17 2 18 1 19 86 20 87 21 88 22 89 23
REMARK SMILES IDX 18 24 19 25 20 26 21 27 22 28 23 29 84 30 24 31 83 32 25 33
REMARK SMILES IDX 26 34 27 35 77 36 28 37 82 38 76 39 78 40 29 41 81 42 75 43
REMARK SMILES IDX 74 44 30 46 62 47 42 48 61 49 43 50 46 51 60 52 79 53 44 54
REMARK SMILES IDX 45 55 59 57 80 58 47 59 31 60 32 61 40 62 33 63 34 64 38 65
REMARK SMILES IDX 41 66 35 67 36 68 39 69 37 70 63 71 64 72 72 73 65 74 66 75
REMARK SMILES IDX 70 76 73 77 67 78 68 79 71 80 69 81 48 82 49 83 57 84 50 85
REMARK SMILES IDX 51 86 55 87 58 88 52 89 53 90 56 91 54 92
REMARK H PARENT 78 45 46 56
REMARK Flexibility Score: inf
ROOT
ATOM      1  C   UNL     1      -6.304   4.973   2.044  1.00  0.00     0.202 C 
ENDROOT
BRANCH   1   2
ATOM      2  O   UNL     1      -6.911   6.062   1.355  1.00  0.00    -0.374 OA
BRANCH   2   3
ATOM      3  C   UNL     1      -8.175   5.874   0.729  1.00  0.00     0.202 C 
BRANCH   3   4
ATOM      4  C   UNL     1      -8.259   5.013  -0.534  1.00  0.00     0.261 C 
BRANCH   4   5
ATOM      5  O   UNL     1      -7.671   3.717  -0.359  1.00  0.00    -0.460 OA
BRANCH   5   6
ATOM      6  C   UNL     1      -6.483   3.562  -0.992  1.00  0.00     0.338 C 
ATOM      7  O   UNL     1      -5.940   4.366  -1.732  1.00  0.00    -0.246 OA
BRANCH   6   8
ATOM      8  C   UNL     1      -5.846   2.306  -0.556  1.00  0.00     0.087 C 
ATOM      9  C   UNL     1      -1.749  -0.100   0.103  1.00  0.00     0.025 A 
ATOM     10  C   UNL     1      -2.469  -1.293   0.188  1.00  0.00     0.021 A 
ATOM     11  C   UNL     1      -2.428   1.113  -0.021  1.00  0.00     0.029 A 
ATOM     12  C   UNL     1      -3.866  -1.271   0.169  1.00  0.00     0.048 A 
ATOM     13  C   UNL     1      -3.825   1.130  -0.086  1.00  0.00     0.018 A 
ATOM     14  C   UNL     1      -4.545  -0.060   0.029  1.00  0.00     0.128 A 
ATOM     15  C   UNL     1      -4.524   2.370  -0.359  1.00  0.00     0.027 C 
ATOM     16  O   UNL     1      -5.909  -0.125   0.011  1.00  0.00    -0.475 OA
ATOM     17  C   UNL     1      -6.662   1.053  -0.394  1.00  0.00     0.316 C 
BRANCH   9  18
ATOM     18  C   UNL     1      -0.320  -0.114   0.103  1.00  0.00    -0.070 C 
ATOM     19  C   UNL     1       0.882  -0.109   0.083  1.00  0.00     0.010 C 
ENDBRANCH   9  18
BRANCH  17  20
ATOM     20  C   UNL     1      -7.465   0.707  -1.656  1.00  0.00     0.430 C 
ATOM     21  F   UNL     1      -8.132  -0.464  -1.508  1.00  0.00    -0.167 F 
ATOM     22  F   UNL     1      -8.400   1.647  -1.931  1.00  0.00    -0.167 F 
ATOM     23  F   UNL     1      -6.674   0.591  -2.746  1.00  0.00    -0.167 F 
ENDBRANCH  17  20
ENDBRANCH   6   8
ENDBRANCH   5   6
ENDBRANCH   4   5
ENDBRANCH   3   4
ENDBRANCH   2   3
ENDBRANCH   1   2
BRANCH   1  24
ATOM     24  C   UNL     1      -6.943   4.436   3.333  1.00  0.00     0.261 C 
BRANCH  24  25
ATOM     25  O   UNL     1      -8.290   3.970   3.163  1.00  0.00    -0.460 OA
BRANCH  25  26
ATOM     26  C   UNL     1      -9.241   4.789   3.681  1.00  0.00     0.338 C 
ATOM     27  O   UNL     1      -9.076   5.849   4.257  1.00  0.00    -0.246 OA
BRANCH  26  28
ATOM     28  C   UNL     1     -10.568   4.300   3.264  1.00  0.00     0.060 A 
ATOM     29  C   UNL     1     -10.998   3.023   3.619  1.00  0.00     0.016 A 
ATOM     30  C   UNL     1     -11.401   5.160   2.536  1.00  0.00     0.016 A 
ATOM     31  C   UNL     1     -12.280   2.612   3.253  1.00  0.00     0.010 A 
ATOM     32  C   UNL     1     -12.683   4.747   2.173  1.00  0.00     0.010 A 
ATOM     33  C   UNL     1     -13.139   3.475   2.544  1.00  0.00    -0.014 A 
BRANCH  33  34
ATOM     34  C   UNL     1     -14.547   3.077   2.296  1.00  0.00     0.031 A 
ATOM     35  C   UNL     1     -15.034   2.733   0.921  1.00  0.00     0.074 A 
ATOM     36  C   UNL     1     -15.393   3.027   3.342  1.00  0.00     0.049 A 
ATOM     37  N   UNL     1     -16.212   2.295   0.552  1.00  0.00    -0.248 NA
ATOM     38  C   UNL     1     -14.083   2.910  -0.186  1.00  0.00     0.031 C 
ATOM     39  C   UNL     1     -15.040   3.376   4.719  1.00  0.00     0.029 A 
ATOM     40  N   UNL     1     -16.711   2.653   3.419  1.00  0.00    -0.354 N 
ATOM     41  C   UNL     1     -16.139   2.121  -0.823  1.00  0.00     0.074 A 
ATOM     42  C   UNL     1     -14.820   2.558  -1.232  1.00  0.00     0.031 C 
ATOM     43  C   UNL     1     -16.099   3.155   5.511  1.00  0.00     0.029 A 
ATOM     44  C   UNL     1     -17.218   2.691   4.695  1.00  0.00     0.049 A 
ATOM     45  H   UNL     1     -17.242   2.383   2.635  1.00  0.00     0.167 HD
ATOM     46  C   UNL     1     -17.080   1.617  -1.658  1.00  0.00     0.037 A 
ATOM     47  C   UNL     1     -18.445   2.385   5.158  1.00  0.00     0.037 A 
ATOM     48  C   UNL     1     -18.396   1.197  -1.243  1.00  0.00     0.049 A 
ATOM     49  C   UNL     1     -19.489   1.885   4.199  1.00  0.00     0.074 A 
ATOM     50  C   UNL     1     -19.405   0.646  -2.013  1.00  0.00     0.029 A 
ATOM     51  N   UNL     1     -18.892   1.295   0.050  1.00  0.00    -0.354 N 
ATOM     52  N   UNL     1     -19.385   1.649   2.913  1.00  0.00    -0.248 NA
ATOM     53  C   UNL     1     -20.820   1.605   4.754  1.00  0.00     0.031 C 
ATOM     54  C   UNL     1     -20.532   0.475  -1.204  1.00  0.00     0.029 A 
ATOM     55  C   UNL     1     -20.205   0.850   0.089  1.00  0.00     0.049 A 
ATOM     56  H   UNL     1     -18.386   1.631   0.825  1.00  0.00     0.167 HD
ATOM     57  C   UNL     1     -20.625   1.173   2.510  1.00  0.00     0.074 A 
ATOM     58  C   UNL     1     -21.460   1.131   3.693  1.00  0.00     0.031 C 
ATOM     59  C   UNL     1     -21.033   0.809   1.270  1.00  0.00     0.037 A 
BRANCH  46  60
ATOM     60  C   UNL     1     -16.727   1.480  -3.113  1.00  0.00     0.064 A 
ATOM     61  C   UNL     1     -15.780   0.542  -3.551  1.00  0.00     0.173 A 
ATOM     62  C   UNL     1     -17.398   2.235  -4.088  1.00  0.00     0.173 A 
ATOM     63  F   UNL     1     -15.106  -0.204  -2.662  1.00  0.00    -0.203 F 
ATOM     64  C   UNL     1     -15.504   0.379  -4.906  1.00  0.00     0.198 A 
ATOM     65  C   UNL     1     -17.144   2.045  -5.444  1.00  0.00     0.198 A 
ATOM     66  F   UNL     1     -18.322   3.139  -3.727  1.00  0.00    -0.203 F 
ATOM     67  F   UNL     1     -14.567  -0.496  -5.297  1.00  0.00    -0.200 F 
ATOM     68  C   UNL     1     -16.193   1.123  -5.852  1.00  0.00     0.200 A 
ATOM     69  F   UNL     1     -17.828   2.750  -6.357  1.00  0.00    -0.200 F 
ATOM     70  F   UNL     1     -15.940   0.951  -7.156  1.00  0.00    -0.200 F 
ENDBRANCH  46  60
BRANCH  47  71
ATOM     71  C   UNL     1     -18.731   2.512   6.612  1.00  0.00     0.064 A 
ATOM     72  C   UNL     1     -18.963   1.378   7.402  1.00  0.00     0.173 A 
ATOM     73  C   UNL     1     -18.745   3.763   7.247  1.00  0.00     0.173 A 
ATOM     74  F   UNL     1     -18.980   0.161   6.839  1.00  0.00    -0.203 F 
ATOM     75  C   UNL     1     -19.207   1.491   8.769  1.00  0.00     0.198 A 
ATOM     76  C   UNL     1     -18.954   3.872   8.619  1.00  0.00     0.198 A 
ATOM     77  F   UNL     1     -18.524   4.879   6.536  1.00  0.00    -0.203 F 
ATOM     78  F   UNL     1     -19.462   0.394   9.495  1.00  0.00    -0.200 F 
ATOM     79  C   UNL     1     -19.191   2.737   9.379  1.00  0.00     0.200 A 
ATOM     80  F   UNL     1     -18.918   5.076   9.206  1.00  0.00    -0.200 F 
ATOM     81  F   UNL     1     -19.405   2.843  10.697  1.00  0.00    -0.200 F 
ENDBRANCH  47  71
BRANCH  59  82
ATOM     82  C   UNL     1     -22.446   0.318   1.112  1.00  0.00     0.064 A 
ATOM     83  C   UNL     1     -23.544   1.181   1.242  1.00  0.00     0.173 A 
ATOM     84  C   UNL     1     -22.701  -1.015   0.750  1.00  0.00     0.173 A 
ATOM     85  F   UNL     1     -23.359   2.461   1.598  1.00  0.00    -0.203 F 
ATOM     86  C   UNL     1     -24.843   0.726   1.030  1.00  0.00     0.198 A 
ATOM     87  C   UNL     1     -23.998  -1.457   0.503  1.00  0.00     0.198 A 
ATOM     88  F   UNL     1     -21.689  -1.883   0.605  1.00  0.00    -0.203 F 
ATOM     89  F   UNL     1     -25.879   1.560   1.200  1.00  0.00    -0.200 F 
ATOM     90  C   UNL     1     -25.069  -0.588   0.649  1.00  0.00     0.200 A 
ATOM     91  F   UNL     1     -24.211  -2.722   0.114  1.00  0.00    -0.200 F 
ATOM     92  F   UNL     1     -26.318  -1.018   0.424  1.00  0.00    -0.200 F 
ENDBRANCH  59  82
ENDBRANCH  33  34
ENDBRANCH  26  28
ENDBRANCH  25  26
ENDBRANCH  24  25
ENDBRANCH   1  24
TORSDOF 16
