REMARK SMILES Cc1noc(C)c1CNc1ccc(Cl)c(C(=O)OCCOCCOC(=O)c2ccc(-c3c4nc(c(-c5c(F)c(F)c(F)c(F)c5F)c5ccc([nH]5)c(-c5c(F)c(F)c(F)c(F)c5F)c5nc(c(-c6c(F)c(F)c(F)c(F)c6F)c6ccc3[nH]6)C=C5)C=C4)cc2)n1
REMARK SMILES IDX 20 1 19 2 18 3 16 4 17 5 15 6 10 7 11 8 90 9 12 10 13 11
REMARK SMILES IDX 14 12 9 13 8 15 7 16 1 17 2 18 3 19 4 20 5 21 6 22 21 23
REMARK SMILES IDX 22 24 23 25 24 26 25 27 26 28 27 29 28 30 89 31 29 32 88 33
REMARK SMILES IDX 30 34 31 35 32 36 82 37 33 38 87 39 81 40 83 41 34 42 86 43
REMARK SMILES IDX 80 44 79 45 35 47 67 48 47 49 66 50 48 51 51 52 65 53 84 54
REMARK SMILES IDX 49 55 50 56 64 58 85 59 52 60 36 61 37 62 45 63 38 64 39 65
REMARK SMILES IDX 43 66 46 67 40 68 41 69 44 70 42 71 68 72 69 73 77 74 70 75
REMARK SMILES IDX 71 76 75 77 78 78 72 79 73 80 76 81 74 82 53 83 54 84 62 85
REMARK SMILES IDX 55 86 56 87 60 88 63 89 57 90 58 91 61 92 59 93
REMARK H PARENT 9 14 83 46 51 57
REMARK Flexibility Score: inf
ROOT
ATOM      1  C   UNL     1      -7.342   4.096  -4.159  1.00  0.00     0.202 C 
ENDROOT
BRANCH   1   2
ATOM      2  C   UNL     1      -7.323   3.497  -2.752  1.00  0.00     0.261 C 
BRANCH   2   3
ATOM      3  O   UNL     1      -6.327   4.167  -1.961  1.00  0.00    -0.458 OA
BRANCH   3   4
ATOM      4  C   UNL     1      -5.539   3.356  -1.216  1.00  0.00     0.358 C 
ATOM      5  O   UNL     1      -5.719   2.168  -0.996  1.00  0.00    -0.244 OA
BRANCH   4   6
ATOM      6  C   UNL     1      -4.301   4.079  -0.834  1.00  0.00     0.169 A 
ATOM      7  C   UNL     1      -1.984   3.913  -0.793  1.00  0.00     0.127 A 
ATOM      8  C   UNL     1      -1.897   5.082  -0.051  1.00  0.00     0.048 A 
ATOM      9  N   UNL     1      -3.160   3.427  -1.206  1.00  0.00    -0.222 NA
ATOM     10  C   UNL     1      -3.067   5.775   0.274  1.00  0.00     0.027 A 
ATOM     11  C   UNL     1      -4.304   5.263  -0.113  1.00  0.00     0.074 A 
ATOM     12  Cl  UNL     1      -5.729   6.099   0.370  1.00  0.00    -0.082 Cl
BRANCH   7  13
ATOM     13  N   UNL     1      -0.885   3.151  -1.125  1.00  0.00    -0.366 N 
ATOM     14  H   UNL     1      -0.647   2.990  -2.067  1.00  0.00     0.162 HD
BRANCH  13  15
ATOM     15  C   UNL     1      -0.086   2.591  -0.043  1.00  0.00     0.156 C 
BRANCH  15  16
ATOM     16  C   UNL     1      -0.012   1.100  -0.014  1.00  0.00     0.037 A 
ATOM     17  C   UNL     1      -2.546   0.406   0.016  1.00  0.00     0.071 C 
ATOM     18  C   UNL     1      -1.083   0.158   0.021  1.00  0.00     0.086 A 
ATOM     19  N   UNL     1      -0.626  -1.100   0.048  1.00  0.00    -0.085 NA
ATOM     20  O   UNL     1       0.748  -1.005   0.031  1.00  0.00    -0.361 OA
ATOM     21  C   UNL     1       1.114   0.302  -0.007  1.00  0.00     0.138 A 
ATOM     22  C   UNL     1       2.565   0.566  -0.027  1.00  0.00     0.091 C 
ENDBRANCH  15  16
ENDBRANCH  13  15
ENDBRANCH   7  13
ENDBRANCH   4   6
ENDBRANCH   3   4
ENDBRANCH   2   3
ENDBRANCH   1   2
BRANCH   1  23
ATOM     23  O   UNL     1      -6.200   3.790  -4.963  1.00  0.00    -0.374 OA
BRANCH  23  24
ATOM     24  C   UNL     1      -4.990   4.493  -4.675  1.00  0.00     0.202 C 
BRANCH  24  25
ATOM     25  C   UNL     1      -4.883   5.898  -5.278  1.00  0.00     0.261 C 
BRANCH  25  26
ATOM     26  O   UNL     1      -5.867   6.801  -4.737  1.00  0.00    -0.460 OA
BRANCH  26  27
ATOM     27  C   UNL     1      -6.847   7.157  -5.599  1.00  0.00     0.338 C 
ATOM     28  O   UNL     1      -6.939   6.862  -6.783  1.00  0.00    -0.246 OA
BRANCH  27  29
ATOM     29  C   UNL     1      -7.930   7.855  -4.883  1.00  0.00     0.060 A 
ATOM     30  C   UNL     1      -9.236   7.378  -5.060  1.00  0.00     0.016 A 
ATOM     31  C   UNL     1      -7.693   9.000  -4.118  1.00  0.00     0.016 A 
ATOM     32  C   UNL     1     -10.313   8.068  -4.508  1.00  0.00     0.010 A 
ATOM     33  C   UNL     1      -8.778   9.696  -3.572  1.00  0.00     0.010 A 
ATOM     34  C   UNL     1     -10.095   9.251  -3.789  1.00  0.00    -0.014 A 
BRANCH  34  35
ATOM     35  C   UNL     1     -11.254  10.079  -3.371  1.00  0.00     0.031 A 
ATOM     36  C   UNL     1     -11.648  11.267  -4.204  1.00  0.00     0.074 A 
ATOM     37  C   UNL     1     -11.965   9.758  -2.275  1.00  0.00     0.049 A 
ATOM     38  N   UNL     1     -12.615  12.130  -4.015  1.00  0.00    -0.248 NA
ATOM     39  C   UNL     1     -10.847  11.519  -5.412  1.00  0.00     0.031 C 
ATOM     40  C   UNL     1     -11.702   8.615  -1.403  1.00  0.00     0.029 A 
ATOM     41  N   UNL     1     -13.054  10.372  -1.708  1.00  0.00    -0.354 N 
ATOM     42  C   UNL     1     -12.533  13.028  -5.071  1.00  0.00     0.074 A 
ATOM     43  C   UNL     1     -11.410  12.620  -5.888  1.00  0.00     0.031 C 
ATOM     44  C   UNL     1     -12.601   8.614  -0.403  1.00  0.00     0.029 A 
ATOM     45  C   UNL     1     -13.483   9.770  -0.550  1.00  0.00     0.049 A 
ATOM     46  H   UNL     1     -13.486  11.168  -2.094  1.00  0.00     0.167 HD
ATOM     47  C   UNL     1     -13.328  14.091  -5.339  1.00  0.00     0.037 A 
ATOM     48  C   UNL     1     -14.465  10.126   0.302  1.00  0.00     0.037 A 
ATOM     49  C   UNL     1     -14.457  14.487  -4.538  1.00  0.00     0.049 A 
ATOM     50  C   UNL     1     -15.297  11.348   0.006  1.00  0.00     0.074 A 
ATOM     51  C   UNL     1     -15.350  15.521  -4.759  1.00  0.00     0.029 A 
ATOM     52  N   UNL     1     -14.843  13.869  -3.359  1.00  0.00    -0.354 N 
ATOM     53  N   UNL     1     -15.243  12.160  -1.021  1.00  0.00    -0.248 NA
ATOM     54  C   UNL     1     -16.331  11.700   0.991  1.00  0.00     0.031 C 
ATOM     55  C   UNL     1     -16.247  15.561  -3.688  1.00  0.00     0.029 A 
ATOM     56  C   UNL     1     -15.943  14.521  -2.825  1.00  0.00     0.049 A 
ATOM     57  H   UNL     1     -14.402  13.084  -2.961  1.00  0.00     0.167 HD
ATOM     58  C   UNL     1     -16.251  13.095  -0.823  1.00  0.00     0.074 A 
ATOM     59  C   UNL     1     -16.910  12.744   0.416  1.00  0.00     0.031 C 
ATOM     60  C   UNL     1     -16.599  14.151  -1.598  1.00  0.00     0.037 A 
BRANCH  47  61
ATOM     61  C   UNL     1     -13.003  14.923  -6.543  1.00  0.00     0.064 A 
ATOM     62  C   UNL     1     -13.275  14.475  -7.843  1.00  0.00     0.173 A 
ATOM     63  C   UNL     1     -12.480  16.216  -6.387  1.00  0.00     0.173 A 
ATOM     64  F   UNL     1     -13.765  13.242  -8.044  1.00  0.00    -0.203 F 
ATOM     65  C   UNL     1     -13.026  15.288  -8.946  1.00  0.00     0.198 A 
ATOM     66  C   UNL     1     -12.255  17.034  -7.490  1.00  0.00     0.198 A 
ATOM     67  F   UNL     1     -12.207  16.692  -5.163  1.00  0.00    -0.203 F 
ATOM     68  F   UNL     1     -13.270  14.831 -10.182  1.00  0.00    -0.200 F 
ATOM     69  C   UNL     1     -12.525  16.569  -8.768  1.00  0.00     0.200 A 
ATOM     70  F   UNL     1     -11.781  18.276  -7.316  1.00  0.00    -0.200 F 
ATOM     71  F   UNL     1     -12.302  17.356  -9.830  1.00  0.00    -0.200 F 
ENDBRANCH  47  61
BRANCH  48  72
ATOM     72  C   UNL     1     -14.715   9.330   1.532  1.00  0.00     0.064 A 
ATOM     73  C   UNL     1     -15.902   8.602   1.694  1.00  0.00     0.173 A 
ATOM     74  C   UNL     1     -13.795   9.323   2.591  1.00  0.00     0.173 A 
ATOM     75  F   UNL     1     -16.825   8.602   0.721  1.00  0.00    -0.203 F 
ATOM     76  C   UNL     1     -16.172   7.921   2.880  1.00  0.00     0.198 A 
ATOM     77  C   UNL     1     -14.054   8.618   3.764  1.00  0.00     0.198 A 
ATOM     78  F   UNL     1     -12.647  10.008   2.488  1.00  0.00    -0.203 F 
ATOM     79  F   UNL     1     -17.341   7.283   3.032  1.00  0.00    -0.200 F 
ATOM     80  C   UNL     1     -15.246   7.927   3.912  1.00  0.00     0.200 A 
ATOM     81  F   UNL     1     -13.153   8.620   4.756  1.00  0.00    -0.200 F 
ATOM     82  F   UNL     1     -15.510   7.279   5.055  1.00  0.00    -0.200 F 
ENDBRANCH  48  72
BRANCH  60  83
ATOM     83  C   UNL     1     -17.768  14.980  -1.152  1.00  0.00     0.064 A 
ATOM     84  C   UNL     1     -17.680  15.846  -0.052  1.00  0.00     0.173 A 
ATOM     85  C   UNL     1     -18.981  14.934  -1.856  1.00  0.00     0.173 A 
ATOM     86  F   UNL     1     -16.547  15.915   0.663  1.00  0.00    -0.203 F 
ATOM     87  C   UNL     1     -18.771  16.616   0.341  1.00  0.00     0.198 A 
ATOM     88  C   UNL     1     -20.061  15.727  -1.478  1.00  0.00     0.198 A 
ATOM     89  F   UNL     1     -19.115  14.127  -2.920  1.00  0.00    -0.203 F 
ATOM     90  F   UNL     1     -18.679  17.402   1.423  1.00  0.00    -0.200 F 
ATOM     91  C   UNL     1     -19.957  16.562  -0.376  1.00  0.00     0.200 A 
ATOM     92  F   UNL     1     -21.202  15.683  -2.180  1.00  0.00    -0.200 F 
ATOM     93  F   UNL     1     -21.004  17.308   0.001  1.00  0.00    -0.200 F 
ENDBRANCH  60  83
ENDBRANCH  34  35
ENDBRANCH  27  29
ENDBRANCH  26  27
ENDBRANCH  25  26
ENDBRANCH  24  25
ENDBRANCH  23  24
ENDBRANCH   1  23
TORSDOF 17
