REMARK SMILES CCN1C(=O)C[C@H](C(=O)OCCOCCOC(=O)c2ccc(-c3c4nc(c(-c5c(F)c(F)c(F)c(F)c5F)c5ccc([nH]5)c(-c5c(F)c(F)c(F)c(F)c5F)c5nc(c(-c6c(F)c(F)c(F)c(F)c6F)c6ccc3[nH]6)C=C5)C=C4)cc2)[C@H]1c1ccccc1C1CC1
REMARK SMILES IDX 13 1 12 2 11 3 10 4 8 5 9 6 7 7 3 8 4 9 82 10 5 11 6 12 2 13
REMARK SMILES IDX 1 14 83 15 84 16 88 17 85 18 87 19 86 20 89 21 90 22 91 23
REMARK SMILES IDX 14 24 15 25 16 26 17 27 18 28 19 29 20 30 81 31 21 32 80 33
REMARK SMILES IDX 22 34 23 35 24 36 74 37 25 38 79 39 73 40 75 41 26 42 78 43
REMARK SMILES IDX 72 44 71 45 27 47 59 48 39 49 58 50 40 51 43 52 57 53 76 54
REMARK SMILES IDX 41 55 42 56 56 58 77 59 44 60 28 61 29 62 37 63 30 64 31 65
REMARK SMILES IDX 35 66 38 67 32 68 33 69 36 70 34 71 60 72 61 73 69 74 62 75
REMARK SMILES IDX 63 76 67 77 70 78 64 79 65 80 68 81 66 82 45 83 46 84 54 85
REMARK SMILES IDX 47 86 48 87 52 88 55 89 49 90 50 91 53 92 51 93
REMARK H PARENT 75 46 43 57
REMARK Flexibility Score: inf
ROOT
ATOM      1  O   UNL     1       3.146  -1.070   8.053  1.00  0.00    -0.374 OA
ENDROOT
BRANCH   1   2
ATOM      2  C   UNL     1       1.966  -0.282   8.140  1.00  0.00     0.202 C 
BRANCH   2   3
ATOM      3  C   UNL     1       1.474   0.431   6.877  1.00  0.00     0.261 C 
BRANCH   3   4
ATOM      4  O   UNL     1       1.337  -0.433   5.739  1.00  0.00    -0.463 OA
BRANCH   4   5
ATOM      5  C   UNL     1       2.352  -0.332   4.840  1.00  0.00     0.312 C 
ATOM      6  O   UNL     1       3.306   0.429   4.950  1.00  0.00    -0.252 OA
BRANCH   5   7
ATOM      7  C   UNL     1       2.201  -1.259   3.667  1.00  0.00     0.135 C 
ATOM      8  N   UNL     1       1.065  -1.654   1.674  1.00  0.00    -0.335 N 
ATOM      9  C   UNL     1       0.925  -2.817   2.443  1.00  0.00     0.224 C 
ATOM     10  C   UNL     1       1.469  -0.541   2.526  1.00  0.00     0.130 C 
ATOM     11  O   UNL     1       0.434  -3.874   2.081  1.00  0.00    -0.275 OA
ATOM     12  C   UNL     1       1.389  -2.531   3.850  1.00  0.00     0.118 C 
BRANCH   8  13
ATOM     13  C   UNL     1       0.329  -1.562   0.418  1.00  0.00     0.117 C 
ATOM     14  C   UNL     1       0.643  -0.401  -0.504  1.00  0.00     0.027 C 
ENDBRANCH   8  13
BRANCH  10  15
ATOM     15  C   UNL     1       2.341   0.530   1.898  1.00  0.00    -0.021 A 
ATOM     16  C   UNL     1       3.592   0.097   1.376  1.00  0.00     0.006 A 
ATOM     17  C   UNL     1       2.032   1.918   1.916  1.00  0.00    -0.040 A 
ATOM     18  C   UNL     1       4.570   0.992   0.960  1.00  0.00     0.000 A 
ATOM     19  C   UNL     1       3.073   2.787   1.492  1.00  0.00     0.004 A 
ATOM     20  C   UNL     1       4.317   2.346   1.037  1.00  0.00     0.000 A 
BRANCH  17  21
ATOM     21  C   UNL     1       0.739   2.636   2.315  1.00  0.00     0.019 C 
ATOM     22  C   UNL     1      -0.638   2.067   2.502  1.00  0.00     0.009 C 
ATOM     23  C   UNL     1       0.166   2.492   3.700  1.00  0.00     0.009 C 
ENDBRANCH  17  21
ENDBRANCH  10  15
ENDBRANCH   5   7
ENDBRANCH   4   5
ENDBRANCH   3   4
ENDBRANCH   2   3
ENDBRANCH   1   2
BRANCH   1  24
ATOM     24  C   UNL     1       3.098  -2.314   7.358  1.00  0.00     0.202 C 
BRANCH  24  25
ATOM     25  C   UNL     1       2.213  -3.430   7.923  1.00  0.00     0.261 C 
BRANCH  25  26
ATOM     26  O   UNL     1       0.814  -3.090   7.930  1.00  0.00    -0.460 OA
BRANCH  26  27
ATOM     27  C   UNL     1       0.251  -3.071   9.161  1.00  0.00     0.338 C 
ATOM     28  O   UNL     1       0.788  -3.346  10.228  1.00  0.00    -0.246 OA
BRANCH  27  29
ATOM     29  C   UNL     1      -1.103  -2.498   9.110  1.00  0.00     0.060 A 
ATOM     30  C   UNL     1      -1.365  -1.381   9.914  1.00  0.00     0.016 A 
ATOM     31  C   UNL     1      -2.132  -3.126   8.406  1.00  0.00     0.016 A 
ATOM     32  C   UNL     1      -2.670  -0.921  10.065  1.00  0.00     0.010 A 
ATOM     33  C   UNL     1      -3.445  -2.669   8.567  1.00  0.00     0.010 A 
ATOM     34  C   UNL     1      -3.723  -1.593   9.430  1.00  0.00    -0.014 A 
BRANCH  34  35
ATOM     35  C   UNL     1      -5.120  -1.266   9.804  1.00  0.00     0.031 A 
ATOM     36  C   UNL     1      -5.822  -2.121  10.823  1.00  0.00     0.074 A 
ATOM     37  C   UNL     1      -5.741  -0.199   9.273  1.00  0.00     0.049 A 
ATOM     38  N   UNL     1      -7.042  -2.028  11.289  1.00  0.00    -0.248 NA
ATOM     39  C   UNL     1      -5.042  -3.229  11.397  1.00  0.00     0.031 C 
ATOM     40  C   UNL     1      -5.150   0.728   8.312  1.00  0.00     0.029 A 
ATOM     41  N   UNL     1      -7.011   0.281   9.471  1.00  0.00    -0.354 N 
ATOM     42  C   UNL     1      -7.178  -3.066  12.201  1.00  0.00     0.074 A 
ATOM     43  C   UNL     1      -5.926  -3.792  12.208  1.00  0.00     0.031 C 
ATOM     44  C   UNL     1      -6.061   1.664   7.995  1.00  0.00     0.029 A 
ATOM     45  C   UNL     1      -7.305   1.384   8.710  1.00  0.00     0.049 A 
ATOM     46  H   UNL     1      -7.650  -0.127  10.099  1.00  0.00     0.167 HD
ATOM     47  C   UNL     1      -8.248  -3.380  12.970  1.00  0.00     0.037 A 
ATOM     48  C   UNL     1      -8.455   2.075   8.592  1.00  0.00     0.037 A 
ATOM     49  C   UNL     1      -9.489  -2.653  12.968  1.00  0.00     0.049 A 
ATOM     50  C   UNL     1      -9.653   1.663   9.408  1.00  0.00     0.074 A 
ATOM     51  C   UNL     1     -10.622  -2.875  13.732  1.00  0.00     0.029 A 
ATOM     52  N   UNL     1      -9.763  -1.564  12.154  1.00  0.00    -0.354 N 
ATOM     53  N   UNL     1      -9.764   0.700  10.290  1.00  0.00    -0.248 NA
ATOM     54  C   UNL     1     -10.886   2.439   9.211  1.00  0.00     0.031 C 
ATOM     55  C   UNL     1     -11.598  -1.951  13.346  1.00  0.00     0.029 A 
ATOM     56  C   UNL     1     -11.057  -1.121  12.376  1.00  0.00     0.049 A 
ATOM     57  H   UNL     1      -9.132  -1.165  11.513  1.00  0.00     0.167 HD
ATOM     58  C   UNL     1     -11.064   0.770  10.773  1.00  0.00     0.074 A 
ATOM     59  C   UNL     1     -11.702   1.879  10.093  1.00  0.00     0.031 C 
ATOM     60  C   UNL     1     -11.675  -0.011  11.697  1.00  0.00     0.037 A 
BRANCH  47  61
ATOM     61  C   UNL     1      -8.132  -4.580  13.863  1.00  0.00     0.064 A 
ATOM     62  C   UNL     1      -7.341  -4.565  15.021  1.00  0.00     0.173 A 
ATOM     63  C   UNL     1      -8.850  -5.750  13.573  1.00  0.00     0.173 A 
ATOM     64  F   UNL     1      -6.624  -3.475  15.335  1.00  0.00    -0.203 F 
ATOM     65  C   UNL     1      -7.257  -5.684  15.845  1.00  0.00     0.198 A 
ATOM     66  C   UNL     1      -8.784  -6.858  14.412  1.00  0.00     0.198 A 
ATOM     67  F   UNL     1      -9.624  -5.814  12.479  1.00  0.00    -0.203 F 
ATOM     68  F   UNL     1      -6.464  -5.662  16.925  1.00  0.00    -0.200 F 
ATOM     69  C   UNL     1      -7.984  -6.827  15.544  1.00  0.00     0.200 A 
ATOM     70  F   UNL     1      -9.495  -7.957  14.126  1.00  0.00    -0.200 F 
ATOM     71  F   UNL     1      -7.907  -7.901  16.341  1.00  0.00    -0.200 F 
ENDBRANCH  47  61
BRANCH  48  72
ATOM     72  C   UNL     1      -8.535   3.227   7.658  1.00  0.00     0.064 A 
ATOM     73  C   UNL     1      -8.662   4.538   8.136  1.00  0.00     0.173 A 
ATOM     74  C   UNL     1      -8.501   3.038   6.268  1.00  0.00     0.173 A 
ATOM     75  F   UNL     1      -8.725   4.766   9.456  1.00  0.00    -0.203 F 
ATOM     76  C   UNL     1      -8.768   5.616   7.259  1.00  0.00     0.198 A 
ATOM     77  C   UNL     1      -8.580   4.119   5.393  1.00  0.00     0.198 A 
ATOM     78  F   UNL     1      -8.382   1.803   5.761  1.00  0.00    -0.203 F 
ATOM     79  F   UNL     1      -8.932   6.855   7.741  1.00  0.00    -0.200 F 
ATOM     80  C   UNL     1      -8.721   5.406   5.888  1.00  0.00     0.200 A 
ATOM     81  F   UNL     1      -8.523   3.913   4.070  1.00  0.00    -0.200 F 
ATOM     82  F   UNL     1      -8.820   6.443   5.046  1.00  0.00    -0.200 F 
ENDBRANCH  48  72
BRANCH  60  83
ATOM     83  C   UNL     1     -13.093   0.324  12.055  1.00  0.00     0.064 A 
ATOM     84  C   UNL     1     -14.155   0.061  11.177  1.00  0.00     0.173 A 
ATOM     85  C   UNL     1     -13.398   0.875  13.309  1.00  0.00     0.173 A 
ATOM     86  F   UNL     1     -13.914  -0.451   9.961  1.00  0.00    -0.203 F 
ATOM     87  C   UNL     1     -15.467   0.361  11.533  1.00  0.00     0.198 A 
ATOM     88  C   UNL     1     -14.713   1.147  13.672  1.00  0.00     0.198 A 
ATOM     89  F   UNL     1     -12.418   1.139  14.187  1.00  0.00    -0.203 F 
ATOM     90  F   UNL     1     -16.462   0.143  10.661  1.00  0.00    -0.200 F 
ATOM     91  C   UNL     1     -15.746   0.896  12.781  1.00  0.00     0.200 A 
ATOM     92  F   UNL     1     -14.982   1.653  14.883  1.00  0.00    -0.200 F 
ATOM     93  F   UNL     1     -17.011   1.177  13.124  1.00  0.00    -0.200 F 
ENDBRANCH  60  83
ENDBRANCH  34  35
ENDBRANCH  27  29
ENDBRANCH  26  27
ENDBRANCH  25  26
ENDBRANCH  24  25
ENDBRANCH   1  24
TORSDOF 17
