REMARK SMILES C[C@H]1[C@@H](C(=O)OCCOCCOC(=O)c2ccc(-c3c4nc(c(-c5c(F)c(F)c(F)c(F)c5F)c5ccc([nH]5)c(-c5c(F)c(F)c(F)c(F)c5F)c5nc(c(-c6c(F)c(F)c(F)c(F)c6F)c6ccc3[nH]6)C=C5)C=C4)cc2)CC[N@@H+]1CCO
REMARK SMILES IDX 8 1 7 2 6 3 4 4 5 5 3 6 1 7 2 8 80 9 78 10 79 11 81 13 82 14
REMARK SMILES IDX 83 15 9 17 10 18 11 19 12 20 13 21 14 22 15 23 16 24 77 25
REMARK SMILES IDX 17 26 76 27 18 28 19 29 20 30 70 31 21 32 75 33 69 34 71 35
REMARK SMILES IDX 22 36 74 37 68 38 67 39 23 41 55 42 35 43 54 44 36 45 39 46
REMARK SMILES IDX 53 47 72 48 37 49 38 50 52 52 73 53 40 54 24 55 25 56 33 57
REMARK SMILES IDX 26 58 27 59 31 60 34 61 28 62 29 63 32 64 30 65 56 66 57 67
REMARK SMILES IDX 65 68 58 69 59 70 63 71 66 72 60 73 61 74 64 75 62 76 41 77
REMARK SMILES IDX 42 78 50 79 43 80 44 81 48 82 51 83 45 84 46 85 49 86 47 87
REMARK H PARENT 80 12 83 16 71 40 39 51
REMARK Flexibility Score: inf
ROOT
ATOM      1  C   UNL     1       1.472   2.461  -3.645  1.00  0.00     0.202 C 
ENDROOT
BRANCH   1   2
ATOM      2  C   UNL     1       1.624   3.249  -2.341  1.00  0.00     0.261 C 
BRANCH   2   3
ATOM      3  O   UNL     1       1.413   2.362  -1.224  1.00  0.00    -0.463 OA
BRANCH   3   4
ATOM      4  C   UNL     1       0.410   2.665  -0.376  1.00  0.00     0.315 C 
ATOM      5  O   UNL     1      -0.201   3.729  -0.386  1.00  0.00    -0.252 OA
BRANCH   4   6
ATOM      6  C   UNL     1       0.012   1.531   0.557  1.00  0.00     0.162 C 
ATOM      7  C   UNL     1       1.952  -0.106  -0.233  1.00  0.00     0.076 C 
ATOM      8  C   UNL     1       0.809   0.223   0.723  1.00  0.00     0.195 C 
ATOM      9  N   UNL     1      -0.169  -0.880   0.630  1.00  0.00    -0.330 N 
ATOM     10  C   UNL     1      -1.425   1.099   0.242  1.00  0.00     0.083 C 
ATOM     11  C   UNL     1      -1.366  -0.390  -0.032  1.00  0.00     0.263 C 
ATOM     12  H   UNL     1       0.233  -1.614   0.048  1.00  0.00     0.348 HD
BRANCH   9  13
ATOM     13  C   UNL     1      -0.393  -1.629   1.874  1.00  0.00     0.290 C 
BRANCH  13  14
ATOM     14  C   UNL     1      -1.040  -0.899   3.063  1.00  0.00     0.217 C 
BRANCH  14  15
ATOM     15  O   UNL     1      -2.462  -0.928   3.001  1.00  0.00    -0.391 OA
ATOM     16  H   UNL     1      -2.760  -0.479   2.195  1.00  0.00     0.210 HD
ENDBRANCH  14  15
ENDBRANCH  13  14
ENDBRANCH   9  13
ENDBRANCH   4   6
ENDBRANCH   3   4
ENDBRANCH   2   3
ENDBRANCH   1   2
BRANCH   1  17
ATOM     17  O   UNL     1       0.118   2.169  -4.007  1.00  0.00    -0.374 OA
BRANCH  17  18
ATOM     18  C   UNL     1      -0.485   1.061  -3.340  1.00  0.00     0.202 C 
BRANCH  18  19
ATOM     19  C   UNL     1      -0.304  -0.292  -4.031  1.00  0.00     0.261 C 
BRANCH  19  20
ATOM     20  O   UNL     1       1.078  -0.682  -4.029  1.00  0.00    -0.460 OA
BRANCH  20  21
ATOM     21  C   UNL     1       1.708  -0.484  -5.207  1.00  0.00     0.338 C 
ATOM     22  O   UNL     1       1.201  -0.157  -6.272  1.00  0.00    -0.246 OA
BRANCH  21  23
ATOM     23  C   UNL     1       3.169  -0.557  -5.023  1.00  0.00     0.060 A 
ATOM     24  C   UNL     1       3.935   0.377  -5.731  1.00  0.00     0.016 A 
ATOM     25  C   UNL     1       3.788  -1.540  -4.245  1.00  0.00     0.016 A 
ATOM     26  C   UNL     1       5.319   0.268  -5.749  1.00  0.00     0.010 A 
ATOM     27  C   UNL     1       5.183  -1.645  -4.258  1.00  0.00     0.010 A 
ATOM     28  C   UNL     1       5.946  -0.780  -5.062  1.00  0.00    -0.014 A 
BRANCH  28  29
ATOM     29  C   UNL     1       7.367  -1.063  -5.375  1.00  0.00     0.031 A 
ATOM     30  C   UNL     1       7.685  -2.164  -6.351  1.00  0.00     0.074 A 
ATOM     31  C   UNL     1       8.344  -0.278  -4.891  1.00  0.00     0.049 A 
ATOM     32  N   UNL     1       8.837  -2.518  -6.862  1.00  0.00    -0.248 NA
ATOM     33  C   UNL     1       6.548  -2.975  -6.820  1.00  0.00     0.031 C 
ATOM     34  C   UNL     1       8.149   0.837  -3.967  1.00  0.00     0.029 A 
ATOM     35  N   UNL     1       9.695  -0.289  -5.130  1.00  0.00    -0.354 N 
ATOM     36  C   UNL     1       8.563  -3.584  -7.710  1.00  0.00     0.074 A 
ATOM     37  C   UNL     1       7.146  -3.852  -7.612  1.00  0.00     0.031 C 
ATOM     38  C   UNL     1       9.338   1.413  -3.724  1.00  0.00     0.029 A 
ATOM     39  C   UNL     1      10.377   0.697  -4.462  1.00  0.00     0.049 A 
ATOM     40  H   UNL     1      10.133  -0.941  -5.723  1.00  0.00     0.167 HD
ATOM     41  C   UNL     1       9.414  -4.265  -8.513  1.00  0.00     0.037 A 
ATOM     42  C   UNL     1      11.693   0.984  -4.451  1.00  0.00     0.037 A 
ATOM     43  C   UNL     1      10.823  -3.992  -8.610  1.00  0.00     0.049 A 
ATOM     44  C   UNL     1      12.626   0.179  -5.318  1.00  0.00     0.074 A 
ATOM     45  C   UNL     1      11.772  -4.615  -9.401  1.00  0.00     0.029 A 
ATOM     46  N   UNL     1      11.486  -3.012  -7.885  1.00  0.00    -0.354 N 
ATOM     47  N   UNL     1      12.354  -0.804  -6.142  1.00  0.00    -0.248 NA
ATOM     48  C   UNL     1      14.050   0.536  -5.263  1.00  0.00     0.031 C 
ATOM     49  C   UNL     1      13.018  -4.046  -9.116  1.00  0.00     0.029 A 
ATOM     50  C   UNL     1      12.837  -3.029  -8.192  1.00  0.00     0.049 A 
ATOM     51  H   UNL     1      11.059  -2.396  -7.247  1.00  0.00     0.167 HD
ATOM     52  C   UNL     1      13.562  -1.163  -6.724  1.00  0.00     0.074 A 
ATOM     53  C   UNL     1      14.567  -0.278  -6.172  1.00  0.00     0.031 C 
ATOM     54  C   UNL     1      13.820  -2.136  -7.634  1.00  0.00     0.037 A 
BRANCH  41  55
ATOM     55  C   UNL     1       8.843  -5.388  -9.332  1.00  0.00     0.064 A 
ATOM     56  C   UNL     1       7.989  -5.150 -10.420  1.00  0.00     0.173 A 
ATOM     57  C   UNL     1       9.174  -6.719  -9.037  1.00  0.00     0.173 A 
ATOM     58  F   UNL     1       7.628  -3.897 -10.734  1.00  0.00    -0.203 F 
ATOM     59  C   UNL     1       7.465  -6.205 -11.164  1.00  0.00     0.198 A 
ATOM     60  C   UNL     1       8.673  -7.769  -9.803  1.00  0.00     0.198 A 
ATOM     61  F   UNL     1       9.987  -7.003  -8.009  1.00  0.00    -0.203 F 
ATOM     62  F   UNL     1       6.611  -5.956 -12.167  1.00  0.00    -0.200 F 
ATOM     63  C   UNL     1       7.813  -7.512 -10.860  1.00  0.00     0.200 A 
ATOM     64  F   UNL     1       9.019  -9.031  -9.514  1.00  0.00    -0.200 F 
ATOM     65  F   UNL     1       7.314  -8.526 -11.580  1.00  0.00    -0.200 F 
ENDBRANCH  41  55
BRANCH  42  66
ATOM     66  C   UNL     1      12.205   2.091  -3.601  1.00  0.00     0.064 A 
ATOM     67  C   UNL     1      12.735   3.259  -4.166  1.00  0.00     0.173 A 
ATOM     68  C   UNL     1      12.188   1.994  -2.201  1.00  0.00     0.173 A 
ATOM     69  F   UNL     1      12.793   3.390  -5.499  1.00  0.00    -0.203 F 
ATOM     70  C   UNL     1      13.248   4.277  -3.365  1.00  0.00     0.198 A 
ATOM     71  C   UNL     1      12.674   3.025  -1.401  1.00  0.00     0.198 A 
ATOM     72  F   UNL     1      11.691   0.897  -1.609  1.00  0.00    -0.203 F 
ATOM     73  F   UNL     1      13.794   5.362  -3.933  1.00  0.00    -0.200 F 
ATOM     74  C   UNL     1      13.212   4.162  -1.984  1.00  0.00     0.200 A 
ATOM     75  F   UNL     1      12.624   2.915  -0.067  1.00  0.00    -0.200 F 
ATOM     76  F   UNL     1      13.703   5.143  -1.214  1.00  0.00    -0.200 F 
ENDBRANCH  42  66
BRANCH  54  77
ATOM     77  C   UNL     1      15.238  -2.268  -8.114  1.00  0.00     0.064 A 
ATOM     78  C   UNL     1      16.258  -2.750  -7.281  1.00  0.00     0.173 A 
ATOM     79  C   UNL     1      15.574  -1.927  -9.433  1.00  0.00     0.173 A 
ATOM     80  F   UNL     1      15.992  -3.079  -6.008  1.00  0.00    -0.203 F 
ATOM     81  C   UNL     1      17.569  -2.849  -7.739  1.00  0.00     0.198 A 
ATOM     82  C   UNL     1      16.879  -2.060  -9.898  1.00  0.00     0.198 A 
ATOM     83  F   UNL     1      14.634  -1.470 -10.275  1.00  0.00    -0.203 F 
ATOM     84  F   UNL     1      18.538  -3.255  -6.907  1.00  0.00    -0.200 F 
ATOM     85  C   UNL     1      17.877  -2.510  -9.048  1.00  0.00     0.200 A 
ATOM     86  F   UNL     1      17.171  -1.746 -11.168  1.00  0.00    -0.200 F 
ATOM     87  F   UNL     1      19.139  -2.607  -9.488  1.00  0.00    -0.200 F 
ENDBRANCH  54  77
ENDBRANCH  28  29
ENDBRANCH  21  23
ENDBRANCH  20  21
ENDBRANCH  19  20
ENDBRANCH  18  19
ENDBRANCH  17  18
ENDBRANCH   1  17
TORSDOF 17
