REMARK SMILES Cc1nn2c(nnc3c(=O)n(CCCC(=O)OCCOCCOC(=O)c4ccc(-c5c6nc(c(-c7c(F)c(F)c(F)c(F)c7F)c7ccc([nH]7)c(-c7c(F)c(F)c(F)c(F)c7F)c7nc(c(-c8c(F)c(F)c(F)c(F)c8F)c8ccc5[nH]8)C=C7)C=C6)cc4)ccc32)c1-c1ccc(F)cc1
REMARK SMILES IDX 19 1 18 2 17 3 15 4 16 5 14 6 13 7 12 8 11 9 1 10 2 11 3 12
REMARK SMILES IDX 92 13 4 14 5 15 91 16 6 17 8 18 90 19 7 20 9 21 89 22 10 23
REMARK SMILES IDX 93 24 94 25 99 26 95 27 98 28 96 29 97 30 20 31 21 32 22 33
REMARK SMILES IDX 23 34 24 35 25 36 26 37 27 38 88 39 28 40 87 41 29 42 30 43
REMARK SMILES IDX 31 44 81 45 32 46 86 47 80 48 82 49 33 50 85 51 79 52 78 53
REMARK SMILES IDX 34 55 66 56 46 57 65 58 47 59 50 60 64 61 83 62 48 63 49 64
REMARK SMILES IDX 63 66 84 67 51 68 35 69 36 70 44 71 37 72 38 73 42 74 45 75
REMARK SMILES IDX 39 76 40 77 43 78 41 79 67 80 68 81 76 82 69 83 70 84 74 85
REMARK SMILES IDX 77 86 71 87 72 88 75 89 73 90 52 91 53 92 61 93 54 94 55 95
REMARK SMILES IDX 59 96 62 97 56 98 57 99 60 100 58 101
REMARK H PARENT 82 54 50 65
REMARK Flexibility Score: inf
ROOT
ATOM      1  C   UNL     1      -0.598 -10.456   6.843  1.00  0.00     0.202 C 
ENDROOT
BRANCH   1   2
ATOM      2  C   UNL     1      -0.358  -9.602   5.604  1.00  0.00     0.261 C 
BRANCH   2   3
ATOM      3  O   UNL     1      -1.512  -8.799   5.309  1.00  0.00    -0.463 OA
BRANCH   3   4
ATOM      4  C   UNL     1      -1.941  -8.846   4.024  1.00  0.00     0.305 C 
ATOM      5  O   UNL     1      -1.498  -9.593   3.157  1.00  0.00    -0.252 OA
BRANCH   4   6
ATOM      6  C   UNL     1      -3.097  -7.910   3.744  1.00  0.00     0.124 C 
BRANCH   6   7
ATOM      7  C   UNL     1      -3.677  -7.066   4.884  1.00  0.00     0.034 C 
BRANCH   7   8
ATOM      8  C   UNL     1      -2.764  -6.034   5.572  1.00  0.00     0.126 C 
BRANCH   8   9
ATOM      9  N   UNL     1      -2.106  -5.106   4.654  1.00  0.00    -0.313 N 
ATOM     10  C   UNL     1       0.784   0.297   0.136  1.00  0.00     0.069 C 
ATOM     11  C   UNL     1       0.505  -1.089   0.586  1.00  0.00     0.070 A 
ATOM     12  N   UNL     1      -0.368  -1.316   1.581  1.00  0.00    -0.170 NA
ATOM     13  C   UNL     1       1.063  -2.288   0.087  1.00  0.00     0.051 A 
ATOM     14  N   UNL     1      -0.283  -2.656   1.815  1.00  0.00    -0.210 N 
ATOM     15  C   UNL     1       0.595  -3.267   0.930  1.00  0.00     0.186 A 
ATOM     16  C   UNL     1      -0.893  -3.426   2.805  1.00  0.00     0.102 A 
ATOM     17  N   UNL     1       0.871  -4.599   1.024  1.00  0.00    -0.129 NA
ATOM     18  C   UNL     1      -0.474  -4.701   2.875  1.00  0.00     0.177 A 
ATOM     19  C   UNL     1      -1.920  -2.937   3.705  1.00  0.00     0.049 A 
ATOM     20  N   UNL     1       0.412  -5.266   1.982  1.00  0.00    -0.141 NA
ATOM     21  C   UNL     1      -0.961  -5.552   3.990  1.00  0.00     0.280 A 
ATOM     22  C   UNL     1      -2.534  -3.793   4.538  1.00  0.00     0.091 A 
ATOM     23  O   UNL     1      -0.371  -6.591   4.263  1.00  0.00    -0.267 OA
BRANCH  13  24
ATOM     24  C   UNL     1       2.010  -2.581  -0.964  1.00  0.00    -0.012 A 
ATOM     25  C   UNL     1       3.346  -2.180  -0.849  1.00  0.00     0.012 A 
ATOM     26  C   UNL     1       1.608  -3.365  -2.057  1.00  0.00     0.012 A 
ATOM     27  C   UNL     1       4.272  -2.567  -1.819  1.00  0.00     0.040 A 
ATOM     28  C   UNL     1       2.536  -3.747  -3.026  1.00  0.00     0.040 A 
ATOM     29  C   UNL     1       3.860  -3.346  -2.895  1.00  0.00     0.123 A 
ATOM     30  F   UNL     1       4.756  -3.727  -3.815  1.00  0.00    -0.207 F 
ENDBRANCH  13  24
ENDBRANCH   8   9
ENDBRANCH   7   8
ENDBRANCH   6   7
ENDBRANCH   4   6
ENDBRANCH   3   4
ENDBRANCH   2   3
ENDBRANCH   1   2
BRANCH   1  31
ATOM     31  O   UNL     1      -1.626 -11.446   6.769  1.00  0.00    -0.374 OA
BRANCH  31  32
ATOM     32  C   UNL     1      -2.960 -11.062   6.457  1.00  0.00     0.202 C 
BRANCH  32  33
ATOM     33  C   UNL     1      -3.770 -10.335   7.527  1.00  0.00     0.261 C 
BRANCH  33  34
ATOM     34  O   UNL     1      -3.110  -9.200   8.071  1.00  0.00    -0.460 OA
BRANCH  34  35
ATOM     35  C   UNL     1      -2.428  -9.497   9.193  1.00  0.00     0.338 C 
ATOM     36  O   UNL     1      -2.150 -10.621   9.625  1.00  0.00    -0.246 OA
BRANCH  35  37
ATOM     37  C   UNL     1      -2.179  -8.293   9.973  1.00  0.00     0.060 A 
ATOM     38  C   UNL     1      -1.337  -8.448  11.079  1.00  0.00     0.016 A 
ATOM     39  C   UNL     1      -3.097  -7.241   9.864  1.00  0.00     0.016 A 
ATOM     40  C   UNL     1      -1.598  -7.700  12.199  1.00  0.00     0.010 A 
ATOM     41  C   UNL     1      -3.380  -6.520  10.997  1.00  0.00     0.010 A 
ATOM     42  C   UNL     1      -2.683  -6.822  12.167  1.00  0.00    -0.014 A 
BRANCH  42  43
ATOM     43  C   UNL     1      -3.062  -6.190  13.409  1.00  0.00     0.031 A 
ATOM     44  C   UNL     1      -2.281  -4.975  13.714  1.00  0.00     0.074 A 
ATOM     45  C   UNL     1      -4.108  -6.631  14.130  1.00  0.00     0.049 A 
ATOM     46  N   UNL     1      -1.527  -4.742  14.736  1.00  0.00    -0.248 NA
ATOM     47  C   UNL     1      -2.238  -3.931  12.676  1.00  0.00     0.031 C 
ATOM     48  C   UNL     1      -5.119  -7.618  13.741  1.00  0.00     0.029 A 
ATOM     49  N   UNL     1      -4.552  -6.191  15.335  1.00  0.00    -0.354 N 
ATOM     50  C   UNL     1      -1.049  -3.451  14.548  1.00  0.00     0.074 A 
ATOM     51  C   UNL     1      -1.365  -3.075  13.197  1.00  0.00     0.031 C 
ATOM     52  C   UNL     1      -6.167  -7.532  14.591  1.00  0.00     0.029 A 
ATOM     53  C   UNL     1      -5.852  -6.569  15.634  1.00  0.00     0.049 A 
ATOM     54  H   UNL     1      -3.999  -5.649  15.944  1.00  0.00     0.167 HD
ATOM     55  C   UNL     1      -0.664  -2.678  15.596  1.00  0.00     0.037 A 
ATOM     56  C   UNL     1      -6.627  -6.029  16.607  1.00  0.00     0.037 A 
ATOM     57  C   UNL     1      -0.327  -3.470  16.745  1.00  0.00     0.049 A 
ATOM     58  C   UNL     1      -5.724  -5.309  17.545  1.00  0.00     0.074 A 
ATOM     59  C   UNL     1       0.605  -4.462  16.987  1.00  0.00     0.029 A 
ATOM     60  N   UNL     1      -1.231  -3.546  17.774  1.00  0.00    -0.354 N 
ATOM     61  N   UNL     1      -4.870  -5.888  18.343  1.00  0.00    -0.248 NA
ATOM     62  C   UNL     1      -5.486  -3.893  17.300  1.00  0.00     0.031 C 
ATOM     63  C   UNL     1      -0.038  -5.368  17.877  1.00  0.00     0.029 A 
ATOM     64  C   UNL     1      -1.308  -4.860  18.155  1.00  0.00     0.049 A 
ATOM     65  H   UNL     1      -1.733  -2.795  18.166  1.00  0.00     0.167 HD
ATOM     66  C   UNL     1      -3.779  -5.031  18.378  1.00  0.00     0.074 A 
ATOM     67  C   UNL     1      -4.255  -3.779  17.802  1.00  0.00     0.031 C 
ATOM     68  C   UNL     1      -2.520  -5.503  18.608  1.00  0.00     0.037 A 
BRANCH  55  69
ATOM     69  C   UNL     1      -0.941  -1.201  15.657  1.00  0.00     0.064 A 
ATOM     70  C   UNL     1      -0.335  -0.426  16.661  1.00  0.00     0.173 A 
ATOM     71  C   UNL     1      -1.981  -0.567  14.939  1.00  0.00     0.173 A 
ATOM     72  F   UNL     1       0.628  -0.946  17.436  1.00  0.00    -0.203 F 
ATOM     73  C   UNL     1      -0.766   0.871  16.947  1.00  0.00     0.198 A 
ATOM     74  C   UNL     1      -2.363   0.748  15.181  1.00  0.00     0.198 A 
ATOM     75  F   UNL     1      -2.744  -1.224  14.055  1.00  0.00    -0.203 F 
ATOM     76  F   UNL     1      -0.241   1.530  17.988  1.00  0.00    -0.200 F 
ATOM     77  C   UNL     1      -1.776   1.459  16.204  1.00  0.00     0.200 A 
ATOM     78  F   UNL     1      -3.360   1.287  14.465  1.00  0.00    -0.200 F 
ATOM     79  F   UNL     1      -2.220   2.685  16.506  1.00  0.00    -0.200 F 
ENDBRANCH  55  69
BRANCH  56  80
ATOM     80  C   UNL     1      -8.096  -5.808  16.598  1.00  0.00     0.064 A 
ATOM     81  C   UNL     1      -8.771  -5.451  17.778  1.00  0.00     0.173 A 
ATOM     82  C   UNL     1      -8.826  -5.675  15.400  1.00  0.00     0.173 A 
ATOM     83  F   UNL     1      -8.140  -5.504  18.959  1.00  0.00    -0.203 F 
ATOM     84  C   UNL     1     -10.081  -4.960  17.756  1.00  0.00     0.198 A 
ATOM     85  C   UNL     1     -10.139  -5.201  15.382  1.00  0.00     0.198 A 
ATOM     86  F   UNL     1      -8.256  -5.907  14.210  1.00  0.00    -0.203 F 
ATOM     87  F   UNL     1     -10.664  -4.560  18.895  1.00  0.00    -0.200 F 
ATOM     88  C   UNL     1     -10.761  -4.827  16.557  1.00  0.00     0.200 A 
ATOM     89  F   UNL     1     -10.772  -5.047  14.210  1.00  0.00    -0.200 F 
ATOM     90  F   UNL     1     -11.992  -4.300  16.528  1.00  0.00    -0.200 F 
ENDBRANCH  56  80
BRANCH  68  91
ATOM     91  C   UNL     1      -2.370  -6.908  19.113  1.00  0.00     0.064 A 
ATOM     92  C   UNL     1      -2.717  -8.045  18.364  1.00  0.00     0.173 A 
ATOM     93  C   UNL     1      -1.666  -7.109  20.309  1.00  0.00     0.173 A 
ATOM     94  F   UNL     1      -3.307  -7.928  17.167  1.00  0.00    -0.203 F 
ATOM     95  C   UNL     1      -2.388  -9.325  18.806  1.00  0.00     0.198 A 
ATOM     96  C   UNL     1      -1.307  -8.386  20.728  1.00  0.00     0.198 A 
ATOM     97  F   UNL     1      -1.263  -6.054  21.036  1.00  0.00    -0.203 F 
ATOM     98  F   UNL     1      -2.723 -10.396  18.071  1.00  0.00    -0.200 F 
ATOM     99  C   UNL     1      -1.671  -9.493  19.980  1.00  0.00     0.200 A 
ATOM    100  F   UNL     1      -0.570  -8.540  21.837  1.00  0.00    -0.200 F 
ATOM    101  F   UNL     1      -1.302 -10.720  20.373  1.00  0.00    -0.200 F 
ENDBRANCH  68  91
ENDBRANCH  42  43
ENDBRANCH  35  37
ENDBRANCH  34  35
ENDBRANCH  33  34
ENDBRANCH  32  33
ENDBRANCH  31  32
ENDBRANCH   1  31
TORSDOF 18
