REMARK SMILES CSc1nc(C2CC2)nc(C)c1C(=O)OCCOCCOC(=O)c1ccc(-c2c3nc(c(-c4c(F)c(F)c(F)c(F)c4F)c4ccc([nH]4)c(-c4c(F)c(F)c(F)c(F)c4F)c4nc(c(-c5c(F)c(F)c(F)c(F)c5F)c5ccc2[nH]5)C=C4)C=C3)cc1
REMARK SMILES IDX 19 1 18 2 17 3 16 4 15 5 13 6 14 7 12 8 3 9 4 10 5 11 10 12
REMARK SMILES IDX 9 13 11 14 2 15 1 16 6 17 7 18 8 19 20 20 21 21 22 22 23 23
REMARK SMILES IDX 24 24 25 25 86 26 26 27 85 28 27 29 28 30 29 31 79 32 30 33
REMARK SMILES IDX 84 34 78 35 80 36 31 37 83 38 77 39 76 40 32 42 64 43 44 44
REMARK SMILES IDX 63 45 45 46 48 47 62 48 81 49 46 50 47 51 61 53 82 54 49 55
REMARK SMILES IDX 33 56 34 57 42 58 35 59 36 60 40 61 43 62 37 63 38 64 41 65
REMARK SMILES IDX 39 66 65 67 66 68 74 69 67 70 68 71 72 72 75 73 69 74 70 75
REMARK SMILES IDX 73 76 71 77 50 78 51 79 59 80 52 81 53 82 57 83 60 84 54 85
REMARK SMILES IDX 55 86 58 87 56 88
REMARK H PARENT 80 41 48 52
REMARK Flexibility Score: inf
ROOT
ATOM      1  C   UNL     1       2.916   3.663   1.476  1.00  0.00     0.202 C 
ENDROOT
BRANCH   1   2
ATOM      2  O   UNL     1       2.436   4.995   1.305  1.00  0.00    -0.374 OA
BRANCH   2   3
ATOM      3  C   UNL     1       2.169   5.776   2.470  1.00  0.00     0.202 C 
BRANCH   3   4
ATOM      4  C   UNL     1       0.994   5.330   3.342  1.00  0.00     0.261 C 
BRANCH   4   5
ATOM      5  O   UNL     1       1.266   4.030   3.888  1.00  0.00    -0.460 OA
BRANCH   5   6
ATOM      6  C   UNL     1       0.215   3.181   3.906  1.00  0.00     0.342 C 
ATOM      7  O   UNL     1      -0.958   3.472   3.754  1.00  0.00    -0.246 OA
BRANCH   6   8
ATOM      8  C   UNL     1       0.701   1.804   4.056  1.00  0.00     0.113 A 
ATOM      9  C   UNL     1       0.432   0.840   3.098  1.00  0.00     0.114 A 
ATOM     10  N   UNL     1       0.696  -0.469   3.295  1.00  0.00    -0.225 NA
ATOM     11  C   UNL     1       1.244  -0.839   4.463  1.00  0.00     0.133 A 
ATOM     12  C   UNL     1       1.412   1.374   5.161  1.00  0.00     0.057 A 
ATOM     13  N   UNL     1       1.671   0.060   5.370  1.00  0.00    -0.237 NA
ATOM     14  C   UNL     1       1.901   2.288   6.245  1.00  0.00     0.068 C 
BRANCH   9  15
ATOM     15  S   UNL     1      -0.235   1.225   1.479  1.00  0.00    -0.109 SA
ATOM     16  C   UNL     1       0.739   0.081   0.459  1.00  0.00     0.092 C 
ENDBRANCH   9  15
BRANCH  11  17
ATOM     17  C   UNL     1       1.306  -2.302   4.832  1.00  0.00     0.058 C 
ATOM     18  C   UNL     1       0.692  -3.355   3.934  1.00  0.00     0.012 C 
ATOM     19  C   UNL     1       2.183  -3.271   4.080  1.00  0.00     0.012 C 
ENDBRANCH  11  17
ENDBRANCH   6   8
ENDBRANCH   5   6
ENDBRANCH   4   5
ENDBRANCH   3   4
ENDBRANCH   2   3
ENDBRANCH   1   2
BRANCH   1  20
ATOM     20  C   UNL     1       4.385   3.479   1.877  1.00  0.00     0.261 C 
BRANCH  20  21
ATOM     21  O   UNL     1       4.740   4.164   3.088  1.00  0.00    -0.460 OA
BRANCH  21  22
ATOM     22  C   UNL     1       5.473   5.286   2.885  1.00  0.00     0.338 C 
ATOM     23  O   UNL     1       5.880   5.724   1.821  1.00  0.00    -0.246 OA
BRANCH  22  24
ATOM     24  C   UNL     1       5.618   6.047   4.138  1.00  0.00     0.060 A 
ATOM     25  C   UNL     1       5.243   7.396   4.110  1.00  0.00     0.016 A 
ATOM     26  C   UNL     1       6.235   5.502   5.265  1.00  0.00     0.016 A 
ATOM     27  C   UNL     1       5.560   8.228   5.179  1.00  0.00     0.010 A 
ATOM     28  C   UNL     1       6.556   6.340   6.339  1.00  0.00     0.010 A 
ATOM     29  C   UNL     1       6.270   7.717   6.273  1.00  0.00    -0.014 A 
BRANCH  29  30
ATOM     30  C   UNL     1       6.880   8.672   7.231  1.00  0.00     0.031 A 
ATOM     31  C   UNL     1       8.344   9.001   7.094  1.00  0.00     0.074 A 
ATOM     32  C   UNL     1       6.130   9.301   8.152  1.00  0.00     0.049 A 
ATOM     33  N   UNL     1       9.080   9.832   7.788  1.00  0.00    -0.248 NA
ATOM     34  C   UNL     1       9.077   8.297   6.030  1.00  0.00     0.031 C 
ATOM     35  C   UNL     1       4.697   9.099   8.352  1.00  0.00     0.029 A 
ATOM     36  N   UNL     1       6.473  10.245   9.086  1.00  0.00    -0.354 N 
ATOM     37  C   UNL     1      10.358   9.747   7.248  1.00  0.00     0.074 A 
ATOM     38  C   UNL     1      10.309   8.754   6.198  1.00  0.00     0.031 C 
ATOM     39  C   UNL     1       4.280   9.899   9.348  1.00  0.00     0.029 A 
ATOM     40  C   UNL     1       5.421  10.649   9.870  1.00  0.00     0.049 A 
ATOM     41  H   UNL     1       7.386  10.600   9.184  1.00  0.00     0.167 HD
ATOM     42  C   UNL     1      11.469  10.444   7.586  1.00  0.00     0.037 A 
ATOM     43  C   UNL     1       5.390  11.518  10.899  1.00  0.00     0.037 A 
ATOM     44  C   UNL     1      11.514  11.437   8.628  1.00  0.00     0.049 A 
ATOM     45  C   UNL     1       6.652  12.243  11.290  1.00  0.00     0.074 A 
ATOM     46  C   UNL     1      12.588  12.204   9.046  1.00  0.00     0.029 A 
ATOM     47  N   UNL     1      10.433  11.799   9.419  1.00  0.00    -0.354 N 
ATOM     48  N   UNL     1       7.850  12.171  10.761  1.00  0.00    -0.248 NA
ATOM     49  C   UNL     1       6.551  13.184  12.415  1.00  0.00     0.031 C 
ATOM     50  C   UNL     1      12.170  12.991  10.124  1.00  0.00     0.029 A 
ATOM     51  C   UNL     1      10.820  12.765  10.335  1.00  0.00     0.049 A 
ATOM     52  H   UNL     1       9.526  11.424   9.342  1.00  0.00     0.167 HD
ATOM     53  C   UNL     1       8.632  13.085  11.458  1.00  0.00     0.074 A 
ATOM     54  C   UNL     1       7.769  13.705  12.441  1.00  0.00     0.031 C 
ATOM     55  C   UNL     1       9.944  13.387  11.295  1.00  0.00     0.037 A 
BRANCH  42  56
ATOM     56  C   UNL     1      12.735  10.139   6.837  1.00  0.00     0.064 A 
ATOM     57  C   UNL     1      12.902  10.493   5.489  1.00  0.00     0.173 A 
ATOM     58  C   UNL     1      13.807   9.506   7.485  1.00  0.00     0.173 A 
ATOM     59  F   UNL     1      11.903  11.086   4.818  1.00  0.00    -0.203 F 
ATOM     60  C   UNL     1      14.083  10.200   4.812  1.00  0.00     0.198 A 
ATOM     61  C   UNL     1      14.998   9.244   6.814  1.00  0.00     0.198 A 
ATOM     62  F   UNL     1      13.703   9.149   8.774  1.00  0.00    -0.203 F 
ATOM     63  F   UNL     1      14.200  10.500   3.511  1.00  0.00    -0.200 F 
ATOM     64  C   UNL     1      15.132   9.583   5.476  1.00  0.00     0.200 A 
ATOM     65  F   UNL     1      16.016   8.660   7.461  1.00  0.00    -0.200 F 
ATOM     66  F   UNL     1      16.271   9.308   4.825  1.00  0.00    -0.200 F 
ENDBRANCH  42  56
BRANCH  43  67
ATOM     67  C   UNL     1       4.117  11.762  11.629  1.00  0.00     0.064 A 
ATOM     68  C   UNL     1       3.470  13.003  11.566  1.00  0.00     0.173 A 
ATOM     69  C   UNL     1       3.538  10.764  12.426  1.00  0.00     0.173 A 
ATOM     70  F   UNL     1       3.997  13.997  10.836  1.00  0.00    -0.203 F 
ATOM     71  C   UNL     1       2.306  13.246  12.294  1.00  0.00     0.198 A 
ATOM     72  C   UNL     1       2.357  10.998  13.128  1.00  0.00     0.198 A 
ATOM     73  F   UNL     1       4.116   9.558  12.520  1.00  0.00    -0.203 F 
ATOM     74  F   UNL     1       1.739  14.460  12.260  1.00  0.00    -0.200 F 
ATOM     75  C   UNL     1       1.748  12.242  13.070  1.00  0.00     0.200 A 
ATOM     76  F   UNL     1       1.814  10.019  13.866  1.00  0.00    -0.200 F 
ATOM     77  F   UNL     1       0.629  12.475  13.769  1.00  0.00    -0.200 F 
ENDBRANCH  43  67
BRANCH  55  78
ATOM     78  C   UNL     1      10.512  14.483  12.154  1.00  0.00     0.064 A 
ATOM     79  C   UNL     1      10.698  14.327  13.535  1.00  0.00     0.173 A 
ATOM     80  C   UNL     1      10.895  15.704  11.575  1.00  0.00     0.173 A 
ATOM     81  F   UNL     1      10.339  13.185  14.140  1.00  0.00    -0.203 F 
ATOM     82  C   UNL     1      11.207  15.366  14.311  1.00  0.00     0.198 A 
ATOM     83  C   UNL     1      11.438  16.727  12.348  1.00  0.00     0.198 A 
ATOM     84  F   UNL     1      10.750  15.903  10.256  1.00  0.00    -0.203 F 
ATOM     85  F   UNL     1      11.316  15.217  15.639  1.00  0.00    -0.200 F 
ATOM     86  C   UNL     1      11.582  16.562  13.717  1.00  0.00     0.200 A 
ATOM     87  F   UNL     1      11.815  17.874  11.768  1.00  0.00    -0.200 F 
ATOM     88  F   UNL     1      12.072  17.559  14.465  1.00  0.00    -0.200 F 
ENDBRANCH  55  78
ENDBRANCH  29  30
ENDBRANCH  22  24
ENDBRANCH  21  22
ENDBRANCH  20  21
ENDBRANCH   1  20
TORSDOF 16
