REMARK SMILES CC[C@@](C)(NC(=O)c1c(C)cc(C)[nH]c1=O)C(=O)OCCOCCOC(=O)c1ccc(-c2c3nc(c(-c4c(F)c(F)c(F)c(F)c4F)c4ccc([nH]4)c(-c4c(F)c(F)c(F)c(F)c4F)c4nc(c(-c5c(F)c(F)c(F)c(F)c5F)c5ccc2[nH]5)C=C4)C=C3)cc1
REMARK SMILES IDX 22 1 21 2 20 3 19 4 17 5 18 6 3 7 4 8 2 9 1 10 5 11 6 12
REMARK SMILES IDX 7 14 8 15 9 16 15 17 10 18 11 19 14 20 16 21 12 22 13 24
REMARK SMILES IDX 23 25 24 26 25 27 26 28 27 29 28 30 29 31 90 32 30 33 89 34
REMARK SMILES IDX 31 35 32 36 33 37 83 38 34 39 88 40 82 41 84 42 35 43 87 44
REMARK SMILES IDX 81 45 80 46 36 48 68 49 48 50 67 51 49 52 52 53 66 54 85 55
REMARK SMILES IDX 50 56 51 57 65 59 86 60 53 61 37 62 38 63 46 64 39 65 40 66
REMARK SMILES IDX 44 67 47 68 41 69 42 70 45 71 43 72 69 73 70 74 78 75 71 76
REMARK SMILES IDX 72 77 76 78 79 79 73 80 74 81 77 82 75 83 54 84 55 85 63 86
REMARK SMILES IDX 56 87 57 88 61 89 64 90 58 91 59 92 62 93 60 94
REMARK H PARENT 5 13 14 23 84 47 52 58
REMARK Flexibility Score: inf
ROOT
ATOM      1  O   UNL     1       3.895   0.151   3.169  1.00  0.00    -0.374 OA
ENDROOT
BRANCH   1   2
ATOM      2  C   UNL     1       4.239  -0.356   1.858  1.00  0.00     0.202 C 
BRANCH   2   3
ATOM      3  C   UNL     1       4.556   0.683   0.743  1.00  0.00     0.261 C 
BRANCH   3   4
ATOM      4  O   UNL     1       3.585   1.711   0.723  1.00  0.00    -0.462 OA
BRANCH   4   5
ATOM      5  C   UNL     1       2.435   1.469   0.080  1.00  0.00     0.331 C 
ATOM      6  O   UNL     1       2.367   0.857  -0.983  1.00  0.00    -0.249 OA
BRANCH   5   7
ATOM      7  C   UNL     1       1.267   2.056   0.891  1.00  0.00     0.135 C 
ATOM      8  C   UNL     1       0.606   3.195   0.100  1.00  0.00     0.047 C 
BRANCH   7   9
ATOM      9  C   UNL     1       0.140   0.934   1.080  1.00  0.00     0.037 C 
ATOM     10  C   UNL     1      -0.095  -0.053  -0.072  1.00  0.00     0.007 C 
ENDBRANCH   7   9
BRANCH   7  11
ATOM     11  N   UNL     1       1.732   2.580   2.279  1.00  0.00    -0.336 N 
ATOM     12  C   UNL     1       2.782   3.425   2.675  1.00  0.00     0.258 C 
ATOM     13  H   UNL     1       1.182   2.256   3.028  1.00  0.00     0.165 HD
ATOM     14  O   UNL     1       2.418   4.552   3.041  1.00  0.00    -0.269 OA
BRANCH  12  15
ATOM     15  C   UNL     1       4.337   3.012   2.887  1.00  0.00     0.107 A 
ATOM     16  C   UNL     1       5.122   2.243   3.761  1.00  0.00    -0.031 A 
ATOM     17  C   UNL     1       5.189   3.929   1.995  1.00  0.00     0.261 A 
ATOM     18  C   UNL     1       5.030   1.397   5.081  1.00  0.00     0.045 C 
ATOM     19  C   UNL     1       6.549   2.053   3.498  1.00  0.00     0.025 A 
ATOM     20  N   UNL     1       6.562   3.819   2.031  1.00  0.00    -0.326 N 
ATOM     21  O   UNL     1       4.690   4.769   1.247  1.00  0.00    -0.269 OA
ATOM     22  C   UNL     1       7.242   2.869   2.723  1.00  0.00     0.015 A 
ATOM     23  H   UNL     1       7.087   4.475   1.518  1.00  0.00     0.169 HD
ATOM     24  C   UNL     1       8.715   2.704   2.588  1.00  0.00     0.064 C 
ENDBRANCH  12  15
ENDBRANCH   7  11
ENDBRANCH   5   7
ENDBRANCH   4   5
ENDBRANCH   3   4
ENDBRANCH   2   3
ENDBRANCH   1   2
BRANCH   1  25
ATOM     25  C   UNL     1       2.545   0.203   3.650  1.00  0.00     0.202 C 
BRANCH  25  26
ATOM     26  C   UNL     1       2.075   1.213   4.907  1.00  0.00     0.261 C 
BRANCH  26  27
ATOM     27  O   UNL     1       2.566   2.652   4.986  1.00  0.00    -0.460 OA
BRANCH  27  28
ATOM     28  C   UNL     1       2.917   3.383   6.113  1.00  0.00     0.338 C 
ATOM     29  O   UNL     1       2.730   2.986   7.256  1.00  0.00    -0.246 OA
BRANCH  28  30
ATOM     30  C   UNL     1       3.703   4.704   5.851  1.00  0.00     0.060 A 
ATOM     31  C   UNL     1       5.062   4.719   5.487  1.00  0.00     0.016 A 
ATOM     32  C   UNL     1       3.179   5.971   6.130  1.00  0.00     0.016 A 
ATOM     33  C   UNL     1       5.803   5.892   5.188  1.00  0.00     0.010 A 
ATOM     34  C   UNL     1       3.948   7.170   5.928  1.00  0.00     0.010 A 
ATOM     35  C   UNL     1       5.261   7.153   5.416  1.00  0.00    -0.014 A 
BRANCH  35  36
ATOM     36  C   UNL     1       6.122   8.390   5.304  1.00  0.00     0.031 A 
ATOM     37  C   UNL     1       6.979   8.803   6.483  1.00  0.00     0.074 A 
ATOM     38  C   UNL     1       6.240   9.126   4.174  1.00  0.00     0.049 A 
ATOM     39  N   UNL     1       7.629   9.922   6.706  1.00  0.00    -0.248 NA
ATOM     40  C   UNL     1       7.146   7.799   7.543  1.00  0.00     0.031 C 
ATOM     41  C   UNL     1       5.667   8.787   2.875  1.00  0.00     0.029 A 
ATOM     42  N   UNL     1       6.893  10.326   3.939  1.00  0.00    -0.354 N 
ATOM     43  C   UNL     1       8.243   9.769   7.945  1.00  0.00     0.074 A 
ATOM     44  C   UNL     1       7.918   8.439   8.411  1.00  0.00     0.031 C 
ATOM     45  C   UNL     1       5.959   9.765   1.995  1.00  0.00     0.029 A 
ATOM     46  C   UNL     1       6.687  10.839   2.675  1.00  0.00     0.049 A 
ATOM     47  H   UNL     1       7.453  10.773   4.614  1.00  0.00     0.167 HD
ATOM     48  C   UNL     1       8.992  10.659   8.644  1.00  0.00     0.037 A 
ATOM     49  C   UNL     1       6.995  12.046   2.143  1.00  0.00     0.037 A 
ATOM     50  C   UNL     1       9.328  11.984   8.190  1.00  0.00     0.049 A 
ATOM     51  C   UNL     1       7.688  13.092   2.994  1.00  0.00     0.074 A 
ATOM     52  C   UNL     1      10.021  12.978   8.862  1.00  0.00     0.029 A 
ATOM     53  N   UNL     1       9.002  12.499   6.946  1.00  0.00    -0.354 N 
ATOM     54  N   UNL     1       8.163  12.989   4.212  1.00  0.00    -0.248 NA
ATOM     55  C   UNL     1       7.864  14.434   2.407  1.00  0.00     0.031 C 
ATOM     56  C   UNL     1      10.071  14.110   8.044  1.00  0.00     0.029 A 
ATOM     57  C   UNL     1       9.460  13.803   6.839  1.00  0.00     0.049 A 
ATOM     58  H   UNL     1       8.517  12.011   6.242  1.00  0.00     0.167 HD
ATOM     59  C   UNL     1       8.704  14.232   4.525  1.00  0.00     0.074 A 
ATOM     60  C   UNL     1       8.521  15.075   3.365  1.00  0.00     0.031 C 
ATOM     61  C   UNL     1       9.293  14.637   5.678  1.00  0.00     0.037 A 
BRANCH  48  62
ATOM     62  C   UNL     1       9.450  10.262  10.019  1.00  0.00     0.064 A 
ATOM     63  C   UNL     1      10.492   9.347  10.221  1.00  0.00     0.173 A 
ATOM     64  C   UNL     1       8.874  10.861  11.152  1.00  0.00     0.173 A 
ATOM     65  F   UNL     1      11.069   8.738   9.174  1.00  0.00    -0.203 F 
ATOM     66  C   UNL     1      10.930   9.034  11.507  1.00  0.00     0.198 A 
ATOM     67  C   UNL     1       9.333  10.567  12.433  1.00  0.00     0.198 A 
ATOM     68  F   UNL     1       7.880  11.752  11.014  1.00  0.00    -0.203 F 
ATOM     69  F   UNL     1      11.905   8.130  11.679  1.00  0.00    -0.200 F 
ATOM     70  C   UNL     1      10.357   9.650  12.610  1.00  0.00     0.200 A 
ATOM     71  F   UNL     1       8.788  11.176  13.495  1.00  0.00    -0.200 F 
ATOM     72  F   UNL     1      10.790   9.357  13.844  1.00  0.00    -0.200 F 
ENDBRANCH  48  62
BRANCH  49  73
ATOM     73  C   UNL     1       6.584  12.392   0.746  1.00  0.00     0.064 A 
ATOM     74  C   UNL     1       7.531  12.684  -0.248  1.00  0.00     0.173 A 
ATOM     75  C   UNL     1       5.229  12.499   0.390  1.00  0.00     0.173 A 
ATOM     76  F   UNL     1       8.840  12.657   0.045  1.00  0.00    -0.203 F 
ATOM     77  C   UNL     1       7.142  13.064  -1.535  1.00  0.00     0.198 A 
ATOM     78  C   UNL     1       4.841  12.846  -0.905  1.00  0.00     0.198 A 
ATOM     79  F   UNL     1       4.275  12.276   1.304  1.00  0.00    -0.203 F 
ATOM     80  F   UNL     1       8.070  13.388  -2.446  1.00  0.00    -0.200 F 
ATOM     81  C   UNL     1       5.798  13.133  -1.865  1.00  0.00     0.200 A 
ATOM     82  F   UNL     1       3.540  12.915  -1.217  1.00  0.00    -0.200 F 
ATOM     83  F   UNL     1       5.425  13.493  -3.102  1.00  0.00    -0.200 F 
ENDBRANCH  49  73
BRANCH  61  84
ATOM     84  C   UNL     1       9.815  16.045   5.756  1.00  0.00     0.064 A 
ATOM     85  C   UNL     1       8.951  17.144   5.868  1.00  0.00     0.173 A 
ATOM     86  C   UNL     1      11.197  16.289   5.822  1.00  0.00     0.173 A 
ATOM     87  F   UNL     1       7.623  16.968   5.804  1.00  0.00    -0.203 F 
ATOM     88  C   UNL     1       9.451  18.435   6.032  1.00  0.00     0.198 A 
ATOM     89  C   UNL     1      11.691  17.577   6.014  1.00  0.00     0.198 A 
ATOM     90  F   UNL     1      12.068  15.273   5.732  1.00  0.00    -0.203 F 
ATOM     91  F   UNL     1       8.607  19.473   6.110  1.00  0.00    -0.200 F 
ATOM     92  C   UNL     1      10.818  18.649   6.117  1.00  0.00     0.200 A 
ATOM     93  F   UNL     1      13.013  17.778   6.115  1.00  0.00    -0.200 F 
ATOM     94  F   UNL     1      11.295  19.888   6.298  1.00  0.00    -0.200 F 
ENDBRANCH  61  84
ENDBRANCH  35  36
ENDBRANCH  28  30
ENDBRANCH  27  28
ENDBRANCH  26  27
ENDBRANCH  25  26
ENDBRANCH   1  25
TORSDOF 17
