REMARK SMILES CC(=O)Nc1ccc(/C(=C\c2ccc(S(C)(=O)=O)cc2)C(=O)OCCOCCOC(=O)c2ccc(-c3c4nc(c(-c5c(F)c(F)c(F)c(F)c5F)c5ccc([nH]5)c(-c5c(F)c(F)c(F)c(F)c5F)c5nc(c(-c6c(F)c(F)c(F)c(F)c6F)c6ccc3[nH]6)C=C5)C=C4)cc2)cc1
REMARK SMILES IDX 26 1 25 2 24 3 23 4 21 5 22 6 9 7 10 8 8 9 5 10 6 11 96 12
REMARK SMILES IDX 7 13 95 14 4 15 1 16 2 17 3 18 11 20 12 21 20 22 13 23 19 24
REMARK SMILES IDX 14 25 15 26 16 27 17 28 18 29 27 30 28 31 29 32 30 33 31 34
REMARK SMILES IDX 32 35 33 36 94 37 34 38 93 39 35 40 36 41 37 42 87 43 38 44
REMARK SMILES IDX 92 45 86 46 88 47 39 48 91 49 85 50 84 51 40 53 72 54 52 55
REMARK SMILES IDX 71 56 53 57 56 58 70 59 89 60 54 61 55 62 69 64 90 65 57 66
REMARK SMILES IDX 41 67 42 68 50 69 43 70 44 71 48 72 51 73 45 74 46 75 49 76
REMARK SMILES IDX 47 77 73 78 74 79 82 80 75 81 76 82 80 83 83 84 77 85 78 86
REMARK SMILES IDX 81 87 79 88 58 89 59 90 67 91 60 92 61 93 65 94 68 95 62 96
REMARK SMILES IDX 63 97 66 98 64 99
REMARK H PARENT 4 19 88 52 56 63
REMARK Flexibility Score: inf
ROOT
ATOM      1  O   UNL     1       6.205  -0.745  -4.627  1.00  0.00    -0.374 OA
ENDROOT
BRANCH   1   2
ATOM      2  C   UNL     1       7.163  -1.569  -5.291  1.00  0.00     0.202 C 
BRANCH   2   3
ATOM      3  C   UNL     1       7.471  -2.909  -4.617  1.00  0.00     0.261 C 
BRANCH   3   4
ATOM      4  O   UNL     1       6.288  -3.720  -4.544  1.00  0.00    -0.460 OA
BRANCH   4   5
ATOM      5  C   UNL     1       5.915  -4.086  -3.290  1.00  0.00     0.338 C 
ATOM      6  O   UNL     1       6.595  -3.971  -2.281  1.00  0.00    -0.246 OA
BRANCH   5   7
ATOM      7  C   UNL     1       4.479  -4.523  -3.264  1.00  0.00     0.067 C 
ATOM      8  C   UNL     1       4.083  -5.337  -4.272  1.00  0.00     0.024 C 
BRANCH   7   9
ATOM      9  C   UNL     1       3.627  -4.013  -2.150  1.00  0.00    -0.011 A 
ATOM     10  C   UNL     1       1.871  -2.833  -0.247  1.00  0.00     0.041 A 
ATOM     11  C   UNL     1       1.787  -4.193  -0.560  1.00  0.00     0.027 A 
ATOM     12  C   UNL     1       2.906  -2.095  -0.805  1.00  0.00     0.027 A 
ATOM     13  C   UNL     1       2.664  -4.778  -1.486  1.00  0.00     0.011 A 
ATOM     14  C   UNL     1       3.768  -2.677  -1.744  1.00  0.00     0.011 A 
BRANCH  10  15
ATOM     15  N   UNL     1       0.919  -2.321   0.648  1.00  0.00    -0.326 N 
ATOM     16  C   UNL     1       0.968   0.125   0.124  1.00  0.00     0.114 C 
ATOM     17  C   UNL     1       0.521  -1.050   0.949  1.00  0.00     0.221 C 
ATOM     18  O   UNL     1      -0.261  -0.886   1.890  1.00  0.00    -0.275 OA
ATOM     19  H   UNL     1       0.445  -3.015   1.161  1.00  0.00     0.169 HD
ENDBRANCH  10  15
ENDBRANCH   7   9
BRANCH   8  20
ATOM     20  C   UNL     1       2.797  -6.044  -4.373  1.00  0.00    -0.025 A 
ATOM     21  C   UNL     1       2.844  -7.441  -4.260  1.00  0.00     0.009 A 
ATOM     22  C   UNL     1       1.557  -5.394  -4.411  1.00  0.00     0.009 A 
ATOM     23  C   UNL     1       1.677  -8.171  -4.046  1.00  0.00     0.021 A 
ATOM     24  C   UNL     1       0.381  -6.122  -4.189  1.00  0.00     0.021 A 
ATOM     25  C   UNL     1       0.455  -7.501  -3.970  1.00  0.00     0.067 A 
BRANCH  25  26
ATOM     26  S   UNL     1      -0.965  -8.397  -3.383  1.00  0.00     0.175 S 
ATOM     27  C   UNL     1      -1.438  -9.418  -4.749  1.00  0.00     0.163 C 
ATOM     28  O   UNL     1      -0.498  -9.259  -2.314  1.00  0.00    -0.224 OA
ATOM     29  O   UNL     1      -2.026  -7.436  -3.150  1.00  0.00    -0.224 OA
ENDBRANCH  25  26
ENDBRANCH   8  20
ENDBRANCH   5   7
ENDBRANCH   4   5
ENDBRANCH   3   4
ENDBRANCH   2   3
ENDBRANCH   1   2
BRANCH   1  30
ATOM     30  C   UNL     1       4.825  -1.050  -4.836  1.00  0.00     0.202 C 
BRANCH  30  31
ATOM     31  C   UNL     1       4.206  -0.579  -6.156  1.00  0.00     0.261 C 
BRANCH  31  32
ATOM     32  O   UNL     1       4.745  -1.287  -7.285  1.00  0.00    -0.460 OA
BRANCH  32  33
ATOM     33  C   UNL     1       5.529  -0.548  -8.102  1.00  0.00     0.338 C 
ATOM     34  O   UNL     1       5.764   0.651  -8.027  1.00  0.00    -0.246 OA
BRANCH  33  35
ATOM     35  C   UNL     1       6.241  -1.438  -9.035  1.00  0.00     0.060 A 
ATOM     36  C   UNL     1       7.637  -1.343  -9.091  1.00  0.00     0.016 A 
ATOM     37  C   UNL     1       5.554  -2.320  -9.871  1.00  0.00     0.016 A 
ATOM     38  C   UNL     1       8.353  -2.115 -10.004  1.00  0.00     0.010 A 
ATOM     39  C   UNL     1       6.272  -3.084 -10.794  1.00  0.00     0.010 A 
ATOM     40  C   UNL     1       7.672  -2.971 -10.879  1.00  0.00    -0.014 A 
BRANCH  40  41
ATOM     41  C   UNL     1       8.406  -3.679 -11.954  1.00  0.00     0.031 A 
ATOM     42  C   UNL     1       8.371  -3.126 -13.350  1.00  0.00     0.074 A 
ATOM     43  C   UNL     1       9.093  -4.803 -11.686  1.00  0.00     0.049 A 
ATOM     44  N   UNL     1       8.842  -3.638 -14.458  1.00  0.00    -0.248 NA
ATOM     45  C   UNL     1       7.720  -1.817 -13.521  1.00  0.00     0.031 C 
ATOM     46  C   UNL     1       9.242  -5.406 -10.363  1.00  0.00     0.029 A 
ATOM     47  N   UNL     1       9.780  -5.649 -12.521  1.00  0.00    -0.354 N 
ATOM     48  C   UNL     1       8.548  -2.716 -15.454  1.00  0.00     0.074 A 
ATOM     49  C   UNL     1       7.831  -1.627 -14.828  1.00  0.00     0.031 C 
ATOM     50  C   UNL     1       9.954  -6.540 -10.478  1.00  0.00     0.029 A 
ATOM     51  C   UNL     1      10.274  -6.763 -11.886  1.00  0.00     0.049 A 
ATOM     52  H   UNL     1       9.907  -5.475 -13.481  1.00  0.00     0.167 HD
ATOM     53  C   UNL     1       8.862  -2.771 -16.770  1.00  0.00     0.037 A 
ATOM     54  C   UNL     1      10.879  -7.854 -12.395  1.00  0.00     0.037 A 
ATOM     55  C   UNL     1       9.569  -3.860 -17.390  1.00  0.00     0.049 A 
ATOM     56  C   UNL     1      11.112  -7.942 -13.883  1.00  0.00     0.074 A 
ATOM     57  C   UNL     1       9.929  -4.011 -18.718  1.00  0.00     0.029 A 
ATOM     58  N   UNL     1      10.020  -4.988 -16.722  1.00  0.00    -0.354 N 
ATOM     59  N   UNL     1      10.842  -7.063 -14.817  1.00  0.00    -0.248 NA
ATOM     60  C   UNL     1      11.727  -9.178 -14.388  1.00  0.00     0.031 C 
ATOM     61  C   UNL     1      10.559  -5.250 -18.862  1.00  0.00     0.029 A 
ATOM     62  C   UNL     1      10.632  -5.851 -17.616  1.00  0.00     0.049 A 
ATOM     63  H   UNL     1       9.920  -5.151 -15.757  1.00  0.00     0.167 HD
ATOM     64  C   UNL     1      11.276  -7.626 -16.010  1.00  0.00     0.074 A 
ATOM     65  C   UNL     1      11.844  -8.916 -15.681  1.00  0.00     0.031 C 
ATOM     66  C   UNL     1      11.206  -7.125 -17.267  1.00  0.00     0.037 A 
BRANCH  53  67
ATOM     67  C   UNL     1       8.440  -1.623 -17.637  1.00  0.00     0.064 A 
ATOM     68  C   UNL     1       9.092  -0.383 -17.574  1.00  0.00     0.173 A 
ATOM     69  C   UNL     1       7.423  -1.784 -18.590  1.00  0.00     0.173 A 
ATOM     70  F   UNL     1      10.063  -0.176 -16.671  1.00  0.00    -0.203 F 
ATOM     71  C   UNL     1       8.734   0.658 -18.426  1.00  0.00     0.198 A 
ATOM     72  C   UNL     1       7.084  -0.749 -19.457  1.00  0.00     0.198 A 
ATOM     73  F   UNL     1       6.772  -2.952 -18.693  1.00  0.00    -0.203 F 
ATOM     74  F   UNL     1       9.351   1.844 -18.329  1.00  0.00    -0.200 F 
ATOM     75  C   UNL     1       7.737   0.471 -19.373  1.00  0.00     0.200 A 
ATOM     76  F   UNL     1       6.130  -0.935 -20.379  1.00  0.00    -0.200 F 
ATOM     77  F   UNL     1       7.405   1.469 -20.203  1.00  0.00    -0.200 F 
ENDBRANCH  53  67
BRANCH  54  78
ATOM     78  C   UNL     1      11.268  -8.983 -11.507  1.00  0.00     0.064 A 
ATOM     79  C   UNL     1      12.614  -9.328 -11.320  1.00  0.00     0.173 A 
ATOM     80  C   UNL     1      10.299  -9.775 -10.873  1.00  0.00     0.173 A 
ATOM     81  F   UNL     1      13.576  -8.619 -11.928  1.00  0.00    -0.203 F 
ATOM     82  C   UNL     1      12.973 -10.440 -10.561  1.00  0.00     0.198 A 
ATOM     83  C   UNL     1      10.661 -10.867 -10.087  1.00  0.00     0.198 A 
ATOM     84  F   UNL     1       8.996  -9.491 -11.020  1.00  0.00    -0.203 F 
ATOM     85  F   UNL     1      14.263 -10.786 -10.453  1.00  0.00    -0.200 F 
ATOM     86  C   UNL     1      11.997 -11.207  -9.942  1.00  0.00     0.200 A 
ATOM     87  F   UNL     1       9.714 -11.597  -9.482  1.00  0.00    -0.200 F 
ATOM     88  F   UNL     1      12.342 -12.280  -9.219  1.00  0.00    -0.200 F 
ENDBRANCH  54  78
BRANCH  66  89
ATOM     89  C   UNL     1      11.781  -7.955 -18.377  1.00  0.00     0.064 A 
ATOM     90  C   UNL     1      11.133  -9.108 -18.840  1.00  0.00     0.173 A 
ATOM     91  C   UNL     1      12.963  -7.559 -19.022  1.00  0.00     0.173 A 
ATOM     92  F   UNL     1      10.009  -9.536 -18.245  1.00  0.00    -0.203 F 
ATOM     93  C   UNL     1      11.656  -9.846 -19.899  1.00  0.00     0.198 A 
ATOM     94  C   UNL     1      13.468  -8.283 -20.098  1.00  0.00     0.198 A 
ATOM     95  F   UNL     1      13.617  -6.459 -18.620  1.00  0.00    -0.203 F 
ATOM     96  F   UNL     1      11.040 -10.966 -20.300  1.00  0.00    -0.200 F 
ATOM     97  C   UNL     1      12.817  -9.428 -20.533  1.00  0.00     0.200 A 
ATOM     98  F   UNL     1      14.582  -7.870 -20.718  1.00  0.00    -0.200 F 
ATOM     99  F   UNL     1      13.311 -10.132 -21.560  1.00  0.00    -0.200 F 
ENDBRANCH  66  89
ENDBRANCH  40  41
ENDBRANCH  33  35
ENDBRANCH  32  33
ENDBRANCH  31  32
ENDBRANCH  30  31
ENDBRANCH   1  30
TORSDOF 18
