REMARK SMILES C[C@@H]([NH3+])CCC(=O)N1CC(n2cc(C(=O)OCCOCCOC(=O)c3ccc(-c4c5nc(c(-c6c(F)c(F)c(F)c(F)c6F)c6ccc([nH]6)c(-c6c(F)c(F)c(F)c(F)c6F)c6nc(c(-c7c(F)c(F)c(F)c(F)c7F)c7ccc4[nH]7)C=C6)C=C5)cc3)nn2)C1
REMARK SMILES IDX 17 1 16 2 14 3 15 4 13 5 11 6 12 7 89 8 88 9 10 10 6 11 7 12
REMARK SMILES IDX 8 13 9 14 90 15 5 16 4 17 2 18 1 19 3 20 18 24 19 25 20 26
REMARK SMILES IDX 21 27 22 28 23 29 24 30 25 31 26 32 87 33 27 34 86 35 28 36
REMARK SMILES IDX 29 37 30 38 80 39 31 40 85 41 79 42 81 43 32 44 84 45 78 46
REMARK SMILES IDX 77 47 33 49 65 50 45 51 64 52 46 53 49 54 63 55 82 56 47 57
REMARK SMILES IDX 48 58 62 60 83 61 50 62 34 63 35 64 43 65 36 66 37 67 41 68
REMARK SMILES IDX 44 69 38 70 39 71 42 72 40 73 66 74 67 75 75 76 68 77 69 78
REMARK SMILES IDX 73 79 76 80 70 81 71 82 74 83 72 84 51 85 52 86 60 87 53 88
REMARK SMILES IDX 54 89 58 90 61 91 55 92 56 93 59 94 57 95
REMARK H PARENT 3 21 3 22 3 23 81 48 49 59
REMARK Flexibility Score: inf
ROOT
ATOM      1  C   UNL     1       8.558   3.335  -1.765  1.00  0.00     0.261 C 
ENDROOT
BRANCH   1   2
ATOM      2  O   UNL     1       7.223   3.519  -1.263  1.00  0.00    -0.458 OA
BRANCH   2   3
ATOM      3  C   UNL     1       6.984   2.918  -0.053  1.00  0.00     0.360 C 
ATOM      4  O   UNL     1       7.764   2.169   0.509  1.00  0.00    -0.244 OA
BRANCH   3   5
ATOM      5  C   UNL     1       5.730   3.352   0.550  1.00  0.00     0.190 A 
ATOM      6  N   UNL     1       3.713   4.000   1.006  1.00  0.00    -0.245 N 
ATOM      7  C   UNL     1       4.609   3.913  -0.030  1.00  0.00     0.147 A 
ATOM      8  N   UNL     1       4.281   3.652   2.167  1.00  0.00    -0.066 NA
ATOM      9  N   UNL     1       5.512   3.242   1.904  1.00  0.00    -0.123 NA
BRANCH   6  10
ATOM     10  C   UNL     1       2.305   4.201   0.835  1.00  0.00     0.148 C 
ATOM     11  C   UNL     1      -0.669   2.885   0.845  1.00  0.00     0.222 C 
ATOM     12  O   UNL     1      -1.390   3.851   1.090  1.00  0.00    -0.275 OA
ATOM     13  N   UNL     1       0.686   2.906   1.089  1.00  0.00    -0.338 N 
ATOM     14  C   UNL     1       1.391   3.831   2.001  1.00  0.00     0.148 C 
ATOM     15  C   UNL     1       1.717   3.028   0.065  1.00  0.00     0.148 C 
BRANCH  11  16
ATOM     16  C   UNL     1      -1.259   1.538   0.427  1.00  0.00     0.106 C 
BRANCH  16  17
ATOM     17  C   UNL     1      -1.023   1.018  -0.996  1.00  0.00     0.074 C 
BRANCH  17  18
ATOM     18  C   UNL     1       0.382   0.504  -1.342  1.00  0.00     0.178 C 
ATOM     19  C   UNL     1       0.952  -0.513  -0.358  1.00  0.00     0.075 C 
BRANCH  18  20
ATOM     20  N   UNL     1       0.414  -0.051  -2.696  1.00  0.00    -0.355 N 
ATOM     21  H   UNL     1      -0.191  -0.871  -2.743  1.00  0.00     0.344 HD
ATOM     22  H   UNL     1       1.370  -0.320  -2.931  1.00  0.00     0.344 HD
ATOM     23  H   UNL     1       0.086   0.652  -3.359  1.00  0.00     0.344 HD
ENDBRANCH  18  20
ENDBRANCH  17  18
ENDBRANCH  16  17
ENDBRANCH  11  16
ENDBRANCH   6  10
ENDBRANCH   3   5
ENDBRANCH   2   3
ENDBRANCH   1   2
BRANCH   1  24
ATOM     24  C   UNL     1       9.391   4.617  -1.697  1.00  0.00     0.202 C 
BRANCH  24  25
ATOM     25  O   UNL     1       9.661   5.177  -0.414  1.00  0.00    -0.374 OA
BRANCH  25  26
ATOM     26  C   UNL     1       8.616   5.769   0.348  1.00  0.00     0.202 C 
BRANCH  26  27
ATOM     27  C   UNL     1       8.012   7.077  -0.139  1.00  0.00     0.261 C 
BRANCH  27  28
ATOM     28  O   UNL     1       7.506   6.990  -1.461  1.00  0.00    -0.460 OA
BRANCH  28  29
ATOM     29  C   UNL     1       8.323   7.550  -2.385  1.00  0.00     0.338 C 
ATOM     30  O   UNL     1       9.511   7.788  -2.276  1.00  0.00    -0.246 OA
BRANCH  29  31
ATOM     31  C   UNL     1       7.501   8.023  -3.502  1.00  0.00     0.060 A 
ATOM     32  C   UNL     1       8.171   8.723  -4.507  1.00  0.00     0.016 A 
ATOM     33  C   UNL     1       6.107   8.068  -3.358  1.00  0.00     0.016 A 
ATOM     34  C   UNL     1       7.462   9.658  -5.224  1.00  0.00     0.010 A 
ATOM     35  C   UNL     1       5.408   9.021  -4.053  1.00  0.00     0.010 A 
ATOM     36  C   UNL     1       6.113   9.858  -4.912  1.00  0.00    -0.014 A 
BRANCH  36  37
ATOM     37  C   UNL     1       5.392  10.879  -5.637  1.00  0.00     0.031 A 
ATOM     38  C   UNL     1       5.085  10.440  -7.014  1.00  0.00     0.074 A 
ATOM     39  C   UNL     1       4.983  12.027  -5.065  1.00  0.00     0.049 A 
ATOM     40  N   UNL     1       5.619  10.870  -8.106  1.00  0.00    -0.248 NA
ATOM     41  C   UNL     1       4.267   9.226  -7.181  1.00  0.00     0.031 C 
ATOM     42  C   UNL     1       5.024  12.404  -3.651  1.00  0.00     0.029 A 
ATOM     43  N   UNL     1       4.356  13.085  -5.644  1.00  0.00    -0.354 N 
ATOM     44  C   UNL     1       5.030  10.124  -9.120  1.00  0.00     0.074 A 
ATOM     45  C   UNL     1       4.413   8.994  -8.485  1.00  0.00     0.031 C 
ATOM     46  C   UNL     1       4.251  13.499  -3.457  1.00  0.00     0.029 A 
ATOM     47  C   UNL     1       3.774  13.973  -4.744  1.00  0.00     0.049 A 
ATOM     48  H   UNL     1       4.316  13.213  -6.620  1.00  0.00     0.167 HD
ATOM     49  C   UNL     1       4.832  10.679 -10.345  1.00  0.00     0.037 A 
ATOM     50  C   UNL     1       2.909  14.971  -5.066  1.00  0.00     0.037 A 
ATOM     51  C   UNL     1       5.693  11.825 -10.521  1.00  0.00     0.049 A 
ATOM     52  C   UNL     1       3.072  15.239  -6.519  1.00  0.00     0.074 A 
ATOM     53  C   UNL     1       7.059  12.023 -10.543  1.00  0.00     0.029 A 
ATOM     54  N   UNL     1       5.135  13.062 -10.313  1.00  0.00    -0.354 N 
ATOM     55  N   UNL     1       4.144  15.767  -7.040  1.00  0.00    -0.248 NA
ATOM     56  C   UNL     1       2.236  14.484  -7.440  1.00  0.00     0.031 C 
ATOM     57  C   UNL     1       7.266  13.285  -9.912  1.00  0.00     0.029 A 
ATOM     58  C   UNL     1       6.019  13.829  -9.603  1.00  0.00     0.049 A 
ATOM     59  H   UNL     1       4.246  13.351 -10.623  1.00  0.00     0.167 HD
ATOM     60  C   UNL     1       4.351  15.055  -8.213  1.00  0.00     0.074 A 
ATOM     61  C   UNL     1       3.099  14.339  -8.449  1.00  0.00     0.031 C 
ATOM     62  C   UNL     1       5.613  14.886  -8.706  1.00  0.00     0.037 A 
BRANCH  49  63
ATOM     63  C   UNL     1       3.571  10.480 -11.161  1.00  0.00     0.064 A 
ATOM     64  C   UNL     1       3.477  11.126 -12.410  1.00  0.00     0.173 A 
ATOM     65  C   UNL     1       2.354   9.960 -10.662  1.00  0.00     0.173 A 
ATOM     66  F   UNL     1       4.564  11.661 -12.987  1.00  0.00    -0.203 F 
ATOM     67  C   UNL     1       2.251  11.331 -13.048  1.00  0.00     0.198 A 
ATOM     68  C   UNL     1       1.141  10.123 -11.326  1.00  0.00     0.198 A 
ATOM     69  F   UNL     1       2.249   9.368  -9.469  1.00  0.00    -0.203 F 
ATOM     70  F   UNL     1       2.200  12.075 -14.161  1.00  0.00    -0.200 F 
ATOM     71  C   UNL     1       1.083  10.840 -12.500  1.00  0.00     0.200 A 
ATOM     72  F   UNL     1       0.018   9.649 -10.767  1.00  0.00    -0.200 F 
ATOM     73  F   UNL     1      -0.101  11.094 -13.071  1.00  0.00    -0.200 F 
ENDBRANCH  49  63
BRANCH  50  74
ATOM     74  C   UNL     1       1.730  15.467  -4.312  1.00  0.00     0.064 A 
ATOM     75  C   UNL     1       1.095  16.669  -4.673  1.00  0.00     0.173 A 
ATOM     76  C   UNL     1       1.024  14.632  -3.426  1.00  0.00     0.173 A 
ATOM     77  F   UNL     1       1.675  17.502  -5.550  1.00  0.00    -0.203 F 
ATOM     78  C   UNL     1      -0.182  16.998  -4.202  1.00  0.00     0.198 A 
ATOM     79  C   UNL     1      -0.248  14.963  -2.954  1.00  0.00     0.198 A 
ATOM     80  F   UNL     1       1.507  13.430  -3.083  1.00  0.00    -0.203 F 
ATOM     81  F   UNL     1      -0.783  18.119  -4.625  1.00  0.00    -0.200 F 
ATOM     82  C   UNL     1      -0.857  16.138  -3.353  1.00  0.00     0.200 A 
ATOM     83  F   UNL     1      -0.907  14.103  -2.164  1.00  0.00    -0.200 F 
ATOM     84  F   UNL     1      -2.106  16.418  -2.955  1.00  0.00    -0.200 F 
ENDBRANCH  50  74
BRANCH  62  85
ATOM     85  C   UNL     1       6.708  15.736  -8.124  1.00  0.00     0.064 A 
ATOM     86  C   UNL     1       7.135  15.679  -6.785  1.00  0.00     0.173 A 
ATOM     87  C   UNL     1       7.444  16.544  -9.001  1.00  0.00     0.173 A 
ATOM     88  F   UNL     1       6.543  14.860  -5.906  1.00  0.00    -0.203 F 
ATOM     89  C   UNL     1       8.225  16.429  -6.343  1.00  0.00     0.198 A 
ATOM     90  C   UNL     1       8.555  17.259  -8.566  1.00  0.00     0.198 A 
ATOM     91  F   UNL     1       7.113  16.598 -10.300  1.00  0.00    -0.203 F 
ATOM     92  F   UNL     1       8.607  16.369  -5.058  1.00  0.00    -0.200 F 
ATOM     93  C   UNL     1       8.939  17.210  -7.236  1.00  0.00     0.200 A 
ATOM     94  F   UNL     1       9.272  17.973  -9.445  1.00  0.00    -0.200 F 
ATOM     95  F   UNL     1      10.014  17.896  -6.822  1.00  0.00    -0.200 F 
ENDBRANCH  62  85
ENDBRANCH  36  37
ENDBRANCH  29  31
ENDBRANCH  28  29
ENDBRANCH  27  28
ENDBRANCH  26  27
ENDBRANCH  25  26
ENDBRANCH  24  25
ENDBRANCH   1  24
TORSDOF 19
