REMARK SMILES Cc1ccc(C)c([C@@H](O)[C@@H](C)[C@@H](C)C(=O)OCCOCCOC(=O)c2ccc(-c3c4nc(c(-c5c(F)c(F)c(F)c(F)c5F)c5ccc([nH]5)c(-c5c(F)c(F)c(F)c(F)c5F)c5nc(c(-c6c(F)c(F)c(F)c(F)c6F)c6ccc3[nH]6)C=C5)C=C4)cc2)c1
REMARK SMILES IDX 18 1 17 2 16 3 14 4 15 5 12 6 13 7 10 8 11 9 8 10 7 11 1 12
REMARK SMILES IDX 2 13 3 14 88 15 4 16 5 17 6 18 9 19 19 21 20 22 21 23 22 24
REMARK SMILES IDX 23 25 24 26 25 27 26 28 87 29 27 30 86 31 28 32 29 33 30 34
REMARK SMILES IDX 80 35 31 36 85 37 79 38 81 39 32 40 84 41 78 42 77 43 33 45
REMARK SMILES IDX 65 46 45 47 64 48 46 49 49 50 63 51 82 52 47 53 48 54 62 56
REMARK SMILES IDX 83 57 50 58 34 59 35 60 43 61 36 62 37 63 41 64 44 65 38 66
REMARK SMILES IDX 39 67 42 68 40 69 66 70 67 71 75 72 68 73 69 74 73 75 76 76
REMARK SMILES IDX 70 77 71 78 74 79 72 80 51 81 52 82 60 83 53 84 54 85 58 86
REMARK SMILES IDX 61 87 55 88 56 89 59 90 57 91
REMARK H PARENT 9 20 81 44 49 55
REMARK Flexibility Score: inf
ROOT
ATOM      1  C   UNL     1      -4.239   1.274   3.822  1.00  0.00     0.202 C 
ENDROOT
BRANCH   1   2
ATOM      2  C   UNL     1      -5.276   1.664   2.749  1.00  0.00     0.261 C 
BRANCH   2   3
ATOM      3  O   UNL     1      -4.673   1.886   1.459  1.00  0.00    -0.463 OA
BRANCH   3   4
ATOM      4  C   UNL     1      -3.806   2.933   1.387  1.00  0.00     0.309 C 
ATOM      5  O   UNL     1      -3.522   3.688   2.280  1.00  0.00    -0.252 OA
BRANCH   4   6
ATOM      6  C   UNL     1      -3.058   2.971   0.070  1.00  0.00     0.102 C 
ATOM      7  C   UNL     1      -4.046   2.896  -1.089  1.00  0.00     0.020 C 
BRANCH   6   8
ATOM      8  C   UNL     1      -1.974   1.907   0.207  1.00  0.00     0.033 C 
ATOM      9  C   UNL     1      -1.118   2.140   1.477  1.00  0.00     0.011 C 
BRANCH   8  10
ATOM     10  C   UNL     1      -1.058   1.753  -1.011  1.00  0.00     0.148 C 
BRANCH  10  11
ATOM     11  C   UNL     1      -0.307   0.441  -0.876  1.00  0.00    -0.016 A 
ATOM     12  C   UNL     1       3.296  -0.430  -0.008  1.00  0.00     0.044 C 
ATOM     13  C   UNL     1       1.830  -0.569  -0.278  1.00  0.00    -0.051 A 
ATOM     14  C   UNL     1       1.187  -1.797  -0.114  1.00  0.00     0.004 A 
ATOM     15  C   UNL     1       1.084   0.535  -0.684  1.00  0.00     0.010 A 
ATOM     16  C   UNL     1      -0.183  -1.918  -0.349  1.00  0.00     0.004 A 
ATOM     17  C   UNL     1      -0.949  -0.815  -0.747  1.00  0.00    -0.045 A 
ATOM     18  C   UNL     1      -2.438  -1.031  -0.883  1.00  0.00     0.045 C 
ENDBRANCH  10  11
BRANCH  10  19
ATOM     19  O   UNL     1      -1.734   1.784  -2.253  1.00  0.00    -0.388 OA
ATOM     20  H   UNL     1      -2.350   1.037  -2.305  1.00  0.00     0.211 HD
ENDBRANCH  10  19
ENDBRANCH   8  10
ENDBRANCH   6   8
ENDBRANCH   4   6
ENDBRANCH   3   4
ENDBRANCH   2   3
ENDBRANCH   1   2
BRANCH   1  21
ATOM     21  O   UNL     1      -3.728   2.468   4.373  1.00  0.00    -0.374 OA
BRANCH  21  22
ATOM     22  C   UNL     1      -2.434   2.505   4.930  1.00  0.00     0.202 C 
BRANCH  22  23
ATOM     23  C   UNL     1      -2.436   2.141   6.411  1.00  0.00     0.261 C 
BRANCH  23  24
ATOM     24  O   UNL     1      -3.348   2.847   7.298  1.00  0.00    -0.460 OA
BRANCH  24  25
ATOM     25  C   UNL     1      -4.654   3.010   6.949  1.00  0.00     0.338 C 
ATOM     26  O   UNL     1      -5.562   2.295   7.342  1.00  0.00    -0.246 OA
BRANCH  25  27
ATOM     27  C   UNL     1      -4.854   4.199   6.072  1.00  0.00     0.060 A 
ATOM     28  C   UNL     1      -5.968   4.242   5.222  1.00  0.00     0.016 A 
ATOM     29  C   UNL     1      -3.803   5.103   5.895  1.00  0.00     0.016 A 
ATOM     30  C   UNL     1      -5.947   5.085   4.104  1.00  0.00     0.010 A 
ATOM     31  C   UNL     1      -3.741   5.860   4.731  1.00  0.00     0.010 A 
ATOM     32  C   UNL     1      -4.801   5.845   3.814  1.00  0.00    -0.014 A 
BRANCH  32  33
ATOM     33  C   UNL     1      -4.867   6.958   2.848  1.00  0.00     0.031 A 
ATOM     34  C   UNL     1      -5.569   8.074   3.480  1.00  0.00     0.074 A 
ATOM     35  C   UNL     1      -4.343   7.136   1.616  1.00  0.00     0.049 A 
ATOM     36  N   UNL     1      -6.787   8.399   3.213  1.00  0.00    -0.248 NA
ATOM     37  C   UNL     1      -4.991   8.729   4.660  1.00  0.00     0.031 C 
ATOM     38  C   UNL     1      -3.639   6.154   0.844  1.00  0.00     0.029 A 
ATOM     39  N   UNL     1      -4.286   8.216   0.768  1.00  0.00    -0.354 N 
ATOM     40  C   UNL     1      -7.021   9.491   4.016  1.00  0.00     0.074 A 
ATOM     41  C   UNL     1      -6.021   9.479   5.052  1.00  0.00     0.031 C 
ATOM     42  C   UNL     1      -2.950   6.683  -0.180  1.00  0.00     0.029 A 
ATOM     43  C   UNL     1      -3.362   8.064  -0.272  1.00  0.00     0.049 A 
ATOM     44  H   UNL     1      -4.843   9.020   0.882  1.00  0.00     0.167 HD
ATOM     45  C   UNL     1      -7.731  10.526   3.509  1.00  0.00     0.037 A 
ATOM     46  C   UNL     1      -3.058   8.871  -1.316  1.00  0.00     0.037 A 
ATOM     47  C   UNL     1      -8.469  10.151   2.330  1.00  0.00     0.049 A 
ATOM     48  C   UNL     1      -4.260   9.681  -1.572  1.00  0.00     0.074 A 
ATOM     49  C   UNL     1      -9.532   9.312   2.073  1.00  0.00     0.029 A 
ATOM     50  N   UNL     1      -7.813  10.354   1.141  1.00  0.00    -0.354 N 
ATOM     51  N   UNL     1      -5.364   9.186  -2.063  1.00  0.00    -0.248 NA
ATOM     52  C   UNL     1      -4.387  10.972  -0.911  1.00  0.00     0.031 C 
ATOM     53  C   UNL     1      -9.400   8.896   0.718  1.00  0.00     0.029 A 
ATOM     54  C   UNL     1      -8.277   9.509   0.165  1.00  0.00     0.049 A 
ATOM     55  H   UNL     1      -7.101  11.021   1.006  1.00  0.00     0.167 HD
ATOM     56  C   UNL     1      -6.357   9.856  -1.375  1.00  0.00     0.074 A 
ATOM     57  C   UNL     1      -5.717  11.042  -0.824  1.00  0.00     0.031 C 
ATOM     58  C   UNL     1      -7.516   9.225  -1.034  1.00  0.00     0.037 A 
BRANCH  45  59
ATOM     59  C   UNL     1      -7.351  11.939   3.808  1.00  0.00     0.064 A 
ATOM     60  C   UNL     1      -8.301  12.952   3.651  1.00  0.00     0.173 A 
ATOM     61  C   UNL     1      -6.015  12.355   4.013  1.00  0.00     0.173 A 
ATOM     62  F   UNL     1      -9.575  12.647   3.367  1.00  0.00    -0.203 F 
ATOM     63  C   UNL     1      -7.938  14.297   3.715  1.00  0.00     0.198 A 
ATOM     64  C   UNL     1      -5.668  13.691   4.151  1.00  0.00     0.198 A 
ATOM     65  F   UNL     1      -4.989  11.494   3.973  1.00  0.00    -0.203 F 
ATOM     66  F   UNL     1      -8.853  15.242   3.466  1.00  0.00    -0.200 F 
ATOM     67  C   UNL     1      -6.628  14.665   3.983  1.00  0.00     0.200 A 
ATOM     68  F   UNL     1      -4.389  14.023   4.374  1.00  0.00    -0.200 F 
ATOM     69  F   UNL     1      -6.278  15.956   4.023  1.00  0.00    -0.200 F 
ENDBRANCH  45  59
BRANCH  46  70
ATOM     70  C   UNL     1      -1.775   9.001  -2.052  1.00  0.00     0.064 A 
ATOM     71  C   UNL     1      -1.690   9.700  -3.268  1.00  0.00     0.173 A 
ATOM     72  C   UNL     1      -0.547   8.671  -1.440  1.00  0.00     0.173 A 
ATOM     73  F   UNL     1      -2.804  10.065  -3.917  1.00  0.00    -0.203 F 
ATOM     74  C   UNL     1      -0.458  10.098  -3.804  1.00  0.00     0.198 A 
ATOM     75  C   UNL     1       0.681   9.064  -1.978  1.00  0.00     0.198 A 
ATOM     76  F   UNL     1      -0.514   8.034  -0.261  1.00  0.00    -0.203 F 
ATOM     77  F   UNL     1      -0.424  10.826  -4.929  1.00  0.00    -0.200 F 
ATOM     78  C   UNL     1       0.724   9.797  -3.149  1.00  0.00     0.200 A 
ATOM     79  F   UNL     1       1.817   8.783  -1.323  1.00  0.00    -0.200 F 
ATOM     80  F   UNL     1       1.896  10.243  -3.622  1.00  0.00    -0.200 F 
ENDBRANCH  46  70
BRANCH  58  81
ATOM     81  C   UNL     1      -7.956   8.070  -1.882  1.00  0.00     0.064 A 
ATOM     82  C   UNL     1      -7.327   6.816  -1.926  1.00  0.00     0.173 A 
ATOM     83  C   UNL     1      -9.155   8.222  -2.597  1.00  0.00     0.173 A 
ATOM     84  F   UNL     1      -6.210   6.578  -1.224  1.00  0.00    -0.203 F 
ATOM     85  C   UNL     1      -7.877   5.766  -2.664  1.00  0.00     0.198 A 
ATOM     86  C   UNL     1      -9.716   7.165  -3.305  1.00  0.00     0.198 A 
ATOM     87  F   UNL     1      -9.811   9.393  -2.564  1.00  0.00    -0.203 F 
ATOM     88  F   UNL     1      -7.263   4.574  -2.697  1.00  0.00    -0.200 F 
ATOM     89  C   UNL     1      -9.075   5.939  -3.342  1.00  0.00     0.200 A 
ATOM     90  F   UNL     1     -10.893   7.329  -3.925  1.00  0.00    -0.200 F 
ATOM     91  F   UNL     1      -9.625   4.917  -4.013  1.00  0.00    -0.200 F 
ENDBRANCH  58  81
ENDBRANCH  32  33
ENDBRANCH  25  27
ENDBRANCH  24  25
ENDBRANCH  23  24
ENDBRANCH  22  23
ENDBRANCH  21  22
ENDBRANCH   1  21
TORSDOF 18
