REMARK SMILES CCN1C(=O)/C(=C/N[C@H](CCSC)C(=O)OCCOCCOC(=O)c2ccc(-c3c4nc(c(-c5c(F)c(F)c(F)c(F)c5F)c5ccc([nH]5)c(-c5c(F)c(F)c(F)c(F)c5F)c5nc(c(-c6c(F)c(F)c(F)c(F)c6F)c6ccc3[nH]6)C=C5)C=C4)cc2)C(=O)NC1=S
REMARK SMILES IDX 18 1 17 2 16 3 14 4 15 5 9 6 8 7 7 9 3 10 4 11 91 12 5 13
REMARK SMILES IDX 6 14 90 15 92 16 88 17 89 19 2 20 1 21 10 22 11 23 12 24
REMARK SMILES IDX 13 25 19 26 20 27 21 28 22 29 23 30 24 31 25 32 26 33 87 34
REMARK SMILES IDX 27 35 86 36 28 37 29 38 30 39 80 40 31 41 85 42 79 43 81 44
REMARK SMILES IDX 32 45 84 46 78 47 77 48 33 50 65 51 45 52 64 53 46 54 49 55
REMARK SMILES IDX 63 56 82 57 47 58 48 59 62 61 83 62 50 63 34 64 35 65 43 66
REMARK SMILES IDX 36 67 37 68 41 69 44 70 38 71 39 72 42 73 40 74 66 75 67 76
REMARK SMILES IDX 75 77 68 78 69 79 73 80 76 81 70 82 71 83 74 84 72 85 51 86
REMARK SMILES IDX 52 87 60 88 53 89 54 90 58 91 61 92 55 93 56 94 59 95 57 96
REMARK H PARENT 8 8 90 18 81 49 49 60
REMARK Flexibility Score: inf
ROOT
ATOM      1  C   UNL     1       1.943 -10.428   4.742  1.00  0.00     0.202 C 
ENDROOT
BRANCH   1   2
ATOM      2  C   UNL     1       2.900 -10.512   3.551  1.00  0.00     0.261 C 
BRANCH   2   3
ATOM      3  O   UNL     1       3.062  -9.245   2.889  1.00  0.00    -0.462 OA
BRANCH   3   4
ATOM      4  C   UNL     1       2.667  -9.218   1.587  1.00  0.00     0.328 C 
ATOM      5  O   UNL     1       2.246 -10.188   0.963  1.00  0.00    -0.250 OA
BRANCH   4   6
ATOM      6  C   UNL     1       2.869  -7.847   0.925  1.00  0.00     0.190 C 
BRANCH   6   7
ATOM      7  N   UNL     1       4.187  -7.791   0.277  1.00  0.00    -0.377 N 
ATOM      8  H   UNL     1       4.948  -8.220   0.730  1.00  0.00     0.160 HD
BRANCH   7   9
ATOM      9  C   UNL     1       4.413  -7.172  -0.928  1.00  0.00     0.098 C 
ATOM     10  N   UNL     1       5.555  -7.354  -4.319  1.00  0.00    -0.285 N 
ATOM     11  C   UNL     1       5.149  -6.696  -3.149  1.00  0.00     0.267 C 
ATOM     12  C   UNL     1       6.424  -8.440  -4.279  1.00  0.00     0.182 C 
ATOM     13  O   UNL     1       4.668  -5.562  -3.138  1.00  0.00    -0.268 OA
ATOM     14  C   UNL     1       5.292  -7.460  -1.898  1.00  0.00     0.121 C 
ATOM     15  N   UNL     1       6.725  -8.949  -3.034  1.00  0.00    -0.298 N 
ATOM     16  S   UNL     1       7.184  -9.233  -5.541  1.00  0.00    -0.040 S 
ATOM     17  C   UNL     1       6.217  -8.587  -1.819  1.00  0.00     0.264 C 
ATOM     18  H   UNL     1       7.396  -9.670  -3.019  1.00  0.00     0.172 HD
ATOM     19  O   UNL     1       6.497  -9.183  -0.785  1.00  0.00    -0.269 OA
BRANCH  10  20
ATOM     20  C   UNL     1       5.047  -6.646  -5.514  1.00  0.00     0.125 C 
ATOM     21  C   UNL     1       5.043  -7.284  -6.889  1.00  0.00     0.028 C 
ENDBRANCH  10  20
ENDBRANCH   7   9
ENDBRANCH   6   7
BRANCH   6  22
ATOM     22  C   UNL     1       2.640  -6.631   1.827  1.00  0.00     0.048 C 
BRANCH  22  23
ATOM     23  C   UNL     1       2.049  -5.408   1.112  1.00  0.00     0.072 C 
BRANCH  23  24
ATOM     24  S   UNL     1       0.267  -5.560   0.712  1.00  0.00    -0.165 SA
ATOM     25  C   UNL     1       0.330  -6.320  -0.937  1.00  0.00     0.085 C 
ENDBRANCH  23  24
ENDBRANCH  22  23
ENDBRANCH   6  22
ENDBRANCH   4   6
ENDBRANCH   3   4
ENDBRANCH   2   3
ENDBRANCH   1   2
BRANCH   1  26
ATOM     26  O   UNL     1       0.577 -10.146   4.449  1.00  0.00    -0.374 OA
BRANCH  26  27
ATOM     27  C   UNL     1       0.237  -8.817   4.055  1.00  0.00     0.202 C 
BRANCH  27  28
ATOM     28  C   UNL     1       0.305  -7.738   5.145  1.00  0.00     0.261 C 
BRANCH  28  29
ATOM     29  O   UNL     1       1.645  -7.524   5.631  1.00  0.00    -0.460 OA
BRANCH  29  30
ATOM     30  C   UNL     1       1.798  -7.715   6.965  1.00  0.00     0.338 C 
ATOM     31  O   UNL     1       0.928  -7.949   7.787  1.00  0.00    -0.246 OA
BRANCH  30  32
ATOM     32  C   UNL     1       3.229  -7.777   7.317  1.00  0.00     0.060 A 
ATOM     33  C   UNL     1       3.697  -8.955   7.912  1.00  0.00     0.016 A 
ATOM     34  C   UNL     1       4.067  -6.669   7.181  1.00  0.00     0.016 A 
ATOM     35  C   UNL     1       4.996  -9.016   8.415  1.00  0.00     0.010 A 
ATOM     36  C   UNL     1       5.368  -6.728   7.698  1.00  0.00     0.010 A 
ATOM     37  C   UNL     1       5.826  -7.889   8.348  1.00  0.00    -0.014 A 
BRANCH  37  38
ATOM     38  C   UNL     1       7.113  -7.891   9.086  1.00  0.00     0.031 A 
ATOM     39  C   UNL     1       7.169  -7.295  10.465  1.00  0.00     0.074 A 
ATOM     40  C   UNL     1       8.210  -8.457   8.554  1.00  0.00     0.049 A 
ATOM     41  N   UNL     1       8.182  -7.197  11.288  1.00  0.00    -0.248 NA
ATOM     42  C   UNL     1       5.912  -6.737  10.989  1.00  0.00     0.031 C 
ATOM     43  C   UNL     1       8.277  -9.100   7.243  1.00  0.00     0.029 A 
ATOM     44  N   UNL     1       9.482  -8.579   9.056  1.00  0.00    -0.354 N 
ATOM     45  C   UNL     1       7.688  -6.570  12.424  1.00  0.00     0.074 A 
ATOM     46  C   UNL     1       6.290  -6.285  12.176  1.00  0.00     0.031 C 
ATOM     47  C   UNL     1       9.530  -9.541   7.039  1.00  0.00     0.029 A 
ATOM     48  C   UNL     1      10.357  -9.191   8.193  1.00  0.00     0.049 A 
ATOM     49  H   UNL     1       9.742  -8.258   9.949  1.00  0.00     0.167 HD
ATOM     50  C   UNL     1       8.337  -6.267  13.573  1.00  0.00     0.037 A 
ATOM     51  C   UNL     1      11.678  -9.426   8.316  1.00  0.00     0.037 A 
ATOM     52  C   UNL     1       9.725  -6.550  13.825  1.00  0.00     0.049 A 
ATOM     53  C   UNL     1      12.392  -9.019   9.578  1.00  0.00     0.074 A 
ATOM     54  C   UNL     1      10.463  -6.305  14.970  1.00  0.00     0.029 A 
ATOM     55  N   UNL     1      10.588  -7.135  12.911  1.00  0.00    -0.354 N 
ATOM     56  N   UNL     1      11.908  -8.456  10.658  1.00  0.00    -0.248 NA
ATOM     57  C   UNL     1      13.838  -9.282   9.636  1.00  0.00     0.031 C 
ATOM     58  C   UNL     1      11.783  -6.702  14.733  1.00  0.00     0.029 A 
ATOM     59  C   UNL     1      11.858  -7.233  13.456  1.00  0.00     0.049 A 
ATOM     60  H   UNL     1      10.335  -7.436  12.008  1.00  0.00     0.167 HD
ATOM     61  C   UNL     1      12.980  -8.317  11.530  1.00  0.00     0.074 A 
ATOM     62  C   UNL     1      14.139  -8.866  10.859  1.00  0.00     0.031 C 
ATOM     63  C   UNL     1      13.002  -7.783  12.776  1.00  0.00     0.037 A 
BRANCH  50  64
ATOM     64  C   UNL     1       7.553  -5.573  14.646  1.00  0.00     0.064 A 
ATOM     65  C   UNL     1       6.605  -6.256  15.421  1.00  0.00     0.173 A 
ATOM     66  C   UNL     1       7.782  -4.218  14.928  1.00  0.00     0.173 A 
ATOM     67  F   UNL     1       6.342  -7.549  15.181  1.00  0.00    -0.203 F 
ATOM     68  C   UNL     1       5.899  -5.601  16.428  1.00  0.00     0.198 A 
ATOM     69  C   UNL     1       7.091  -3.573  15.950  1.00  0.00     0.198 A 
ATOM     70  F   UNL     1       8.681  -3.522  14.217  1.00  0.00    -0.203 F 
ATOM     71  F   UNL     1       4.971  -6.263  17.133  1.00  0.00    -0.200 F 
ATOM     72  C   UNL     1       6.146  -4.263  16.695  1.00  0.00     0.200 A 
ATOM     73  F   UNL     1       7.337  -2.282  16.212  1.00  0.00    -0.200 F 
ATOM     74  F   UNL     1       5.471  -3.636  17.668  1.00  0.00    -0.200 F 
ENDBRANCH  50  64
BRANCH  51  75
ATOM     75  C   UNL     1      12.419 -10.072   7.203  1.00  0.00     0.064 A 
ATOM     76  C   UNL     1      12.914 -11.378   7.324  1.00  0.00     0.173 A 
ATOM     77  C   UNL     1      12.663  -9.388   6.003  1.00  0.00     0.173 A 
ATOM     78  F   UNL     1      12.730 -12.060   8.463  1.00  0.00    -0.203 F 
ATOM     79  C   UNL     1      13.635 -11.971   6.290  1.00  0.00     0.198 A 
ATOM     80  C   UNL     1      13.364  -9.990   4.961  1.00  0.00     0.198 A 
ATOM     81  F   UNL     1      12.216  -8.134   5.843  1.00  0.00    -0.203 F 
ATOM     82  F   UNL     1      14.133 -13.205   6.445  1.00  0.00    -0.200 F 
ATOM     83  C   UNL     1      13.854 -11.279   5.107  1.00  0.00     0.200 A 
ATOM     84  F   UNL     1      13.567  -9.321   3.818  1.00  0.00    -0.200 F 
ATOM     85  F   UNL     1      14.547 -11.850   4.113  1.00  0.00    -0.200 F 
ENDBRANCH  51  75
BRANCH  63  86
ATOM     86  C   UNL     1      14.313  -7.784  13.504  1.00  0.00     0.064 A 
ATOM     87  C   UNL     1      15.344  -6.897  13.158  1.00  0.00     0.173 A 
ATOM     88  C   UNL     1      14.526  -8.650  14.587  1.00  0.00     0.173 A 
ATOM     89  F   UNL     1      15.194  -6.060  12.121  1.00  0.00    -0.203 F 
ATOM     90  C   UNL     1      16.547  -6.892  13.859  1.00  0.00     0.198 A 
ATOM     91  C   UNL     1      15.721  -8.625  15.300  1.00  0.00     0.198 A 
ATOM     92  F   UNL     1      13.569  -9.513  14.960  1.00  0.00    -0.203 F 
ATOM     93  F   UNL     1      17.533  -6.063  13.487  1.00  0.00    -0.200 F 
ATOM     94  C   UNL     1      16.732  -7.750  14.933  1.00  0.00     0.200 A 
ATOM     95  F   UNL     1      15.894  -9.447  16.344  1.00  0.00    -0.200 F 
ATOM     96  F   UNL     1      17.889  -7.739  15.610  1.00  0.00    -0.200 F 
ENDBRANCH  63  86
ENDBRANCH  37  38
ENDBRANCH  30  32
ENDBRANCH  29  30
ENDBRANCH  28  29
ENDBRANCH  27  28
ENDBRANCH  26  27
ENDBRANCH   1  26
TORSDOF 20
