REMARK SMILES CC(C)(Oc1ccc(Cl)cc1)C(=O)N1CCC[C@H](C(=O)OCCOCCOC(=O)c2ccc(-c3c4nc(c(-c5c(F)c(F)c(F)c(F)c5F)c5ccc([nH]5)c(-c5c(F)c(F)c(F)c(F)c5F)c5nc(c(-c6c(F)c(F)c(F)c(F)c6F)c6ccc3[nH]6)C=C5)C=C4)cc2)C1
REMARK SMILES IDX 23 1 22 2 21 3 19 4 20 5 18 6 14 7 15 8 93 9 16 10 17 11
REMARK SMILES IDX 12 12 13 13 2 14 1 15 3 16 4 17 5 18 6 19 11 20 7 21 10 22
REMARK SMILES IDX 8 23 9 24 24 25 25 26 26 27 27 28 28 29 29 30 30 31 31 32
REMARK SMILES IDX 92 33 32 34 91 35 33 36 34 37 35 38 85 39 36 40 90 41 84 42
REMARK SMILES IDX 86 43 37 44 89 45 83 46 82 47 38 49 70 50 50 51 69 52 51 53
REMARK SMILES IDX 54 54 68 55 87 56 52 57 53 58 67 60 88 61 55 62 39 63 40 64
REMARK SMILES IDX 48 65 41 66 42 67 46 68 49 69 43 70 44 71 47 72 45 73 71 74
REMARK SMILES IDX 72 75 80 76 73 77 74 78 78 79 81 80 75 81 76 82 79 83 77 84
REMARK SMILES IDX 56 85 57 86 65 87 58 88 59 89 63 90 66 91 60 92 61 93 64 94
REMARK SMILES IDX 62 95
REMARK H PARENT 86 48 54 59
REMARK Flexibility Score: inf
ROOT
ATOM      1  C   UNL     1      -1.225  -0.968   6.063  1.00  0.00     0.202 C 
ENDROOT
BRANCH   1   2
ATOM      2  C   UNL     1      -1.302  -0.498   4.608  1.00  0.00     0.261 C 
BRANCH   2   3
ATOM      3  O   UNL     1      -0.826   0.856   4.492  1.00  0.00    -0.463 OA
BRANCH   3   4
ATOM      4  C   UNL     1      -1.653   1.757   3.908  1.00  0.00     0.310 C 
ATOM      5  O   UNL     1      -2.755   1.503   3.438  1.00  0.00    -0.252 OA
BRANCH   4   6
ATOM      6  C   UNL     1      -1.056   3.154   3.859  1.00  0.00     0.119 C 
ATOM      7  N   UNL     1       0.990   2.722   2.568  1.00  0.00    -0.338 N 
ATOM      8  C   UNL     1       1.867   3.234   3.617  1.00  0.00     0.119 C 
ATOM      9  C   UNL     1      -0.330   3.343   2.527  1.00  0.00     0.135 C 
ATOM     10  C   UNL     1       1.254   3.020   4.994  1.00  0.00     0.022 C 
ATOM     11  C   UNL     1      -0.177   3.562   5.055  1.00  0.00     0.019 C 
BRANCH   7  12
ATOM     12  C   UNL     1       1.332   1.533   1.926  1.00  0.00     0.266 C 
ATOM     13  O   UNL     1       2.178   0.788   2.437  1.00  0.00    -0.270 OA
BRANCH  12  14
ATOM     14  C   UNL     1       0.730   1.216   0.505  1.00  0.00     0.181 C 
ATOM     15  C   UNL     1       1.489  -0.022  -0.021  1.00  0.00     0.067 C 
ATOM     16  C   UNL     1       1.043   2.422  -0.404  1.00  0.00     0.067 C 
BRANCH  14  17
ATOM     17  O   UNL     1      -0.678   0.919   0.631  1.00  0.00    -0.478 OA
BRANCH  17  18
ATOM     18  C   UNL     1      -1.431   0.959  -0.514  1.00  0.00     0.121 A 
ATOM     19  C   UNL     1      -1.330  -0.013  -1.508  1.00  0.00     0.048 A 
ATOM     20  C   UNL     1      -2.395   1.964  -0.633  1.00  0.00     0.048 A 
ATOM     21  C   UNL     1      -2.110   0.078  -2.665  1.00  0.00     0.024 A 
ATOM     22  C   UNL     1      -3.185   2.052  -1.783  1.00  0.00     0.024 A 
ATOM     23  C   UNL     1      -3.026   1.118  -2.803  1.00  0.00     0.041 A 
ATOM     24  Cl  UNL     1      -3.980   1.235  -4.230  1.00  0.00    -0.084 Cl
ENDBRANCH  17  18
ENDBRANCH  14  17
ENDBRANCH  12  14
ENDBRANCH   7  12
ENDBRANCH   4   6
ENDBRANCH   3   4
ENDBRANCH   2   3
ENDBRANCH   1   2
BRANCH   1  25
ATOM     25  O   UNL     1      -2.218  -0.427   6.937  1.00  0.00    -0.374 OA
BRANCH  25  26
ATOM     26  C   UNL     1      -2.053   0.930   7.341  1.00  0.00     0.202 C 
BRANCH  26  27
ATOM     27  C   UNL     1      -1.088   1.162   8.510  1.00  0.00     0.261 C 
BRANCH  27  28
ATOM     28  O   UNL     1       0.260   0.767   8.197  1.00  0.00    -0.460 OA
BRANCH  28  29
ATOM     29  C   UNL     1       0.690  -0.333   8.859  1.00  0.00     0.338 C 
ATOM     30  O   UNL     1       0.099  -0.950   9.734  1.00  0.00    -0.246 OA
BRANCH  29  31
ATOM     31  C   UNL     1       1.961  -0.820   8.293  1.00  0.00     0.060 A 
ATOM     32  C   UNL     1       2.029  -2.173   7.941  1.00  0.00     0.016 A 
ATOM     33  C   UNL     1       3.095  -0.007   8.208  1.00  0.00     0.016 A 
ATOM     34  C   UNL     1       3.244  -2.735   7.556  1.00  0.00     0.010 A 
ATOM     35  C   UNL     1       4.317  -0.575   7.827  1.00  0.00     0.010 A 
ATOM     36  C   UNL     1       4.405  -1.949   7.537  1.00  0.00    -0.014 A 
BRANCH  36  37
ATOM     37  C   UNL     1       5.723  -2.608   7.359  1.00  0.00     0.031 A 
ATOM     38  C   UNL     1       6.553  -2.927   8.573  1.00  0.00     0.074 A 
ATOM     39  C   UNL     1       6.154  -2.965   6.137  1.00  0.00     0.049 A 
ATOM     40  N   UNL     1       7.728  -3.499   8.651  1.00  0.00    -0.248 NA
ATOM     41  C   UNL     1       5.980  -2.551   9.875  1.00  0.00     0.031 C 
ATOM     42  C   UNL     1       5.428  -2.747   4.889  1.00  0.00     0.029 A 
ATOM     43  N   UNL     1       7.314  -3.590   5.750  1.00  0.00    -0.354 N 
ATOM     44  C   UNL     1       8.035  -3.549  10.004  1.00  0.00     0.074 A 
ATOM     45  C   UNL     1       6.938  -2.923  10.711  1.00  0.00     0.031 C 
ATOM     46  C   UNL     1       6.162  -3.226   3.870  1.00  0.00     0.029 A 
ATOM     47  C   UNL     1       7.419  -3.759   4.392  1.00  0.00     0.049 A 
ATOM     48  H   UNL     1       8.005  -3.887   6.386  1.00  0.00     0.167 HD
ATOM     49  C   UNL     1       9.127  -4.078  10.605  1.00  0.00     0.037 A 
ATOM     50  C   UNL     1       8.425  -4.271   3.655  1.00  0.00     0.037 A 
ATOM     51  C   UNL     1      10.218  -4.705   9.905  1.00  0.00     0.049 A 
ATOM     52  C   UNL     1       9.658  -4.794   4.343  1.00  0.00     0.074 A 
ATOM     53  C   UNL     1      11.359  -5.288  10.429  1.00  0.00     0.029 A 
ATOM     54  N   UNL     1      10.304  -4.826   8.527  1.00  0.00    -0.354 N 
ATOM     55  N   UNL     1       9.929  -4.860   5.624  1.00  0.00    -0.248 NA
ATOM     56  C   UNL     1      10.727  -5.318   3.479  1.00  0.00     0.031 C 
ATOM     57  C   UNL     1      12.157  -5.721   9.365  1.00  0.00     0.029 A 
ATOM     58  C   UNL     1      11.492  -5.451   8.180  1.00  0.00     0.049 A 
ATOM     59  H   UNL     1       9.623  -4.513   7.888  1.00  0.00     0.167 HD
ATOM     60  C   UNL     1      11.181  -5.453   5.721  1.00  0.00     0.074 A 
ATOM     61  C   UNL     1      11.614  -5.739   4.370  1.00  0.00     0.031 C 
ATOM     62  C   UNL     1      11.907  -5.736   6.831  1.00  0.00     0.037 A 
BRANCH  49  63
ATOM     63  C   UNL     1       9.210  -3.982  12.100  1.00  0.00     0.064 A 
ATOM     64  C   UNL     1       8.405  -4.773  12.934  1.00  0.00     0.173 A 
ATOM     65  C   UNL     1      10.130  -3.114  12.705  1.00  0.00     0.173 A 
ATOM     66  F   UNL     1       7.500  -5.609  12.403  1.00  0.00    -0.203 F 
ATOM     67  C   UNL     1       8.505  -4.681  14.320  1.00  0.00     0.198 A 
ATOM     68  C   UNL     1      10.245  -3.044  14.091  1.00  0.00     0.198 A 
ATOM     69  F   UNL     1      10.926  -2.340  11.952  1.00  0.00    -0.203 F 
ATOM     70  F   UNL     1       7.698  -5.416  15.098  1.00  0.00    -0.200 F 
ATOM     71  C   UNL     1       9.428  -3.822  14.897  1.00  0.00     0.200 A 
ATOM     72  F   UNL     1      11.146  -2.221  14.646  1.00  0.00    -0.200 F 
ATOM     73  F   UNL     1       9.527  -3.740  16.231  1.00  0.00    -0.200 F 
ENDBRANCH  49  63
BRANCH  50  74
ATOM     74  C   UNL     1       8.312  -4.305   2.175  1.00  0.00     0.064 A 
ATOM     75  C   UNL     1       8.176  -5.519   1.487  1.00  0.00     0.173 A 
ATOM     76  C   UNL     1       8.356  -3.126   1.417  1.00  0.00     0.173 A 
ATOM     77  F   UNL     1       8.159  -6.675   2.166  1.00  0.00    -0.203 F 
ATOM     78  C   UNL     1       8.102  -5.552   0.096  1.00  0.00     0.198 A 
ATOM     79  C   UNL     1       8.255  -3.158   0.028  1.00  0.00     0.198 A 
ATOM     80  F   UNL     1       8.494  -1.940   2.028  1.00  0.00    -0.203 F 
ATOM     81  F   UNL     1       8.018  -6.728  -0.540  1.00  0.00    -0.200 F 
ATOM     82  C   UNL     1       8.135  -4.372  -0.632  1.00  0.00     0.200 A 
ATOM     83  F   UNL     1       8.282  -2.015  -0.671  1.00  0.00    -0.200 F 
ATOM     84  F   UNL     1       8.063  -4.404  -1.970  1.00  0.00    -0.200 F 
ENDBRANCH  50  74
BRANCH  62  85
ATOM     85  C   UNL     1      13.230  -6.416   6.637  1.00  0.00     0.064 A 
ATOM     86  C   UNL     1      14.342  -5.731   6.127  1.00  0.00     0.173 A 
ATOM     87  C   UNL     1      13.400  -7.759   7.008  1.00  0.00     0.173 A 
ATOM     88  F   UNL     1      14.228  -4.450   5.744  1.00  0.00    -0.203 F 
ATOM     89  C   UNL     1      15.570  -6.371   5.974  1.00  0.00     0.198 A 
ATOM     90  C   UNL     1      14.635  -8.388   6.880  1.00  0.00     0.198 A 
ATOM     91  F   UNL     1      12.369  -8.458   7.508  1.00  0.00    -0.203 F 
ATOM     92  F   UNL     1      16.608  -5.708   5.446  1.00  0.00    -0.200 F 
ATOM     93  C   UNL     1      15.717  -7.696   6.357  1.00  0.00     0.200 A 
ATOM     94  F   UNL     1      14.779  -9.665   7.262  1.00  0.00    -0.200 F 
ATOM     95  F   UNL     1      16.901  -8.308   6.217  1.00  0.00    -0.200 F 
ENDBRANCH  62  85
ENDBRANCH  36  37
ENDBRANCH  29  31
ENDBRANCH  28  29
ENDBRANCH  27  28
ENDBRANCH  26  27
ENDBRANCH  25  26
ENDBRANCH   1  25
TORSDOF 18
