REMARK SMILES CS(=O)(=O)c1ccc(/C=C(/C(=O)OCCOCCOC(=O)c2ccc(-c3c4nc(c(-c5c(F)c(F)c(F)c(F)c5F)c5ccc([nH]5)c(-c5c(F)c(F)c(F)c(F)c5F)c5nc(c(-c6c(F)c(F)c(F)c(F)c6F)c6ccc3[nH]6)C=C5)C=C4)cc2)c2cccc(-c3ccc(S(C)(=O)=O)cc3)c2)cc1
REMARK SMILES IDX 15 1 14 2 13 3 11 4 12 5 10 6 9 7 8 8 5 9 6 10 102 11 7 12
REMARK SMILES IDX 101 13 2 14 1 15 3 16 4 17 85 18 86 19 100 20 87 21 89 22
REMARK SMILES IDX 88 23 90 24 91 25 99 26 92 27 98 28 93 29 94 30 95 31 96 32
REMARK SMILES IDX 97 33 16 34 17 35 18 36 19 37 20 38 21 39 22 40 23 41 84 42
REMARK SMILES IDX 24 43 83 44 25 45 26 46 27 47 77 48 28 49 82 50 76 51 78 52
REMARK SMILES IDX 29 53 81 54 75 55 74 56 30 58 62 59 42 60 61 61 43 62 46 63
REMARK SMILES IDX 60 64 79 65 44 66 45 67 59 69 80 70 47 71 31 72 32 73 40 74
REMARK SMILES IDX 33 75 34 76 38 77 41 78 35 79 36 80 39 81 37 82 63 83 64 84
REMARK SMILES IDX 72 85 65 86 66 87 70 88 73 89 67 90 68 91 71 92 69 93 48 94
REMARK SMILES IDX 49 95 57 96 50 97 51 98 55 99 58 100 52 101 53 102 56 103
REMARK SMILES IDX 54 104
REMARK H PARENT 78 57 46 68
REMARK Flexibility Score: inf
ROOT
ATOM      1  C   UNL     1       3.305  -8.245  -8.475  1.00  0.00     0.202 C 
ENDROOT
BRANCH   1   2
ATOM      2  C   UNL     1       2.188  -7.200  -8.418  1.00  0.00     0.261 C 
BRANCH   2   3
ATOM      3  O   UNL     1       2.216  -6.464  -7.183  1.00  0.00    -0.460 OA
BRANCH   3   4
ATOM      4  C   UNL     1       1.069  -6.553  -6.463  1.00  0.00     0.338 C 
ATOM      5  O   UNL     1       0.013  -7.024  -6.865  1.00  0.00    -0.246 OA
BRANCH   4   6
ATOM      6  C   UNL     1       1.254  -6.114  -5.045  1.00  0.00     0.067 C 
ATOM      7  C   UNL     1       1.948  -4.983  -4.769  1.00  0.00     0.024 C 
BRANCH   7   8
ATOM      8  C   UNL     1       1.916  -4.199  -3.505  1.00  0.00    -0.025 A 
ATOM      9  C   UNL     1       1.233  -2.591  -1.302  1.00  0.00     0.067 A 
ATOM     10  C   UNL     1       1.389  -3.968  -1.140  1.00  0.00     0.021 A 
ATOM     11  C   UNL     1       1.548  -1.991  -2.519  1.00  0.00     0.021 A 
ATOM     12  C   UNL     1       1.768  -4.758  -2.229  1.00  0.00     0.009 A 
ATOM     13  C   UNL     1       1.889  -2.798  -3.614  1.00  0.00     0.009 A 
BRANCH   9  14
ATOM     14  S   UNL     1       0.531  -1.669   0.045  1.00  0.00     0.175 S 
ATOM     15  C   UNL     1       1.125  -0.009  -0.089  1.00  0.00     0.163 C 
ATOM     16  O   UNL     1       1.088  -2.223   1.266  1.00  0.00    -0.224 OA
ATOM     17  O   UNL     1      -0.900  -1.649  -0.185  1.00  0.00    -0.224 OA
ENDBRANCH   9  14
ENDBRANCH   7   8
BRANCH   6  18
ATOM     18  C   UNL     1       0.486  -6.878  -4.044  1.00  0.00    -0.010 A 
ATOM     19  C   UNL     1       0.954  -8.105  -3.558  1.00  0.00     0.009 A 
ATOM     20  C   UNL     1      -0.701  -6.351  -3.536  1.00  0.00     0.017 A 
ATOM     21  C   UNL     1       0.246  -8.790  -2.574  1.00  0.00     0.001 A 
ATOM     22  C   UNL     1      -1.400  -7.000  -2.509  1.00  0.00    -0.018 A 
ATOM     23  C   UNL     1      -0.920  -8.236  -2.048  1.00  0.00     0.009 A 
BRANCH  22  24
ATOM     24  C   UNL     1      -2.554  -6.334  -1.897  1.00  0.00    -0.018 A 
ATOM     25  C   UNL     1      -2.622  -6.168  -0.504  1.00  0.00     0.010 A 
ATOM     26  C   UNL     1      -3.560  -5.762  -2.696  1.00  0.00     0.010 A 
ATOM     27  C   UNL     1      -3.662  -5.445   0.078  1.00  0.00     0.021 A 
ATOM     28  C   UNL     1      -4.603  -5.037  -2.123  1.00  0.00     0.021 A 
ATOM     29  C   UNL     1      -4.650  -4.892  -0.738  1.00  0.00     0.067 A 
BRANCH  29  30
ATOM     30  S   UNL     1      -5.989  -4.006   0.013  1.00  0.00     0.175 S 
ATOM     31  C   UNL     1      -6.896  -5.294   0.829  1.00  0.00     0.163 C 
ATOM     32  O   UNL     1      -5.425  -3.135   1.025  1.00  0.00    -0.224 OA
ATOM     33  O   UNL     1      -6.828  -3.481  -1.047  1.00  0.00    -0.224 OA
ENDBRANCH  29  30
ENDBRANCH  22  24
ENDBRANCH   6  18
ENDBRANCH   4   6
ENDBRANCH   3   4
ENDBRANCH   2   3
ENDBRANCH   1   2
BRANCH   1  34
ATOM     34  O   UNL     1       3.292  -9.289  -7.504  1.00  0.00    -0.374 OA
BRANCH  34  35
ATOM     35  C   UNL     1       3.581  -8.951  -6.151  1.00  0.00     0.202 C 
BRANCH  35  36
ATOM     36  C   UNL     1       5.036  -8.664  -5.765  1.00  0.00     0.261 C 
BRANCH  36  37
ATOM     37  O   UNL     1       5.606  -7.573  -6.501  1.00  0.00    -0.460 OA
BRANCH  37  38
ATOM     38  C   UNL     1       6.482  -7.945  -7.462  1.00  0.00     0.338 C 
ATOM     39  O   UNL     1       6.871  -9.077  -7.724  1.00  0.00    -0.246 OA
BRANCH  38  40
ATOM     40  C   UNL     1       6.795  -6.786  -8.311  1.00  0.00     0.060 A 
ATOM     41  C   UNL     1       6.571  -6.902  -9.691  1.00  0.00     0.016 A 
ATOM     42  C   UNL     1       7.357  -5.630  -7.771  1.00  0.00     0.016 A 
ATOM     43  C   UNL     1       6.948  -5.871 -10.546  1.00  0.00     0.010 A 
ATOM     44  C   UNL     1       7.752  -4.605  -8.631  1.00  0.00     0.010 A 
ATOM     45  C   UNL     1       7.581  -4.738 -10.022  1.00  0.00    -0.014 A 
BRANCH  45  46
ATOM     46  C   UNL     1       8.244  -3.773 -10.925  1.00  0.00     0.031 A 
ATOM     47  C   UNL     1       9.727  -3.894 -11.125  1.00  0.00     0.074 A 
ATOM     48  C   UNL     1       7.546  -2.799 -11.532  1.00  0.00     0.049 A 
ATOM     49  N   UNL     1      10.555  -3.083 -11.730  1.00  0.00    -0.248 NA
ATOM     50  C   UNL     1      10.365  -5.091 -10.553  1.00  0.00     0.031 C 
ATOM     51  C   UNL     1       6.098  -2.625 -11.458  1.00  0.00     0.029 A 
ATOM     52  N   UNL     1       7.975  -1.757 -12.314  1.00  0.00    -0.354 N 
ATOM     53  C   UNL     1      11.810  -3.659 -11.592  1.00  0.00     0.074 A 
ATOM     54  C   UNL     1      11.641  -4.877 -10.831  1.00  0.00     0.031 C 
ATOM     55  C   UNL     1       5.758  -1.521 -12.146  1.00  0.00     0.029 A 
ATOM     56  C   UNL     1       6.970  -0.891 -12.667  1.00  0.00     0.049 A 
ATOM     57  H   UNL     1       8.912  -1.641 -12.594  1.00  0.00     0.167 HD
ATOM     58  C   UNL     1      12.997  -3.208 -12.062  1.00  0.00     0.037 A 
ATOM     59  C   UNL     1       7.036   0.294 -13.304  1.00  0.00     0.037 A 
ATOM     60  C   UNL     1      13.151  -1.996 -12.820  1.00  0.00     0.049 A 
ATOM     61  C   UNL     1       8.379   0.816 -13.750  1.00  0.00     0.074 A 
ATOM     62  C   UNL     1      14.306  -1.448 -13.349  1.00  0.00     0.029 A 
ATOM     63  N   UNL     1      12.111  -1.139 -13.152  1.00  0.00    -0.354 N 
ATOM     64  N   UNL     1       9.564   0.270 -13.620  1.00  0.00    -0.248 NA
ATOM     65  C   UNL     1       8.393   2.119 -14.430  1.00  0.00     0.031 C 
ATOM     66  C   UNL     1      13.972  -0.235 -13.958  1.00  0.00     0.029 A 
ATOM     67  C   UNL     1      12.601  -0.057 -13.862  1.00  0.00     0.049 A 
ATOM     68  H   UNL     1      11.165  -1.281 -12.917  1.00  0.00     0.167 HD
ATOM     69  C   UNL     1      10.456   1.138 -14.236  1.00  0.00     0.074 A 
ATOM     70  C   UNL     1       9.676   2.250 -14.738  1.00  0.00     0.031 C 
ATOM     71  C   UNL     1      11.800   1.023 -14.379  1.00  0.00     0.037 A 
BRANCH  58  72
ATOM     72  C   UNL     1      14.222  -4.011 -11.737  1.00  0.00     0.064 A 
ATOM     73  C   UNL     1      14.462  -5.264 -12.319  1.00  0.00     0.173 A 
ATOM     74  C   UNL     1      15.183  -3.505 -10.847  1.00  0.00     0.173 A 
ATOM     75  F   UNL     1      13.567  -5.799 -13.162  1.00  0.00    -0.203 F 
ATOM     76  C   UNL     1      15.606  -5.993 -12.003  1.00  0.00     0.198 A 
ATOM     77  C   UNL     1      16.340  -4.223 -10.557  1.00  0.00     0.198 A 
ATOM     78  F   UNL     1      15.003  -2.311 -10.263  1.00  0.00    -0.203 F 
ATOM     79  F   UNL     1      15.790  -7.210 -12.532  1.00  0.00    -0.200 F 
ATOM     80  C   UNL     1      16.547  -5.469 -11.129  1.00  0.00     0.200 A 
ATOM     81  F   UNL     1      17.253  -3.710  -9.722  1.00  0.00    -0.200 F 
ATOM     82  F   UNL     1      17.650  -6.169 -10.831  1.00  0.00    -0.200 F 
ENDBRANCH  58  72
BRANCH  59  83
ATOM     83  C   UNL     1       5.797   1.080 -13.541  1.00  0.00     0.064 A 
ATOM     84  C   UNL     1       5.302   1.273 -14.838  1.00  0.00     0.173 A 
ATOM     85  C   UNL     1       5.090   1.667 -12.481  1.00  0.00     0.173 A 
ATOM     86  F   UNL     1       5.956   0.752 -15.888  1.00  0.00    -0.203 F 
ATOM     87  C   UNL     1       4.161   2.038 -15.068  1.00  0.00     0.198 A 
ATOM     88  C   UNL     1       3.932   2.407 -12.708  1.00  0.00     0.198 A 
ATOM     89  F   UNL     1       5.521   1.513 -11.220  1.00  0.00    -0.203 F 
ATOM     90  F   UNL     1       3.737   2.246 -16.322  1.00  0.00    -0.200 F 
ATOM     91  C   UNL     1       3.473   2.600 -14.002  1.00  0.00     0.200 A 
ATOM     92  F   UNL     1       3.264   2.937 -11.674  1.00  0.00    -0.200 F 
ATOM     93  F   UNL     1       2.374   3.333 -14.223  1.00  0.00    -0.200 F 
ENDBRANCH  59  83
BRANCH  71  94
ATOM     94  C   UNL     1      12.510   2.085 -15.168  1.00  0.00     0.064 A 
ATOM     95  C   UNL     1      12.728   3.370 -14.654  1.00  0.00     0.173 A 
ATOM     96  C   UNL     1      13.047   1.779 -16.429  1.00  0.00     0.173 A 
ATOM     97  F   UNL     1      12.224   3.714 -13.459  1.00  0.00    -0.203 F 
ATOM     98  C   UNL     1      13.447   4.317 -15.380  1.00  0.00     0.198 A 
ATOM     99  C   UNL     1      13.790   2.718 -17.138  1.00  0.00     0.198 A 
ATOM    100  F   UNL     1      12.873   0.560 -16.961  1.00  0.00    -0.203 F 
ATOM    101  F   UNL     1      13.615   5.551 -14.885  1.00  0.00    -0.200 F 
ATOM    102  C   UNL     1      13.986   3.987 -16.615  1.00  0.00     0.200 A 
ATOM    103  F   UNL     1      14.324   2.392 -18.323  1.00  0.00    -0.200 F 
ATOM    104  F   UNL     1      14.692   4.894 -17.303  1.00  0.00    -0.200 F 
ENDBRANCH  71  94
ENDBRANCH  45  46
ENDBRANCH  38  40
ENDBRANCH  37  38
ENDBRANCH  36  37
ENDBRANCH  35  36
ENDBRANCH  34  35
ENDBRANCH   1  34
TORSDOF 19
