REMARK SMILES O=C(OCCOCCOC(=O)c1cccc2c(=O)oc(=O)[nH]c12)c1ccc(-c2c3nc(c(-c4c(F)c(F)c(F)c(F)c4F)c4ccc([nH]4)c(-c4c(F)c(F)c(F)c(F)c4F)c4nc(c(-c5c(F)c(F)c(F)c(F)c5F)c5ccc2[nH]5)C=C4)C=C3)cc1
REMARK SMILES IDX 5 1 4 2 3 3 2 4 1 5 24 6 25 7 86 8 26 9 85 10 27 11 28 12
REMARK SMILES IDX 29 13 79 14 30 15 84 16 78 17 80 18 31 19 83 20 77 21 76 22
REMARK SMILES IDX 32 24 64 25 44 26 63 27 45 28 48 29 62 30 81 31 46 32 47 33
REMARK SMILES IDX 61 35 82 36 49 37 33 38 34 39 42 40 35 41 36 42 40 43 43 44
REMARK SMILES IDX 37 45 38 46 41 47 39 48 65 49 66 50 74 51 67 52 68 53 72 54
REMARK SMILES IDX 75 55 69 56 70 57 73 58 71 59 50 60 51 61 59 62 52 63 53 64
REMARK SMILES IDX 57 65 60 66 54 67 55 68 58 69 56 70 6 71 7 72 8 73 9 74
REMARK SMILES IDX 10 75 11 76 12 77 13 78 23 79 14 80 16 81 22 82 15 83 17 84
REMARK SMILES IDX 20 85 18 87 19 88 21 89
REMARK H PARENT 80 23 48 34 22 86
REMARK Flexibility Score: inf
ROOT
ATOM      1  C   UNL     1       4.130  -1.230  -0.282  1.00  0.00     0.202 C 
ENDROOT
BRANCH   1   2
ATOM      2  C   UNL     1       3.917  -0.692   1.134  1.00  0.00     0.261 C 
BRANCH   2   3
ATOM      3  O   UNL     1       2.566  -0.271   1.331  1.00  0.00    -0.460 OA
BRANCH   3   4
ATOM      4  C   UNL     1       2.006   0.909   0.980  1.00  0.00     0.338 C 
ATOM      5  O   UNL     1       0.783   1.010   1.087  1.00  0.00    -0.246 OA
BRANCH   4   6
ATOM      6  C   UNL     1       2.752   2.112   0.469  1.00  0.00     0.060 A 
ATOM      7  C   UNL     1       2.021   3.316   0.444  1.00  0.00     0.016 A 
ATOM      8  C   UNL     1       4.043   2.135  -0.068  1.00  0.00     0.016 A 
ATOM      9  C   UNL     1       2.531   4.466  -0.163  1.00  0.00     0.010 A 
ATOM     10  C   UNL     1       4.558   3.270  -0.682  1.00  0.00     0.010 A 
ATOM     11  C   UNL     1       3.793   4.429  -0.756  1.00  0.00    -0.014 A 
BRANCH  11  12
ATOM     12  C   UNL     1       4.396   5.605  -1.395  1.00  0.00     0.031 A 
ATOM     13  C   UNL     1       4.441   5.720  -2.884  1.00  0.00     0.074 A 
ATOM     14  C   UNL     1       5.030   6.473  -0.593  1.00  0.00     0.049 A 
ATOM     15  N   UNL     1       4.933   6.680  -3.621  1.00  0.00    -0.248 NA
ATOM     16  C   UNL     1       3.885   4.594  -3.652  1.00  0.00     0.031 C 
ATOM     17  C   UNL     1       5.125   6.345   0.863  1.00  0.00     0.029 A 
ATOM     18  N   UNL     1       5.738   7.604  -0.882  1.00  0.00    -0.354 N 
ATOM     19  C   UNL     1       4.724   6.291  -4.936  1.00  0.00     0.074 A 
ATOM     20  C   UNL     1       4.123   4.975  -4.900  1.00  0.00     0.031 C 
ATOM     21  C   UNL     1       5.848   7.366   1.343  1.00  0.00     0.029 A 
ATOM     22  C   UNL     1       6.259   8.212   0.229  1.00  0.00     0.049 A 
ATOM     23  H   UNL     1       5.861   7.947  -1.796  1.00  0.00     0.167 HD
ATOM     24  C   UNL     1       4.994   6.994  -6.062  1.00  0.00     0.037 A 
ATOM     25  C   UNL     1       6.972   9.346   0.329  1.00  0.00     0.037 A 
ATOM     26  C   UNL     1       5.632   8.287  -6.047  1.00  0.00     0.049 A 
ATOM     27  C   UNL     1       7.237  10.122  -0.925  1.00  0.00     0.074 A 
ATOM     28  C   UNL     1       5.902   9.137  -7.103  1.00  0.00     0.029 A 
ATOM     29  N   UNL     1       6.121   8.907  -4.901  1.00  0.00    -0.354 N 
ATOM     30  N   UNL     1       6.922   9.820  -2.163  1.00  0.00    -0.248 NA
ATOM     31  C   UNL     1       7.930  11.404  -0.771  1.00  0.00     0.031 C 
ATOM     32  C   UNL     1       6.597  10.245  -6.604  1.00  0.00     0.029 A 
ATOM     33  C   UNL     1       6.715  10.116  -5.227  1.00  0.00     0.049 A 
ATOM     34  H   UNL     1       6.054   8.540  -3.990  1.00  0.00     0.167 HD
ATOM     35  C   UNL     1       7.372  10.874  -2.941  1.00  0.00     0.074 A 
ATOM     36  C   UNL     1       7.951  11.840  -2.024  1.00  0.00     0.031 C 
ATOM     37  C   UNL     1       7.319  11.031  -4.288  1.00  0.00     0.037 A 
BRANCH  24  38
ATOM     38  C   UNL     1       4.583   6.397  -7.381  1.00  0.00     0.064 A 
ATOM     39  C   UNL     1       3.229   6.218  -7.711  1.00  0.00     0.173 A 
ATOM     40  C   UNL     1       5.537   6.045  -8.348  1.00  0.00     0.173 A 
ATOM     41  F   UNL     1       2.270   6.532  -6.826  1.00  0.00    -0.203 F 
ATOM     42  C   UNL     1       2.849   5.687  -8.942  1.00  0.00     0.198 A 
ATOM     43  C   UNL     1       5.152   5.542  -9.590  1.00  0.00     0.198 A 
ATOM     44  F   UNL     1       6.845   6.196  -8.095  1.00  0.00    -0.203 F 
ATOM     45  F   UNL     1       1.551   5.485  -9.211  1.00  0.00    -0.200 F 
ATOM     46  C   UNL     1       3.810   5.357  -9.883  1.00  0.00     0.200 A 
ATOM     47  F   UNL     1       6.082   5.237 -10.506  1.00  0.00    -0.200 F 
ATOM     48  F   UNL     1       3.443   4.856 -11.072  1.00  0.00    -0.200 F 
ENDBRANCH  24  38
BRANCH  25  49
ATOM     49  C   UNL     1       7.347   9.832   1.677  1.00  0.00     0.064 A 
ATOM     50  C   UNL     1       6.638  10.886   2.268  1.00  0.00     0.173 A 
ATOM     51  C   UNL     1       8.312   9.175   2.454  1.00  0.00     0.173 A 
ATOM     52  F   UNL     1       5.706  11.543   1.561  1.00  0.00    -0.203 F 
ATOM     53  C   UNL     1       6.873  11.260   3.588  1.00  0.00     0.198 A 
ATOM     54  C   UNL     1       8.531   9.536   3.782  1.00  0.00     0.198 A 
ATOM     55  F   UNL     1       8.998   8.143   1.941  1.00  0.00    -0.203 F 
ATOM     56  F   UNL     1       6.179  12.271   4.129  1.00  0.00    -0.200 F 
ATOM     57  C   UNL     1       7.810  10.576   4.348  1.00  0.00     0.200 A 
ATOM     58  F   UNL     1       9.418   8.856   4.522  1.00  0.00    -0.200 F 
ATOM     59  F   UNL     1       8.010  10.914   5.630  1.00  0.00    -0.200 F 
ENDBRANCH  25  49
BRANCH  37  60
ATOM     60  C   UNL     1       7.939  12.281  -4.836  1.00  0.00     0.064 A 
ATOM     61  C   UNL     1       9.331  12.461  -4.834  1.00  0.00     0.173 A 
ATOM     62  C   UNL     1       7.143  13.296  -5.385  1.00  0.00     0.173 A 
ATOM     63  F   UNL     1      10.133  11.524  -4.306  1.00  0.00    -0.203 F 
ATOM     64  C   UNL     1       9.900  13.630  -5.330  1.00  0.00     0.198 A 
ATOM     65  C   UNL     1       7.718  14.449  -5.911  1.00  0.00     0.198 A 
ATOM     66  F   UNL     1       5.808  13.167  -5.417  1.00  0.00    -0.203 F 
ATOM     67  F   UNL     1      11.226  13.807  -5.263  1.00  0.00    -0.200 F 
ATOM     68  C   UNL     1       9.094  14.619  -5.873  1.00  0.00     0.200 A 
ATOM     69  F   UNL     1       6.940  15.398  -6.449  1.00  0.00    -0.200 F 
ATOM     70  F   UNL     1       9.644  15.743  -6.353  1.00  0.00    -0.200 F 
ENDBRANCH  37  60
ENDBRANCH  11  12
ENDBRANCH   4   6
ENDBRANCH   3   4
ENDBRANCH   2   3
ENDBRANCH   1   2
BRANCH   1  71
ATOM     71  O   UNL     1       3.653  -0.363  -1.309  1.00  0.00    -0.374 OA
BRANCH  71  72
ATOM     72  C   UNL     1       2.456  -0.784  -1.963  1.00  0.00     0.202 C 
BRANCH  72  73
ATOM     73  C   UNL     1       2.777  -1.415  -3.320  1.00  0.00     0.261 C 
BRANCH  73  74
ATOM     74  O   UNL     1       3.417  -2.692  -3.147  1.00  0.00    -0.460 OA
BRANCH  74  75
ATOM     75  C   UNL     1       4.776  -2.684  -3.094  1.00  0.00     0.340 C 
ATOM     76  O   UNL     1       5.520  -1.742  -3.243  1.00  0.00    -0.246 OA
BRANCH  75  77
ATOM     77  C   UNL     1       5.228  -4.009  -2.603  1.00  0.00     0.084 A 
ATOM     78  C   UNL     1       4.568  -5.173  -3.020  1.00  0.00     0.018 A 
ATOM     79  C   UNL     1       6.255  -4.092  -1.649  1.00  0.00     0.073 A 
ATOM     80  C   UNL     1       4.932  -6.410  -2.488  1.00  0.00     0.002 A 
ATOM     81  C   UNL     1       6.596  -5.319  -1.110  1.00  0.00     0.085 A 
ATOM     82  N   UNL     1       6.920  -2.976  -1.159  1.00  0.00    -0.289 N 
ATOM     83  C   UNL     1       5.946  -6.484  -1.533  1.00  0.00     0.018 A 
ATOM     84  C   UNL     1       7.642  -5.366  -0.078  1.00  0.00     0.349 A 
ATOM     85  C   UNL     1       7.734  -3.001  -0.065  1.00  0.00     0.419 A 
ATOM     86  H   UNL     1       6.797  -2.119  -1.627  1.00  0.00     0.173 HD
ATOM     87  O   UNL     1       8.064  -6.451   0.307  1.00  0.00    -0.246 OA
ATOM     88  O   UNL     1       8.073  -4.205   0.460  1.00  0.00    -0.372 OA
ATOM     89  O   UNL     1       8.118  -1.950   0.439  1.00  0.00    -0.224 OA
ENDBRANCH  75  77
ENDBRANCH  74  75
ENDBRANCH  73  74
ENDBRANCH  72  73
ENDBRANCH  71  72
ENDBRANCH   1  71
TORSDOF 14
