REMARK SMILES O=C(OCCOCCOC(=O)c1cc(-c2ccccn2)nc2ccc(F)cc12)c1ccc(-c2c3nc(c(-c4c(F)c(F)c(F)c(F)c4F)c4ccc([nH]4)c(-c4c(F)c(F)c(F)c(F)c4F)c4nc(c(-c5c(F)c(F)c(F)c(F)c5F)c5ccc2[nH]5)C=C4)C=C3)cc1
REMARK SMILES IDX 5 1 4 2 3 3 2 4 1 5 29 6 30 7 91 8 31 9 90 10 32 11 33 12
REMARK SMILES IDX 34 13 84 14 35 15 89 16 83 17 85 18 36 19 88 20 82 21 81 22
REMARK SMILES IDX 37 24 69 25 49 26 68 27 50 28 53 29 67 30 86 31 51 32 52 33
REMARK SMILES IDX 66 35 87 36 54 37 38 38 39 39 47 40 40 41 41 42 45 43 48 44
REMARK SMILES IDX 42 45 43 46 46 47 44 48 70 49 71 50 79 51 72 52 73 53 77 54
REMARK SMILES IDX 80 55 74 56 75 57 78 58 76 59 55 60 56 61 64 62 57 63 58 64
REMARK SMILES IDX 62 65 65 66 59 67 60 68 63 69 61 70 6 71 7 72 8 73 9 74
REMARK SMILES IDX 10 75 11 76 12 77 13 78 28 79 14 80 22 81 27 82 21 83 23 84
REMARK SMILES IDX 25 85 24 86 26 87 15 88 16 89 20 90 17 91 19 92 18 93
REMARK H PARENT 85 23 53 34
REMARK Flexibility Score: inf
ROOT
ATOM      1  C   UNL     1       4.163   0.396  -1.236  1.00  0.00     0.202 C 
ENDROOT
BRANCH   1   2
ATOM      2  C   UNL     1       4.035  -1.081  -0.865  1.00  0.00     0.261 C 
BRANCH   2   3
ATOM      3  O   UNL     1       2.711  -1.396  -0.422  1.00  0.00    -0.460 OA
BRANCH   3   4
ATOM      4  C   UNL     1       2.144  -1.105   0.770  1.00  0.00     0.338 C 
ATOM      5  O   UNL     1       0.919  -1.200   0.854  1.00  0.00    -0.246 OA
BRANCH   4   6
ATOM      6  C   UNL     1       2.889  -0.704   2.015  1.00  0.00     0.060 A 
ATOM      7  C   UNL     1       2.145  -0.764   3.209  1.00  0.00     0.016 A 
ATOM      8  C   UNL     1       4.194  -0.203   2.099  1.00  0.00     0.016 A 
ATOM      9  C   UNL     1       2.661  -0.282   4.413  1.00  0.00     0.010 A 
ATOM     10  C   UNL     1       4.715   0.293   3.290  1.00  0.00     0.010 A 
ATOM     11  C   UNL     1       3.943   0.270   4.445  1.00  0.00    -0.014 A 
BRANCH  11  12
ATOM     12  C   UNL     1       4.551   0.713   5.705  1.00  0.00     0.031 A 
ATOM     13  C   UNL     1       4.649   2.164   6.043  1.00  0.00     0.074 A 
ATOM     14  C   UNL     1       5.100  -0.239   6.476  1.00  0.00     0.049 A 
ATOM     15  N   UNL     1       5.064   2.720   7.149  1.00  0.00    -0.248 NA
ATOM     16  C   UNL     1       4.257   3.122   4.996  1.00  0.00     0.031 C 
ATOM     17  C   UNL     1       5.150  -1.662   6.128  1.00  0.00     0.029 A 
ATOM     18  N   UNL     1       5.724  -0.166   7.688  1.00  0.00    -0.354 N 
ATOM     19  C   UNL     1       4.960   4.089   6.946  1.00  0.00     0.074 A 
ATOM     20  C   UNL     1       4.503   4.284   5.588  1.00  0.00     0.031 C 
ATOM     21  C   UNL     1       5.754  -2.333   7.117  1.00  0.00     0.029 A 
ATOM     22  C   UNL     1       6.122  -1.388   8.165  1.00  0.00     0.049 A 
ATOM     23  H   UNL     1       5.873   0.679   8.171  1.00  0.00     0.167 HD
ATOM     24  C   UNL     1       5.209   5.075   7.838  1.00  0.00     0.037 A 
ATOM     25  C   UNL     1       6.694  -1.706   9.339  1.00  0.00     0.037 A 
ATOM     26  C   UNL     1       5.682   4.820   9.176  1.00  0.00     0.049 A 
ATOM     27  C   UNL     1       6.906  -0.604  10.334  1.00  0.00     0.074 A 
ATOM     28  C   UNL     1       5.883   5.715  10.210  1.00  0.00     0.029 A 
ATOM     29  N   UNL     1       6.046   3.565   9.653  1.00  0.00    -0.354 N 
ATOM     30  N   UNL     1       6.659   0.679  10.202  1.00  0.00    -0.248 NA
ATOM     31  C   UNL     1       7.447  -0.985  11.641  1.00  0.00     0.031 C 
ATOM     32  C   UNL     1       6.419   5.010  11.293  1.00  0.00     0.029 A 
ATOM     33  C   UNL     1       6.503   3.667  10.955  1.00  0.00     0.049 A 
ATOM     34  H   UNL     1       5.987   2.727   9.139  1.00  0.00     0.167 HD
ATOM     35  C   UNL     1       7.009   1.262  11.407  1.00  0.00     0.074 A 
ATOM     36  C   UNL     1       7.461   0.185  12.269  1.00  0.00     0.031 C 
ATOM     37  C   UNL     1       6.968   2.569  11.769  1.00  0.00     0.037 A 
BRANCH  24  38
ATOM     38  C   UNL     1       4.955   6.498   7.423  1.00  0.00     0.064 A 
ATOM     39  C   UNL     1       3.654   6.971   7.190  1.00  0.00     0.173 A 
ATOM     40  C   UNL     1       6.008   7.423   7.340  1.00  0.00     0.173 A 
ATOM     41  F   UNL     1       2.609   6.133   7.252  1.00  0.00    -0.203 F 
ATOM     42  C   UNL     1       3.418   8.308   6.875  1.00  0.00     0.198 A 
ATOM     43  C   UNL     1       5.766   8.766   7.053  1.00  0.00     0.198 A 
ATOM     44  F   UNL     1       7.272   7.032   7.560  1.00  0.00    -0.203 F 
ATOM     45  F   UNL     1       2.169   8.727   6.629  1.00  0.00    -0.200 F 
ATOM     46  C   UNL     1       4.472   9.206   6.818  1.00  0.00     0.200 A 
ATOM     47  F   UNL     1       6.784   9.636   7.013  1.00  0.00    -0.200 F 
ATOM     48  F   UNL     1       4.241  10.496   6.536  1.00  0.00    -0.200 F 
ENDBRANCH  24  38
BRANCH  25  49
ATOM     49  C   UNL     1       6.974  -3.132   9.630  1.00  0.00     0.064 A 
ATOM     50  C   UNL     1       6.152  -3.856  10.503  1.00  0.00     0.173 A 
ATOM     51  C   UNL     1       7.973  -3.834   8.938  1.00  0.00     0.173 A 
ATOM     52  F   UNL     1       5.183  -3.228  11.185  1.00  0.00    -0.203 F 
ATOM     53  C   UNL     1       6.313  -5.230  10.668  1.00  0.00     0.198 A 
ATOM     54  C   UNL     1       8.117  -5.212   9.085  1.00  0.00     0.198 A 
ATOM     55  F   UNL     1       8.767  -3.190   8.070  1.00  0.00    -0.203 F 
ATOM     56  F   UNL     1       5.512  -5.899  11.508  1.00  0.00    -0.200 F 
ATOM     57  C   UNL     1       7.285  -5.909   9.949  1.00  0.00     0.200 A 
ATOM     58  F   UNL     1       9.038  -5.869   8.368  1.00  0.00    -0.200 F 
ATOM     59  F   UNL     1       7.414  -7.237  10.081  1.00  0.00    -0.200 F 
ENDBRANCH  25  49
BRANCH  37  60
ATOM     60  C   UNL     1       7.456   2.904  13.145  1.00  0.00     0.064 A 
ATOM     61  C   UNL     1       8.825   2.890  13.448  1.00  0.00     0.173 A 
ATOM     62  C   UNL     1       6.561   3.324  14.139  1.00  0.00     0.173 A 
ATOM     63  F   UNL     1       9.716   2.482  12.530  1.00  0.00    -0.203 F 
ATOM     64  C   UNL     1       9.280   3.275  14.704  1.00  0.00     0.198 A 
ATOM     65  C   UNL     1       7.023   3.737  15.384  1.00  0.00     0.198 A 
ATOM     66  F   UNL     1       5.243   3.363  13.891  1.00  0.00    -0.203 F 
ATOM     67  F   UNL     1      10.590   3.225  14.983  1.00  0.00    -0.200 F 
ATOM     68  C   UNL     1       8.380   3.709  15.666  1.00  0.00     0.200 A 
ATOM     69  F   UNL     1       6.155   4.172  16.308  1.00  0.00    -0.200 F 
ATOM     70  F   UNL     1       8.823   4.100  16.869  1.00  0.00    -0.200 F 
ENDBRANCH  37  60
ENDBRANCH  11  12
ENDBRANCH   4   6
ENDBRANCH   3   4
ENDBRANCH   2   3
ENDBRANCH   1   2
BRANCH   1  71
ATOM     71  O   UNL     1       3.728   1.269  -0.195  1.00  0.00    -0.374 OA
BRANCH  71  72
ATOM     72  C   UNL     1       2.549   2.023  -0.473  1.00  0.00     0.202 C 
BRANCH  72  73
ATOM     73  C   UNL     1       2.926   3.451  -0.856  1.00  0.00     0.261 C 
BRANCH  73  74
ATOM     74  O   UNL     1       3.624   3.428  -2.108  1.00  0.00    -0.460 OA
BRANCH  74  75
ATOM     75  C   UNL     1       4.981   3.368  -2.076  1.00  0.00     0.338 C 
ATOM     76  O   UNL     1       5.704   3.489  -1.105  1.00  0.00    -0.246 OA
BRANCH  75  77
ATOM     77  C   UNL     1       5.420   3.006  -3.447  1.00  0.00     0.071 A 
ATOM     78  C   UNL     1       4.694   3.574  -4.487  1.00  0.00     0.047 A 
ATOM     79  C   UNL     1       6.448   2.077  -3.723  1.00  0.00     0.018 A 
ATOM     80  C   UNL     1       4.978   3.221  -5.790  1.00  0.00     0.090 A 
ATOM     81  C   UNL     1       6.624   1.730  -5.084  1.00  0.00     0.072 A 
ATOM     82  C   UNL     1       7.271   1.456  -2.749  1.00  0.00     0.050 A 
ATOM     83  N   UNL     1       5.920   2.295  -6.085  1.00  0.00    -0.246 NA
ATOM     84  C   UNL     1       7.557   0.748  -5.406  1.00  0.00     0.032 A 
ATOM     85  C   UNL     1       8.183   0.474  -3.110  1.00  0.00     0.123 A 
ATOM     86  C   UNL     1       8.328   0.106  -4.433  1.00  0.00     0.041 A 
ATOM     87  F   UNL     1       8.911  -0.134  -2.164  1.00  0.00    -0.207 F 
BRANCH  80  88
ATOM     88  C   UNL     1       4.239   3.898  -6.868  1.00  0.00     0.089 A 
ATOM     89  C   UNL     1       4.154   5.296  -6.874  1.00  0.00     0.030 A 
ATOM     90  N   UNL     1       3.493   3.129  -7.698  1.00  0.00    -0.255 NA
ATOM     91  C   UNL     1       3.248   5.924  -7.718  1.00  0.00     0.004 A 
ATOM     92  C   UNL     1       2.638   3.770  -8.528  1.00  0.00     0.112 A 
ATOM     93  C   UNL     1       2.468   5.146  -8.560  1.00  0.00     0.020 A 
ENDBRANCH  80  88
ENDBRANCH  75  77
ENDBRANCH  74  75
ENDBRANCH  73  74
ENDBRANCH  72  73
ENDBRANCH  71  72
ENDBRANCH   1  71
TORSDOF 15
