REMARK SMILES O=C(OCCOCCOC(=O)c1ccc(-c2c3nc(c(-c4c(F)c(F)c(F)c(F)c4F)c4ccc([nH]4)c(-c4c(F)c(F)c(F)c(F)c4F)c4nc(c(-c5c(F)c(F)c(F)c(F)c5F)c5ccc2[nH]5)C=C4)C=C3)cc1)C1=Cc2cc(C(F)(F)F)ccc2O[C@@H]1C(F)(F)F
REMARK SMILES IDX 7 1 6 2 5 3 4 4 3 5 2 6 1 7 75 8 76 9 88 10 77 11 87 12
REMARK SMILES IDX 78 13 86 14 79 15 85 16 84 17 89 18 90 19 91 20 92 21 80 22
REMARK SMILES IDX 81 23 82 24 83 25 8 26 9 27 10 28 11 29 12 30 13 31 74 32
REMARK SMILES IDX 14 33 73 34 15 35 16 36 17 37 67 38 18 39 72 40 66 41 68 42
REMARK SMILES IDX 19 43 71 44 65 45 64 46 20 48 52 49 32 50 51 51 33 52 36 53
REMARK SMILES IDX 50 54 69 55 34 56 35 57 49 59 70 60 37 61 21 62 22 63 30 64
REMARK SMILES IDX 23 65 24 66 28 67 31 68 25 69 26 70 29 71 27 72 53 73 54 74
REMARK SMILES IDX 62 75 55 76 56 77 60 78 63 79 57 80 58 81 61 82 59 83 38 84
REMARK SMILES IDX 39 85 47 86 40 87 41 88 45 89 48 90 42 91 43 92 46 93 44 94
REMARK H PARENT 68 47 36 58
REMARK Flexibility Score: inf
ROOT
ATOM      1  C   UNL     1       2.762   0.632   2.943  1.00  0.00     0.202 C 
ENDROOT
BRANCH   1   2
ATOM      2  O   UNL     1       3.954   0.049   2.391  1.00  0.00    -0.374 OA
BRANCH   2   3
ATOM      3  C   UNL     1       4.266  -0.710   1.001  1.00  0.00     0.202 C 
BRANCH   3   4
ATOM      4  C   UNL     1       3.359  -0.548  -0.965  1.00  0.00     0.261 C 
BRANCH   4   5
ATOM      5  O   UNL     1       2.362  -1.532  -1.599  1.00  0.00    -0.460 OA
BRANCH   5   6
ATOM      6  C   UNL     1       2.527  -2.782  -1.158  1.00  0.00     0.338 C 
ATOM      7  O   UNL     1       1.881  -3.771  -1.392  1.00  0.00    -0.246 OA
BRANCH   6   8
ATOM      8  C   UNL     1       3.441  -2.446  -0.088  1.00  0.00     0.087 C 
ATOM      9  C   UNL     1       4.816  -2.228  -0.598  1.00  0.00     0.027 C 
ATOM     10  C   UNL     1       2.330  -1.072   0.706  1.00  0.00     0.316 C 
ATOM     11  C   UNL     1       5.575  -0.593  -0.768  1.00  0.00     0.018 A 
ATOM     12  O   UNL     1       3.095   0.686   0.478  1.00  0.00    -0.475 OA
ATOM     13  C   UNL     1       6.793  -0.474  -1.377  1.00  0.00     0.025 A 
ATOM     14  C   UNL     1       4.723   0.852  -0.330  1.00  0.00     0.128 A 
ATOM     15  C   UNL     1       7.227   0.849  -1.633  1.00  0.00     0.056 A 
ATOM     16  C   UNL     1       5.134   2.083  -0.739  1.00  0.00     0.048 A 
ATOM     17  C   UNL     1       6.407   2.044  -1.375  1.00  0.00     0.017 A 
BRANCH  10  18
ATOM     18  C   UNL     1       1.905  -1.866   2.018  1.00  0.00     0.430 C 
ATOM     19  F   UNL     1       1.034  -1.236   2.825  1.00  0.00    -0.167 F 
ATOM     20  F   UNL     1       1.247  -2.993   1.608  1.00  0.00    -0.167 F 
ATOM     21  F   UNL     1       2.934  -2.325   2.765  1.00  0.00    -0.167 F 
ENDBRANCH  10  18
BRANCH  15  22
ATOM     22  C   UNL     1       8.628   0.992  -2.220  1.00  0.00     0.416 C 
ATOM     23  F   UNL     1       9.566   0.353  -1.463  1.00  0.00    -0.166 F 
ATOM     24  F   UNL     1       8.725   0.448  -3.464  1.00  0.00    -0.166 F 
ATOM     25  F   UNL     1       9.052   2.279  -2.332  1.00  0.00    -0.166 F 
ENDBRANCH  15  22
ENDBRANCH   6   8
ENDBRANCH   5   6
ENDBRANCH   4   5
ENDBRANCH   3   4
ENDBRANCH   2   3
ENDBRANCH   1   2
BRANCH   1  26
ATOM     26  C   UNL     1       2.904   2.050   3.480  1.00  0.00     0.261 C 
BRANCH  26  27
ATOM     27  O   UNL     1       3.386   2.951   2.496  1.00  0.00    -0.460 OA
BRANCH  27  28
ATOM     28  C   UNL     1       4.706   3.219   2.588  1.00  0.00     0.338 C 
ATOM     29  O   UNL     1       5.542   2.678   3.287  1.00  0.00    -0.246 OA
BRANCH  28  30
ATOM     30  C   UNL     1       4.987   4.338   1.676  1.00  0.00     0.060 A 
ATOM     31  C   UNL     1       6.247   4.400   1.073  1.00  0.00     0.016 A 
ATOM     32  C   UNL     1       3.999   5.291   1.391  1.00  0.00     0.016 A 
ATOM     33  C   UNL     1       6.508   5.395   0.139  1.00  0.00     0.010 A 
ATOM     34  C   UNL     1       4.269   6.303   0.485  1.00  0.00     0.010 A 
ATOM     35  C   UNL     1       5.529   6.359  -0.130  1.00  0.00    -0.014 A 
BRANCH  35  36
ATOM     36  C   UNL     1       5.900   7.594  -0.832  1.00  0.00     0.031 A 
ATOM     37  C   UNL     1       6.395   8.723   0.014  1.00  0.00     0.074 A 
ATOM     38  C   UNL     1       5.748   7.710  -2.159  1.00  0.00     0.049 A 
ATOM     39  N   UNL     1       6.684   9.950  -0.322  1.00  0.00    -0.248 NA
ATOM     40  C   UNL     1       6.574   8.426   1.446  1.00  0.00     0.031 C 
ATOM     41  C   UNL     1       5.303   6.647  -3.056  1.00  0.00     0.029 A 
ATOM     42  N   UNL     1       5.933   8.793  -2.975  1.00  0.00    -0.354 N 
ATOM     43  C   UNL     1       7.076  10.569   0.855  1.00  0.00     0.074 A 
ATOM     44  C   UNL     1       6.954   9.600   1.919  1.00  0.00     0.031 C 
ATOM     45  C   UNL     1       5.230   7.139  -4.305  1.00  0.00     0.029 A 
ATOM     46  C   UNL     1       5.579   8.559  -4.279  1.00  0.00     0.049 A 
ATOM     47  H   UNL     1       6.286   9.656  -2.657  1.00  0.00     0.167 HD
ATOM     48  C   UNL     1       7.498  11.841   1.026  1.00  0.00     0.037 A 
ATOM     49  C   UNL     1       5.514   9.417  -5.315  1.00  0.00     0.037 A 
ATOM     50  C   UNL     1       7.558  12.798  -0.043  1.00  0.00     0.049 A 
ATOM     51  C   UNL     1       5.899  10.858  -5.085  1.00  0.00     0.074 A 
ATOM     52  C   UNL     1       7.958  14.118   0.003  1.00  0.00     0.029 A 
ATOM     53  N   UNL     1       7.173  12.536  -1.352  1.00  0.00    -0.354 N 
ATOM     54  N   UNL     1       6.296  11.443  -3.979  1.00  0.00    -0.248 NA
ATOM     55  C   UNL     1       5.828  11.757  -6.243  1.00  0.00     0.031 C 
ATOM     56  C   UNL     1       7.739  14.678  -1.259  1.00  0.00     0.029 A 
ATOM     57  C   UNL     1       7.295  13.681  -2.117  1.00  0.00     0.049 A 
ATOM     58  H   UNL     1       6.861  11.664  -1.686  1.00  0.00     0.167 HD
ATOM     59  C   UNL     1       6.562  12.765  -4.315  1.00  0.00     0.074 A 
ATOM     60  C   UNL     1       6.275  12.895  -5.729  1.00  0.00     0.031 C 
ATOM     61  C   UNL     1       7.014  13.775  -3.530  1.00  0.00     0.037 A 
BRANCH  48  62
ATOM     62  C   UNL     1       7.842  12.262   2.425  1.00  0.00     0.064 A 
ATOM     63  C   UNL     1       8.925  11.706   3.125  1.00  0.00     0.173 A 
ATOM     64  C   UNL     1       7.045  13.202   3.093  1.00  0.00     0.173 A 
ATOM     65  F   UNL     1       9.706  10.783   2.541  1.00  0.00    -0.203 F 
ATOM     66  C   UNL     1       9.164  12.038   4.456  1.00  0.00     0.198 A 
ATOM     67  C   UNL     1       7.313  13.564   4.410  1.00  0.00     0.198 A 
ATOM     68  F   UNL     1       5.993  13.761   2.476  1.00  0.00    -0.203 F 
ATOM     69  F   UNL     1      10.150  11.428   5.130  1.00  0.00    -0.200 F 
ATOM     70  C   UNL     1       8.362  12.970   5.095  1.00  0.00     0.200 A 
ATOM     71  F   UNL     1       6.543  14.473   5.022  1.00  0.00    -0.200 F 
ATOM     72  F   UNL     1       8.588  13.283   6.378  1.00  0.00    -0.200 F 
ENDBRANCH  48  62
BRANCH  49  73
ATOM     73  C   UNL     1       5.059   8.936  -6.645  1.00  0.00     0.064 A 
ATOM     74  C   UNL     1       5.937   8.876  -7.735  1.00  0.00     0.173 A 
ATOM     75  C   UNL     1       3.737   8.512  -6.851  1.00  0.00     0.173 A 
ATOM     76  F   UNL     1       7.206   9.288  -7.596  1.00  0.00    -0.203 F 
ATOM     77  C   UNL     1       5.509   8.422  -8.982  1.00  0.00     0.198 A 
ATOM     78  C   UNL     1       3.318   8.030  -8.089  1.00  0.00     0.198 A 
ATOM     79  F   UNL     1       2.855   8.547  -5.842  1.00  0.00    -0.203 F 
ATOM     80  F   UNL     1       6.360   8.412 -10.017  1.00  0.00    -0.200 F 
ATOM     81  C   UNL     1       4.203   7.991  -9.156  1.00  0.00     0.200 A 
ATOM     82  F   UNL     1       2.059   7.599  -8.247  1.00  0.00    -0.200 F 
ATOM     83  F   UNL     1       3.795   7.543 -10.351  1.00  0.00    -0.200 F 
ENDBRANCH  49  73
BRANCH  61  84
ATOM     84  C   UNL     1       7.298  15.097  -4.187  1.00  0.00     0.064 A 
ATOM     85  C   UNL     1       6.277  15.938  -4.649  1.00  0.00     0.173 A 
ATOM     86  C   UNL     1       8.621  15.563  -4.267  1.00  0.00     0.173 A 
ATOM     87  F   UNL     1       4.998  15.536  -4.604  1.00  0.00    -0.203 F 
ATOM     88  C   UNL     1       6.571  17.190  -5.183  1.00  0.00     0.198 A 
ATOM     89  C   UNL     1       8.907  16.831  -4.763  1.00  0.00     0.198 A 
ATOM     90  F   UNL     1       9.635  14.802  -3.828  1.00  0.00    -0.203 F 
ATOM     91  F   UNL     1       5.583  17.962  -5.657  1.00  0.00    -0.200 F 
ATOM     92  C   UNL     1       7.883  17.640  -5.227  1.00  0.00     0.200 A 
ATOM     93  F   UNL     1      10.172  17.271  -4.781  1.00  0.00    -0.200 F 
ATOM     94  F   UNL     1       8.160  18.856  -5.718  1.00  0.00    -0.200 F 
ENDBRANCH  61  84
ENDBRANCH  35  36
ENDBRANCH  28  30
ENDBRANCH  27  28
ENDBRANCH  26  27
ENDBRANCH   1  26
TORSDOF 16
