REMARK SMILES O=C(OCCOCCOC(=O)c1cc(-c2cncnc2)cc(S(=O)(=O)N2CCCC2)c1)c1ccc(-c2c3nc(c(-c4c(F)c(F)c(F)c(F)c4F)c4ccc([nH]4)c(-c4c(F)c(F)c(F)c(F)c4F)c4nc(c(-c5c(F)c(F)c(F)c(F)c5F)c5ccc2[nH]5)C=C4)C=C3)cc1
REMARK SMILES IDX 6 1 5 2 4 3 3 4 2 5 1 6 32 7 33 8 94 9 34 10 93 11 35 12
REMARK SMILES IDX 36 13 37 14 87 15 38 16 92 17 86 18 88 19 39 20 91 21 85 22
REMARK SMILES IDX 84 23 40 25 72 26 52 27 71 28 53 29 56 30 70 31 89 32 54 33
REMARK SMILES IDX 55 34 69 36 90 37 57 38 41 39 42 40 50 41 43 42 44 43 48 44
REMARK SMILES IDX 51 45 45 46 46 47 49 48 47 49 73 50 74 51 82 52 75 53 76 54
REMARK SMILES IDX 80 55 83 56 77 57 78 58 81 59 79 60 58 61 59 62 67 63 60 64
REMARK SMILES IDX 61 65 65 66 68 67 62 68 63 69 66 70 64 71 7 72 8 73 9 74
REMARK SMILES IDX 10 75 11 76 12 77 13 78 31 79 14 80 22 81 21 82 15 83 16 84
REMARK SMILES IDX 20 85 17 86 19 87 18 88 23 89 24 90 25 91 26 92 27 93 30 94
REMARK SMILES IDX 28 95 29 96
REMARK H PARENT 88 24 56 35
REMARK Flexibility Score: inf
ROOT
ATOM      1  O   UNL     1       4.134  -0.523  -1.289  1.00  0.00    -0.374 OA
ENDROOT
BRANCH   1   2
ATOM      2  C   UNL     1       4.412  -1.363  -0.171  1.00  0.00     0.202 C 
BRANCH   2   3
ATOM      3  C   UNL     1       4.120  -0.692   1.170  1.00  0.00     0.261 C 
BRANCH   3   4
ATOM      4  O   UNL     1       2.729  -0.340   1.248  1.00  0.00    -0.460 OA
BRANCH   4   5
ATOM      5  C   UNL     1       2.163   0.847   0.932  1.00  0.00     0.338 C 
ATOM      6  O   UNL     1       0.937   0.940   0.929  1.00  0.00    -0.246 OA
BRANCH   5   7
ATOM      7  C   UNL     1       2.951   2.069   0.598  1.00  0.00     0.060 A 
ATOM      8  C   UNL     1       4.156   2.066  -0.104  1.00  0.00     0.016 A 
ATOM      9  C   UNL     1       2.381   3.309   0.918  1.00  0.00     0.016 A 
ATOM     10  C   UNL     1       4.787   3.225  -0.488  1.00  0.00     0.010 A 
ATOM     11  C   UNL     1       3.009   4.498   0.537  1.00  0.00     0.010 A 
ATOM     12  C   UNL     1       4.213   4.444  -0.173  1.00  0.00    -0.014 A 
BRANCH  12  13
ATOM     13  C   UNL     1       5.028   5.619  -0.479  1.00  0.00     0.031 A 
ATOM     14  C   UNL     1       5.805   6.221   0.641  1.00  0.00     0.074 A 
ATOM     15  C   UNL     1       5.217   5.963  -1.764  1.00  0.00     0.049 A 
ATOM     16  N   UNL     1       6.561   7.281   0.647  1.00  0.00    -0.248 NA
ATOM     17  C   UNL     1       5.737   5.517   1.935  1.00  0.00     0.031 C 
ATOM     18  C   UNL     1       4.640   5.265  -2.919  1.00  0.00     0.029 A 
ATOM     19  N   UNL     1       5.980   6.950  -2.319  1.00  0.00    -0.354 N 
ATOM     20  C   UNL     1       7.019   7.399   1.950  1.00  0.00     0.074 A 
ATOM     21  C   UNL     1       6.469   6.301   2.709  1.00  0.00     0.031 C 
ATOM     22  C   UNL     1       5.079   5.846  -4.046  1.00  0.00     0.029 A 
ATOM     23  C   UNL     1       5.890   7.001  -3.687  1.00  0.00     0.049 A 
ATOM     24  H   UNL     1       6.539   7.564  -1.790  1.00  0.00     0.167 HD
ATOM     25  C   UNL     1       7.819   8.364   2.451  1.00  0.00     0.037 A 
ATOM     26  C   UNL     1       6.372   7.927  -4.535  1.00  0.00     0.037 A 
ATOM     27  C   UNL     1       8.339   9.431   1.642  1.00  0.00     0.049 A 
ATOM     28  C   UNL     1       7.148   9.067  -3.930  1.00  0.00     0.074 A 
ATOM     29  C   UNL     1       9.091  10.524   2.021  1.00  0.00     0.029 A 
ATOM     30  N   UNL     1       8.147   9.527   0.266  1.00  0.00    -0.354 N 
ATOM     31  N   UNL     1       7.497   9.256  -2.678  1.00  0.00    -0.248 NA
ATOM     32  C   UNL     1       7.580  10.129  -4.842  1.00  0.00     0.031 C 
ATOM     33  C   UNL     1       9.304  11.311   0.884  1.00  0.00     0.029 A 
ATOM     34  C   UNL     1       8.747  10.674  -0.217  1.00  0.00     0.049 A 
ATOM     35  H   UNL     1       7.657   8.873  -0.282  1.00  0.00     0.167 HD
ATOM     36  C   UNL     1       8.209  10.444  -2.651  1.00  0.00     0.074 A 
ATOM     37  C   UNL     1       8.256  10.921  -4.022  1.00  0.00     0.031 C 
ATOM     38  C   UNL     1       8.771  11.091  -1.599  1.00  0.00     0.037 A 
BRANCH  25  39
ATOM     39  C   UNL     1       8.062   8.348   3.930  1.00  0.00     0.064 A 
ATOM     40  C   UNL     1       8.834   7.357   4.556  1.00  0.00     0.173 A 
ATOM     41  C   UNL     1       7.451   9.312   4.747  1.00  0.00     0.173 A 
ATOM     42  F   UNL     1       9.408   6.387   3.827  1.00  0.00    -0.203 F 
ATOM     43  C   UNL     1       8.955   7.312   5.944  1.00  0.00     0.198 A 
ATOM     44  C   UNL     1       7.600   9.284   6.130  1.00  0.00     0.198 A 
ATOM     45  F   UNL     1       6.687  10.271   4.203  1.00  0.00    -0.203 F 
ATOM     46  F   UNL     1       9.635   6.313   6.524  1.00  0.00    -0.200 F 
ATOM     47  C   UNL     1       8.342   8.278   6.729  1.00  0.00     0.200 A 
ATOM     48  F   UNL     1       7.006  10.218   6.885  1.00  0.00    -0.200 F 
ATOM     49  F   UNL     1       8.450   8.227   8.063  1.00  0.00    -0.200 F 
ENDBRANCH  25  39
BRANCH  26  50
ATOM     50  C   UNL     1       6.069   7.857  -5.989  1.00  0.00     0.064 A 
ATOM     51  C   UNL     1       7.087   7.720  -6.942  1.00  0.00     0.173 A 
ATOM     52  C   UNL     1       4.749   7.946  -6.463  1.00  0.00     0.173 A 
ATOM     53  F   UNL     1       8.367   7.648  -6.548  1.00  0.00    -0.203 F 
ATOM     54  C   UNL     1       6.801   7.699  -8.307  1.00  0.00     0.198 A 
ATOM     55  C   UNL     1       4.461   7.889  -7.825  1.00  0.00     0.198 A 
ATOM     56  F   UNL     1       3.731   8.079  -5.599  1.00  0.00    -0.203 F 
ATOM     57  F   UNL     1       7.800   7.622  -9.197  1.00  0.00    -0.200 F 
ATOM     58  C   UNL     1       5.488   7.778  -8.747  1.00  0.00     0.200 A 
ATOM     59  F   UNL     1       3.188   7.949  -8.241  1.00  0.00    -0.200 F 
ATOM     60  F   UNL     1       5.214   7.758 -10.059  1.00  0.00    -0.200 F 
ENDBRANCH  26  50
BRANCH  38  61
ATOM     61  C   UNL     1       9.522  12.350  -1.909  1.00  0.00     0.064 A 
ATOM     62  C   UNL     1       8.864  13.530  -2.281  1.00  0.00     0.173 A 
ATOM     63  C   UNL     1      10.918  12.383  -1.774  1.00  0.00     0.173 A 
ATOM     64  F   UNL     1       7.531  13.540  -2.438  1.00  0.00    -0.203 F 
ATOM     65  C   UNL     1       9.581  14.694  -2.533  1.00  0.00     0.198 A 
ATOM     66  C   UNL     1      11.627  13.558  -1.987  1.00  0.00     0.198 A 
ATOM     67  F   UNL     1      11.589  11.279  -1.411  1.00  0.00    -0.203 F 
ATOM     68  F   UNL     1       8.939  15.798  -2.939  1.00  0.00    -0.200 F 
ATOM     69  C   UNL     1      10.959  14.710  -2.375  1.00  0.00     0.200 A 
ATOM     70  F   UNL     1      12.955  13.577  -1.814  1.00  0.00    -0.200 F 
ATOM     71  F   UNL     1      11.646  15.838  -2.601  1.00  0.00    -0.200 F 
ENDBRANCH  38  61
ENDBRANCH  12  13
ENDBRANCH   5   7
ENDBRANCH   4   5
ENDBRANCH   3   4
ENDBRANCH   2   3
ENDBRANCH   1   2
BRANCH   1  72
ATOM     72  C   UNL     1       2.831  -0.591  -1.868  1.00  0.00     0.202 C 
BRANCH  72  73
ATOM     73  C   UNL     1       2.999  -0.980  -3.329  1.00  0.00     0.261 C 
BRANCH  73  74
ATOM     74  O   UNL     1       3.660  -2.247  -3.338  1.00  0.00    -0.460 OA
BRANCH  74  75
ATOM     75  C   UNL     1       5.010  -2.241  -3.202  1.00  0.00     0.338 C 
ATOM     76  O   UNL     1       5.783  -1.326  -3.433  1.00  0.00    -0.246 OA
BRANCH  75  77
ATOM     77  C   UNL     1       5.402  -3.551  -2.636  1.00  0.00     0.062 A 
ATOM     78  C   UNL     1       6.620  -3.741  -1.994  1.00  0.00     0.024 A 
ATOM     79  C   UNL     1       4.545  -4.626  -2.795  1.00  0.00     0.037 A 
ATOM     80  C   UNL     1       7.007  -5.032  -1.587  1.00  0.00    -0.013 A 
ATOM     81  C   UNL     1       4.987  -5.916  -2.611  1.00  0.00     0.084 A 
ATOM     82  C   UNL     1       6.217  -6.134  -1.980  1.00  0.00     0.030 A 
BRANCH  80  83
ATOM     83  C   UNL     1       8.234  -5.185  -0.811  1.00  0.00     0.018 A 
ATOM     84  C   UNL     1       9.443  -5.545  -1.375  1.00  0.00     0.123 A 
ATOM     85  C   UNL     1       8.304  -4.894   0.543  1.00  0.00     0.123 A 
ATOM     86  N   UNL     1      10.608  -5.612  -0.694  1.00  0.00    -0.244 NA
ATOM     87  N   UNL     1       9.437  -4.941   1.277  1.00  0.00    -0.244 NA
ATOM     88  C   UNL     1      10.543  -5.301   0.610  1.00  0.00     0.221 A 
ENDBRANCH  80  83
BRANCH  81  89
ATOM     89  S   UNL     1       4.081  -7.230  -3.412  1.00  0.00     0.243 S 
ATOM     90  O   UNL     1       5.041  -7.885  -4.275  1.00  0.00    -0.207 OA
ATOM     91  O   UNL     1       3.378  -7.935  -2.365  1.00  0.00    -0.207 OA
BRANCH  89  92
ATOM     92  N   UNL     1       2.930  -6.488  -4.414  1.00  0.00    -0.198 NA
ATOM     93  C   UNL     1       3.296  -5.786  -5.656  1.00  0.00     0.102 C 
ATOM     94  C   UNL     1       1.670  -5.944  -3.880  1.00  0.00     0.102 C 
ATOM     95  C   UNL     1       2.614  -4.428  -5.564  1.00  0.00     0.018 C 
ATOM     96  C   UNL     1       1.449  -4.609  -4.598  1.00  0.00     0.018 C 
ENDBRANCH  89  92
ENDBRANCH  81  89
ENDBRANCH  75  77
ENDBRANCH  74  75
ENDBRANCH  73  74
ENDBRANCH  72  73
ENDBRANCH   1  72
TORSDOF 17
