REMARK SMILES N#C[C@@H]1CN(C(=O)Nc2cccc(F)c2C(=O)OCCOCCOC(=O)c2ccc(-c3c4nc(c(-c5c(F)c(F)c(F)c(F)c5F)c5ccc([nH]5)c(-c5c(F)c(F)c(F)c(F)c5F)c5nc(c(-c6c(F)c(F)c(F)c(F)c6F)c6ccc3[nH]6)C=C5)C=C4)cc2)CCO1
REMARK SMILES IDX 20 1 19 2 18 3 16 4 17 5 15 6 9 7 10 8 11 9 13 10 12 11
REMARK SMILES IDX 14 12 8 13 6 14 7 15 5 17 3 18 4 19 92 20 91 21 90 22 2 23
REMARK SMILES IDX 1 24 21 25 22 26 23 27 24 28 25 29 26 30 27 31 28 32 89 33
REMARK SMILES IDX 29 34 88 35 30 36 31 37 32 38 82 39 33 40 87 41 81 42 83 43
REMARK SMILES IDX 34 44 86 45 80 46 79 47 35 49 67 50 47 51 66 52 48 53 51 54
REMARK SMILES IDX 65 55 84 56 49 57 50 58 64 60 85 61 52 62 36 63 37 64 45 65
REMARK SMILES IDX 38 66 39 67 43 68 46 69 40 70 41 71 44 72 42 73 68 74 69 75
REMARK SMILES IDX 77 76 70 77 71 78 75 79 78 80 72 81 73 82 76 83 74 84 53 85
REMARK SMILES IDX 54 86 62 87 55 88 56 89 60 90 63 91 57 92 58 93 61 94 59 95
REMARK H PARENT 8 16 83 48 51 59
REMARK Flexibility Score: inf
ROOT
ATOM      1  C   UNL     1      -1.811   5.483  -2.192  1.00  0.00     0.202 C 
ENDROOT
BRANCH   1   2
ATOM      2  C   UNL     1      -1.584   4.358  -1.177  1.00  0.00     0.261 C 
BRANCH   2   3
ATOM      3  O   UNL     1      -0.289   4.493  -0.561  1.00  0.00    -0.460 OA
BRANCH   3   4
ATOM      4  C   UNL     1       0.596   3.531  -0.905  1.00  0.00     0.343 C 
ATOM      5  O   UNL     1       0.345   2.545  -1.582  1.00  0.00    -0.246 OA
BRANCH   4   6
ATOM      6  C   UNL     1       1.980   3.999  -0.672  1.00  0.00     0.119 A 
ATOM      7  C   UNL     1       2.981   3.675  -1.613  1.00  0.00     0.060 A 
ATOM      8  C   UNL     1       4.279   4.187  -1.462  1.00  0.00     0.027 A 
ATOM      9  C   UNL     1       4.608   4.926  -0.325  1.00  0.00     0.005 A 
ATOM     10  C   UNL     1       2.328   4.726   0.463  1.00  0.00     0.139 A 
ATOM     11  C   UNL     1       3.638   5.174   0.647  1.00  0.00     0.040 A 
ATOM     12  F   UNL     1       1.434   4.973   1.430  1.00  0.00    -0.206 F 
BRANCH   7  13
ATOM     13  N   UNL     1       2.692   2.794  -2.668  1.00  0.00    -0.307 N 
ATOM     14  C   UNL     1       3.364   1.716  -3.154  1.00  0.00     0.322 C 
ATOM     15  O   UNL     1       3.082   1.339  -4.293  1.00  0.00    -0.248 OA
ATOM     16  H   UNL     1       1.852   2.992  -3.141  1.00  0.00     0.171 HD
BRANCH  14  17
ATOM     17  N   UNL     1       4.179   0.973  -2.330  1.00  0.00    -0.319 N 
ATOM     18  C   UNL     1       3.741   0.034  -0.085  1.00  0.00     0.240 C 
ATOM     19  C   UNL     1       4.404   1.130  -0.890  1.00  0.00     0.169 C 
ATOM     20  O   UNL     1       4.248  -1.253  -0.543  1.00  0.00    -0.360 OA
ATOM     21  C   UNL     1       4.007  -1.461  -1.952  1.00  0.00     0.183 C 
ATOM     22  C   UNL     1       4.628  -0.344  -2.809  1.00  0.00     0.150 C 
BRANCH  18  23
ATOM     23  C   UNL     1       2.221   0.034  -0.085  1.00  0.00     0.096 C 
ATOM     24  N   UNL     1       0.960   0.034  -0.085  1.00  0.00    -0.195 NA
ENDBRANCH  18  23
ENDBRANCH  14  17
ENDBRANCH   7  13
ENDBRANCH   4   6
ENDBRANCH   3   4
ENDBRANCH   2   3
ENDBRANCH   1   2
BRANCH   1  25
ATOM     25  O   UNL     1      -1.110   5.390  -3.436  1.00  0.00    -0.374 OA
BRANCH  25  26
ATOM     26  C   UNL     1       0.283   5.688  -3.442  1.00  0.00     0.202 C 
BRANCH  26  27
ATOM     27  C   UNL     1       0.691   7.164  -3.476  1.00  0.00     0.261 C 
BRANCH  27  28
ATOM     28  O   UNL     1       0.124   7.909  -2.388  1.00  0.00    -0.460 OA
BRANCH  28  29
ATOM     29  C   UNL     1      -0.901   8.714  -2.753  1.00  0.00     0.338 C 
ATOM     30  O   UNL     1      -1.290   8.952  -3.888  1.00  0.00    -0.246 OA
BRANCH  29  31
ATOM     31  C   UNL     1      -1.642   9.172  -1.565  1.00  0.00     0.060 A 
ATOM     32  C   UNL     1      -3.031   8.996  -1.581  1.00  0.00     0.016 A 
ATOM     33  C   UNL     1      -1.018   9.821  -0.497  1.00  0.00     0.016 A 
ATOM     34  C   UNL     1      -3.809   9.526  -0.558  1.00  0.00     0.010 A 
ATOM     35  C   UNL     1      -1.804  10.360   0.528  1.00  0.00     0.010 A 
ATOM     36  C   UNL     1      -3.205  10.248   0.480  1.00  0.00    -0.014 A 
BRANCH  36  37
ATOM     37  C   UNL     1      -4.073  10.986   1.428  1.00  0.00     0.031 A 
ATOM     38  C   UNL     1      -4.333  12.449   1.198  1.00  0.00     0.074 A 
ATOM     39  C   UNL     1      -4.691  10.337   2.430  1.00  0.00     0.049 A 
ATOM     40  N   UNL     1      -5.116  13.265   1.858  1.00  0.00    -0.248 NA
ATOM     41  C   UNL     1      -3.623  13.079   0.073  1.00  0.00     0.031 C 
ATOM     42  C   UNL     1      -4.537   8.916   2.733  1.00  0.00     0.029 A 
ATOM     43  N   UNL     1      -5.582  10.789   3.371  1.00  0.00    -0.354 N 
ATOM     44  C   UNL     1      -5.000  14.495   1.226  1.00  0.00     0.074 A 
ATOM     45  C   UNL     1      -4.046  14.333   0.150  1.00  0.00     0.031 C 
ATOM     46  C   UNL     1      -5.311   8.609   3.788  1.00  0.00     0.029 A 
ATOM     47  C   UNL     1      -6.000   9.815   4.244  1.00  0.00     0.049 A 
ATOM     48  H   UNL     1      -5.891  11.722   3.416  1.00  0.00     0.167 HD
ATOM     49  C   UNL     1      -5.645  15.650   1.508  1.00  0.00     0.037 A 
ATOM     50  C   UNL     1      -6.842   9.892   5.293  1.00  0.00     0.037 A 
ATOM     51  C   UNL     1      -6.604  15.808   2.569  1.00  0.00     0.049 A 
ATOM     52  C   UNL     1      -7.513  11.202   5.610  1.00  0.00     0.074 A 
ATOM     53  C   UNL     1      -7.328  16.936   2.913  1.00  0.00     0.029 A 
ATOM     54  N   UNL     1      -6.972  14.809   3.457  1.00  0.00    -0.354 N 
ATOM     55  N   UNL     1      -7.420  12.351   4.986  1.00  0.00    -0.248 NA
ATOM     56  C   UNL     1      -8.414  11.225   6.772  1.00  0.00     0.031 C 
ATOM     57  C   UNL     1      -8.101  16.633   4.037  1.00  0.00     0.029 A 
ATOM     58  C   UNL     1      -7.895  15.303   4.364  1.00  0.00     0.049 A 
ATOM     59  H   UNL     1      -6.629  13.886   3.444  1.00  0.00     0.167 HD
ATOM     60  C   UNL     1      -8.256  13.226   5.667  1.00  0.00     0.074 A 
ATOM     61  C   UNL     1      -8.867  12.470   6.740  1.00  0.00     0.031 C 
ATOM     62  C   UNL     1      -8.492  14.539   5.428  1.00  0.00     0.037 A 
BRANCH  49  63
ATOM     63  C   UNL     1      -5.347  16.850   0.662  1.00  0.00     0.064 A 
ATOM     64  C   UNL     1      -4.618  17.926   1.188  1.00  0.00     0.173 A 
ATOM     65  C   UNL     1      -5.872  16.978  -0.632  1.00  0.00     0.173 A 
ATOM     66  F   UNL     1      -4.099  17.851   2.423  1.00  0.00    -0.203 F 
ATOM     67  C   UNL     1      -4.445  19.098   0.458  1.00  0.00     0.198 A 
ATOM     68  C   UNL     1      -5.679  18.145  -1.368  1.00  0.00     0.198 A 
ATOM     69  F   UNL     1      -6.566  15.971  -1.182  1.00  0.00    -0.203 F 
ATOM     70  F   UNL     1      -3.777  20.128   0.995  1.00  0.00    -0.200 F 
ATOM     71  C   UNL     1      -4.977  19.207  -0.818  1.00  0.00     0.200 A 
ATOM     72  F   UNL     1      -6.179  18.244  -2.607  1.00  0.00    -0.200 F 
ATOM     73  F   UNL     1      -4.814  20.339  -1.518  1.00  0.00    -0.200 F 
ENDBRANCH  49  63
BRANCH  50  74
ATOM     74  C   UNL     1      -7.095   8.687   6.125  1.00  0.00     0.064 A 
ATOM     75  C   UNL     1      -6.091   8.155   6.948  1.00  0.00     0.173 A 
ATOM     76  C   UNL     1      -8.342   8.048   6.120  1.00  0.00     0.173 A 
ATOM     77  F   UNL     1      -4.881   8.731   6.991  1.00  0.00    -0.203 F 
ATOM     78  C   UNL     1      -6.323   7.022   7.725  1.00  0.00     0.198 A 
ATOM     79  C   UNL     1      -8.581   6.931   6.918  1.00  0.00     0.198 A 
ATOM     80  F   UNL     1      -9.340   8.535   5.368  1.00  0.00    -0.203 F 
ATOM     81  F   UNL     1      -5.340   6.522   8.486  1.00  0.00    -0.200 F 
ATOM     82  C   UNL     1      -7.570   6.415   7.715  1.00  0.00     0.200 A 
ATOM     83  F   UNL     1      -9.795   6.365   6.928  1.00  0.00    -0.200 F 
ATOM     84  F   UNL     1      -7.799   5.339   8.479  1.00  0.00    -0.200 F 
ENDBRANCH  50  74
BRANCH  62  85
ATOM     85  C   UNL     1      -9.452  15.248   6.337  1.00  0.00     0.064 A 
ATOM     86  C   UNL     1     -10.710  15.656   5.867  1.00  0.00     0.173 A 
ATOM     87  C   UNL     1      -9.100  15.584   7.652  1.00  0.00     0.173 A 
ATOM     88  F   UNL     1     -11.090  15.369   4.613  1.00  0.00    -0.203 F 
ATOM     89  C   UNL     1     -11.576  16.383   6.680  1.00  0.00     0.198 A 
ATOM     90  C   UNL     1      -9.979  16.287   8.470  1.00  0.00     0.198 A 
ATOM     91  F   UNL     1      -7.912  15.206   8.149  1.00  0.00    -0.203 F 
ATOM     92  F   UNL     1     -12.760  16.789   6.201  1.00  0.00    -0.200 F 
ATOM     93  C   UNL     1     -11.212  16.693   7.981  1.00  0.00     0.200 A 
ATOM     94  F   UNL     1      -9.635  16.566   9.735  1.00  0.00    -0.200 F 
ATOM     95  F   UNL     1     -12.051  17.382   8.767  1.00  0.00    -0.200 F 
ENDBRANCH  62  85
ENDBRANCH  36  37
ENDBRANCH  29  31
ENDBRANCH  28  29
ENDBRANCH  27  28
ENDBRANCH  26  27
ENDBRANCH  25  26
ENDBRANCH   1  25
TORSDOF 17
