REMARK SMILES Cc1nc(Oc2ccc(F)cc2)c(C(=O)OCCOCCOC(=O)c2ccc(-c3c4nc(c(-c5c(F)c(F)c(F)c(F)c5F)c5ccc([nH]5)c(-c5c(F)c(F)c(F)c(F)c5F)c5nc(c(-c6c(F)c(F)c(F)c(F)c6F)c6ccc3[nH]6)C=C5)C=C4)cc2)c(C)c1Cl
REMARK SMILES IDX 19 1 18 2 17 3 16 4 14 5 15 6 13 7 1 8 2 9 3 10 90 11 4 12
REMARK SMILES IDX 88 13 91 14 89 15 5 16 6 17 7 18 12 19 8 20 11 21 9 22 10 23
REMARK SMILES IDX 20 24 21 25 22 26 23 27 24 28 25 29 26 30 87 31 27 32 86 33
REMARK SMILES IDX 28 34 29 35 30 36 80 37 31 38 85 39 79 40 81 41 32 42 84 43
REMARK SMILES IDX 78 44 77 45 33 47 65 48 45 49 64 50 46 51 49 52 63 53 82 54
REMARK SMILES IDX 47 55 48 56 62 58 83 59 50 60 34 61 35 62 43 63 36 64 37 65
REMARK SMILES IDX 41 66 44 67 38 68 39 69 42 70 40 71 66 72 67 73 75 74 68 75
REMARK SMILES IDX 69 76 73 77 76 78 70 79 71 80 74 81 72 82 51 83 52 84 60 85
REMARK SMILES IDX 53 86 54 87 58 88 61 89 55 90 56 91 59 92 57 93
REMARK H PARENT 81 46 49 57
REMARK Flexibility Score: inf
ROOT
ATOM      1  O   UNL     1      -2.145  -6.775   3.517  1.00  0.00    -0.374 OA
ENDROOT
BRANCH   1   2
ATOM      2  C   UNL     1      -1.900  -6.218   4.813  1.00  0.00     0.202 C 
BRANCH   2   3
ATOM      3  C   UNL     1      -0.539  -5.565   5.032  1.00  0.00     0.261 C 
BRANCH   3   4
ATOM      4  O   UNL     1      -0.470  -4.432   4.165  1.00  0.00    -0.459 OA
BRANCH   4   5
ATOM      5  C   UNL     1       0.737  -3.864   4.009  1.00  0.00     0.344 C 
ATOM      6  O   UNL     1       1.734  -4.022   4.685  1.00  0.00    -0.246 OA
BRANCH   5   7
ATOM      7  C   UNL     1       0.618  -2.979   2.846  1.00  0.00     0.127 A 
ATOM      8  C   UNL     1       0.907  -0.190  -0.326  1.00  0.00     0.068 C 
ATOM      9  C   UNL     1       0.676  -1.160   0.799  1.00  0.00     0.060 A 
ATOM     10  N   UNL     1       1.322  -2.349   0.652  1.00  0.00    -0.216 NA
ATOM     11  C   UNL     1      -0.114  -0.867   1.915  1.00  0.00     0.066 A 
ATOM     12  C   UNL     1       1.289  -3.260   1.656  1.00  0.00     0.234 A 
ATOM     13  C   UNL     1      -0.141  -1.784   2.977  1.00  0.00    -0.011 A 
ATOM     14  Cl  UNL     1      -1.020   0.607   1.991  1.00  0.00    -0.082 Cl
ATOM     15  C   UNL     1      -0.975  -1.546   4.216  1.00  0.00     0.047 C 
BRANCH  12  16
ATOM     16  O   UNL     1       2.072  -4.354   1.359  1.00  0.00    -0.438 OA
BRANCH  16  17
ATOM     17  C   UNL     1       1.751  -5.601   1.827  1.00  0.00     0.129 A 
ATOM     18  C   UNL     1       2.583  -6.154   2.804  1.00  0.00     0.050 A 
ATOM     19  C   UNL     1       0.723  -6.367   1.277  1.00  0.00     0.050 A 
ATOM     20  C   UNL     1       2.311  -7.417   3.330  1.00  0.00     0.043 A 
ATOM     21  C   UNL     1       0.462  -7.645   1.794  1.00  0.00     0.043 A 
ATOM     22  C   UNL     1       1.239  -8.145   2.834  1.00  0.00     0.123 A 
ATOM     23  F   UNL     1       0.940  -9.332   3.377  1.00  0.00    -0.207 F 
ENDBRANCH  16  17
ENDBRANCH  12  16
ENDBRANCH   5   7
ENDBRANCH   4   5
ENDBRANCH   3   4
ENDBRANCH   2   3
ENDBRANCH   1   2
BRANCH   1  24
ATOM     24  C   UNL     1      -2.359  -5.876   2.428  1.00  0.00     0.202 C 
BRANCH  24  25
ATOM     25  C   UNL     1      -3.767  -5.315   2.228  1.00  0.00     0.261 C 
BRANCH  25  26
ATOM     26  O   UNL     1      -4.319  -4.763   3.420  1.00  0.00    -0.460 OA
BRANCH  26  27
ATOM     27  C   UNL     1      -5.053  -5.641   4.141  1.00  0.00     0.338 C 
ATOM     28  O   UNL     1      -5.348  -6.792   3.872  1.00  0.00    -0.246 OA
BRANCH  27  29
ATOM     29  C   UNL     1      -5.306  -5.008   5.438  1.00  0.00     0.060 A 
ATOM     30  C   UNL     1      -4.861  -5.660   6.595  1.00  0.00     0.016 A 
ATOM     31  C   UNL     1      -5.946  -3.769   5.494  1.00  0.00     0.016 A 
ATOM     32  C   UNL     1      -5.068  -5.068   7.831  1.00  0.00     0.010 A 
ATOM     33  C   UNL     1      -6.180  -3.191   6.733  1.00  0.00     0.010 A 
ATOM     34  C   UNL     1      -5.766  -3.856   7.899  1.00  0.00    -0.014 A 
BRANCH  34  35
ATOM     35  C   UNL     1      -6.281  -3.398   9.199  1.00  0.00     0.031 A 
ATOM     36  C   UNL     1      -7.645  -3.869   9.600  1.00  0.00     0.074 A 
ATOM     37  C   UNL     1      -5.544  -2.594   9.979  1.00  0.00     0.049 A 
ATOM     38  N   UNL     1      -8.332  -3.595  10.675  1.00  0.00    -0.248 NA
ATOM     39  C   UNL     1      -8.331  -4.771   8.657  1.00  0.00     0.031 C 
ATOM     40  C   UNL     1      -4.196  -2.121   9.669  1.00  0.00     0.029 A 
ATOM     41  N   UNL     1      -5.833  -2.030  11.192  1.00  0.00    -0.354 N 
ATOM     42  C   UNL     1      -9.518  -4.303  10.544  1.00  0.00     0.074 A 
ATOM     43  C   UNL     1      -9.485  -4.981   9.270  1.00  0.00     0.031 C 
ATOM     44  C   UNL     1      -3.775  -1.330  10.670  1.00  0.00     0.029 A 
ATOM     45  C   UNL     1      -4.833  -1.225  11.673  1.00  0.00     0.049 A 
ATOM     46  H   UNL     1      -6.678  -2.187  11.672  1.00  0.00     0.167 HD
ATOM     47  C   UNL     1     -10.536  -4.390  11.429  1.00  0.00     0.037 A 
ATOM     48  C   UNL     1      -4.796  -0.486  12.798  1.00  0.00     0.037 A 
ATOM     49  C   UNL     1     -10.555  -3.686  12.680  1.00  0.00     0.049 A 
ATOM     50  C   UNL     1      -5.985  -0.524  13.722  1.00  0.00     0.074 A 
ATOM     51  C   UNL     1     -11.533  -3.687  13.655  1.00  0.00     0.029 A 
ATOM     52  N   UNL     1      -9.543  -2.842  13.119  1.00  0.00    -0.354 N 
ATOM     53  N   UNL     1      -7.093  -1.219  13.615  1.00  0.00    -0.248 NA
ATOM     54  C   UNL     1      -5.923   0.321  14.922  1.00  0.00     0.031 C 
ATOM     55  C   UNL     1     -11.136  -2.805  14.663  1.00  0.00     0.029 A 
ATOM     56  C   UNL     1      -9.885  -2.296  14.342  1.00  0.00     0.049 A 
ATOM     57  H   UNL     1      -8.707  -2.660  12.632  1.00  0.00     0.167 HD
ATOM     58  C   UNL     1      -7.847  -0.919  14.741  1.00  0.00     0.074 A 
ATOM     59  C   UNL     1      -7.065   0.017  15.524  1.00  0.00     0.031 C 
ATOM     60  C   UNL     1      -9.073  -1.375  15.098  1.00  0.00     0.037 A 
BRANCH  47  61
ATOM     61  C   UNL     1     -11.699  -5.262  11.067  1.00  0.00     0.064 A 
ATOM     62  C   UNL     1     -11.585  -6.660  11.047  1.00  0.00     0.173 A 
ATOM     63  C   UNL     1     -12.948  -4.700  10.768  1.00  0.00     0.173 A 
ATOM     64  F   UNL     1     -10.405  -7.246  11.302  1.00  0.00    -0.203 F 
ATOM     65  C   UNL     1     -12.677  -7.463  10.729  1.00  0.00     0.198 A 
ATOM     66  C   UNL     1     -14.045  -5.506  10.478  1.00  0.00     0.198 A 
ATOM     67  F   UNL     1     -13.108  -3.368  10.766  1.00  0.00    -0.203 F 
ATOM     68  F   UNL     1     -12.536  -8.795  10.678  1.00  0.00    -0.200 F 
ATOM     69  C   UNL     1     -13.908  -6.886  10.455  1.00  0.00     0.200 A 
ATOM     70  F   UNL     1     -15.236  -4.948  10.220  1.00  0.00    -0.200 F 
ATOM     71  F   UNL     1     -14.962  -7.661  10.162  1.00  0.00    -0.200 F 
ENDBRANCH  47  61
BRANCH  48  72
ATOM     72  C   UNL     1      -3.589   0.320  13.113  1.00  0.00     0.064 A 
ATOM     73  C   UNL     1      -2.749  -0.032  14.178  1.00  0.00     0.173 A 
ATOM     74  C   UNL     1      -3.230   1.436  12.342  1.00  0.00     0.173 A 
ATOM     75  F   UNL     1      -3.058  -1.081  14.955  1.00  0.00    -0.203 F 
ATOM     76  C   UNL     1      -1.601   0.704  14.464  1.00  0.00     0.198 A 
ATOM     77  C   UNL     1      -2.069   2.157  12.614  1.00  0.00     0.198 A 
ATOM     78  F   UNL     1      -3.998   1.814  11.309  1.00  0.00    -0.203 F 
ATOM     79  F   UNL     1      -0.830   0.361  15.505  1.00  0.00    -0.200 F 
ATOM     80  C   UNL     1      -1.257   1.792  13.677  1.00  0.00     0.200 A 
ATOM     81  F   UNL     1      -1.733   3.199  11.842  1.00  0.00    -0.200 F 
ATOM     82  F   UNL     1      -0.145   2.491  13.944  1.00  0.00    -0.200 F 
ENDBRANCH  48  72
BRANCH  60  83
ATOM     83  C   UNL     1      -9.645  -0.889  16.396  1.00  0.00     0.064 A 
ATOM     84  C   UNL     1     -10.157   0.409  16.527  1.00  0.00     0.173 A 
ATOM     85  C   UNL     1      -9.790  -1.771  17.478  1.00  0.00     0.173 A 
ATOM     86  F   UNL     1     -10.033   1.288  15.521  1.00  0.00    -0.203 F 
ATOM     87  C   UNL     1     -10.791   0.809  17.699  1.00  0.00     0.198 A 
ATOM     88  C   UNL     1     -10.451  -1.377  18.636  1.00  0.00     0.198 A 
ATOM     89  F   UNL     1      -9.327  -3.027  17.394  1.00  0.00    -0.203 F 
ATOM     90  F   UNL     1     -11.255   2.061  17.812  1.00  0.00    -0.200 F 
ATOM     91  C   UNL     1     -10.950  -0.087  18.746  1.00  0.00     0.200 A 
ATOM     92  F   UNL     1     -10.623  -2.250  19.638  1.00  0.00    -0.200 F 
ATOM     93  F   UNL     1     -11.588   0.291  19.862  1.00  0.00    -0.200 F 
ENDBRANCH  60  83
ENDBRANCH  34  35
ENDBRANCH  27  29
ENDBRANCH  26  27
ENDBRANCH  25  26
ENDBRANCH  24  25
ENDBRANCH   1  24
TORSDOF 16
