REMARK SMILES CCC(CC)(NC(=O)c1ccc(C)s1)C(=O)OCCOCCOC(=O)c1ccc(-c2c3nc(c(-c4c(F)c(F)c(F)c(F)c4F)c4ccc([nH]4)c(-c4c(F)c(F)c(F)c(F)c4F)c4nc(c(-c5c(F)c(F)c(F)c(F)c5F)c5ccc2[nH]5)C=C4)C=C3)cc1
REMARK SMILES IDX 20 1 19 2 18 3 17 4 15 5 16 6 3 7 2 8 1 9 4 10 5 11 6 12
REMARK SMILES IDX 7 13 8 15 9 16 10 17 14 18 11 19 12 20 13 21 21 22 22 23
REMARK SMILES IDX 23 24 24 25 25 26 26 27 27 28 88 29 28 30 87 31 29 32 30 33
REMARK SMILES IDX 31 34 81 35 32 36 86 37 80 38 82 39 33 40 85 41 79 42 78 43
REMARK SMILES IDX 34 45 66 46 46 47 65 48 47 49 50 50 64 51 83 52 48 53 49 54
REMARK SMILES IDX 63 56 84 57 51 58 35 59 36 60 44 61 37 62 38 63 42 64 45 65
REMARK SMILES IDX 39 66 40 67 43 68 41 69 67 70 68 71 76 72 69 73 70 74 74 75
REMARK SMILES IDX 77 76 71 77 72 78 75 79 73 80 52 81 53 82 61 83 54 84 55 85
REMARK SMILES IDX 59 86 62 87 56 88 57 89 60 90 58 91
REMARK H PARENT 6 14 82 44 50 55
REMARK Flexibility Score: inf
ROOT
ATOM      1  O   UNL     1       4.960   2.828   1.097  1.00  0.00    -0.374 OA
ENDROOT
BRANCH   1   2
ATOM      2  C   UNL     1       5.154   3.096  -0.296  1.00  0.00     0.202 C 
BRANCH   2   3
ATOM      3  C   UNL     1       4.356   2.135  -1.173  1.00  0.00     0.261 C 
BRANCH   3   4
ATOM      4  O   UNL     1       2.956   2.361  -0.940  1.00  0.00    -0.461 OA
BRANCH   4   5
ATOM      5  C   UNL     1       2.132   1.335  -1.242  1.00  0.00     0.331 C 
ATOM      6  O   UNL     1       2.508   0.296  -1.777  1.00  0.00    -0.249 OA
BRANCH   5   7
ATOM      7  C   UNL     1       0.661   1.590  -0.790  1.00  0.00     0.137 C 
BRANCH   7   8
ATOM      8  C   UNL     1       0.429   0.701   0.478  1.00  0.00     0.037 C 
ATOM      9  C   UNL     1       0.627  -0.802   0.355  1.00  0.00     0.007 C 
ENDBRANCH   7   8
BRANCH   7  10
ATOM     10  C   UNL     1      -0.248   1.165  -1.968  1.00  0.00     0.037 C 
ATOM     11  C   UNL     1      -1.721   1.512  -1.820  1.00  0.00     0.007 C 
ENDBRANCH   7  10
BRANCH   7  12
ATOM     12  N   UNL     1       0.315   2.965  -0.302  1.00  0.00    -0.335 N 
ATOM     13  C   UNL     1       0.351   4.230  -0.817  1.00  0.00     0.262 C 
ATOM     14  H   UNL     1      -0.023   2.953   0.623  1.00  0.00     0.165 HD
ATOM     15  O   UNL     1      -0.252   5.093  -0.176  1.00  0.00    -0.268 OA
BRANCH  13  16
ATOM     16  C   UNL     1       1.166   4.522  -1.961  1.00  0.00     0.092 A 
ATOM     17  C   UNL     1       1.125   4.082  -3.265  1.00  0.00     0.026 A 
ATOM     18  S   UNL     1       2.414   5.667  -1.732  1.00  0.00    -0.135 S 
ATOM     19  C   UNL     1       2.270   4.492  -4.001  1.00  0.00     0.016 A 
ATOM     20  C   UNL     1       3.086   5.306  -3.252  1.00  0.00     0.002 A 
ATOM     21  C   UNL     1       4.385   5.888  -3.622  1.00  0.00     0.056 C 
ENDBRANCH  13  16
ENDBRANCH   7  12
ENDBRANCH   5   7
ENDBRANCH   4   5
ENDBRANCH   3   4
ENDBRANCH   2   3
ENDBRANCH   1   2
BRANCH   1  22
ATOM     22  C   UNL     1       3.824   3.478   1.677  1.00  0.00     0.202 C 
BRANCH  22  23
ATOM     23  C   UNL     1       4.178   4.814   2.332  1.00  0.00     0.261 C 
BRANCH  23  24
ATOM     24  O   UNL     1       4.529   5.795   1.340  1.00  0.00    -0.460 OA
BRANCH  24  25
ATOM     25  C   UNL     1       5.853   6.011   1.149  1.00  0.00     0.338 C 
ATOM     26  O   UNL     1       6.778   5.526   1.780  1.00  0.00    -0.246 OA
BRANCH  25  27
ATOM     27  C   UNL     1       6.048   6.857  -0.056  1.00  0.00     0.060 A 
ATOM     28  C   UNL     1       7.206   6.678  -0.829  1.00  0.00     0.016 A 
ATOM     29  C   UNL     1       5.103   7.811  -0.437  1.00  0.00     0.016 A 
ATOM     30  C   UNL     1       7.427   7.454  -1.977  1.00  0.00     0.010 A 
ATOM     31  C   UNL     1       5.315   8.571  -1.590  1.00  0.00     0.010 A 
ATOM     32  C   UNL     1       6.486   8.415  -2.362  1.00  0.00    -0.014 A 
BRANCH  32  33
ATOM     33  C   UNL     1       6.726   9.389  -3.462  1.00  0.00     0.031 A 
ATOM     34  C   UNL     1       6.995  10.815  -3.083  1.00  0.00     0.074 A 
ATOM     35  C   UNL     1       6.567   9.077  -4.763  1.00  0.00     0.049 A 
ATOM     36  N   UNL     1       7.051  11.880  -3.840  1.00  0.00    -0.248 NA
ATOM     37  C   UNL     1       7.228  11.071  -1.653  1.00  0.00     0.031 C 
ATOM     38  C   UNL     1       6.369   7.740  -5.303  1.00  0.00     0.029 A 
ATOM     39  N   UNL     1       6.455   9.893  -5.865  1.00  0.00    -0.354 N 
ATOM     40  C   UNL     1       7.354  12.924  -2.982  1.00  0.00     0.074 A 
ATOM     41  C   UNL     1       7.367  12.386  -1.639  1.00  0.00     0.031 C 
ATOM     42  C   UNL     1       5.979   7.831  -6.587  1.00  0.00     0.029 A 
ATOM     43  C   UNL     1       5.981   9.237  -6.979  1.00  0.00     0.049 A 
ATOM     44  H   UNL     1       6.690  10.849  -5.858  1.00  0.00     0.167 HD
ATOM     45  C   UNL     1       7.652  14.207  -3.289  1.00  0.00     0.037 A 
ATOM     46  C   UNL     1       5.588   9.717  -8.175  1.00  0.00     0.037 A 
ATOM     47  C   UNL     1       7.633  14.745  -4.620  1.00  0.00     0.049 A 
ATOM     48  C   UNL     1       5.803  11.172  -8.489  1.00  0.00     0.074 A 
ATOM     49  C   UNL     1       8.000  16.007  -5.049  1.00  0.00     0.029 A 
ATOM     50  N   UNL     1       7.196  14.050  -5.738  1.00  0.00    -0.354 N 
ATOM     51  N   UNL     1       6.234  12.128  -7.705  1.00  0.00    -0.248 NA
ATOM     52  C   UNL     1       5.545  11.600  -9.872  1.00  0.00     0.031 C 
ATOM     53  C   UNL     1       7.739  16.092  -6.422  1.00  0.00     0.029 A 
ATOM     54  C   UNL     1       7.252  14.868  -6.854  1.00  0.00     0.049 A 
ATOM     55  H   UNL     1       6.891  13.114  -5.738  1.00  0.00     0.167 HD
ATOM     56  C   UNL     1       6.377  13.248  -8.513  1.00  0.00     0.074 A 
ATOM     57  C   UNL     1       5.950  12.863  -9.842  1.00  0.00     0.031 C 
ATOM     58  C   UNL     1       6.855  14.472  -8.182  1.00  0.00     0.037 A 
BRANCH  45  59
ATOM     59  C   UNL     1       8.037  15.091  -2.143  1.00  0.00     0.064 A 
ATOM     60  C   UNL     1       9.241  14.892  -1.446  1.00  0.00     0.173 A 
ATOM     61  C   UNL     1       7.176  16.101  -1.698  1.00  0.00     0.173 A 
ATOM     62  F   UNL     1      10.089  13.923  -1.826  1.00  0.00    -0.203 F 
ATOM     63  C   UNL     1       9.539  15.634  -0.309  1.00  0.00     0.198 A 
ATOM     64  C   UNL     1       7.494  16.864  -0.578  1.00  0.00     0.198 A 
ATOM     65  F   UNL     1       6.017  16.331  -2.332  1.00  0.00    -0.203 F 
ATOM     66  F   UNL     1      10.652  15.369   0.389  1.00  0.00    -0.200 F 
ATOM     67  C   UNL     1       8.665  16.619   0.124  1.00  0.00     0.200 A 
ATOM     68  F   UNL     1       6.653  17.821  -0.162  1.00  0.00    -0.200 F 
ATOM     69  F   UNL     1       8.943  17.320   1.232  1.00  0.00    -0.200 F 
ENDBRANCH  45  59
BRANCH  46  70
ATOM     70  C   UNL     1       5.011   8.802  -9.191  1.00  0.00     0.064 A 
ATOM     71  C   UNL     1       5.779   8.343 -10.269  1.00  0.00     0.173 A 
ATOM     72  C   UNL     1       3.674   8.387  -9.117  1.00  0.00     0.173 A 
ATOM     73  F   UNL     1       7.057   8.732 -10.390  1.00  0.00    -0.203 F 
ATOM     74  C   UNL     1       5.227   7.518 -11.246  1.00  0.00     0.198 A 
ATOM     75  C   UNL     1       3.126   7.550 -10.088  1.00  0.00     0.198 A 
ATOM     76  F   UNL     1       2.897   8.801  -8.105  1.00  0.00    -0.203 F 
ATOM     77  F   UNL     1       5.975   7.121 -12.285  1.00  0.00    -0.200 F 
ATOM     78  C   UNL     1       3.901   7.121 -11.155  1.00  0.00     0.200 A 
ATOM     79  F   UNL     1       1.845   7.166  -9.997  1.00  0.00    -0.200 F 
ATOM     80  F   UNL     1       3.370   6.332 -12.099  1.00  0.00    -0.200 F 
ENDBRANCH  46  70
BRANCH  58  81
ATOM     81  C   UNL     1       7.025  15.479  -9.280  1.00  0.00     0.064 A 
ATOM     82  C   UNL     1       5.933  16.141  -9.856  1.00  0.00     0.173 A 
ATOM     83  C   UNL     1       8.314  15.844  -9.700  1.00  0.00     0.173 A 
ATOM     84  F   UNL     1       4.682  15.813  -9.501  1.00  0.00    -0.203 F 
ATOM     85  C   UNL     1       6.125  17.131 -10.816  1.00  0.00     0.198 A 
ATOM     86  C   UNL     1       8.503  16.852 -10.640  1.00  0.00     0.198 A 
ATOM     87  F   UNL     1       9.392  15.239  -9.179  1.00  0.00    -0.203 F 
ATOM     88  F   UNL     1       5.066  17.735 -11.373  1.00  0.00    -0.200 F 
ATOM     89  C   UNL     1       7.409  17.495 -11.197  1.00  0.00     0.200 A 
ATOM     90  F   UNL     1       9.744  17.210 -10.997  1.00  0.00    -0.200 F 
ATOM     91  F   UNL     1       7.591  18.464 -12.105  1.00  0.00    -0.200 F 
ENDBRANCH  58  81
ENDBRANCH  32  33
ENDBRANCH  25  27
ENDBRANCH  24  25
ENDBRANCH  23  24
ENDBRANCH  22  23
ENDBRANCH   1  22
TORSDOF 18
