REMARK SMILES C[C@@H](CCC(=O)OCCOCCOC(=O)c1ccc(-c2c3nc(c(-c4c(F)c(F)c(F)c(F)c4F)c4ccc([nH]4)c(-c4c(F)c(F)c(F)c(F)c4F)c4nc(c(-c5c(F)c(F)c(F)c(F)c5F)c5ccc2[nH]5)C=C4)C=C3)cc1)NC(=O)Nc1ccc(Cl)c(Br)c1
REMARK SMILES IDX 9 1 8 2 7 3 5 4 6 5 4 6 3 7 2 8 1 9 79 10 80 11 81 13 82 14
REMARK SMILES IDX 83 16 84 17 90 18 85 19 88 20 86 21 89 22 87 23 10 24 11 25
REMARK SMILES IDX 12 26 13 27 14 28 15 29 16 30 17 31 78 32 18 33 77 34 19 35
REMARK SMILES IDX 20 36 21 37 71 38 22 39 76 40 70 41 72 42 23 43 75 44 69 45
REMARK SMILES IDX 68 46 24 48 56 49 36 50 55 51 37 52 40 53 54 54 73 55 38 56
REMARK SMILES IDX 39 57 53 59 74 60 41 61 25 62 26 63 34 64 27 65 28 66 32 67
REMARK SMILES IDX 35 68 29 69 30 70 33 71 31 72 57 73 58 74 66 75 59 76 60 77
REMARK SMILES IDX 64 78 67 79 61 80 62 81 65 82 63 83 42 84 43 85 51 86 44 87
REMARK SMILES IDX 45 88 49 89 52 90 46 91 47 92 50 93 48 94
REMARK H PARENT 79 12 82 15 72 47 40 58
REMARK Flexibility Score: inf
ROOT
ATOM      1  C   UNL     1      -3.459   2.266  -1.123  1.00  0.00     0.202 C 
ENDROOT
BRANCH   1   2
ATOM      2  C   UNL     1      -2.856   1.316  -2.161  1.00  0.00     0.261 C 
BRANCH   2   3
ATOM      3  O   UNL     1      -1.430   1.180  -1.972  1.00  0.00    -0.463 OA
BRANCH   3   4
ATOM      4  C   UNL     1      -0.631   1.858  -2.835  1.00  0.00     0.305 C 
ATOM      5  O   UNL     1      -1.024   2.527  -3.780  1.00  0.00    -0.252 OA
BRANCH   4   6
ATOM      6  C   UNL     1       0.838   1.633  -2.545  1.00  0.00     0.125 C 
BRANCH   6   7
ATOM      7  C   UNL     1       1.327   1.913  -1.119  1.00  0.00     0.036 C 
BRANCH   7   8
ATOM      8  C   UNL     1       1.036   0.856  -0.036  1.00  0.00     0.081 C 
ATOM      9  C   UNL     1       1.247  -0.586  -0.490  1.00  0.00     0.031 C 
BRANCH   8  10
ATOM     10  N   UNL     1      -0.313   1.019   0.487  1.00  0.00    -0.335 N 
ATOM     11  C   UNL     1      -0.834   0.723   1.688  1.00  0.00     0.319 C 
ATOM     12  H   UNL     1      -0.953   1.414  -0.149  1.00  0.00     0.165 HD
ATOM     13  O   UNL     1      -1.971   0.248   1.700  1.00  0.00    -0.248 OA
ATOM     14  N   UNL     1      -0.151   0.841   2.845  1.00  0.00    -0.308 N 
ATOM     15  H   UNL     1      -0.552   0.343   3.594  1.00  0.00     0.171 HD
BRANCH  14  16
ATOM     16  C   UNL     1       1.016   1.533   3.191  1.00  0.00     0.044 A 
ATOM     17  C   UNL     1       1.764   1.022   4.254  1.00  0.00     0.028 A 
ATOM     18  C   UNL     1       1.480   2.656   2.505  1.00  0.00     0.043 A 
ATOM     19  C   UNL     1       3.048   1.511   4.504  1.00  0.00     0.024 A 
ATOM     20  C   UNL     1       2.772   3.140   2.742  1.00  0.00     0.038 A 
ATOM     21  C   UNL     1       3.572   2.542   3.721  1.00  0.00     0.055 A 
ATOM     22  Br  UNL     1       3.390   4.553   1.633  1.00  0.00    -0.049 Br
ATOM     23  Cl  UNL     1       5.216   2.992   3.992  1.00  0.00    -0.083 Cl
ENDBRANCH  14  16
ENDBRANCH   8  10
ENDBRANCH   7   8
ENDBRANCH   6   7
ENDBRANCH   4   6
ENDBRANCH   3   4
ENDBRANCH   2   3
ENDBRANCH   1   2
BRANCH   1  24
ATOM     24  O   UNL     1      -3.171   3.640  -1.389  1.00  0.00    -0.374 OA
BRANCH  24  25
ATOM     25  C   UNL     1      -1.987   4.145  -0.772  1.00  0.00     0.202 C 
BRANCH  25  26
ATOM     26  C   UNL     1      -2.237   4.806   0.586  1.00  0.00     0.261 C 
BRANCH  26  27
ATOM     27  O   UNL     1      -2.608   3.824   1.569  1.00  0.00    -0.460 OA
BRANCH  27  28
ATOM     28  C   UNL     1      -3.942   3.720   1.796  1.00  0.00     0.338 C 
ATOM     29  O   UNL     1      -4.820   4.438   1.365  1.00  0.00    -0.246 OA
BRANCH  28  30
ATOM     30  C   UNL     1      -4.221   2.482   2.559  1.00  0.00     0.060 A 
ATOM     31  C   UNL     1      -5.367   1.755   2.218  1.00  0.00     0.016 A 
ATOM     32  C   UNL     1      -3.394   2.045   3.597  1.00  0.00     0.016 A 
ATOM     33  C   UNL     1      -5.721   0.622   2.951  1.00  0.00     0.010 A 
ATOM     34  C   UNL     1      -3.725   0.881   4.300  1.00  0.00     0.010 A 
ATOM     35  C   UNL     1      -4.923   0.197   4.023  1.00  0.00    -0.014 A 
BRANCH  35  36
ATOM     36  C   UNL     1      -5.463  -0.806   4.981  1.00  0.00     0.031 A 
ATOM     37  C   UNL     1      -5.872  -0.335   6.355  1.00  0.00     0.074 A 
ATOM     38  C   UNL     1      -5.653  -2.094   4.634  1.00  0.00     0.049 A 
ATOM     39  N   UNL     1      -6.410  -1.005   7.344  1.00  0.00    -0.248 NA
ATOM     40  C   UNL     1      -5.616   1.081   6.666  1.00  0.00     0.031 C 
ATOM     41  C   UNL     1      -5.296  -2.690   3.348  1.00  0.00     0.029 A 
ATOM     42  N   UNL     1      -6.215  -3.131   5.340  1.00  0.00    -0.354 N 
ATOM     43  C   UNL     1      -6.531  -0.097   8.389  1.00  0.00     0.074 A 
ATOM     44  C   UNL     1      -5.948   1.146   7.944  1.00  0.00     0.031 C 
ATOM     45  C   UNL     1      -5.677  -3.981   3.345  1.00  0.00     0.029 A 
ATOM     46  C   UNL     1      -6.290  -4.306   4.632  1.00  0.00     0.049 A 
ATOM     47  H   UNL     1      -6.534  -3.041   6.267  1.00  0.00     0.167 HD
ATOM     48  C   UNL     1      -7.114  -0.264   9.599  1.00  0.00     0.037 A 
ATOM     49  C   UNL     1      -6.809  -5.500   4.981  1.00  0.00     0.037 A 
ATOM     50  C   UNL     1      -7.749  -1.478  10.030  1.00  0.00     0.049 A 
ATOM     51  C   UNL     1      -7.459  -5.662   6.335  1.00  0.00     0.074 A 
ATOM     52  C   UNL     1      -8.409  -1.732  11.218  1.00  0.00     0.029 A 
ATOM     53  N   UNL     1      -7.810  -2.640   9.278  1.00  0.00    -0.354 N 
ATOM     54  N   UNL     1      -7.622  -4.780   7.292  1.00  0.00    -0.248 NA
ATOM     55  C   UNL     1      -8.016  -6.988   6.648  1.00  0.00     0.031 C 
ATOM     56  C   UNL     1      -8.836  -3.064  11.202  1.00  0.00     0.029 A 
ATOM     57  C   UNL     1      -8.488  -3.621   9.982  1.00  0.00     0.049 A 
ATOM     58  H   UNL     1      -7.429  -2.752   8.377  1.00  0.00     0.167 HD
ATOM     59  C   UNL     1      -8.337  -5.427   8.293  1.00  0.00     0.074 A 
ATOM     60  C   UNL     1      -8.583  -6.774   7.826  1.00  0.00     0.031 C 
ATOM     61  C   UNL     1      -8.755  -4.947   9.491  1.00  0.00     0.037 A 
BRANCH  48  62
ATOM     62  C   UNL     1      -7.088   0.907  10.539  1.00  0.00     0.064 A 
ATOM     63  C   UNL     1      -7.835   2.070  10.292  1.00  0.00     0.173 A 
ATOM     64  C   UNL     1      -6.299   0.867  11.697  1.00  0.00     0.173 A 
ATOM     65  F   UNL     1      -8.590   2.165   9.187  1.00  0.00    -0.203 F 
ATOM     66  C   UNL     1      -7.760   3.165  11.148  1.00  0.00     0.198 A 
ATOM     67  C   UNL     1      -6.255   1.951  12.570  1.00  0.00     0.198 A 
ATOM     68  F   UNL     1      -5.567  -0.220  11.982  1.00  0.00    -0.203 F 
ATOM     69  F   UNL     1      -8.427   4.290  10.854  1.00  0.00    -0.200 F 
ATOM     70  C   UNL     1      -6.974   3.102  12.289  1.00  0.00     0.200 A 
ATOM     71  F   UNL     1      -5.504   1.886  13.678  1.00  0.00    -0.200 F 
ATOM     72  F   UNL     1      -6.901   4.158  13.111  1.00  0.00    -0.200 F 
ENDBRANCH  48  62
BRANCH  49  73
ATOM     73  C   UNL     1      -6.786  -6.641   4.026  1.00  0.00     0.064 A 
ATOM     74  C   UNL     1      -7.972  -7.131   3.459  1.00  0.00     0.173 A 
ATOM     75  C   UNL     1      -5.590  -7.295   3.698  1.00  0.00     0.173 A 
ATOM     76  F   UNL     1      -9.146  -6.558   3.763  1.00  0.00    -0.203 F 
ATOM     77  C   UNL     1      -7.967  -8.250   2.628  1.00  0.00     0.198 A 
ATOM     78  C   UNL     1      -5.582  -8.397   2.844  1.00  0.00     0.198 A 
ATOM     79  F   UNL     1      -4.428  -6.870   4.215  1.00  0.00    -0.203 F 
ATOM     80  F   UNL     1      -9.122  -8.733   2.150  1.00  0.00    -0.200 F 
ATOM     81  C   UNL     1      -6.771  -8.880   2.318  1.00  0.00     0.200 A 
ATOM     82  F   UNL     1      -4.424  -8.999   2.541  1.00  0.00    -0.200 F 
ATOM     83  F   UNL     1      -6.767  -9.960   1.525  1.00  0.00    -0.200 F 
ENDBRANCH  49  73
BRANCH  61  84
ATOM     84  C   UNL     1      -9.583  -5.855  10.355  1.00  0.00     0.064 A 
ATOM     85  C   UNL     1      -9.032  -6.969  11.004  1.00  0.00     0.173 A 
ATOM     86  C   UNL     1     -10.941  -5.573  10.574  1.00  0.00     0.173 A 
ATOM     87  F   UNL     1      -7.741  -7.287  10.821  1.00  0.00    -0.203 F 
ATOM     88  C   UNL     1      -9.816  -7.786  11.814  1.00  0.00     0.198 A 
ATOM     89  C   UNL     1     -11.714  -6.373  11.411  1.00  0.00     0.198 A 
ATOM     90  F   UNL     1     -11.515  -4.512   9.988  1.00  0.00    -0.203 F 
ATOM     91  F   UNL     1      -9.281  -8.875  12.383  1.00  0.00    -0.200 F 
ATOM     92  C   UNL     1     -11.154  -7.484  12.022  1.00  0.00     0.200 A 
ATOM     93  F   UNL     1     -13.002  -6.069  11.624  1.00  0.00    -0.200 F 
ATOM     94  F   UNL     1     -11.905  -8.267  12.809  1.00  0.00    -0.200 F 
ENDBRANCH  61  84
ENDBRANCH  35  36
ENDBRANCH  28  30
ENDBRANCH  27  28
ENDBRANCH  26  27
ENDBRANCH  25  26
ENDBRANCH  24  25
ENDBRANCH   1  24
TORSDOF 18
