REMARK SMILES CCNC(=O)N1CC[C@H](Cc2cccc(C(=O)OCCOCCOC(=O)c3ccc(-c4c5nc(c(-c6c(F)c(F)c(F)c(F)c6F)c6ccc([nH]6)c(-c6c(F)c(F)c(F)c(F)c6F)c6nc(c(-c7c(F)c(F)c(F)c(F)c7F)c7ccc4[nH]7)C=C6)C=C5)cc3)c2)C1
REMARK SMILES IDX 20 1 19 2 18 3 16 4 17 5 15 6 11 7 12 8 90 9 13 10 14 11
REMARK SMILES IDX 10 12 9 13 6 14 7 15 91 16 8 17 4 18 3 19 5 21 2 22 1 23
REMARK SMILES IDX 21 24 22 25 23 26 24 27 25 28 26 29 27 30 28 31 89 32 29 33
REMARK SMILES IDX 88 34 30 35 31 36 32 37 82 38 33 39 87 40 81 41 83 42 34 43
REMARK SMILES IDX 86 44 80 45 79 46 35 48 67 49 47 50 66 51 48 52 51 53 65 54
REMARK SMILES IDX 84 55 49 56 50 57 64 59 85 60 52 61 36 62 37 63 45 64 38 65
REMARK SMILES IDX 39 66 43 67 46 68 40 69 41 70 44 71 42 72 68 73 69 74 77 75
REMARK SMILES IDX 70 76 71 77 75 78 78 79 72 80 73 81 76 82 74 83 53 84 54 85
REMARK SMILES IDX 62 86 55 87 56 88 60 89 63 90 57 91 58 92 61 93 59 94
REMARK H PARENT 3 20 83 47 51 58
REMARK Flexibility Score: inf
ROOT
ATOM      1  C   UNL     1     -10.953  -0.299   3.772  1.00  0.00     0.202 C 
ENDROOT
BRANCH   1   2
ATOM      2  C   UNL     1      -9.880  -1.368   3.540  1.00  0.00     0.261 C 
BRANCH   2   3
ATOM      3  O   UNL     1      -8.701  -0.786   2.963  1.00  0.00    -0.460 OA
BRANCH   3   4
ATOM      4  C   UNL     1      -8.443  -1.142   1.682  1.00  0.00     0.338 C 
ATOM      5  O   UNL     1      -8.993  -2.027   1.042  1.00  0.00    -0.246 OA
BRANCH   4   6
ATOM      6  C   UNL     1      -7.485  -0.185   1.082  1.00  0.00     0.060 A 
ATOM      7  C   UNL     1      -5.577   1.313   1.226  1.00  0.00    -0.047 A 
ATOM      8  C   UNL     1      -5.715   1.590  -0.142  1.00  0.00     0.004 A 
ATOM      9  C   UNL     1      -6.506   0.461   1.844  1.00  0.00     0.019 A 
ATOM     10  C   UNL     1      -6.721   0.981  -0.894  1.00  0.00     0.001 A 
ATOM     11  C   UNL     1      -7.592   0.079  -0.288  1.00  0.00     0.016 A 
BRANCH   7  12
ATOM     12  C   UNL     1      -4.403   1.879   1.996  1.00  0.00     0.041 C 
BRANCH  12  13
ATOM     13  C   UNL     1      -3.666   0.823   2.833  1.00  0.00     0.015 C 
ATOM     14  N   UNL     1      -1.379   0.265   3.072  1.00  0.00    -0.325 N 
ATOM     15  C   UNL     1      -2.090  -0.964   2.786  1.00  0.00     0.121 C 
ATOM     16  C   UNL     1      -2.320   1.325   3.384  1.00  0.00     0.125 C 
ATOM     17  C   UNL     1      -3.293  -0.445   2.034  1.00  0.00     0.027 C 
BRANCH  14  18
ATOM     18  C   UNL     1      -0.042   0.440   3.221  1.00  0.00     0.317 C 
ATOM     19  N   UNL     1       0.804  -0.292   2.454  1.00  0.00    -0.338 N 
ATOM     20  H   UNL     1       1.659  -0.546   2.870  1.00  0.00     0.165 HD
ATOM     21  O   UNL     1       0.433   1.273   3.992  1.00  0.00    -0.249 OA
BRANCH  19  22
ATOM     22  C   UNL     1       0.596  -0.745   1.088  1.00  0.00     0.114 C 
ATOM     23  C   UNL     1       1.280   0.179   0.095  1.00  0.00     0.027 C 
ENDBRANCH  19  22
ENDBRANCH  14  18
ENDBRANCH  12  13
ENDBRANCH   7  12
ENDBRANCH   4   6
ENDBRANCH   3   4
ENDBRANCH   2   3
ENDBRANCH   1   2
BRANCH   1  24
ATOM     24  O   UNL     1     -11.508   0.299   2.600  1.00  0.00    -0.374 OA
BRANCH  24  25
ATOM     25  C   UNL     1     -10.752   1.338   1.977  1.00  0.00     0.202 C 
BRANCH  25  26
ATOM     26  C   UNL     1     -10.865   2.733   2.601  1.00  0.00     0.261 C 
BRANCH  26  27
ATOM     27  O   UNL     1     -10.303   2.779   3.925  1.00  0.00    -0.460 OA
BRANCH  27  28
ATOM     28  C   UNL     1     -11.213   2.873   4.922  1.00  0.00     0.338 C 
ATOM     29  O   UNL     1     -12.424   3.003   4.814  1.00  0.00    -0.246 OA
BRANCH  28  30
ATOM     30  C   UNL     1     -10.563   2.627   6.221  1.00  0.00     0.060 A 
ATOM     31  C   UNL     1     -11.134   1.657   7.055  1.00  0.00     0.016 A 
ATOM     32  C   UNL     1      -9.467   3.378   6.651  1.00  0.00     0.016 A 
ATOM     33  C   UNL     1     -10.643   1.469   8.344  1.00  0.00     0.010 A 
ATOM     34  C   UNL     1      -8.979   3.193   7.949  1.00  0.00     0.010 A 
ATOM     35  C   UNL     1      -9.588   2.264   8.812  1.00  0.00    -0.014 A 
BRANCH  35  36
ATOM     36  C   UNL     1      -9.218   2.217  10.248  1.00  0.00     0.031 A 
ATOM     37  C   UNL     1      -9.719   3.297  11.166  1.00  0.00     0.074 A 
ATOM     38  C   UNL     1      -8.471   1.210  10.733  1.00  0.00     0.049 A 
ATOM     39  N   UNL     1      -9.494   3.474  12.444  1.00  0.00    -0.248 NA
ATOM     40  C   UNL     1     -10.590   4.317  10.562  1.00  0.00     0.031 C 
ATOM     41  C   UNL     1      -7.961   0.087   9.950  1.00  0.00     0.029 A 
ATOM     42  N   UNL     1      -8.008   0.976  12.003  1.00  0.00    -0.354 N 
ATOM     43  C   UNL     1     -10.188   4.624  12.793  1.00  0.00     0.074 A 
ATOM     44  C   UNL     1     -10.816   5.123  11.589  1.00  0.00     0.031 C 
ATOM     45  C   UNL     1      -7.244  -0.715  10.757  1.00  0.00     0.029 A 
ATOM     46  C   UNL     1      -7.220  -0.143  12.102  1.00  0.00     0.049 A 
ATOM     47  H   UNL     1      -8.220   1.556  12.770  1.00  0.00     0.167 HD
ATOM     48  C   UNL     1     -10.300   5.206  14.012  1.00  0.00     0.037 A 
ATOM     49  C   UNL     1      -6.539  -0.636  13.155  1.00  0.00     0.037 A 
ATOM     50  C   UNL     1      -9.676   4.706  15.209  1.00  0.00     0.049 A 
ATOM     51  C   UNL     1      -6.622   0.070  14.484  1.00  0.00     0.074 A 
ATOM     52  C   UNL     1      -9.746   5.211  16.495  1.00  0.00     0.029 A 
ATOM     53  N   UNL     1      -8.859   3.586  15.264  1.00  0.00    -0.354 N 
ATOM     54  N   UNL     1      -7.303   1.141  14.813  1.00  0.00    -0.248 NA
ATOM     55  C   UNL     1      -5.842  -0.505  15.589  1.00  0.00     0.031 C 
ATOM     56  C   UNL     1      -8.929   4.429  17.318  1.00  0.00     0.029 A 
ATOM     57  C   UNL     1      -8.396   3.401  16.557  1.00  0.00     0.049 A 
ATOM     58  H   UNL     1      -8.641   3.008  14.497  1.00  0.00     0.167 HD
ATOM     59  C   UNL     1      -7.060   1.349  16.165  1.00  0.00     0.074 A 
ATOM     60  C   UNL     1      -6.178   0.286  16.598  1.00  0.00     0.031 C 
ATOM     61  C   UNL     1      -7.526   2.332  16.975  1.00  0.00     0.037 A 
BRANCH  48  62
ATOM     62  C   UNL     1     -11.109   6.467  14.107  1.00  0.00     0.064 A 
ATOM     63  C   UNL     1     -12.507   6.459  13.982  1.00  0.00     0.173 A 
ATOM     64  C   UNL     1     -10.481   7.695  14.361  1.00  0.00     0.173 A 
ATOM     65  F   UNL     1     -13.155   5.313  13.725  1.00  0.00    -0.203 F 
ATOM     66  C   UNL     1     -13.242   7.638  14.082  1.00  0.00     0.198 A 
ATOM     67  C   UNL     1     -11.221   8.867  14.491  1.00  0.00     0.198 A 
ATOM     68  F   UNL     1      -9.147   7.758  14.494  1.00  0.00    -0.203 F 
ATOM     69  F   UNL     1     -14.571   7.613  13.913  1.00  0.00    -0.200 F 
ATOM     70  C   UNL     1     -12.600   8.839  14.344  1.00  0.00     0.200 A 
ATOM     71  F   UNL     1     -10.600  10.025  14.756  1.00  0.00    -0.200 F 
ATOM     72  F   UNL     1     -13.309   9.971  14.448  1.00  0.00    -0.200 F 
ENDBRANCH  48  62
BRANCH  49  73
ATOM     73  C   UNL     1      -5.710  -1.859  12.997  1.00  0.00     0.064 A 
ATOM     74  C   UNL     1      -6.059  -3.058  13.633  1.00  0.00     0.173 A 
ATOM     75  C   UNL     1      -4.540  -1.849  12.222  1.00  0.00     0.173 A 
ATOM     76  F   UNL     1      -7.154  -3.111  14.405  1.00  0.00    -0.203 F 
ATOM     77  C   UNL     1      -5.260  -4.194  13.516  1.00  0.00     0.198 A 
ATOM     78  C   UNL     1      -3.759  -2.993  12.081  1.00  0.00     0.198 A 
ATOM     79  F   UNL     1      -4.161  -0.727  11.593  1.00  0.00    -0.203 F 
ATOM     80  F   UNL     1      -5.592  -5.314  14.174  1.00  0.00    -0.200 F 
ATOM     81  C   UNL     1      -4.115  -4.163  12.735  1.00  0.00     0.200 A 
ATOM     82  F   UNL     1      -2.660  -2.962  11.315  1.00  0.00    -0.200 F 
ATOM     83  F   UNL     1      -3.349  -5.256  12.620  1.00  0.00    -0.200 F 
ENDBRANCH  49  73
BRANCH  61  84
ATOM     84  C   UNL     1      -7.127   2.282  18.423  1.00  0.00     0.064 A 
ATOM     85  C   UNL     1      -5.819   2.571  18.839  1.00  0.00     0.173 A 
ATOM     86  C   UNL     1      -8.078   1.980  19.410  1.00  0.00     0.173 A 
ATOM     87  F   UNL     1      -4.869   2.851  17.934  1.00  0.00    -0.203 F 
ATOM     88  C   UNL     1      -5.473   2.534  20.188  1.00  0.00     0.198 A 
ATOM     89  C   UNL     1      -7.736   1.976  20.759  1.00  0.00     0.198 A 
ATOM     90  F   UNL     1      -9.345   1.704  19.067  1.00  0.00    -0.203 F 
ATOM     91  F   UNL     1      -4.205   2.766  20.558  1.00  0.00    -0.200 F 
ATOM     92  C   UNL     1      -6.432   2.244  21.146  1.00  0.00     0.200 A 
ATOM     93  F   UNL     1      -8.668   1.710  21.685  1.00  0.00    -0.200 F 
ATOM     94  F   UNL     1      -6.098   2.217  22.444  1.00  0.00    -0.200 F 
ENDBRANCH  61  84
ENDBRANCH  35  36
ENDBRANCH  28  30
ENDBRANCH  27  28
ENDBRANCH  26  27
ENDBRANCH  25  26
ENDBRANCH  24  25
ENDBRANCH   1  24
TORSDOF 18
