REMARK SMILES CS(=O)(=O)c1ccc(C(=O)N2C[C@@H](C(=O)OCCOCCOC(=O)c3ccc(-c4c5nc(c(-c6c(F)c(F)c(F)c(F)c6F)c6ccc([nH]6)c(-c6c(F)c(F)c(F)c(F)c6F)c6nc(c(-c7c(F)c(F)c(F)c(F)c7F)c7ccc4[nH]7)C=C6)C=C5)cc3)[C@H](c3ccncc3)C2)cc1
REMARK SMILES IDX 18 1 17 2 16 3 14 4 15 5 13 6 11 7 12 8 95 9 88 10 9 11
REMARK SMILES IDX 10 12 8 13 5 14 6 15 97 16 7 17 96 18 2 19 1 20 3 21 4 22
REMARK SMILES IDX 89 23 90 24 94 25 91 26 93 27 92 28 19 29 20 30 21 31 22 32
REMARK SMILES IDX 23 33 24 34 25 35 26 36 87 37 27 38 86 39 28 40 29 41 30 42
REMARK SMILES IDX 80 43 31 44 85 45 79 46 81 47 32 48 84 49 78 50 77 51 33 53
REMARK SMILES IDX 65 54 45 55 64 56 46 57 49 58 63 59 82 60 47 61 48 62 62 64
REMARK SMILES IDX 83 65 50 66 34 67 35 68 43 69 36 70 37 71 41 72 44 73 38 74
REMARK SMILES IDX 39 75 42 76 40 77 66 78 67 79 75 80 68 81 69 82 73 83 76 84
REMARK SMILES IDX 70 85 71 86 74 87 72 88 51 89 52 90 60 91 53 92 54 93 58 94
REMARK SMILES IDX 61 95 55 96 56 97 59 98 57 99
REMARK H PARENT 81 52 49 63
REMARK Flexibility Score: inf
ROOT
ATOM      1  C   UNL     1       8.292  -1.916  -7.002  1.00  0.00     0.202 C 
ENDROOT
BRANCH   1   2
ATOM      2  C   UNL     1       7.106  -1.498  -7.873  1.00  0.00     0.261 C 
BRANCH   2   3
ATOM      3  O   UNL     1       5.838  -1.757  -7.245  1.00  0.00    -0.463 OA
BRANCH   3   4
ATOM      4  C   UNL     1       5.210  -2.887  -7.673  1.00  0.00     0.311 C 
ATOM      5  O   UNL     1       5.685  -3.699  -8.453  1.00  0.00    -0.252 OA
BRANCH   4   6
ATOM      6  C   UNL     1       3.839  -2.996  -7.063  1.00  0.00     0.128 C 
ATOM      7  N   UNL     1       2.519  -4.326  -5.702  1.00  0.00    -0.337 N 
ATOM      8  C   UNL     1       3.868  -3.811  -5.783  1.00  0.00     0.135 C 
ATOM      9  C   UNL     1       2.028  -4.625  -7.034  1.00  0.00     0.129 C 
ATOM     10  C   UNL     1       2.871  -3.769  -8.005  1.00  0.00     0.055 C 
BRANCH   7  11
ATOM     11  C   UNL     1       1.893  -4.884  -4.604  1.00  0.00     0.253 C 
ATOM     12  O   UNL     1       1.276  -5.944  -4.692  1.00  0.00    -0.269 OA
BRANCH  11  13
ATOM     13  C   UNL     1       1.783  -4.095  -3.337  1.00  0.00     0.040 A 
ATOM     14  C   UNL     1       1.089  -2.602  -1.061  1.00  0.00     0.067 A 
ATOM     15  C   UNL     1       0.843  -3.978  -1.093  1.00  0.00     0.021 A 
ATOM     16  C   UNL     1       1.712  -1.972  -2.139  1.00  0.00     0.021 A 
ATOM     17  C   UNL     1       1.195  -4.720  -2.224  1.00  0.00     0.015 A 
ATOM     18  C   UNL     1       2.037  -2.717  -3.280  1.00  0.00     0.015 A 
BRANCH  14  19
ATOM     19  S   UNL     1       0.495  -1.699   0.352  1.00  0.00     0.175 S 
ATOM     20  C   UNL     1       0.991  -0.012   0.151  1.00  0.00     0.163 C 
ATOM     21  O   UNL     1       1.206  -2.226   1.500  1.00  0.00    -0.224 OA
ATOM     22  O   UNL     1      -0.952  -1.736   0.276  1.00  0.00    -0.224 OA
ENDBRANCH  14  19
ENDBRANCH  11  13
ENDBRANCH   7  11
BRANCH  10  23
ATOM     23  C   UNL     1       2.159  -2.830  -8.970  1.00  0.00    -0.039 A 
ATOM     24  C   UNL     1       2.914  -1.960  -9.777  1.00  0.00     0.024 A 
ATOM     25  C   UNL     1       0.774  -2.810  -9.151  1.00  0.00     0.024 A 
ATOM     26  C   UNL     1       2.272  -1.096 -10.652  1.00  0.00     0.111 A 
ATOM     27  C   UNL     1       0.221  -1.915 -10.060  1.00  0.00     0.111 A 
ATOM     28  N   UNL     1       0.937  -1.047 -10.802  1.00  0.00    -0.265 NA
ENDBRANCH  10  23
ENDBRANCH   4   6
ENDBRANCH   3   4
ENDBRANCH   2   3
ENDBRANCH   1   2
BRANCH   1  29
ATOM     29  O   UNL     1       8.447  -3.313  -6.769  1.00  0.00    -0.374 OA
BRANCH  29  30
ATOM     30  C   UNL     1       7.643  -3.899  -5.748  1.00  0.00     0.202 C 
BRANCH  30  31
ATOM     31  C   UNL     1       8.145  -3.729  -4.312  1.00  0.00     0.261 C 
BRANCH  31  32
ATOM     32  O   UNL     1       8.065  -2.353  -3.898  1.00  0.00    -0.460 OA
BRANCH  32  33
ATOM     33  C   UNL     1       9.262  -1.736  -3.776  1.00  0.00     0.338 C 
ATOM     34  O   UNL     1      10.372  -2.247  -3.861  1.00  0.00    -0.246 OA
BRANCH  33  35
ATOM     35  C   UNL     1       9.079  -0.275  -3.705  1.00  0.00     0.060 A 
ATOM     36  C   UNL     1       9.879   0.509  -4.546  1.00  0.00     0.016 A 
ATOM     37  C   UNL     1       8.207   0.323  -2.792  1.00  0.00     0.016 A 
ATOM     38  C   UNL     1       9.870   1.894  -4.426  1.00  0.00     0.010 A 
ATOM     39  C   UNL     1       8.205   1.717  -2.665  1.00  0.00     0.010 A 
ATOM     40  C   UNL     1       9.073   2.501  -3.448  1.00  0.00    -0.014 A 
BRANCH  40  41
ATOM     41  C   UNL     1       9.303   3.928  -3.121  1.00  0.00     0.031 A 
ATOM     42  C   UNL     1      10.186   4.264  -1.951  1.00  0.00     0.074 A 
ATOM     43  C   UNL     1       8.784   4.905  -3.884  1.00  0.00     0.049 A 
ATOM     44  N   UNL     1      10.526   5.434  -1.474  1.00  0.00    -0.248 NA
ATOM     45  C   UNL     1      10.765   3.126  -1.220  1.00  0.00     0.031 C 
ATOM     46  C   UNL     1       7.955   4.699  -5.069  1.00  0.00     0.029 A 
ATOM     47  N   UNL     1       8.882   6.268  -3.771  1.00  0.00    -0.354 N 
ATOM     48  C   UNL     1      11.352   5.172  -0.388  1.00  0.00     0.074 A 
ATOM     49  C   UNL     1      11.438   3.735  -0.255  1.00  0.00     0.031 C 
ATOM     50  C   UNL     1       7.611   5.898  -5.572  1.00  0.00     0.029 A 
ATOM     51  C   UNL     1       8.174   6.951  -4.728  1.00  0.00     0.049 A 
ATOM     52  H   UNL     1       9.410   6.715  -3.070  1.00  0.00     0.167 HD
ATOM     53  C   UNL     1      11.991   6.053   0.418  1.00  0.00     0.037 A 
ATOM     54  C   UNL     1       7.990   8.275  -4.890  1.00  0.00     0.037 A 
ATOM     55  C   UNL     1      11.909   7.482   0.279  1.00  0.00     0.049 A 
ATOM     56  C   UNL     1       8.657   9.234  -3.938  1.00  0.00     0.074 A 
ATOM     57  C   UNL     1      12.530   8.460   1.034  1.00  0.00     0.029 A 
ATOM     58  N   UNL     1      11.152   8.137  -0.681  1.00  0.00    -0.354 N 
ATOM     59  N   UNL     1       9.451   8.979  -2.926  1.00  0.00    -0.248 NA
ATOM     60  C   UNL     1       8.405  10.666  -4.154  1.00  0.00     0.031 C 
ATOM     61  C   UNL     1      12.111   9.709   0.562  1.00  0.00     0.029 A 
ATOM     62  C   UNL     1      11.269   9.508  -0.521  1.00  0.00     0.049 A 
ATOM     63  H   UNL     1      10.611   7.693  -1.374  1.00  0.00     0.167 HD
ATOM     64  C   UNL     1       9.815  10.214  -2.404  1.00  0.00     0.074 A 
ATOM     65  C   UNL     1       9.164  11.219  -3.218  1.00  0.00     0.031 C 
ATOM     66  C   UNL     1      10.618  10.492  -1.347  1.00  0.00     0.037 A 
BRANCH  53  67
ATOM     67  C   UNL     1      12.815   5.492   1.540  1.00  0.00     0.064 A 
ATOM     68  C   UNL     1      14.036   4.841   1.306  1.00  0.00     0.173 A 
ATOM     69  C   UNL     1      12.389   5.630   2.869  1.00  0.00     0.173 A 
ATOM     70  F   UNL     1      14.478   4.668   0.051  1.00  0.00    -0.203 F 
ATOM     71  C   UNL     1      14.787   4.329   2.360  1.00  0.00     0.198 A 
ATOM     72  C   UNL     1      13.156   5.141   3.922  1.00  0.00     0.198 A 
ATOM     73  F   UNL     1      11.229   6.244   3.147  1.00  0.00    -0.203 F 
ATOM     74  F   UNL     1      15.928   3.671   2.110  1.00  0.00    -0.200 F 
ATOM     75  C   UNL     1      14.351   4.486   3.667  1.00  0.00     0.200 A 
ATOM     76  F   UNL     1      12.738   5.302   5.185  1.00  0.00    -0.200 F 
ATOM     77  F   UNL     1      15.078   3.997   4.681  1.00  0.00    -0.200 F 
ENDBRANCH  53  67
BRANCH  54  78
ATOM     78  C   UNL     1       7.127   8.775  -5.992  1.00  0.00     0.064 A 
ATOM     79  C   UNL     1       7.669   9.479  -7.075  1.00  0.00     0.173 A 
ATOM     80  C   UNL     1       5.739   8.569  -5.975  1.00  0.00     0.173 A 
ATOM     81  F   UNL     1       8.987   9.722  -7.123  1.00  0.00    -0.203 F 
ATOM     82  C   UNL     1       6.854   9.972  -8.092  1.00  0.00     0.198 A 
ATOM     83  C   UNL     1       4.929   9.039  -7.006  1.00  0.00     0.198 A 
ATOM     84  F   UNL     1       5.171   7.901  -4.960  1.00  0.00    -0.203 F 
ATOM     85  F   UNL     1       7.393  10.680  -9.095  1.00  0.00    -0.200 F 
ATOM     86  C   UNL     1       5.486   9.747  -8.060  1.00  0.00     0.200 A 
ATOM     87  F   UNL     1       3.610   8.807  -6.977  1.00  0.00    -0.200 F 
ATOM     88  F   UNL     1       4.704  10.217  -9.041  1.00  0.00    -0.200 F 
ENDBRANCH  54  78
BRANCH  66  89
ATOM     89  C   UNL     1      10.864  11.938  -1.030  1.00  0.00     0.064 A 
ATOM     90  C   UNL     1       9.871  12.745  -0.456  1.00  0.00     0.173 A 
ATOM     91  C   UNL     1      12.124  12.511  -1.262  1.00  0.00     0.173 A 
ATOM     92  F   UNL     1       8.646  12.248  -0.228  1.00  0.00    -0.203 F 
ATOM     93  C   UNL     1      10.123  14.080  -0.149  1.00  0.00     0.198 A 
ATOM     94  C   UNL     1      12.381  13.837  -0.927  1.00  0.00     0.198 A 
ATOM     95  F   UNL     1      13.110  11.778  -1.801  1.00  0.00    -0.203 F 
ATOM     96  F   UNL     1       9.146  14.845   0.356  1.00  0.00    -0.200 F 
ATOM     97  C   UNL     1      11.379  14.622  -0.378  1.00  0.00     0.200 A 
ATOM     98  F   UNL     1      13.599  14.355  -1.136  1.00  0.00    -0.200 F 
ATOM     99  F   UNL     1      11.622  15.905  -0.075  1.00  0.00    -0.200 F 
ENDBRANCH  66  89
ENDBRANCH  40  41
ENDBRANCH  33  35
ENDBRANCH  32  33
ENDBRANCH  31  32
ENDBRANCH  30  31
ENDBRANCH  29  30
ENDBRANCH   1  29
TORSDOF 18
