REMARK SMILES Cc1ccc(C)c([C@H]2[NH2+][C@@H](C(=O)OCCOCCOC(=O)c3ccc(-c4c5nc(c(-c6c(F)c(F)c(F)c(F)c6F)c6ccc([nH]6)c(-c6c(F)c(F)c(F)c(F)c6F)c6nc(c(-c7c(F)c(F)c(F)c(F)c7F)c7ccc4[nH]7)C=C6)C=C5)cc3)Cc3c2[nH]c2ccccc32)c1
REMARK SMILES IDX 17 1 16 2 15 3 14 4 13 5 11 6 12 7 10 8 8 9 9 10 87 11 86 14
REMARK SMILES IDX 88 15 85 16 94 17 89 18 93 20 90 21 92 22 91 23 7 24 1 25
REMARK SMILES IDX 2 26 3 27 95 28 4 29 5 30 6 31 18 32 19 33 20 34 21 35 22 36
REMARK SMILES IDX 23 37 84 38 24 39 83 40 25 41 26 42 27 43 77 44 28 45 82 46
REMARK SMILES IDX 76 47 78 48 29 49 81 50 75 51 74 52 30 54 62 55 42 56 61 57
REMARK SMILES IDX 43 58 46 59 60 60 79 61 44 62 45 63 59 65 80 66 47 67 31 68
REMARK SMILES IDX 32 69 40 70 33 71 34 72 38 73 41 74 35 75 36 76 39 77 37 78
REMARK SMILES IDX 63 79 64 80 72 81 65 82 66 83 70 84 73 85 67 86 68 87 71 88
REMARK SMILES IDX 69 89 48 90 49 91 57 92 50 93 51 94 55 95 58 96 52 97 53 98
REMARK SMILES IDX 56 99 54 100
REMARK H PARENT 9 12 9 13 88 19 78 53 46 64
REMARK Flexibility Score: inf
ROOT
ATOM      1  C   UNL     1       0.649   8.043  -1.215  1.00  0.00     0.202 C 
ENDROOT
BRANCH   1   2
ATOM      2  O   UNL     1      -0.721   7.715  -1.144  1.00  0.00    -0.374 OA
BRANCH   2   3
ATOM      3  C   UNL     1      -1.538   8.298  -0.153  1.00  0.00     0.202 C 
BRANCH   3   4
ATOM      4  C   UNL     1      -2.818   7.454  -0.117  1.00  0.00     0.261 C 
BRANCH   4   5
ATOM      5  O   UNL     1      -2.609   6.066   0.232  1.00  0.00    -0.459 OA
BRANCH   5   6
ATOM      6  C   UNL     1      -1.416   5.477  -0.112  1.00  0.00     0.365 C 
ATOM      7  O   UNL     1      -1.093   5.196  -1.236  1.00  0.00    -0.245 OA
BRANCH   6   8
ATOM      8  C   UNL     1      -0.468   5.329   1.081  1.00  0.00     0.298 C 
ATOM      9  C   UNL     1       0.500   2.981   1.527  1.00  0.00     0.262 C 
ATOM     10  N   UNL     1       0.618   4.311   0.851  1.00  0.00    -0.323 N 
ATOM     11  C   UNL     1      -0.020   3.235   2.911  1.00  0.00     0.083 A 
ATOM     12  H   UNL     1       0.659   4.135  -0.153  1.00  0.00     0.347 HD
ATOM     13  H   UNL     1       1.448   4.731   1.266  1.00  0.00     0.347 HD
ATOM     14  C   UNL     1      -0.782   4.309   3.305  1.00  0.00    -0.006 A 
ATOM     15  N   UNL     1       0.013   2.362   3.967  1.00  0.00    -0.353 N 
ATOM     16  C   UNL     1      -1.261   5.335   2.381  1.00  0.00     0.115 C 
ATOM     17  C   UNL     1      -1.107   4.172   4.659  1.00  0.00     0.003 A 
ATOM     18  C   UNL     1      -0.689   2.897   5.031  1.00  0.00     0.046 A 
ATOM     19  H   UNL     1       0.467   1.489   3.969  1.00  0.00     0.166 HD
ATOM     20  C   UNL     1      -1.788   4.996   5.567  1.00  0.00     0.010 A 
ATOM     21  C   UNL     1      -1.008   2.366   6.280  1.00  0.00     0.026 A 
ATOM     22  C   UNL     1      -2.044   4.508   6.842  1.00  0.00     0.001 A 
ATOM     23  C   UNL     1      -1.682   3.204   7.181  1.00  0.00     0.002 A 
BRANCH   9  24
ATOM     24  C   UNL     1      -0.357   1.962   0.722  1.00  0.00     0.019 A 
ATOM     25  C   UNL     1      -4.045   2.197   1.437  1.00  0.00     0.044 C 
ATOM     26  C   UNL     1      -2.722   2.154   0.745  1.00  0.00    -0.051 A 
ATOM     27  C   UNL     1      -2.544   2.771  -0.471  1.00  0.00     0.004 A 
ATOM     28  C   UNL     1      -1.595   1.594   1.294  1.00  0.00     0.014 A 
ATOM     29  C   UNL     1      -1.420   2.540  -1.262  1.00  0.00     0.004 A 
ATOM     30  C   UNL     1      -0.275   2.070  -0.668  1.00  0.00    -0.042 A 
ATOM     31  C   UNL     1       0.969   1.935  -1.491  1.00  0.00     0.045 C 
ENDBRANCH   9  24
ENDBRANCH   6   8
ENDBRANCH   5   6
ENDBRANCH   4   5
ENDBRANCH   3   4
ENDBRANCH   2   3
ENDBRANCH   1   2
BRANCH   1  32
ATOM     32  C   UNL     1       0.837   9.376  -1.932  1.00  0.00     0.261 C 
BRANCH  32  33
ATOM     33  O   UNL     1       0.291   9.307  -3.272  1.00  0.00    -0.460 OA
BRANCH  33  34
ATOM     34  C   UNL     1      -1.066   9.461  -3.363  1.00  0.00     0.338 C 
ATOM     35  O   UNL     1      -1.670  10.462  -3.011  1.00  0.00    -0.246 OA
BRANCH  34  36
ATOM     36  C   UNL     1      -1.723   8.168  -3.753  1.00  0.00     0.060 A 
ATOM     37  C   UNL     1      -3.117   7.978  -3.657  1.00  0.00     0.016 A 
ATOM     38  C   UNL     1      -0.916   7.058  -3.947  1.00  0.00     0.016 A 
ATOM     39  C   UNL     1      -3.688   6.671  -3.679  1.00  0.00     0.010 A 
ATOM     40  C   UNL     1      -1.469   5.794  -3.817  1.00  0.00     0.010 A 
ATOM     41  C   UNL     1      -2.858   5.548  -3.704  1.00  0.00    -0.014 A 
BRANCH  41  42
ATOM     42  C   UNL     1      -3.184   4.153  -4.131  1.00  0.00     0.031 A 
ATOM     43  C   UNL     1      -2.970   4.126  -5.579  1.00  0.00     0.074 A 
ATOM     44  C   UNL     1      -3.721   2.999  -3.648  1.00  0.00     0.049 A 
ATOM     45  N   UNL     1      -3.921   4.476  -6.387  1.00  0.00    -0.248 NA
ATOM     46  C   UNL     1      -1.641   4.046  -6.197  1.00  0.00     0.031 C 
ATOM     47  C   UNL     1      -4.561   2.797  -2.482  1.00  0.00     0.029 A 
ATOM     48  N   UNL     1      -3.450   1.673  -4.038  1.00  0.00    -0.354 N 
ATOM     49  C   UNL     1      -3.375   4.233  -7.615  1.00  0.00     0.074 A 
ATOM     50  C   UNL     1      -1.960   4.420  -7.442  1.00  0.00     0.031 C 
ATOM     51  C   UNL     1      -4.567   1.489  -2.130  1.00  0.00     0.029 A 
ATOM     52  C   UNL     1      -3.666   0.730  -3.008  1.00  0.00     0.049 A 
ATOM     53  H   UNL     1      -3.141   1.427  -4.940  1.00  0.00     0.167 HD
ATOM     54  C   UNL     1      -4.024   3.340  -8.407  1.00  0.00     0.037 A 
ATOM     55  C   UNL     1      -3.759  -0.634  -3.040  1.00  0.00     0.037 A 
ATOM     56  C   UNL     1      -5.379   3.090  -7.926  1.00  0.00     0.049 A 
ATOM     57  C   UNL     1      -4.744  -0.929  -4.096  1.00  0.00     0.074 A 
ATOM     58  C   UNL     1      -6.540   3.829  -7.791  1.00  0.00     0.029 A 
ATOM     59  N   UNL     1      -5.518   2.009  -7.090  1.00  0.00    -0.354 N 
ATOM     60  N   UNL     1      -6.000  -0.586  -4.008  1.00  0.00    -0.248 NA
ATOM     61  C   UNL     1      -4.256  -1.226  -5.440  1.00  0.00     0.031 C 
ATOM     62  C   UNL     1      -7.389   3.136  -6.877  1.00  0.00     0.029 A 
ATOM     63  C   UNL     1      -6.748   1.976  -6.475  1.00  0.00     0.049 A 
ATOM     64  H   UNL     1      -4.816   1.333  -6.947  1.00  0.00     0.167 HD
ATOM     65  C   UNL     1      -6.269  -0.117  -5.280  1.00  0.00     0.074 A 
ATOM     66  C   UNL     1      -5.260  -0.704  -6.148  1.00  0.00     0.031 C 
ATOM     67  C   UNL     1      -7.024   1.005  -5.449  1.00  0.00     0.037 A 
BRANCH  54  68
ATOM     68  C   UNL     1      -3.316   2.359  -9.307  1.00  0.00     0.064 A 
ATOM     69  C   UNL     1      -4.094   1.674 -10.254  1.00  0.00     0.173 A 
ATOM     70  C   UNL     1      -1.987   1.892  -9.164  1.00  0.00     0.173 A 
ATOM     71  F   UNL     1      -5.374   2.016 -10.459  1.00  0.00    -0.203 F 
ATOM     72  C   UNL     1      -3.595   0.581 -10.963  1.00  0.00     0.198 A 
ATOM     73  C   UNL     1      -1.476   0.839  -9.913  1.00  0.00     0.198 A 
ATOM     74  F   UNL     1      -1.140   2.342  -8.234  1.00  0.00    -0.203 F 
ATOM     75  F   UNL     1      -4.407  -0.104 -11.777  1.00  0.00    -0.200 F 
ATOM     76  C   UNL     1      -2.287   0.165 -10.794  1.00  0.00     0.200 A 
ATOM     77  F   UNL     1      -0.212   0.442  -9.709  1.00  0.00    -0.200 F 
ATOM     78  F   UNL     1      -1.820  -0.909 -11.441  1.00  0.00    -0.200 F 
ENDBRANCH  54  68
BRANCH  55  79
ATOM     79  C   UNL     1      -2.816  -1.649  -2.460  1.00  0.00     0.064 A 
ATOM     80  C   UNL     1      -3.041  -3.035  -2.513  1.00  0.00     0.173 A 
ATOM     81  C   UNL     1      -1.610  -1.284  -1.846  1.00  0.00     0.173 A 
ATOM     82  F   UNL     1      -4.145  -3.513  -3.104  1.00  0.00    -0.203 F 
ATOM     83  C   UNL     1      -2.125  -3.969  -1.989  1.00  0.00     0.198 A 
ATOM     84  C   UNL     1      -0.705  -2.198  -1.291  1.00  0.00     0.198 A 
ATOM     85  F   UNL     1      -1.245  -0.010  -1.863  1.00  0.00    -0.203 F 
ATOM     86  F   UNL     1      -2.366  -5.283  -2.107  1.00  0.00    -0.200 F 
ATOM     87  C   UNL     1      -0.959  -3.549  -1.372  1.00  0.00     0.200 A 
ATOM     88  F   UNL     1       0.429  -1.763  -0.722  1.00  0.00    -0.200 F 
ATOM     89  F   UNL     1      -0.075  -4.437  -0.894  1.00  0.00    -0.200 F 
ENDBRANCH  55  79
BRANCH  67  90
ATOM     90  C   UNL     1      -8.041   1.264  -4.384  1.00  0.00     0.064 A 
ATOM     91  C   UNL     1      -7.895   2.235  -3.387  1.00  0.00     0.173 A 
ATOM     92  C   UNL     1      -9.214   0.503  -4.368  1.00  0.00     0.173 A 
ATOM     93  F   UNL     1      -6.918   3.143  -3.463  1.00  0.00    -0.203 F 
ATOM     94  C   UNL     1      -8.806   2.342  -2.336  1.00  0.00     0.198 A 
ATOM     95  C   UNL     1     -10.168   0.667  -3.366  1.00  0.00     0.198 A 
ATOM     96  F   UNL     1      -9.458  -0.371  -5.357  1.00  0.00    -0.203 F 
ATOM     97  F   UNL     1      -8.594   3.225  -1.347  1.00  0.00    -0.200 F 
ATOM     98  C   UNL     1      -9.945   1.558  -2.328  1.00  0.00     0.200 A 
ATOM     99  F   UNL     1     -11.315  -0.025  -3.417  1.00  0.00    -0.200 F 
ATOM    100  F   UNL     1     -10.849   1.691  -1.347  1.00  0.00    -0.200 F 
ENDBRANCH  67  90
ENDBRANCH  41  42
ENDBRANCH  34  36
ENDBRANCH  33  34
ENDBRANCH  32  33
ENDBRANCH   1  32
TORSDOF 15
