REMARK SMILES C[C@H]1[C@H](C(=O)OCCOCCOC(=O)c2ccc(-c3c4nc(c(-c5c(F)c(F)c(F)c(F)c5F)c5ccc([nH]5)c(-c5c(F)c(F)c(F)c(F)c5F)c5nc(c(-c6c(F)c(F)c(F)c(F)c6F)c6ccc3[nH]6)C=C5)C=C4)cc2)CC[N@@H+]1CC(=O)N1CCCC1
REMARK SMILES IDX 9 1 8 2 7 3 6 4 4 5 5 6 3 7 1 8 2 9 80 10 78 11 79 12 81 14
REMARK SMILES IDX 82 15 83 16 84 17 85 18 88 19 86 20 87 21 10 22 11 23 12 24
REMARK SMILES IDX 13 25 14 26 15 27 16 28 77 29 17 30 76 31 18 32 19 33 20 34
REMARK SMILES IDX 70 35 21 36 75 37 69 38 71 39 22 40 74 41 68 42 67 43 23 45
REMARK SMILES IDX 55 46 35 47 54 48 36 49 39 50 53 51 72 52 37 53 38 54 52 56
REMARK SMILES IDX 73 57 40 58 24 59 25 60 33 61 26 62 27 63 31 64 34 65 28 66
REMARK SMILES IDX 29 67 32 68 30 69 56 70 57 71 65 72 58 73 59 74 63 75 66 76
REMARK SMILES IDX 60 77 61 78 64 79 62 80 41 81 42 82 50 83 43 84 44 85 48 86
REMARK SMILES IDX 51 87 45 88 46 89 49 90 47 91
REMARK H PARENT 80 13 71 44 39 55
REMARK Flexibility Score: inf
ROOT
ATOM      1  O   UNL     1       2.234   4.365   1.990  1.00  0.00    -0.374 OA
ENDROOT
BRANCH   1   2
ATOM      2  C   UNL     1       0.930   4.601   2.518  1.00  0.00     0.202 C 
BRANCH   2   3
ATOM      3  C   UNL     1      -0.240   4.449   1.523  1.00  0.00     0.261 C 
BRANCH   3   4
ATOM      4  O   UNL     1      -0.476   3.095   1.066  1.00  0.00    -0.463 OA
BRANCH   4   5
ATOM      5  C   UNL     1      -0.121   2.807  -0.216  1.00  0.00     0.315 C 
ATOM      6  O   UNL     1       0.493   3.575  -0.947  1.00  0.00    -0.252 OA
BRANCH   5   7
ATOM      7  C   UNL     1      -0.513   1.409  -0.664  1.00  0.00     0.162 C 
ATOM      8  C   UNL     1       1.497  -0.043  -1.208  1.00  0.00     0.076 C 
ATOM      9  C   UNL     1       0.422   0.294  -0.175  1.00  0.00     0.195 C 
ATOM     10  N   UNL     1      -0.439  -0.878   0.048  1.00  0.00    -0.324 N 
ATOM     11  C   UNL     1      -1.900   0.941  -0.243  1.00  0.00     0.083 C 
ATOM     12  C   UNL     1      -1.792  -0.567  -0.399  1.00  0.00     0.264 C 
ATOM     13  H   UNL     1      -0.072  -1.626  -0.540  1.00  0.00     0.348 HD
BRANCH  10  14
ATOM     14  C   UNL     1      -0.314  -1.597   1.329  1.00  0.00     0.364 C 
BRANCH  14  15
ATOM     15  C   UNL     1      -1.357  -1.302   2.434  1.00  0.00     0.277 C 
ATOM     16  O   UNL     1      -2.393  -1.969   2.516  1.00  0.00    -0.268 OA
ATOM     17  N   UNL     1      -1.071  -0.335   3.372  1.00  0.00    -0.338 N 
ATOM     18  C   UNL     1      -0.031   0.643   3.286  1.00  0.00     0.119 C 
ATOM     19  C   UNL     1      -1.817  -0.181   4.604  1.00  0.00     0.119 C 
ATOM     20  C   UNL     1      -0.447   1.772   4.197  1.00  0.00     0.023 C 
ATOM     21  C   UNL     1      -1.589   1.255   5.041  1.00  0.00     0.023 C 
ENDBRANCH  14  15
ENDBRANCH  10  14
ENDBRANCH   5   7
ENDBRANCH   4   5
ENDBRANCH   3   4
ENDBRANCH   2   3
ENDBRANCH   1   2
BRANCH   1  22
ATOM     22  C   UNL     1       2.539   3.001   1.708  1.00  0.00     0.202 C 
BRANCH  22  23
ATOM     23  C   UNL     1       3.645   2.437   2.601  1.00  0.00     0.261 C 
BRANCH  23  24
ATOM     24  O   UNL     1       3.054   1.781   3.751  1.00  0.00    -0.460 OA
BRANCH  24  25
ATOM     25  C   UNL     1       3.401   2.260   4.967  1.00  0.00     0.338 C 
ATOM     26  O   UNL     1       4.171   3.178   5.201  1.00  0.00    -0.246 OA
BRANCH  25  27
ATOM     27  C   UNL     1       2.611   1.588   6.031  1.00  0.00     0.060 A 
ATOM     28  C   UNL     1       2.098   2.394   7.054  1.00  0.00     0.016 A 
ATOM     29  C   UNL     1       2.363   0.209   6.046  1.00  0.00     0.016 A 
ATOM     30  C   UNL     1       1.371   1.827   8.104  1.00  0.00     0.010 A 
ATOM     31  C   UNL     1       1.631  -0.361   7.103  1.00  0.00     0.010 A 
ATOM     32  C   UNL     1       1.164   0.441   8.161  1.00  0.00    -0.014 A 
BRANCH  32  33
ATOM     33  C   UNL     1       0.695  -0.150   9.447  1.00  0.00     0.031 A 
ATOM     34  C   UNL     1       1.739  -0.592  10.439  1.00  0.00     0.074 A 
ATOM     35  C   UNL     1      -0.605  -0.209   9.795  1.00  0.00     0.049 A 
ATOM     36  N   UNL     1       1.597  -0.985  11.679  1.00  0.00    -0.248 NA
ATOM     37  C   UNL     1       3.132  -0.577   9.967  1.00  0.00     0.031 C 
ATOM     38  C   UNL     1      -1.725   0.194   8.957  1.00  0.00     0.029 A 
ATOM     39  N   UNL     1      -1.200  -0.622  10.965  1.00  0.00    -0.354 N 
ATOM     40  C   UNL     1       2.882  -1.234  12.142  1.00  0.00     0.074 A 
ATOM     41  C   UNL     1       3.785  -1.005  11.035  1.00  0.00     0.031 C 
ATOM     42  C   UNL     1      -2.874   0.017   9.632  1.00  0.00     0.029 A 
ATOM     43  C   UNL     1      -2.571  -0.517  10.958  1.00  0.00     0.049 A 
ATOM     44  H   UNL     1      -0.692  -0.962  11.736  1.00  0.00     0.167 HD
ATOM     45  C   UNL     1       3.284  -1.597  13.383  1.00  0.00     0.037 A 
ATOM     46  C   UNL     1      -3.478  -0.809  11.912  1.00  0.00     0.037 A 
ATOM     47  C   UNL     1       2.399  -1.858  14.484  1.00  0.00     0.049 A 
ATOM     48  C   UNL     1      -3.010  -1.291  13.263  1.00  0.00     0.074 A 
ATOM     49  C   UNL     1       2.719  -2.237  15.776  1.00  0.00     0.029 A 
ATOM     50  N   UNL     1       1.016  -1.784  14.419  1.00  0.00    -0.354 N 
ATOM     51  N   UNL     1      -1.789  -1.454  13.709  1.00  0.00    -0.248 NA
ATOM     52  C   UNL     1      -4.053  -1.611  14.250  1.00  0.00     0.031 C 
ATOM     53  C   UNL     1       1.527  -2.443  16.479  1.00  0.00     0.029 A 
ATOM     54  C   UNL     1       0.467  -2.136  15.642  1.00  0.00     0.049 A 
ATOM     55  H   UNL     1       0.501  -1.521  13.623  1.00  0.00     0.167 HD
ATOM     56  C   UNL     1      -1.916  -1.857  15.034  1.00  0.00     0.074 A 
ATOM     57  C   UNL     1      -3.333  -1.901  15.324  1.00  0.00     0.031 C 
ATOM     58  C   UNL     1      -0.944  -2.162  15.929  1.00  0.00     0.037 A 
BRANCH  45  59
ATOM     59  C   UNL     1       4.760  -1.752  13.598  1.00  0.00     0.064 A 
ATOM     60  C   UNL     1       5.615  -0.640  13.631  1.00  0.00     0.173 A 
ATOM     61  C   UNL     1       5.324  -3.023  13.773  1.00  0.00     0.173 A 
ATOM     62  F   UNL     1       5.125   0.596  13.448  1.00  0.00    -0.203 F 
ATOM     63  C   UNL     1       6.988  -0.799  13.800  1.00  0.00     0.198 A 
ATOM     64  C   UNL     1       6.693  -3.176  13.971  1.00  0.00     0.198 A 
ATOM     65  F   UNL     1       4.548  -4.117  13.748  1.00  0.00    -0.203 F 
ATOM     66  F   UNL     1       7.793   0.272  13.772  1.00  0.00    -0.200 F 
ATOM     67  C   UNL     1       7.524  -2.066  13.975  1.00  0.00     0.200 A 
ATOM     68  F   UNL     1       7.210  -4.400  14.148  1.00  0.00    -0.200 F 
ATOM     69  F   UNL     1       8.846  -2.218  14.136  1.00  0.00    -0.200 F 
ENDBRANCH  45  59
BRANCH  46  70
ATOM     70  C   UNL     1      -4.934  -0.645  11.645  1.00  0.00     0.064 A 
ATOM     71  C   UNL     1      -5.692   0.324  12.318  1.00  0.00     0.173 A 
ATOM     72  C   UNL     1      -5.609  -1.499  10.760  1.00  0.00     0.173 A 
ATOM     73  F   UNL     1      -5.099   1.146  13.196  1.00  0.00    -0.203 F 
ATOM     74  C   UNL     1      -7.072   0.413  12.139  1.00  0.00     0.198 A 
ATOM     75  C   UNL     1      -6.984  -1.391  10.561  1.00  0.00     0.198 A 
ATOM     76  F   UNL     1      -4.932  -2.447  10.096  1.00  0.00    -0.203 F 
ATOM     77  F   UNL     1      -7.780   1.307  12.842  1.00  0.00    -0.200 F 
ATOM     78  C   UNL     1      -7.716  -0.443  11.259  1.00  0.00     0.200 A 
ATOM     79  F   UNL     1      -7.602  -2.216   9.705  1.00  0.00    -0.200 F 
ATOM     80  F   UNL     1      -9.044  -0.364  11.095  1.00  0.00    -0.200 F 
ENDBRANCH  46  70
BRANCH  58  81
ATOM     81  C   UNL     1      -1.370  -2.524  17.324  1.00  0.00     0.064 A 
ATOM     82  C   UNL     1      -2.023  -3.733  17.610  1.00  0.00     0.173 A 
ATOM     83  C   UNL     1      -1.085  -1.665  18.397  1.00  0.00     0.173 A 
ATOM     84  F   UNL     1      -2.330  -4.585  16.621  1.00  0.00    -0.203 F 
ATOM     85  C   UNL     1      -2.401  -4.053  18.912  1.00  0.00     0.198 A 
ATOM     86  C   UNL     1      -1.434  -2.003  19.702  1.00  0.00     0.198 A 
ATOM     87  F   UNL     1      -0.454  -0.500  18.182  1.00  0.00    -0.203 F 
ATOM     88  F   UNL     1      -3.069  -5.189  19.154  1.00  0.00    -0.200 F 
ATOM     89  C   UNL     1      -2.100  -3.192  19.957  1.00  0.00     0.200 A 
ATOM     90  F   UNL     1      -1.128  -1.177  20.712  1.00  0.00    -0.200 F 
ATOM     91  F   UNL     1      -2.458  -3.505  21.210  1.00  0.00    -0.200 F 
ENDBRANCH  58  81
ENDBRANCH  32  33
ENDBRANCH  25  27
ENDBRANCH  24  25
ENDBRANCH  23  24
ENDBRANCH  22  23
ENDBRANCH   1  22
TORSDOF 16
