REMARK SMILES Cc1cc(C)c2c(OCCCC(=O)OCCOCCOC(=O)c3ccc(-c4c5nc(c(-c6c(F)c(F)c(F)c(F)c6F)c6ccc([nH]6)c(-c6c(F)c(F)c(F)c(F)c6F)c6nc(c(-c7c(F)c(F)c(F)c(F)c7F)c7ccc4[nH]7)C=C6)C=C5)cc3)nsc2n1
REMARK SMILES IDX 16 1 15 2 14 3 12 4 13 5 11 6 10 7 9 8 8 9 7 10 1 11 2 12
REMARK SMILES IDX 3 13 89 14 4 15 88 16 5 17 6 18 87 19 86 20 17 21 18 22
REMARK SMILES IDX 19 23 20 24 21 25 22 26 23 27 24 28 85 29 25 30 84 31 26 32
REMARK SMILES IDX 27 33 28 34 78 35 29 36 83 37 77 38 79 39 30 40 82 41 76 42
REMARK SMILES IDX 75 43 31 45 63 46 43 47 62 48 44 49 47 50 61 51 80 52 45 53
REMARK SMILES IDX 46 54 60 56 81 57 48 58 32 59 33 60 41 61 34 62 35 63 39 64
REMARK SMILES IDX 42 65 36 66 37 67 40 68 38 69 64 70 65 71 73 72 66 73 67 74
REMARK SMILES IDX 71 75 74 76 68 77 69 78 72 79 70 80 49 81 50 82 58 83 51 84
REMARK SMILES IDX 52 85 56 86 59 87 53 88 54 89 57 90 55 91
REMARK H PARENT 79 44 47 55
REMARK Flexibility Score: inf
ROOT
ATOM      1  C   UNL     1      -0.166  -0.882   4.809  1.00  0.00     0.202 C 
ENDROOT
BRANCH   1   2
ATOM      2  C   UNL     1      -0.264  -0.187   3.458  1.00  0.00     0.261 C 
BRANCH   2   3
ATOM      3  O   UNL     1      -1.055   1.038   3.478  1.00  0.00    -0.463 OA
BRANCH   3   4
ATOM      4  C   UNL     1      -1.812   1.236   2.367  1.00  0.00     0.305 C 
ATOM      5  O   UNL     1      -1.974   0.377   1.503  1.00  0.00    -0.252 OA
BRANCH   4   6
ATOM      6  C   UNL     1      -2.378   2.635   2.166  1.00  0.00     0.126 C 
BRANCH   6   7
ATOM      7  C   UNL     1      -2.776   3.552   3.322  1.00  0.00     0.053 C 
BRANCH   7   8
ATOM      8  C   UNL     1      -1.796   4.577   3.927  1.00  0.00     0.232 C 
BRANCH   8   9
ATOM      9  O   UNL     1      -1.323   5.672   3.158  1.00  0.00    -0.477 OA
BRANCH   9  10
ATOM     10  C   UNL     1      -0.492   5.445   2.115  1.00  0.00     0.235 A 
ATOM     11  C   UNL     1       1.641   1.016  -0.414  1.00  0.00     0.067 C 
ATOM     12  C   UNL     1       1.447   2.285   0.365  1.00  0.00     0.039 A 
ATOM     13  C   UNL     1       1.571   2.264   1.748  1.00  0.00     0.027 A 
ATOM     14  N   UNL     1       1.086   3.378  -0.322  1.00  0.00    -0.240 NA
ATOM     15  C   UNL     1       1.074   3.318   2.540  1.00  0.00    -0.034 A 
ATOM     16  C   UNL     1       0.616   4.376   0.448  1.00  0.00     0.147 A 
ATOM     17  C   UNL     1       1.213   3.205   4.033  1.00  0.00     0.045 C 
ATOM     18  C   UNL     1       0.439   4.375   1.835  1.00  0.00     0.078 A 
ATOM     19  S   UNL     1       0.095   5.857  -0.204  1.00  0.00    -0.012 S 
ATOM     20  N   UNL     1      -0.641   6.383   1.180  1.00  0.00    -0.153 NA
ENDBRANCH   9  10
ENDBRANCH   8   9
ENDBRANCH   7   8
ENDBRANCH   6   7
ENDBRANCH   4   6
ENDBRANCH   3   4
ENDBRANCH   2   3
ENDBRANCH   1   2
BRANCH   1  21
ATOM     21  O   UNL     1      -1.283  -1.693   5.164  1.00  0.00    -0.374 OA
BRANCH  21  22
ATOM     22  C   UNL     1      -2.579  -1.124   5.045  1.00  0.00     0.202 C 
BRANCH  22  23
ATOM     23  C   UNL     1      -2.984  -0.105   6.103  1.00  0.00     0.261 C 
BRANCH  23  24
ATOM     24  O   UNL     1      -1.965   0.827   6.439  1.00  0.00    -0.460 OA
BRANCH  24  25
ATOM     25  C   UNL     1      -1.187   0.380   7.457  1.00  0.00     0.338 C 
ATOM     26  O   UNL     1      -1.031  -0.771   7.824  1.00  0.00    -0.246 OA
BRANCH  25  27
ATOM     27  C   UNL     1      -0.724   1.515   8.256  1.00  0.00     0.060 A 
ATOM     28  C   UNL     1       0.136   1.183   9.306  1.00  0.00     0.016 A 
ATOM     29  C   UNL     1      -1.527   2.663   8.268  1.00  0.00     0.016 A 
ATOM     30  C   UNL     1      -0.018   1.851  10.495  1.00  0.00     0.010 A 
ATOM     31  C   UNL     1      -1.700   3.309   9.465  1.00  0.00     0.010 A 
ATOM     32  C   UNL     1      -1.009   2.833  10.579  1.00  0.00    -0.014 A 
BRANCH  32  33
ATOM     33  C   UNL     1      -1.249   3.427  11.874  1.00  0.00     0.031 A 
ATOM     34  C   UNL     1      -0.213   4.413  12.250  1.00  0.00     0.074 A 
ATOM     35  C   UNL     1      -2.370   3.170  12.573  1.00  0.00     0.049 A 
ATOM     36  N   UNL     1       0.538   4.428  13.300  1.00  0.00    -0.248 NA
ATOM     37  C   UNL     1       0.125   5.441  11.248  1.00  0.00     0.031 C 
ATOM     38  C   UNL     1      -3.557   2.433  12.128  1.00  0.00     0.029 A 
ATOM     39  N   UNL     1      -2.732   3.625  13.801  1.00  0.00    -0.354 N 
ATOM     40  C   UNL     1       1.325   5.567  13.169  1.00  0.00     0.074 A 
ATOM     41  C   UNL     1       1.156   6.049  11.827  1.00  0.00     0.031 C 
ATOM     42  C   UNL     1      -4.577   2.688  12.978  1.00  0.00     0.029 A 
ATOM     43  C   UNL     1      -4.088   3.512  14.070  1.00  0.00     0.049 A 
ATOM     44  H   UNL     1      -2.088   4.001  14.444  1.00  0.00     0.167 HD
ATOM     45  C   UNL     1       1.861   6.183  14.253  1.00  0.00     0.037 A 
ATOM     46  C   UNL     1      -4.757   4.147  15.065  1.00  0.00     0.037 A 
ATOM     47  C   UNL     1       1.965   5.289  15.371  1.00  0.00     0.049 A 
ATOM     48  C   UNL     1      -3.745   4.610  16.051  1.00  0.00     0.074 A 
ATOM     49  C   UNL     1       2.658   4.118  15.602  1.00  0.00     0.029 A 
ATOM     50  N   UNL     1       1.003   5.363  16.345  1.00  0.00    -0.354 N 
ATOM     51  N   UNL     1      -3.045   3.822  16.818  1.00  0.00    -0.248 NA
ATOM     52  C   UNL     1      -3.219   5.960  15.902  1.00  0.00     0.031 C 
ATOM     53  C   UNL     1       1.806   3.335  16.432  1.00  0.00     0.029 A 
ATOM     54  C   UNL     1       0.657   4.083  16.694  1.00  0.00     0.049 A 
ATOM     55  H   UNL     1       0.626   6.189  16.726  1.00  0.00     0.167 HD
ATOM     56  C   UNL     1      -1.801   4.429  16.910  1.00  0.00     0.074 A 
ATOM     57  C   UNL     1      -2.003   5.790  16.427  1.00  0.00     0.031 C 
ATOM     58  C   UNL     1      -0.673   3.687  17.100  1.00  0.00     0.037 A 
BRANCH  45  59
ATOM     59  C   UNL     1       1.947   7.679  14.375  1.00  0.00     0.064 A 
ATOM     60  C   UNL     1       2.690   8.246  15.424  1.00  0.00     0.173 A 
ATOM     61  C   UNL     1       1.109   8.571  13.666  1.00  0.00     0.173 A 
ATOM     62  F   UNL     1       3.479   7.481  16.192  1.00  0.00    -0.203 F 
ATOM     63  C   UNL     1       2.572   9.597  15.760  1.00  0.00     0.198 A 
ATOM     64  C   UNL     1       1.042   9.929  13.963  1.00  0.00     0.198 A 
ATOM     65  F   UNL     1       0.240   8.151  12.738  1.00  0.00    -0.203 F 
ATOM     66  F   UNL     1       3.211  10.071  16.838  1.00  0.00    -0.200 F 
ATOM     67  C   UNL     1       1.752  10.438  15.027  1.00  0.00     0.200 A 
ATOM     68  F   UNL     1       0.220  10.718  13.256  1.00  0.00    -0.200 F 
ATOM     69  F   UNL     1       1.605  11.722  15.377  1.00  0.00    -0.200 F 
ENDBRANCH  45  59
BRANCH  46  70
ATOM     70  C   UNL     1      -6.149   4.665  15.063  1.00  0.00     0.064 A 
ATOM     71  C   UNL     1      -6.753   5.096  16.258  1.00  0.00     0.173 A 
ATOM     72  C   UNL     1      -6.819   5.006  13.872  1.00  0.00     0.173 A 
ATOM     73  F   UNL     1      -6.165   4.852  17.438  1.00  0.00    -0.203 F 
ATOM     74  C   UNL     1      -7.931   5.852  16.257  1.00  0.00     0.198 A 
ATOM     75  C   UNL     1      -8.003   5.746  13.873  1.00  0.00     0.198 A 
ATOM     76  F   UNL     1      -6.294   4.716  12.673  1.00  0.00    -0.203 F 
ATOM     77  F   UNL     1      -8.433   6.308  17.413  1.00  0.00    -0.200 F 
ATOM     78  C   UNL     1      -8.549   6.184  15.063  1.00  0.00     0.200 A 
ATOM     79  F   UNL     1      -8.572   6.088  12.708  1.00  0.00    -0.200 F 
ATOM     80  F   UNL     1      -9.642   6.960  15.057  1.00  0.00    -0.200 F 
ENDBRANCH  46  70
BRANCH  58  81
ATOM     81  C   UNL     1      -0.838   2.253  17.522  1.00  0.00     0.064 A 
ATOM     82  C   UNL     1      -1.434   1.264  16.721  1.00  0.00     0.173 A 
ATOM     83  C   UNL     1      -0.208   1.837  18.703  1.00  0.00     0.173 A 
ATOM     84  F   UNL     1      -1.973   1.569  15.534  1.00  0.00    -0.203 F 
ATOM     85  C   UNL     1      -1.420  -0.077  17.103  1.00  0.00     0.198 A 
ATOM     86  C   UNL     1      -0.161   0.493  19.061  1.00  0.00     0.198 A 
ATOM     87  F   UNL     1       0.422   2.732  19.480  1.00  0.00    -0.203 F 
ATOM     88  F   UNL     1      -1.996  -1.004  16.323  1.00  0.00    -0.200 F 
ATOM     89  C   UNL     1      -0.772  -0.462  18.265  1.00  0.00     0.200 A 
ATOM     90  F   UNL     1       0.511   0.120  20.159  1.00  0.00    -0.200 F 
ATOM     91  F   UNL     1      -0.707  -1.758  18.601  1.00  0.00    -0.200 F 
ENDBRANCH  58  81
ENDBRANCH  32  33
ENDBRANCH  25  27
ENDBRANCH  24  25
ENDBRANCH  23  24
ENDBRANCH  22  23
ENDBRANCH  21  22
ENDBRANCH   1  21
TORSDOF 18
