REMARK SMILES COc1ccc(-c2ncn(CC(=O)OCCOCCOC(=O)c3ccc(-c4c5nc(c(-c6c(F)c(F)c(F)c(F)c6F)c6ccc([nH]6)c(-c6c(F)c(F)c(F)c(F)c6F)c6nc(c(-c7c(F)c(F)c(F)c(F)c7F)c7ccc4[nH]7)C=C6)C=C5)cc3)c2-c2ccc(OC)cc2)cc1
REMARK SMILES IDX 16 1 15 2 14 3 12 4 13 5 11 6 10 7 7 8 8 9 86 10 9 11 6 12
REMARK SMILES IDX 3 13 4 14 96 15 5 16 95 17 2 18 1 19 87 20 88 21 94 22 89 23
REMARK SMILES IDX 93 24 90 25 91 26 92 27 17 28 18 29 19 30 20 31 21 32 22 33
REMARK SMILES IDX 23 34 24 35 85 36 25 37 84 38 26 39 27 40 28 41 78 42 29 43
REMARK SMILES IDX 83 44 77 45 79 46 30 47 82 48 76 49 75 50 31 52 63 53 43 54
REMARK SMILES IDX 62 55 44 56 47 57 61 58 80 59 45 60 46 61 60 63 81 64 48 65
REMARK SMILES IDX 32 66 33 67 41 68 34 69 35 70 39 71 42 72 36 73 37 74 40 75
REMARK SMILES IDX 38 76 64 77 65 78 73 79 66 80 67 81 71 82 74 83 68 84 69 85
REMARK SMILES IDX 72 86 70 87 49 88 50 89 58 90 51 91 52 92 56 93 59 94 53 95
REMARK SMILES IDX 54 96 57 97 55 98
REMARK H PARENT 79 51 47 62
REMARK Flexibility Score: inf
ROOT
ATOM      1  C   UNL     1      -1.631  11.077  -3.422  1.00  0.00     0.202 C 
ENDROOT
BRANCH   1   2
ATOM      2  C   UNL     1      -0.127  11.377  -3.477  1.00  0.00     0.261 C 
BRANCH   2   3
ATOM      3  O   UNL     1       0.694  10.354  -2.859  1.00  0.00    -0.462 OA
BRANCH   3   4
ATOM      4  C   UNL     1       1.383  10.696  -1.744  1.00  0.00     0.326 C 
ATOM      5  O   UNL     1       1.481  11.853  -1.342  1.00  0.00    -0.250 OA
BRANCH   4   6
ATOM      6  C   UNL     1       2.029   9.557  -0.975  1.00  0.00     0.246 C 
BRANCH   6   7
ATOM      7  N   UNL     1       2.009   8.195  -1.511  1.00  0.00    -0.319 N 
ATOM      8  C   UNL     1       1.974   6.015  -1.738  1.00  0.00     0.096 A 
ATOM      9  N   UNL     1       2.703   6.505  -2.789  1.00  0.00    -0.236 NA
ATOM     10  C   UNL     1       1.532   7.035  -0.899  1.00  0.00     0.076 A 
ATOM     11  C   UNL     1       2.727   7.806  -2.617  1.00  0.00     0.201 A 
BRANCH   8  12
ATOM     12  C   UNL     1       1.683   4.606  -1.555  1.00  0.00     0.003 A 
ATOM     13  C   UNL     1       1.053   1.910  -1.124  1.00  0.00     0.118 A 
ATOM     14  C   UNL     1       0.047   2.828  -1.409  1.00  0.00     0.047 A 
ATOM     15  C   UNL     1       2.382   2.330  -1.065  1.00  0.00     0.047 A 
ATOM     16  C   UNL     1       0.361   4.163  -1.642  1.00  0.00     0.014 A 
ATOM     17  C   UNL     1       2.697   3.682  -1.274  1.00  0.00     0.014 A 
BRANCH  13  18
ATOM     18  O   UNL     1       0.654   0.608  -1.015  1.00  0.00    -0.497 OA
ATOM     19  C   UNL     1       1.174  -0.058   0.129  1.00  0.00     0.278 C 
ENDBRANCH  13  18
ENDBRANCH   8  12
BRANCH  10  20
ATOM     20  C   UNL     1       0.744   6.943   0.337  1.00  0.00     0.001 A 
ATOM     21  C   UNL     1      -0.653   6.878   0.281  1.00  0.00     0.014 A 
ATOM     22  C   UNL     1       1.349   6.841   1.592  1.00  0.00     0.014 A 
ATOM     23  C   UNL     1      -1.442   6.885   1.427  1.00  0.00     0.047 A 
ATOM     24  C   UNL     1       0.563   6.796   2.756  1.00  0.00     0.047 A 
ATOM     25  C   UNL     1      -0.826   6.857   2.665  1.00  0.00     0.118 A 
BRANCH  25  26
ATOM     26  O   UNL     1      -1.596   7.013   3.780  1.00  0.00    -0.497 OA
ATOM     27  C   UNL     1      -1.986   5.760   4.335  1.00  0.00     0.278 C 
ENDBRANCH  25  26
ENDBRANCH  10  20
ENDBRANCH   6   7
ENDBRANCH   4   6
ENDBRANCH   3   4
ENDBRANCH   2   3
ENDBRANCH   1   2
BRANCH   1  28
ATOM     28  O   UNL     1      -2.088  10.558  -2.187  1.00  0.00    -0.374 OA
BRANCH  28  29
ATOM     29  C   UNL     1      -1.791   9.207  -1.862  1.00  0.00     0.202 C 
BRANCH  29  30
ATOM     30  C   UNL     1      -1.215   8.250  -2.909  1.00  0.00     0.261 C 
BRANCH  30  31
ATOM     31  O   UNL     1      -1.864   8.284  -4.170  1.00  0.00    -0.460 OA
BRANCH  31  32
ATOM     32  C   UNL     1      -2.888   7.416  -4.207  1.00  0.00     0.338 C 
ATOM     33  O   UNL     1      -4.015   7.658  -3.824  1.00  0.00    -0.246 OA
BRANCH  32  34
ATOM     34  C   UNL     1      -2.434   6.121  -4.752  1.00  0.00     0.060 A 
ATOM     35  C   UNL     1      -3.432   5.263  -5.201  1.00  0.00     0.016 A 
ATOM     36  C   UNL     1      -1.079   5.725  -4.747  1.00  0.00     0.016 A 
ATOM     37  C   UNL     1      -3.076   3.999  -5.623  1.00  0.00     0.010 A 
ATOM     38  C   UNL     1      -0.728   4.443  -5.124  1.00  0.00     0.010 A 
ATOM     39  C   UNL     1      -1.733   3.596  -5.569  1.00  0.00    -0.014 A 
BRANCH  39  40
ATOM     40  C   UNL     1      -1.406   2.373  -6.266  1.00  0.00     0.031 A 
ATOM     41  C   UNL     1      -1.409   2.519  -7.736  1.00  0.00     0.074 A 
ATOM     42  C   UNL     1      -1.137   1.193  -5.694  1.00  0.00     0.049 A 
ATOM     43  N   UNL     1      -2.322   2.100  -8.546  1.00  0.00    -0.248 NA
ATOM     44  C   UNL     1      -0.365   3.338  -8.361  1.00  0.00     0.031 C 
ATOM     45  C   UNL     1      -0.810   0.905  -4.310  1.00  0.00     0.029 A 
ATOM     46  N   UNL     1      -1.054  -0.019  -6.302  1.00  0.00    -0.354 N 
ATOM     47  C   UNL     1      -1.903   2.471  -9.814  1.00  0.00     0.074 A 
ATOM     48  C   UNL     1      -0.770   3.344  -9.631  1.00  0.00     0.031 C 
ATOM     49  C   UNL     1      -0.376  -0.371  -4.209  1.00  0.00     0.029 A 
ATOM     50  C   UNL     1      -0.545  -1.021  -5.498  1.00  0.00     0.049 A 
ATOM     51  H   UNL     1      -1.332  -0.171  -7.234  1.00  0.00     0.167 HD
ATOM     52  C   UNL     1      -2.409   1.862 -10.918  1.00  0.00     0.037 A 
ATOM     53  C   UNL     1      -0.247  -2.279  -5.895  1.00  0.00     0.037 A 
ATOM     54  C   UNL     1      -3.638   1.169 -10.619  1.00  0.00     0.049 A 
ATOM     55  C   UNL     1      -1.038  -2.561  -7.121  1.00  0.00     0.074 A 
ATOM     56  C   UNL     1      -4.880   1.556 -10.151  1.00  0.00     0.029 A 
ATOM     57  N   UNL     1      -3.591  -0.194 -10.457  1.00  0.00    -0.354 N 
ATOM     58  N   UNL     1      -2.333  -2.719  -7.135  1.00  0.00    -0.248 NA
ATOM     59  C   UNL     1      -0.437  -2.261  -8.412  1.00  0.00     0.031 C 
ATOM     60  C   UNL     1      -5.314   0.487  -9.312  1.00  0.00     0.029 A 
ATOM     61  C   UNL     1      -4.329  -0.501  -9.343  1.00  0.00     0.049 A 
ATOM     62  H   UNL     1      -3.114  -0.834 -11.034  1.00  0.00     0.167 HD
ATOM     63  C   UNL     1      -2.750  -2.122  -8.315  1.00  0.00     0.074 A 
ATOM     64  C   UNL     1      -1.537  -1.966  -9.110  1.00  0.00     0.031 C 
ATOM     65  C   UNL     1      -3.990  -1.560  -8.422  1.00  0.00     0.037 A 
BRANCH  52  66
ATOM     66  C   UNL     1      -1.623   1.604 -12.175  1.00  0.00     0.064 A 
ATOM     67  C   UNL     1      -2.288   1.088 -13.304  1.00  0.00     0.173 A 
ATOM     68  C   UNL     1      -0.213   1.557 -12.222  1.00  0.00     0.173 A 
ATOM     69  F   UNL     1      -3.628   1.068 -13.358  1.00  0.00    -0.203 F 
ATOM     70  C   UNL     1      -1.594   0.492 -14.358  1.00  0.00     0.198 A 
ATOM     71  C   UNL     1       0.478   1.013 -13.302  1.00  0.00     0.198 A 
ATOM     72  F   UNL     1       0.550   1.925 -11.186  1.00  0.00    -0.203 F 
ATOM     73  F   UNL     1      -2.273  -0.105 -15.347  1.00  0.00    -0.200 F 
ATOM     74  C   UNL     1      -0.212   0.449 -14.353  1.00  0.00     0.200 A 
ATOM     75  F   UNL     1       1.817   0.966 -13.271  1.00  0.00    -0.200 F 
ATOM     76  F   UNL     1       0.453  -0.179 -15.331  1.00  0.00    -0.200 F 
ENDBRANCH  52  66
BRANCH  53  77
ATOM     77  C   UNL     1       0.864  -3.137  -5.436  1.00  0.00     0.064 A 
ATOM     78  C   UNL     1       0.874  -4.512  -5.714  1.00  0.00     0.173 A 
ATOM     79  C   UNL     1       2.067  -2.581  -4.958  1.00  0.00     0.173 A 
ATOM     80  F   UNL     1      -0.219  -5.109  -6.210  1.00  0.00    -0.203 F 
ATOM     81  C   UNL     1       2.030  -5.280  -5.555  1.00  0.00     0.198 A 
ATOM     82  C   UNL     1       3.217  -3.351  -4.789  1.00  0.00     0.198 A 
ATOM     83  F   UNL     1       2.182  -1.264  -4.740  1.00  0.00    -0.203 F 
ATOM     84  F   UNL     1       2.022  -6.576  -5.895  1.00  0.00    -0.200 F 
ATOM     85  C   UNL     1       3.203  -4.697  -5.103  1.00  0.00     0.200 A 
ATOM     86  F   UNL     1       4.354  -2.769  -4.383  1.00  0.00    -0.200 F 
ATOM     87  F   UNL     1       4.327  -5.420  -5.010  1.00  0.00    -0.200 F 
ENDBRANCH  53  77
BRANCH  65  88
ATOM     88  C   UNL     1      -4.995  -1.879  -7.352  1.00  0.00     0.064 A 
ATOM     89  C   UNL     1      -4.838  -1.534  -5.998  1.00  0.00     0.173 A 
ATOM     90  C   UNL     1      -6.221  -2.438  -7.738  1.00  0.00     0.173 A 
ATOM     91  F   UNL     1      -3.740  -0.899  -5.570  1.00  0.00    -0.203 F 
ATOM     92  C   UNL     1      -5.846  -1.789  -5.069  1.00  0.00     0.198 A 
ATOM     93  C   UNL     1      -7.240  -2.655  -6.815  1.00  0.00     0.198 A 
ATOM     94  F   UNL     1      -6.450  -2.733  -9.028  1.00  0.00    -0.203 F 
ATOM     95  F   UNL     1      -5.667  -1.468  -3.778  1.00  0.00    -0.200 F 
ATOM     96  C   UNL     1      -7.047  -2.343  -5.479  1.00  0.00     0.200 A 
ATOM     97  F   UNL     1      -8.418  -3.144  -7.225  1.00  0.00    -0.200 F 
ATOM     98  F   UNL     1      -8.030  -2.552  -4.591  1.00  0.00    -0.200 F 
ENDBRANCH  65  88
ENDBRANCH  39  40
ENDBRANCH  32  34
ENDBRANCH  31  32
ENDBRANCH  30  31
ENDBRANCH  29  30
ENDBRANCH  28  29
ENDBRANCH   1  28
TORSDOF 19
