REMARK SMILES COc1ccc(C[N@@H+]2C[C@@H](C(=O)OCCOCCOC(=O)c3ccc(-c4c5nc(c(-c6c(F)c(F)c(F)c(F)c6F)c6ccc([nH]6)c(-c6c(F)c(F)c(F)c(F)c6F)c6nc(c(-c7c(F)c(F)c(F)c(F)c7F)c7ccc4[nH]7)C=C6)C=C5)cc3)[C@H](c3ccccc3OC)C2)c(OC)c1
REMARK SMILES IDX 15 1 14 2 13 3 11 4 12 5 10 6 8 7 9 8 94 9 85 11 7 12 6 13
REMARK SMILES IDX 3 14 4 15 98 16 5 17 95 18 2 19 1 20 96 21 97 22 86 23 87 24
REMARK SMILES IDX 91 25 88 26 90 27 89 28 92 29 93 30 16 31 17 32 18 33 19 34
REMARK SMILES IDX 20 35 21 36 22 37 23 38 84 39 24 40 83 41 25 42 26 43 27 44
REMARK SMILES IDX 77 45 28 46 82 47 76 48 78 49 29 50 81 51 75 52 74 53 30 55
REMARK SMILES IDX 62 56 42 57 61 58 43 59 46 60 60 61 79 62 44 63 45 64 59 66
REMARK SMILES IDX 80 67 47 68 31 69 32 70 40 71 33 72 34 73 38 74 41 75 35 76
REMARK SMILES IDX 36 77 39 78 37 79 63 80 64 81 72 82 65 83 66 84 70 85 73 86
REMARK SMILES IDX 67 87 68 88 71 89 69 90 48 91 49 92 57 93 50 94 51 95 55 96
REMARK SMILES IDX 58 97 52 98 53 99 56 100 54 101
REMARK H PARENT 8 10 78 54 46 65
REMARK Flexibility Score: inf
ROOT
ATOM      1  C   UNL     1      -4.056   5.327   3.995  1.00  0.00     0.202 C 
ENDROOT
BRANCH   1   2
ATOM      2  C   UNL     1      -3.245   4.122   3.516  1.00  0.00     0.261 C 
BRANCH   2   3
ATOM      3  O   UNL     1      -1.980   4.041   4.180  1.00  0.00    -0.463 OA
BRANCH   3   4
ATOM      4  C   UNL     1      -0.897   3.950   3.363  1.00  0.00     0.315 C 
ATOM      5  O   UNL     1      -0.967   3.789   2.150  1.00  0.00    -0.252 OA
BRANCH   4   6
ATOM      6  C   UNL     1       0.409   3.945   4.112  1.00  0.00     0.167 C 
ATOM      7  N   UNL     1       1.631   3.519   6.087  1.00  0.00    -0.330 N 
ATOM      8  C   UNL     1       0.254   3.577   5.587  1.00  0.00     0.278 C 
ATOM      9  C   UNL     1       2.336   4.588   5.329  1.00  0.00     0.272 C 
ATOM     10  H   UNL     1       1.680   3.680   7.093  1.00  0.00     0.348 HD
ATOM     11  C   UNL     1       1.365   5.132   4.222  1.00  0.00     0.098 C 
BRANCH   7  12
ATOM     12  C   UNL     1       2.263   2.164   5.981  1.00  0.00     0.303 C 
BRANCH  12  13
ATOM     13  C   UNL     1       2.009   1.359   4.707  1.00  0.00     0.048 A 
ATOM     14  C   UNL     1       1.115   0.555   2.167  1.00  0.00     0.122 A 
ATOM     15  C   UNL     1       0.312   0.342   3.281  1.00  0.00     0.047 A 
ATOM     16  C   UNL     1       2.410   1.050   2.325  1.00  0.00     0.093 A 
ATOM     17  C   UNL     1       0.771   0.701   4.549  1.00  0.00     0.017 A 
ATOM     18  C   UNL     1       2.874   1.413   3.601  1.00  0.00     0.131 A 
BRANCH  14  19
ATOM     19  O   UNL     1       0.511   0.421   0.949  1.00  0.00    -0.497 OA
ATOM     20  C   UNL     1       1.178  -0.474   0.071  1.00  0.00     0.278 C 
ENDBRANCH  14  19
BRANCH  18  21
ATOM     21  O   UNL     1       4.127   1.936   3.792  1.00  0.00    -0.496 OA
ATOM     22  C   UNL     1       5.144   1.194   3.118  1.00  0.00     0.278 C 
ENDBRANCH  18  21
ENDBRANCH  12  13
ENDBRANCH   7  12
BRANCH  11  23
ATOM     23  C   UNL     1       1.989   5.623   2.921  1.00  0.00     0.004 A 
ATOM     24  C   UNL     1       3.340   5.406   2.593  1.00  0.00     0.008 A 
ATOM     25  C   UNL     1       1.206   6.339   1.990  1.00  0.00     0.122 A 
ATOM     26  C   UNL     1       3.884   5.859   1.387  1.00  0.00     0.001 A 
ATOM     27  C   UNL     1       1.755   6.793   0.782  1.00  0.00     0.047 A 
ATOM     28  C   UNL     1       3.090   6.542   0.476  1.00  0.00     0.004 A 
BRANCH  25  29
ATOM     29  O   UNL     1      -0.086   6.635   2.350  1.00  0.00    -0.496 OA
ATOM     30  C   UNL     1      -1.032   6.535   1.283  1.00  0.00     0.278 C 
ENDBRANCH  25  29
ENDBRANCH  11  23
ENDBRANCH   4   6
ENDBRANCH   3   4
ENDBRANCH   2   3
ENDBRANCH   1   2
BRANCH   1  31
ATOM     31  O   UNL     1      -3.419   6.601   3.976  1.00  0.00    -0.374 OA
BRANCH  31  32
ATOM     32  C   UNL     1      -2.357   6.843   4.903  1.00  0.00     0.202 C 
BRANCH  32  33
ATOM     33  C   UNL     1      -2.724   6.955   6.388  1.00  0.00     0.261 C 
BRANCH  33  34
ATOM     34  O   UNL     1      -3.272   5.738   6.924  1.00  0.00    -0.460 OA
BRANCH  34  35
ATOM     35  C   UNL     1      -4.564   5.825   7.315  1.00  0.00     0.338 C 
ATOM     36  O   UNL     1      -5.277   6.822   7.322  1.00  0.00    -0.246 OA
BRANCH  35  37
ATOM     37  C   UNL     1      -5.109   4.484   7.576  1.00  0.00     0.060 A 
ATOM     38  C   UNL     1      -6.260   4.106   6.871  1.00  0.00     0.016 A 
ATOM     39  C   UNL     1      -4.571   3.656   8.562  1.00  0.00     0.016 A 
ATOM     40  C   UNL     1      -6.915   2.923   7.191  1.00  0.00     0.010 A 
ATOM     41  C   UNL     1      -5.239   2.474   8.895  1.00  0.00     0.010 A 
ATOM     42  C   UNL     1      -6.437   2.130   8.241  1.00  0.00    -0.014 A 
BRANCH  42  43
ATOM     43  C   UNL     1      -7.307   1.062   8.780  1.00  0.00     0.031 A 
ATOM     44  C   UNL     1      -8.183   1.379   9.958  1.00  0.00     0.074 A 
ATOM     45  C   UNL     1      -7.344  -0.150   8.204  1.00  0.00     0.049 A 
ATOM     46  N   UNL     1      -9.021   0.610  10.604  1.00  0.00    -0.248 NA
ATOM     47  C   UNL     1      -8.100   2.753  10.479  1.00  0.00     0.031 C 
ATOM     48  C   UNL     1      -6.562  -0.552   7.038  1.00  0.00     0.029 A 
ATOM     49  N   UNL     1      -8.067  -1.268   8.533  1.00  0.00    -0.354 N 
ATOM     50  C   UNL     1      -9.560   1.404  11.608  1.00  0.00     0.074 A 
ATOM     51  C   UNL     1      -8.934   2.704  11.507  1.00  0.00     0.031 C 
ATOM     52  C   UNL     1      -6.829  -1.840   6.761  1.00  0.00     0.029 A 
ATOM     53  C   UNL     1      -7.781  -2.353   7.744  1.00  0.00     0.049 A 
ATOM     54  H   UNL     1      -8.726  -1.290   9.264  1.00  0.00     0.167 HD
ATOM     55  C   UNL     1     -10.498   1.077  12.528  1.00  0.00     0.037 A 
ATOM     56  C   UNL     1      -8.224  -3.623   7.827  1.00  0.00     0.037 A 
ATOM     57  C   UNL     1     -11.110  -0.221  12.624  1.00  0.00     0.049 A 
ATOM     58  C   UNL     1      -9.231  -3.980   8.887  1.00  0.00     0.074 A 
ATOM     59  C   UNL     1     -12.090  -0.654  13.498  1.00  0.00     0.029 A 
ATOM     60  N   UNL     1     -10.784  -1.304  11.818  1.00  0.00    -0.354 N 
ATOM     61  N   UNL     1      -9.765  -3.217   9.811  1.00  0.00    -0.248 NA
ATOM     62  C   UNL     1      -9.704  -5.370   8.912  1.00  0.00     0.031 C 
ATOM     63  C   UNL     1     -12.319  -2.014  13.256  1.00  0.00     0.029 A 
ATOM     64  C   UNL     1     -11.521  -2.415  12.196  1.00  0.00     0.049 A 
ATOM     65  H   UNL     1     -10.125  -1.286  11.087  1.00  0.00     0.167 HD
ATOM     66  C   UNL     1     -10.647  -4.026  10.516  1.00  0.00     0.074 A 
ATOM     67  C   UNL     1     -10.587  -5.337   9.901  1.00  0.00     0.031 C 
ATOM     68  C   UNL     1     -11.435  -3.713  11.574  1.00  0.00     0.037 A 
BRANCH  55  69
ATOM     69  C   UNL     1     -10.881   2.134  13.523  1.00  0.00     0.064 A 
ATOM     70  C   UNL     1     -11.615   3.272  13.151  1.00  0.00     0.173 A 
ATOM     71  C   UNL     1     -10.497   2.013  14.867  1.00  0.00     0.173 A 
ATOM     72  F   UNL     1     -11.992   3.445  11.875  1.00  0.00    -0.203 F 
ATOM     73  C   UNL     1     -11.916   4.265  14.080  1.00  0.00     0.198 A 
ATOM     74  C   UNL     1     -10.826   2.994  15.799  1.00  0.00     0.198 A 
ATOM     75  F   UNL     1      -9.795   0.945  15.276  1.00  0.00    -0.203 F 
ATOM     76  F   UNL     1     -12.565   5.371  13.689  1.00  0.00    -0.200 F 
ATOM     77  C   UNL     1     -11.525   4.124  15.403  1.00  0.00     0.200 A 
ATOM     78  F   UNL     1     -10.454   2.851  17.078  1.00  0.00    -0.200 F 
ATOM     79  F   UNL     1     -11.811   5.083  16.294  1.00  0.00    -0.200 F 
ENDBRANCH  55  69
BRANCH  56  80
ATOM     80  C   UNL     1      -7.696  -4.641   6.884  1.00  0.00     0.064 A 
ATOM     81  C   UNL     1      -8.495  -5.176   5.866  1.00  0.00     0.173 A 
ATOM     82  C   UNL     1      -6.364  -5.075   6.966  1.00  0.00     0.173 A 
ATOM     83  F   UNL     1      -9.780  -4.809   5.760  1.00  0.00    -0.203 F 
ATOM     84  C   UNL     1      -7.982  -6.111   4.967  1.00  0.00     0.198 A 
ATOM     85  C   UNL     1      -5.846  -5.989   6.052  1.00  0.00     0.198 A 
ATOM     86  F   UNL     1      -5.558  -4.591   7.923  1.00  0.00    -0.203 F 
ATOM     87  F   UNL     1      -8.774  -6.628   4.018  1.00  0.00    -0.200 F 
ATOM     88  C   UNL     1      -6.656  -6.509   5.055  1.00  0.00     0.200 A 
ATOM     89  F   UNL     1      -4.561  -6.360   6.133  1.00  0.00    -0.200 F 
ATOM     90  F   UNL     1      -6.161  -7.395   4.181  1.00  0.00    -0.200 F 
ENDBRANCH  56  80
BRANCH  68  91
ATOM     91  C   UNL     1     -12.306  -4.804  12.127  1.00  0.00     0.064 A 
ATOM     92  C   UNL     1     -11.769  -5.866  12.870  1.00  0.00     0.173 A 
ATOM     93  C   UNL     1     -13.697  -4.761  11.951  1.00  0.00     0.173 A 
ATOM     94  F   UNL     1     -10.444  -5.959  13.054  1.00  0.00    -0.203 F 
ATOM     95  C   UNL     1     -12.593  -6.857  13.397  1.00  0.00     0.198 A 
ATOM     96  C   UNL     1     -14.520  -5.738  12.504  1.00  0.00     0.198 A 
ATOM     97  F   UNL     1     -14.260  -3.762  11.254  1.00  0.00    -0.203 F 
ATOM     98  F   UNL     1     -12.055  -7.886  14.067  1.00  0.00    -0.200 F 
ATOM     99  C   UNL     1     -13.967  -6.788  13.220  1.00  0.00     0.200 A 
ATOM    100  F   UNL     1     -15.848  -5.662  12.344  1.00  0.00    -0.200 F 
ATOM    101  F   UNL     1     -14.758  -7.739  13.736  1.00  0.00    -0.200 F 
ENDBRANCH  68  91
ENDBRANCH  42  43
ENDBRANCH  35  37
ENDBRANCH  34  35
ENDBRANCH  33  34
ENDBRANCH  32  33
ENDBRANCH  31  32
ENDBRANCH   1  31
TORSDOF 20
