REMARK SMILES [NH3+][C@H](Cc1ccc(O)c(F)c1)C(=O)OCCOCCOC(=O)c1ccc(-c2c3nc(c(-c4c(F)c(F)c(F)c(F)c4F)c4ccc([nH]4)c(-c4c(F)c(F)c(F)c(F)c4F)c4nc(c(-c5c(F)c(F)c(F)c(F)c5F)c5ccc2[nH]5)C=C4)C=C3)cc1
REMARK SMILES IDX 16 1 15 2 14 3 12 4 13 5 2 6 1 7 3 11 4 12 5 13 11 14 6 15
REMARK SMILES IDX 9 16 7 17 10 18 8 19 17 21 18 22 19 23 20 24 21 25 22 26
REMARK SMILES IDX 23 27 24 28 85 29 25 30 84 31 26 32 27 33 28 34 78 35 29 36
REMARK SMILES IDX 83 37 77 38 79 39 30 40 82 41 76 42 75 43 31 45 63 46 43 47
REMARK SMILES IDX 62 48 44 49 47 50 61 51 80 52 45 53 46 54 60 56 81 57 48 58
REMARK SMILES IDX 32 59 33 60 41 61 34 62 35 63 39 64 42 65 36 66 37 67 40 68
REMARK SMILES IDX 38 69 64 70 65 71 73 72 66 73 67 74 71 75 74 76 68 77 69 78
REMARK SMILES IDX 72 79 70 80 49 81 50 82 58 83 51 84 52 85 56 86 59 87 53 88
REMARK SMILES IDX 54 89 57 90 55 91
REMARK H PARENT 1 8 1 9 1 10 8 20 79 44 47 55
REMARK Flexibility Score: inf
ROOT
ATOM      1  C   UNL     1      -3.691   0.680   0.617  1.00  0.00     0.202 C 
ENDROOT
BRANCH   1   2
ATOM      2  C   UNL     1      -2.903   1.988   0.532  1.00  0.00     0.261 C 
BRANCH   2   3
ATOM      3  O   UNL     1      -1.529   1.706   0.212  1.00  0.00    -0.459 OA
BRANCH   3   4
ATOM      4  C   UNL     1      -0.597   2.411   0.908  1.00  0.00     0.365 C 
ATOM      5  O   UNL     1      -0.864   3.348   1.653  1.00  0.00    -0.245 OA
BRANCH   4   6
ATOM      6  C   UNL     1       0.831   1.851   0.709  1.00  0.00     0.296 C 
BRANCH   6   7
ATOM      7  N   UNL     1       1.790   2.946   0.451  1.00  0.00    -0.346 N 
ATOM      8  H   UNL     1       1.634   3.700   1.120  1.00  0.00     0.345 HD
ATOM      9  H   UNL     1       1.655   3.300  -0.496  1.00  0.00     0.345 HD
ATOM     10  H   UNL     1       2.742   2.595   0.550  1.00  0.00     0.345 HD
ENDBRANCH   6   7
BRANCH   6  11
ATOM     11  C   UNL     1       0.989   0.657  -0.262  1.00  0.00     0.113 C 
BRANCH  11  12
ATOM     12  C   UNL     1       1.169   0.918  -1.742  1.00  0.00    -0.038 A 
ATOM     13  C   UNL     1       2.061   0.105  -2.469  1.00  0.00     0.008 A 
ATOM     14  C   UNL     1       0.432   1.883  -2.438  1.00  0.00     0.047 A 
ATOM     15  C   UNL     1       2.244   0.278  -3.844  1.00  0.00     0.049 A 
ATOM     16  C   UNL     1       0.619   2.054  -3.809  1.00  0.00     0.165 A 
ATOM     17  C   UNL     1       1.524   1.262  -4.510  1.00  0.00     0.151 A 
ATOM     18  F   UNL     1      -0.093   2.997  -4.443  1.00  0.00    -0.203 F 
BRANCH  17  19
ATOM     19  O   UNL     1       1.686   1.463  -5.850  1.00  0.00    -0.505 OA
ATOM     20  H   UNL     1       2.292   0.936  -6.333  1.00  0.00     0.293 HD
ENDBRANCH  17  19
ENDBRANCH  11  12
ENDBRANCH   6  11
ENDBRANCH   4   6
ENDBRANCH   3   4
ENDBRANCH   2   3
ENDBRANCH   1   2
BRANCH   1  21
ATOM     21  O   UNL     1      -3.378  -0.150   1.737  1.00  0.00    -0.374 OA
BRANCH  21  22
ATOM     22  C   UNL     1      -2.146  -0.869   1.700  1.00  0.00     0.202 C 
BRANCH  22  23
ATOM     23  C   UNL     1      -2.138  -2.140   0.840  1.00  0.00     0.261 C 
BRANCH  23  24
ATOM     24  O   UNL     1      -2.343  -1.865  -0.558  1.00  0.00    -0.460 OA
BRANCH  24  25
ATOM     25  C   UNL     1      -3.516  -2.322  -1.057  1.00  0.00     0.338 C 
ATOM     26  O   UNL     1      -4.358  -2.995  -0.474  1.00  0.00    -0.246 OA
BRANCH  25  27
ATOM     27  C   UNL     1      -3.760  -1.776  -2.404  1.00  0.00     0.060 A 
ATOM     28  C   UNL     1      -4.980  -1.122  -2.622  1.00  0.00     0.016 A 
ATOM     29  C   UNL     1      -2.871  -1.986  -3.459  1.00  0.00     0.016 A 
ATOM     30  C   UNL     1      -5.338  -0.720  -3.907  1.00  0.00     0.010 A 
ATOM     31  C   UNL     1      -3.237  -1.590  -4.752  1.00  0.00     0.010 A 
ATOM     32  C   UNL     1      -4.487  -0.989  -4.987  1.00  0.00    -0.014 A 
BRANCH  32  33
ATOM     33  C   UNL     1      -4.976  -0.767  -6.371  1.00  0.00     0.031 A 
ATOM     34  C   UNL     1      -5.530  -1.930  -7.149  1.00  0.00     0.074 A 
ATOM     35  C   UNL     1      -4.972   0.462  -6.914  1.00  0.00     0.049 A 
ATOM     36  N   UNL     1      -5.998  -1.967  -8.371  1.00  0.00    -0.248 NA
ATOM     37  C   UNL     1      -5.561  -3.226  -6.453  1.00  0.00     0.031 C 
ATOM     38  C   UNL     1      -4.503   1.676  -6.250  1.00  0.00     0.029 A 
ATOM     39  N   UNL     1      -5.378   0.889  -8.155  1.00  0.00    -0.354 N 
ATOM     40  C   UNL     1      -6.379  -3.284  -8.590  1.00  0.00     0.074 A 
ATOM     41  C   UNL     1      -6.060  -4.023  -7.387  1.00  0.00     0.031 C 
ATOM     42  C   UNL     1      -4.642   2.714  -7.093  1.00  0.00     0.029 A 
ATOM     43  C   UNL     1      -5.181   2.232  -8.364  1.00  0.00     0.049 A 
ATOM     44  H   UNL     1      -5.771   0.290  -8.829  1.00  0.00     0.167 HD
ATOM     45  C   UNL     1      -6.951  -3.826  -9.692  1.00  0.00     0.037 A 
ATOM     46  C   UNL     1      -5.396   2.980  -9.463  1.00  0.00     0.037 A 
ATOM     47  C   UNL     1      -7.269  -3.094 -10.889  1.00  0.00     0.049 A 
ATOM     48  C   UNL     1      -5.961   2.337 -10.702  1.00  0.00     0.074 A 
ATOM     49  C   UNL     1      -7.859  -3.556 -12.053  1.00  0.00     0.029 A 
ATOM     50  N   UNL     1      -7.016  -1.744 -11.079  1.00  0.00    -0.354 N 
ATOM     51  N   UNL     1      -6.332   1.095 -10.896  1.00  0.00    -0.248 NA
ATOM     52  C   UNL     1      -6.136   3.204 -11.878  1.00  0.00     0.031 C 
ATOM     53  C   UNL     1      -7.923  -2.495 -12.963  1.00  0.00     0.029 A 
ATOM     54  C   UNL     1      -7.416  -1.362 -12.349  1.00  0.00     0.049 A 
ATOM     55  H   UNL     1      -6.612  -1.146 -10.409  1.00  0.00     0.167 HD
ATOM     56  C   UNL     1      -6.808   1.036 -12.200  1.00  0.00     0.074 A 
ATOM     57  C   UNL     1      -6.688   2.371 -12.749  1.00  0.00     0.031 C 
ATOM     58  C   UNL     1      -7.299  -0.028 -12.881  1.00  0.00     0.037 A 
BRANCH  45  59
ATOM     59  C   UNL     1      -7.253  -5.295  -9.661  1.00  0.00     0.064 A 
ATOM     60  C   UNL     1      -8.308  -5.813  -8.894  1.00  0.00     0.173 A 
ATOM     61  C   UNL     1      -6.503  -6.191 -10.437  1.00  0.00     0.173 A 
ATOM     62  F   UNL     1      -9.046  -4.999  -8.124  1.00  0.00    -0.203 F 
ATOM     63  C   UNL     1      -8.586  -7.178  -8.888  1.00  0.00     0.198 A 
ATOM     64  C   UNL     1      -6.800  -7.551 -10.448  1.00  0.00     0.198 A 
ATOM     65  F   UNL     1      -5.487  -5.746 -11.191  1.00  0.00    -0.203 F 
ATOM     66  F   UNL     1      -9.572  -7.656  -8.116  1.00  0.00    -0.200 F 
ATOM     67  C   UNL     1      -7.836  -8.044  -9.670  1.00  0.00     0.200 A 
ATOM     68  F   UNL     1      -6.082  -8.386 -11.212  1.00  0.00    -0.200 F 
ATOM     69  F   UNL     1      -8.109  -9.356  -9.668  1.00  0.00    -0.200 F 
ENDBRANCH  45  59
BRANCH  46  70
ATOM     70  C   UNL     1      -5.064   4.428  -9.448  1.00  0.00     0.064 A 
ATOM     71  C   UNL     1      -6.072   5.401  -9.489  1.00  0.00     0.173 A 
ATOM     72  C   UNL     1      -3.733   4.868  -9.413  1.00  0.00     0.173 A 
ATOM     73  F   UNL     1      -7.359   5.029  -9.555  1.00  0.00    -0.203 F 
ATOM     74  C   UNL     1      -5.761   6.759  -9.508  1.00  0.00     0.198 A 
ATOM     75  C   UNL     1      -3.423   6.226  -9.405  1.00  0.00     0.198 A 
ATOM     76  F   UNL     1      -2.732   3.975  -9.384  1.00  0.00    -0.203 F 
ATOM     77  F   UNL     1      -6.742   7.668  -9.592  1.00  0.00    -0.200 F 
ATOM     78  C   UNL     1      -4.437   7.170  -9.459  1.00  0.00     0.200 A 
ATOM     79  F   UNL     1      -2.143   6.619  -9.354  1.00  0.00    -0.200 F 
ATOM     80  F   UNL     1      -4.138   8.476  -9.478  1.00  0.00    -0.200 F 
ENDBRANCH  46  70
BRANCH  58  81
ATOM     81  C   UNL     1      -7.778   0.209 -14.284  1.00  0.00     0.064 A 
ATOM     82  C   UNL     1      -6.881   0.424 -15.340  1.00  0.00     0.173 A 
ATOM     83  C   UNL     1      -9.149   0.175 -14.581  1.00  0.00     0.173 A 
ATOM     84  F   UNL     1      -5.561   0.479 -15.105  1.00  0.00    -0.203 F 
ATOM     85  C   UNL     1      -7.341   0.617 -16.640  1.00  0.00     0.198 A 
ATOM     86  C   UNL     1      -9.603   0.341 -15.886  1.00  0.00     0.198 A 
ATOM     87  F   UNL     1     -10.047  -0.035 -13.607  1.00  0.00    -0.203 F 
ATOM     88  F   UNL     1      -6.469   0.861 -17.628  1.00  0.00    -0.200 F 
ATOM     89  C   UNL     1      -8.700   0.568 -16.914  1.00  0.00     0.200 A 
ATOM     90  F   UNL     1     -10.916   0.281 -16.151  1.00  0.00    -0.200 F 
ATOM     91  F   UNL     1      -9.140   0.746 -18.167  1.00  0.00    -0.200 F 
ENDBRANCH  58  81
ENDBRANCH  32  33
ENDBRANCH  25  27
ENDBRANCH  24  25
ENDBRANCH  23  24
ENDBRANCH  22  23
ENDBRANCH  21  22
ENDBRANCH   1  21
TORSDOF 18
