REMARK SMILES O=C(OCCOCCOC(=O)[C@@H]1[C@@H](C(=O)Nc2ccc(F)c(F)c2)[C@H]2CC[C@@H]1O2)c1ccc(-c2c3nc(c(-c4c(F)c(F)c(F)c(F)c4F)c4ccc([nH]4)c(-c4c(F)c(F)c(F)c(F)c4F)c4nc(c(-c5c(F)c(F)c(F)c(F)c5F)c5ccc2[nH]5)C=C4)C=C3)cc1
REMARK SMILES IDX 6 1 5 2 4 3 3 4 2 5 1 6 30 7 31 8 92 9 32 10 91 11 33 12
REMARK SMILES IDX 34 13 35 14 85 15 36 16 90 17 84 18 86 19 37 20 89 21 83 22
REMARK SMILES IDX 82 23 38 25 70 26 50 27 69 28 51 29 54 30 68 31 87 32 52 33
REMARK SMILES IDX 53 34 67 36 88 37 55 38 39 39 40 40 48 41 41 42 42 43 46 44
REMARK SMILES IDX 49 45 43 46 44 47 47 48 45 49 71 50 72 51 80 52 73 53 74 54
REMARK SMILES IDX 78 55 81 56 75 57 76 58 79 59 77 60 56 61 57 62 65 63 58 64
REMARK SMILES IDX 59 65 63 66 66 67 60 68 61 69 64 70 62 71 7 72 8 73 9 74
REMARK SMILES IDX 10 75 11 76 12 77 13 78 28 79 25 80 27 81 29 82 26 83 14 84
REMARK SMILES IDX 15 85 16 86 17 88 18 89 24 90 19 91 22 92 20 93 23 94 21 95
REMARK H PARENT 86 24 54 35 16 87
REMARK Flexibility Score: inf
ROOT
ATOM      1  O   UNL     1       3.934  -1.050  -1.105  1.00  0.00    -0.374 OA
ENDROOT
BRANCH   1   2
ATOM      2  C   UNL     1       4.265  -1.532   0.201  1.00  0.00     0.202 C 
BRANCH   2   3
ATOM      3  C   UNL     1       4.032  -0.525   1.330  1.00  0.00     0.261 C 
BRANCH   3   4
ATOM      4  O   UNL     1       2.650  -0.134   1.371  1.00  0.00    -0.460 OA
BRANCH   4   5
ATOM      5  C   UNL     1       2.070   0.971   0.853  1.00  0.00     0.338 C 
ATOM      6  O   UNL     1       0.849   1.091   0.944  1.00  0.00    -0.246 OA
BRANCH   5   7
ATOM      7  C   UNL     1       2.826   2.078   0.191  1.00  0.00     0.060 A 
ATOM      8  C   UNL     1       4.024   1.934  -0.514  1.00  0.00     0.016 A 
ATOM      9  C   UNL     1       2.223   3.347   0.213  1.00  0.00     0.016 A 
ATOM     10  C   UNL     1       4.646   3.018  -1.118  1.00  0.00     0.010 A 
ATOM     11  C   UNL     1       2.824   4.438  -0.418  1.00  0.00     0.010 A 
ATOM     12  C   UNL     1       4.052   4.274  -1.066  1.00  0.00    -0.014 A 
BRANCH  12  13
ATOM     13  C   UNL     1       4.800   5.425  -1.593  1.00  0.00     0.031 A 
ATOM     14  C   UNL     1       5.519   6.301  -0.617  1.00  0.00     0.074 A 
ATOM     15  C   UNL     1       4.914   5.596  -2.921  1.00  0.00     0.049 A 
ATOM     16  N   UNL     1       6.167   7.414  -0.825  1.00  0.00    -0.248 NA
ATOM     17  C   UNL     1       5.522   5.853   0.787  1.00  0.00     0.031 C 
ATOM     18  C   UNL     1       4.356   4.700  -3.936  1.00  0.00     0.029 A 
ATOM     19  N   UNL     1       5.556   6.564  -3.644  1.00  0.00    -0.354 N 
ATOM     20  C   UNL     1       6.635   7.809   0.420  1.00  0.00     0.074 A 
ATOM     21  C   UNL     1       6.201   6.822   1.381  1.00  0.00     0.031 C 
ATOM     22  C   UNL     1       4.692   5.157  -5.153  1.00  0.00     0.029 A 
ATOM     23  C   UNL     1       5.427   6.409  -5.002  1.00  0.00     0.049 A 
ATOM     24  H   UNL     1       6.061   7.301  -3.230  1.00  0.00     0.167 HD
ATOM     25  C   UNL     1       7.359   8.910   0.719  1.00  0.00     0.037 A 
ATOM     26  C   UNL     1       5.830   7.218  -5.999  1.00  0.00     0.037 A 
ATOM     27  C   UNL     1       7.768   9.873  -0.265  1.00  0.00     0.049 A 
ATOM     28  C   UNL     1       6.534   8.496  -5.626  1.00  0.00     0.074 A 
ATOM     29  C   UNL     1       8.430  11.071  -0.083  1.00  0.00     0.029 A 
ATOM     30  N   UNL     1       7.549   9.732  -1.630  1.00  0.00    -0.354 N 
ATOM     31  N   UNL     1       6.896   8.923  -4.439  1.00  0.00    -0.248 NA
ATOM     32  C   UNL     1       6.862   9.417  -6.721  1.00  0.00     0.031 C 
ATOM     33  C   UNL     1       8.581  11.673  -1.336  1.00  0.00     0.029 A 
ATOM     34  C   UNL     1       8.052  10.830  -2.303  1.00  0.00     0.049 A 
ATOM     35  H   UNL     1       7.102   8.965  -2.054  1.00  0.00     0.167 HD
ATOM     36  C   UNL     1       7.497  10.156  -4.640  1.00  0.00     0.074 A 
ATOM     37  C   UNL     1       7.475  10.397  -6.070  1.00  0.00     0.031 C 
ATOM     38  C   UNL     1       8.009  11.022  -3.731  1.00  0.00     0.037 A 
BRANCH  25  39
ATOM     39  C   UNL     1       7.695   9.146   2.159  1.00  0.00     0.064 A 
ATOM     40  C   UNL     1       7.030  10.146   2.885  1.00  0.00     0.173 A 
ATOM     41  C   UNL     1       8.674   8.393   2.823  1.00  0.00     0.173 A 
ATOM     42  F   UNL     1       6.077  10.886   2.300  1.00  0.00    -0.203 F 
ATOM     43  C   UNL     1       7.341  10.389   4.220  1.00  0.00     0.198 A 
ATOM     44  C   UNL     1       8.967   8.624   4.165  1.00  0.00     0.198 A 
ATOM     45  F   UNL     1       9.315   7.404   2.181  1.00  0.00    -0.203 F 
ATOM     46  F   UNL     1       6.701  11.358   4.890  1.00  0.00    -0.200 F 
ATOM     47  C   UNL     1       8.306   9.626   4.860  1.00  0.00     0.200 A 
ATOM     48  F   UNL     1       9.877   7.865   4.791  1.00  0.00    -0.200 F 
ATOM     49  F   UNL     1       8.591   9.849   6.150  1.00  0.00    -0.200 F 
ENDBRANCH  25  39
BRANCH  26  50
ATOM     50  C   UNL     1       5.535   6.872  -7.415  1.00  0.00     0.064 A 
ATOM     51  C   UNL     1       4.216   6.812  -7.894  1.00  0.00     0.173 A 
ATOM     52  C   UNL     1       6.566   6.594  -8.324  1.00  0.00     0.173 A 
ATOM     53  F   UNL     1       3.190   7.074  -7.072  1.00  0.00    -0.203 F 
ATOM     54  C   UNL     1       3.940   6.466  -9.216  1.00  0.00     0.198 A 
ATOM     55  C   UNL     1       6.290   6.278  -9.654  1.00  0.00     0.198 A 
ATOM     56  F   UNL     1       7.845   6.662  -7.926  1.00  0.00    -0.203 F 
ATOM     57  F   UNL     1       2.670   6.386  -9.634  1.00  0.00    -0.200 F 
ATOM     58  C   UNL     1       4.978   6.206 -10.097  1.00  0.00     0.200 A 
ATOM     59  F   UNL     1       7.297   6.057 -10.510  1.00  0.00    -0.200 F 
ATOM     60  F   UNL     1       4.713   5.896 -11.373  1.00  0.00    -0.200 F 
ENDBRANCH  26  50
BRANCH  38  61
ATOM     61  C   UNL     1       8.589  12.298  -4.257  1.00  0.00     0.064 A 
ATOM     62  C   UNL     1       9.975  12.509  -4.238  1.00  0.00     0.173 A 
ATOM     63  C   UNL     1       7.764  13.342  -4.699  1.00  0.00     0.173 A 
ATOM     64  F   UNL     1      10.800  11.541  -3.814  1.00  0.00    -0.203 F 
ATOM     65  C   UNL     1      10.514  13.730  -4.628  1.00  0.00     0.198 A 
ATOM     66  C   UNL     1       8.309  14.552  -5.114  1.00  0.00     0.198 A 
ATOM     67  F   UNL     1       6.433  13.178  -4.744  1.00  0.00    -0.203 F 
ATOM     68  F   UNL     1      11.839  13.925  -4.568  1.00  0.00    -0.200 F 
ATOM     69  C   UNL     1       9.682  14.748  -5.068  1.00  0.00     0.200 A 
ATOM     70  F   UNL     1       7.506  15.528  -5.560  1.00  0.00    -0.200 F 
ATOM     71  F   UNL     1      10.204  15.922  -5.450  1.00  0.00    -0.200 F 
ENDBRANCH  38  61
ENDBRANCH  12  13
ENDBRANCH   5   7
ENDBRANCH   4   5
ENDBRANCH   3   4
ENDBRANCH   2   3
ENDBRANCH   1   2
BRANCH   1  72
ATOM     72  C   UNL     1       2.561  -1.208  -1.494  1.00  0.00     0.202 C 
BRANCH  72  73
ATOM     73  C   UNL     1       2.478  -1.944  -2.834  1.00  0.00     0.261 C 
BRANCH  73  74
ATOM     74  O   UNL     1       3.053  -3.248  -2.663  1.00  0.00    -0.463 OA
BRANCH  74  75
ATOM     75  C   UNL     1       4.409  -3.277  -2.823  1.00  0.00     0.312 C 
ATOM     76  O   UNL     1       5.058  -2.477  -3.483  1.00  0.00    -0.252 OA
BRANCH  75  77
ATOM     77  C   UNL     1       4.982  -4.323  -1.899  1.00  0.00     0.143 C 
ATOM     78  C   UNL     1       6.512  -4.222  -1.790  1.00  0.00     0.124 C 
ATOM     79  C   UNL     1       4.778  -5.719  -2.468  1.00  0.00     0.133 C 
ATOM     80  C   UNL     1       6.939  -5.618  -2.263  1.00  0.00     0.132 C 
ATOM     81  C   UNL     1       5.048  -6.758  -1.377  1.00  0.00     0.036 C 
ATOM     82  O   UNL     1       5.954  -5.868  -3.299  1.00  0.00    -0.373 OA
ATOM     83  C   UNL     1       6.576  -6.742  -1.294  1.00  0.00     0.035 C 
BRANCH  78  84
ATOM     84  C   UNL     1       7.002  -3.934  -0.380  1.00  0.00     0.231 C 
ATOM     85  O   UNL     1       6.339  -4.236   0.614  1.00  0.00    -0.274 OA
ATOM     86  N   UNL     1       8.278  -3.478  -0.201  1.00  0.00    -0.326 N 
ATOM     87  H   UNL     1       8.719  -3.779   0.627  1.00  0.00     0.169 HD
BRANCH  86  88
ATOM     88  C   UNL     1       9.052  -2.645  -1.020  1.00  0.00     0.044 A 
ATOM     89  C   UNL     1       8.486  -1.651  -1.830  1.00  0.00     0.029 A 
ATOM     90  C   UNL     1      10.442  -2.752  -0.932  1.00  0.00     0.068 A 
ATOM     91  C   UNL     1       9.304  -0.803  -2.582  1.00  0.00     0.044 A 
ATOM     92  C   UNL     1      11.248  -1.920  -1.704  1.00  0.00     0.160 A 
ATOM     93  C   UNL     1      10.684  -0.952  -2.523  1.00  0.00     0.158 A 
ATOM     94  F   UNL     1      12.579  -2.064  -1.646  1.00  0.00    -0.204 F 
ATOM     95  F   UNL     1      11.465  -0.144  -3.252  1.00  0.00    -0.204 F 
ENDBRANCH  86  88
ENDBRANCH  78  84
ENDBRANCH  75  77
ENDBRANCH  74  75
ENDBRANCH  73  74
ENDBRANCH  72  73
ENDBRANCH   1  72
TORSDOF 16
