REMARK SMILES O=C(CC[N@H+]1CCC[C@@H](C(=O)OCCOCCOC(=O)c2ccc(-c3c4nc(c(-c5c(F)c(F)c(F)c(F)c5F)c5ccc([nH]5)c(-c5c(F)c(F)c(F)c(F)c5F)c5nc(c(-c6c(F)c(F)c(F)c(F)c6F)c6ccc3[nH]6)C=C5)C=C4)cc2)C1)Nc1cccc(F)c1
REMARK SMILES IDX 14 1 13 2 12 3 10 4 11 5 9 6 5 7 6 8 84 9 7 11 8 12 4 13
REMARK SMILES IDX 3 14 2 15 1 16 85 17 86 19 87 20 92 21 88 22 90 23 89 24
REMARK SMILES IDX 91 25 15 26 16 27 17 28 18 29 19 30 20 31 21 32 22 33 83 34
REMARK SMILES IDX 23 35 82 36 24 37 25 38 26 39 76 40 27 41 81 42 75 43 77 44
REMARK SMILES IDX 28 45 80 46 74 47 73 48 29 50 61 51 41 52 60 53 42 54 45 55
REMARK SMILES IDX 59 56 78 57 43 58 44 59 58 61 79 62 46 63 30 64 31 65 39 66
REMARK SMILES IDX 32 67 33 68 37 69 40 70 34 71 35 72 38 73 36 74 62 75 63 76
REMARK SMILES IDX 71 77 64 78 65 79 69 80 72 81 66 82 67 83 70 84 68 85 47 86
REMARK SMILES IDX 48 87 56 88 49 89 50 90 54 91 57 92 51 93 52 94 55 95 53 96
REMARK H PARENT 5 10 85 18 77 49 45 60
REMARK Flexibility Score: inf
ROOT
ATOM      1  C   UNL     1       3.520   5.630  -1.678  1.00  0.00     0.202 C 
ENDROOT
BRANCH   1   2
ATOM      2  C   UNL     1       3.615   4.535  -0.618  1.00  0.00     0.261 C 
BRANCH   2   3
ATOM      3  O   UNL     1       4.775   3.705  -0.705  1.00  0.00    -0.463 OA
BRANCH   3   4
ATOM      4  C   UNL     1       4.611   2.692  -1.590  1.00  0.00     0.314 C 
ATOM      5  O   UNL     1       3.713   2.620  -2.421  1.00  0.00    -0.252 OA
BRANCH   4   6
ATOM      6  C   UNL     1       5.581   1.571  -1.359  1.00  0.00     0.154 C 
ATOM      7  N   UNL     1       5.045  -0.930  -1.047  1.00  0.00    -0.334 N 
ATOM      8  C   UNL     1       5.685  -1.157  -2.362  1.00  0.00     0.262 C 
ATOM      9  C   UNL     1       4.627   0.462  -0.924  1.00  0.00     0.277 C 
ATOM     10  H   UNL     1       5.714  -1.145  -0.308  1.00  0.00     0.348 HD
ATOM     11  C   UNL     1       6.832  -0.179  -2.638  1.00  0.00     0.062 C 
ATOM     12  C   UNL     1       6.336   1.260  -2.643  1.00  0.00     0.027 C 
BRANCH   7  13
ATOM     13  C   UNL     1       3.837  -1.814  -0.933  1.00  0.00     0.272 C 
BRANCH  13  14
ATOM     14  C   UNL     1       2.779  -1.427   0.136  1.00  0.00     0.161 C 
BRANCH  14  15
ATOM     15  C   UNL     1       1.718  -0.480  -0.436  1.00  0.00     0.230 C 
ATOM     16  O   UNL     1       1.106  -0.765  -1.462  1.00  0.00    -0.275 OA
ATOM     17  N   UNL     1       1.534   0.682   0.301  1.00  0.00    -0.326 N 
ATOM     18  H   UNL     1       1.899   0.694   1.216  1.00  0.00     0.169 HD
BRANCH  17  19
ATOM     19  C   UNL     1       0.869   1.852  -0.142  1.00  0.00     0.044 A 
ATOM     20  C   UNL     1       0.676   2.156  -1.497  1.00  0.00     0.026 A 
ATOM     21  C   UNL     1       0.473   2.792   0.816  1.00  0.00     0.065 A 
ATOM     22  C   UNL     1       0.112   3.381  -1.887  1.00  0.00     0.005 A 
ATOM     23  C   UNL     1      -0.119   3.991   0.417  1.00  0.00     0.125 A 
ATOM     24  C   UNL     1      -0.297   4.299  -0.925  1.00  0.00     0.039 A 
ATOM     25  F   UNL     1      -0.495   4.878   1.349  1.00  0.00    -0.207 F 
ENDBRANCH  17  19
ENDBRANCH  14  15
ENDBRANCH  13  14
ENDBRANCH   7  13
ENDBRANCH   4   6
ENDBRANCH   3   4
ENDBRANCH   2   3
ENDBRANCH   1   2
BRANCH   1  26
ATOM     26  O   UNL     1       3.478   5.271  -3.057  1.00  0.00    -0.374 OA
BRANCH  26  27
ATOM     27  C   UNL     1       4.731   4.990  -3.688  1.00  0.00     0.202 C 
BRANCH  27  28
ATOM     28  C   UNL     1       5.502   6.199  -4.221  1.00  0.00     0.261 C 
BRANCH  28  29
ATOM     29  O   UNL     1       5.701   7.181  -3.196  1.00  0.00    -0.460 OA
BRANCH  29  30
ATOM     30  C   UNL     1       4.759   8.162  -3.190  1.00  0.00     0.338 C 
ATOM     31  O   UNL     1       3.945   8.407  -4.052  1.00  0.00    -0.246 OA
BRANCH  30  32
ATOM     32  C   UNL     1       4.726   8.786  -1.847  1.00  0.00     0.060 A 
ATOM     33  C   UNL     1       3.464   9.069  -1.303  1.00  0.00     0.016 A 
ATOM     34  C   UNL     1       5.888   9.057  -1.121  1.00  0.00     0.016 A 
ATOM     35  C   UNL     1       3.361   9.701  -0.068  1.00  0.00     0.010 A 
ATOM     36  C   UNL     1       5.785   9.701   0.114  1.00  0.00     0.010 A 
ATOM     37  C   UNL     1       4.525  10.073   0.615  1.00  0.00    -0.014 A 
BRANCH  37  38
ATOM     38  C   UNL     1       4.439  11.058   1.717  1.00  0.00     0.031 A 
ATOM     39  C   UNL     1       4.742  12.495   1.394  1.00  0.00     0.074 A 
ATOM     40  C   UNL     1       4.089  10.694   2.961  1.00  0.00     0.049 A 
ATOM     41  N   UNL     1       4.816  13.531   2.188  1.00  0.00    -0.248 NA
ATOM     42  C   UNL     1       5.007  12.803  -0.022  1.00  0.00     0.031 C 
ATOM     43  C   UNL     1       3.728   9.342   3.378  1.00  0.00     0.029 A 
ATOM     44  N   UNL     1       3.993  11.441   4.108  1.00  0.00    -0.354 N 
ATOM     45  C   UNL     1       5.151  14.605   1.372  1.00  0.00     0.074 A 
ATOM     46  C   UNL     1       5.298  14.093   0.028  1.00  0.00     0.031 C 
ATOM     47  C   UNL     1       3.467   9.350   4.697  1.00  0.00     0.029 A 
ATOM     48  C   UNL     1       3.678  10.699   5.220  1.00  0.00     0.049 A 
ATOM     49  H   UNL     1       4.136  12.414   4.132  1.00  0.00     0.167 HD
ATOM     50  C   UNL     1       5.311  15.904   1.714  1.00  0.00     0.037 A 
ATOM     51  C   UNL     1       3.599  11.070   6.512  1.00  0.00     0.037 A 
ATOM     52  C   UNL     1       5.155  16.405   3.053  1.00  0.00     0.049 A 
ATOM     53  C   UNL     1       3.849  12.513   6.879  1.00  0.00     0.074 A 
ATOM     54  C   UNL     1       5.272  17.707   3.505  1.00  0.00     0.029 A 
ATOM     55  N   UNL     1       4.854  15.621   4.157  1.00  0.00    -0.354 N 
ATOM     56  N   UNL     1       4.141  13.528   6.102  1.00  0.00    -0.248 NA
ATOM     57  C   UNL     1       3.755  12.860   8.304  1.00  0.00     0.031 C 
ATOM     58  C   UNL     1       5.102  17.702   4.893  1.00  0.00     0.029 A 
ATOM     59  C   UNL     1       4.811  16.408   5.296  1.00  0.00     0.049 A 
ATOM     60  H   UNL     1       4.695  14.650   4.134  1.00  0.00     0.167 HD
ATOM     61  C   UNL     1       4.231  14.637   6.936  1.00  0.00     0.074 A 
ATOM     62  C   UNL     1       3.950  14.171   8.277  1.00  0.00     0.031 C 
ATOM     63  C   UNL     1       4.517  15.925   6.621  1.00  0.00     0.037 A 
BRANCH  50  64
ATOM     64  C   UNL     1       5.706  16.865   0.631  1.00  0.00     0.064 A 
ATOM     65  C   UNL     1       4.823  17.230  -0.396  1.00  0.00     0.173 A 
ATOM     66  C   UNL     1       6.981  17.453   0.640  1.00  0.00     0.173 A 
ATOM     67  F   UNL     1       3.600  16.683  -0.461  1.00  0.00    -0.203 F 
ATOM     68  C   UNL     1       5.209  18.129  -1.387  1.00  0.00     0.198 A 
ATOM     69  C   UNL     1       7.351  18.376  -0.334  1.00  0.00     0.198 A 
ATOM     70  F   UNL     1       7.864  17.138   1.599  1.00  0.00    -0.203 F 
ATOM     71  F   UNL     1       4.367  18.425  -2.386  1.00  0.00    -0.200 F 
ATOM     72  C   UNL     1       6.469  18.708  -1.350  1.00  0.00     0.200 A 
ATOM     73  F   UNL     1       8.565  18.943  -0.289  1.00  0.00    -0.200 F 
ATOM     74  F   UNL     1       6.835  19.581  -2.299  1.00  0.00    -0.200 F 
ENDBRANCH  50  64
BRANCH  51  75
ATOM     75  C   UNL     1       3.288  10.062   7.561  1.00  0.00     0.064 A 
ATOM     76  C   UNL     1       2.092  10.118   8.289  1.00  0.00     0.173 A 
ATOM     77  C   UNL     1       4.193   9.037   7.874  1.00  0.00     0.173 A 
ATOM     78  F   UNL     1       1.204  11.094   8.046  1.00  0.00    -0.203 F 
ATOM     79  C   UNL     1       1.823   9.204   9.306  1.00  0.00     0.198 A 
ATOM     80  C   UNL     1       3.909   8.103   8.869  1.00  0.00     0.198 A 
ATOM     81  F   UNL     1       5.353   8.937   7.209  1.00  0.00    -0.203 F 
ATOM     82  F   UNL     1       0.697   9.314  10.024  1.00  0.00    -0.200 F 
ATOM     83  C   UNL     1       2.730   8.193   9.591  1.00  0.00     0.200 A 
ATOM     84  F   UNL     1       4.782   7.120   9.130  1.00  0.00    -0.200 F 
ATOM     85  F   UNL     1       2.471   7.313  10.567  1.00  0.00    -0.200 F 
ENDBRANCH  51  75
BRANCH  63  86
ATOM     86  C   UNL     1       4.495  16.932   7.736  1.00  0.00     0.064 A 
ATOM     87  C   UNL     1       5.480  16.956   8.733  1.00  0.00     0.173 A 
ATOM     88  C   UNL     1       3.497  17.920   7.775  1.00  0.00     0.173 A 
ATOM     89  F   UNL     1       6.449  16.028   8.747  1.00  0.00    -0.203 F 
ATOM     90  C   UNL     1       5.452  17.913   9.744  1.00  0.00     0.198 A 
ATOM     91  C   UNL     1       3.492  18.896   8.767  1.00  0.00     0.198 A 
ATOM     92  F   UNL     1       2.536  17.949   6.839  1.00  0.00    -0.203 F 
ATOM     93  F   UNL     1       6.375  17.885  10.716  1.00  0.00    -0.200 F 
ATOM     94  C   UNL     1       4.464  18.886   9.756  1.00  0.00     0.200 A 
ATOM     95  F   UNL     1       2.547  19.846   8.765  1.00  0.00    -0.200 F 
ATOM     96  F   UNL     1       4.445  19.812  10.724  1.00  0.00    -0.200 F 
ENDBRANCH  63  86
ENDBRANCH  37  38
ENDBRANCH  30  32
ENDBRANCH  29  30
ENDBRANCH  28  29
ENDBRANCH  27  28
ENDBRANCH  26  27
ENDBRANCH   1  26
TORSDOF 18
