REMARK SMILES COC(=O)c1ccc([C@H]2CC(=O)Nc3c(C(=O)OCCOCCOC(=O)c4ccc(-c5c6nc(c(-c7c(F)c(F)c(F)c(F)c7F)c7ccc([nH]7)c(-c7c(F)c(F)c(F)c(F)c7F)c7nc(c(-c8c(F)c(F)c(F)c(F)c8F)c8ccc5[nH]8)C=C7)C=C6)cc4)cn(-c4ccccc4)c32)cc1
REMARK SMILES IDX 20 1 19 2 18 3 16 4 17 5 15 6 9 7 10 8 98 9 11 10 14 11
REMARK SMILES IDX 91 12 12 13 13 14 90 15 8 17 5 18 6 19 100 20 7 21 99 22
REMARK SMILES IDX 3 23 4 24 2 25 1 26 92 27 93 28 97 29 94 30 96 31 95 32
REMARK SMILES IDX 21 33 22 34 23 35 24 36 25 37 26 38 27 39 28 40 89 41 29 42
REMARK SMILES IDX 88 43 30 44 31 45 32 46 82 47 33 48 87 49 81 50 83 51 34 52
REMARK SMILES IDX 86 53 80 54 79 55 35 57 67 58 47 59 66 60 48 61 51 62 65 63
REMARK SMILES IDX 84 64 49 65 50 66 64 68 85 69 52 70 36 71 37 72 45 73 38 74
REMARK SMILES IDX 39 75 43 76 46 77 40 78 41 79 44 80 42 81 68 82 69 83 77 84
REMARK SMILES IDX 70 85 71 86 75 87 78 88 72 89 73 90 76 91 74 92 53 93 54 94
REMARK SMILES IDX 62 95 55 96 56 97 60 98 63 99 57 100 58 101 61 102 59 103
REMARK H PARENT 13 16 83 56 51 67
REMARK Flexibility Score: inf
ROOT
ATOM      1  C   UNL     1      -7.101  -9.248  -3.700  1.00  0.00     0.202 C 
ENDROOT
BRANCH   1   2
ATOM      2  C   UNL     1      -6.683  -7.980  -2.949  1.00  0.00     0.261 C 
BRANCH   2   3
ATOM      3  O   UNL     1      -5.569  -7.304  -3.554  1.00  0.00    -0.460 OA
BRANCH   3   4
ATOM      4  C   UNL     1      -4.373  -7.522  -2.938  1.00  0.00     0.341 C 
ATOM      5  O   UNL     1      -4.230  -8.167  -1.899  1.00  0.00    -0.246 OA
BRANCH   4   6
ATOM      6  C   UNL     1      -3.241  -7.042  -3.710  1.00  0.00     0.102 A 
ATOM      7  C   UNL     1      -1.285  -4.873  -6.021  1.00  0.00     0.078 C 
ATOM      8  C   UNL     1      -2.455  -4.139  -6.697  1.00  0.00     0.115 C 
ATOM      9  C   UNL     1      -1.807  -5.894  -5.042  1.00  0.00     0.055 A 
ATOM     10  C   UNL     1      -3.718  -3.994  -5.862  1.00  0.00     0.225 C 
ATOM     11  C   UNL     1      -3.108  -5.946  -4.593  1.00  0.00     0.078 A 
ATOM     12  N   UNL     1      -1.103  -6.908  -4.413  1.00  0.00    -0.317 N 
ATOM     13  O   UNL     1      -4.515  -3.078  -6.062  1.00  0.00    -0.275 OA
ATOM     14  N   UNL     1      -4.017  -4.989  -4.967  1.00  0.00    -0.324 N 
ATOM     15  C   UNL     1      -2.005  -7.674  -3.714  1.00  0.00     0.109 A 
ATOM     16  H   UNL     1      -4.920  -5.017  -4.577  1.00  0.00     0.170 HD
BRANCH   7  17
ATOM     17  C   UNL     1      -0.346  -5.409  -7.105  1.00  0.00    -0.038 A 
ATOM     18  C   UNL     1       1.586  -6.434  -8.890  1.00  0.00     0.060 A 
ATOM     19  C   UNL     1       1.615  -5.085  -8.518  1.00  0.00     0.016 A 
ATOM     20  C   UNL     1       0.546  -7.247  -8.430  1.00  0.00     0.016 A 
ATOM     21  C   UNL     1       0.657  -4.578  -7.632  1.00  0.00     0.005 A 
ATOM     22  C   UNL     1      -0.431  -6.728  -7.580  1.00  0.00     0.005 A 
BRANCH  18  23
ATOM     23  C   UNL     1       2.685  -6.977  -9.733  1.00  0.00     0.337 C 
ATOM     24  O   UNL     1       3.718  -6.375  -9.978  1.00  0.00    -0.246 OA
BRANCH  23  25
ATOM     25  O   UNL     1       2.362  -8.221 -10.169  1.00  0.00    -0.465 OA
ATOM     26  C   UNL     1       3.361  -8.856 -10.965  1.00  0.00     0.282 C 
ENDBRANCH  23  25
ENDBRANCH  18  23
ENDBRANCH   7  17
BRANCH  12  27
ATOM     27  C   UNL     1       0.284  -7.165  -4.476  1.00  0.00     0.045 A 
ATOM     28  C   UNL     1       1.185  -6.128  -4.224  1.00  0.00     0.026 A 
ATOM     29  C   UNL     1       0.735  -8.429  -4.876  1.00  0.00     0.026 A 
ATOM     30  C   UNL     1       2.547  -6.343  -4.419  1.00  0.00     0.002 A 
ATOM     31  C   UNL     1       2.097  -8.619  -5.111  1.00  0.00     0.002 A 
ATOM     32  C   UNL     1       2.999  -7.577  -4.888  1.00  0.00     0.000 A 
ENDBRANCH  12  27
ENDBRANCH   4   6
ENDBRANCH   3   4
ENDBRANCH   2   3
ENDBRANCH   1   2
BRANCH   1  33
ATOM     33  O   UNL     1      -6.184 -10.339  -3.765  1.00  0.00    -0.374 OA
BRANCH  33  34
ATOM     34  C   UNL     1      -5.028 -10.262  -4.591  1.00  0.00     0.202 C 
BRANCH  34  35
ATOM     35  C   UNL     1      -5.203 -10.317  -6.099  1.00  0.00     0.261 C 
BRANCH  35  36
ATOM     36  O   UNL     1      -6.024  -9.261  -6.569  1.00  0.00    -0.460 OA
BRANCH  36  37
ATOM     37  C   UNL     1      -7.294  -9.630  -6.838  1.00  0.00     0.338 C 
ATOM     38  O   UNL     1      -7.851 -10.673  -6.517  1.00  0.00    -0.246 OA
BRANCH  37  39
ATOM     39  C   UNL     1      -7.876  -8.642  -7.744  1.00  0.00     0.060 A 
ATOM     40  C   UNL     1      -9.132  -8.960  -8.264  1.00  0.00     0.016 A 
ATOM     41  C   UNL     1      -7.042  -7.677  -8.329  1.00  0.00     0.016 A 
ATOM     42  C   UNL     1      -9.425  -8.527  -9.533  1.00  0.00     0.010 A 
ATOM     43  C   UNL     1      -7.327  -7.263  -9.602  1.00  0.00     0.010 A 
ATOM     44  C   UNL     1      -8.460  -7.782 -10.219  1.00  0.00    -0.014 A 
BRANCH  44  45
ATOM     45  C   UNL     1      -8.712  -7.449 -11.598  1.00  0.00     0.031 A 
ATOM     46  C   UNL     1      -9.713  -6.372 -11.717  1.00  0.00     0.074 A 
ATOM     47  C   UNL     1      -8.026  -8.011 -12.610  1.00  0.00     0.049 A 
ATOM     48  N   UNL     1     -10.927  -6.482 -12.139  1.00  0.00    -0.248 NA
ATOM     49  C   UNL     1      -9.410  -5.080 -11.077  1.00  0.00     0.031 C 
ATOM     50  C   UNL     1      -6.861  -8.897 -12.549  1.00  0.00     0.029 A 
ATOM     51  N   UNL     1      -8.192  -7.819 -13.946  1.00  0.00    -0.354 N 
ATOM     52  C   UNL     1     -11.470  -5.210 -12.020  1.00  0.00     0.074 A 
ATOM     53  C   UNL     1     -10.591  -4.468 -11.158  1.00  0.00     0.031 C 
ATOM     54  C   UNL     1      -6.293  -8.974 -13.776  1.00  0.00     0.029 A 
ATOM     55  C   UNL     1      -7.123  -8.254 -14.725  1.00  0.00     0.049 A 
ATOM     56  H   UNL     1      -8.999  -7.407 -14.330  1.00  0.00     0.167 HD
ATOM     57  C   UNL     1     -12.425  -4.790 -12.891  1.00  0.00     0.037 A 
ATOM     58  C   UNL     1      -6.933  -7.936 -16.032  1.00  0.00     0.037 A 
ATOM     59  C   UNL     1     -13.043  -5.910 -13.556  1.00  0.00     0.049 A 
ATOM     60  C   UNL     1      -8.252  -7.497 -16.570  1.00  0.00     0.074 A 
ATOM     61  C   UNL     1     -13.766  -7.008 -13.129  1.00  0.00     0.029 A 
ATOM     62  N   UNL     1     -12.609  -6.216 -14.823  1.00  0.00    -0.354 N 
ATOM     63  N   UNL     1      -9.267  -8.303 -16.721  1.00  0.00    -0.248 NA
ATOM     64  C   UNL     1      -8.588  -6.085 -16.449  1.00  0.00     0.031 C 
ATOM     65  C   UNL     1     -13.333  -8.084 -13.959  1.00  0.00     0.029 A 
ATOM     66  C   UNL     1     -12.432  -7.573 -14.893  1.00  0.00     0.049 A 
ATOM     67  H   UNL     1     -12.452  -5.573 -15.552  1.00  0.00     0.167 HD
ATOM     68  C   UNL     1     -10.363  -7.575 -16.279  1.00  0.00     0.074 A 
ATOM     69  C   UNL     1      -9.892  -6.196 -16.178  1.00  0.00     0.031 C 
ATOM     70  C   UNL     1     -11.453  -8.203 -15.747  1.00  0.00     0.037 A 
BRANCH  57  71
ATOM     71  C   UNL     1     -12.482  -3.388 -13.447  1.00  0.00     0.064 A 
ATOM     72  C   UNL     1     -13.566  -3.039 -14.273  1.00  0.00     0.173 A 
ATOM     73  C   UNL     1     -11.389  -2.491 -13.466  1.00  0.00     0.173 A 
ATOM     74  F   UNL     1     -14.652  -3.824 -14.342  1.00  0.00    -0.203 F 
ATOM     75  C   UNL     1     -13.517  -1.932 -15.122  1.00  0.00     0.198 A 
ATOM     76  C   UNL     1     -11.368  -1.358 -14.273  1.00  0.00     0.198 A 
ATOM     77  F   UNL     1     -10.250  -2.722 -12.805  1.00  0.00    -0.203 F 
ATOM     78  F   UNL     1     -14.514  -1.718 -15.991  1.00  0.00    -0.200 F 
ATOM     79  C   UNL     1     -12.415  -1.097 -15.128  1.00  0.00     0.200 A 
ATOM     80  F   UNL     1     -10.280  -0.574 -14.275  1.00  0.00    -0.200 F 
ATOM     81  F   UNL     1     -12.336  -0.076 -15.990  1.00  0.00    -0.200 F 
ENDBRANCH  57  71
BRANCH  58  82
ATOM     82  C   UNL     1      -5.656  -7.625 -16.723  1.00  0.00     0.064 A 
ATOM     83  C   UNL     1      -5.584  -7.566 -18.126  1.00  0.00     0.173 A 
ATOM     84  C   UNL     1      -4.554  -7.099 -16.021  1.00  0.00     0.173 A 
ATOM     85  F   UNL     1      -6.611  -7.998 -18.872  1.00  0.00    -0.203 F 
ATOM     86  C   UNL     1      -4.487  -6.997 -18.783  1.00  0.00     0.198 A 
ATOM     87  C   UNL     1      -3.458  -6.535 -16.678  1.00  0.00     0.198 A 
ATOM     88  F   UNL     1      -4.559  -7.033 -14.683  1.00  0.00    -0.203 F 
ATOM     89  F   UNL     1      -4.481  -6.904 -20.121  1.00  0.00    -0.200 F 
ATOM     90  C   UNL     1      -3.430  -6.472 -18.058  1.00  0.00     0.200 A 
ATOM     91  F   UNL     1      -2.461  -5.996 -15.962  1.00  0.00    -0.200 F 
ATOM     92  F   UNL     1      -2.408  -5.871 -18.683  1.00  0.00    -0.200 F 
ENDBRANCH  58  82
BRANCH  70  93
ATOM     93  C   UNL     1     -11.536  -9.697 -15.880  1.00  0.00     0.064 A 
ATOM     94  C   UNL     1     -10.630 -10.595 -15.285  1.00  0.00     0.173 A 
ATOM     95  C   UNL     1     -12.663 -10.241 -16.507  1.00  0.00     0.173 A 
ATOM     96  F   UNL     1      -9.581 -10.150 -14.581  1.00  0.00    -0.203 F 
ATOM     97  C   UNL     1     -10.830 -11.973 -15.354  1.00  0.00     0.198 A 
ATOM     98  C   UNL     1     -12.880 -11.615 -16.542  1.00  0.00     0.198 A 
ATOM     99  F   UNL     1     -13.588  -9.430 -17.043  1.00  0.00    -0.203 F 
ATOM    100  F   UNL     1      -9.948 -12.811 -14.786  1.00  0.00    -0.200 F 
ATOM    101  C   UNL     1     -11.959 -12.481 -15.975  1.00  0.00     0.200 A 
ATOM    102  F   UNL     1     -13.999 -12.097 -17.099  1.00  0.00    -0.200 F 
ATOM    103  F   UNL     1     -12.175 -13.804 -16.005  1.00  0.00    -0.200 F 
ENDBRANCH  70  93
ENDBRANCH  44  45
ENDBRANCH  37  39
ENDBRANCH  36  37
ENDBRANCH  35  36
ENDBRANCH  34  35
ENDBRANCH  33  34
ENDBRANCH   1  33
TORSDOF 18
