REMARK SMILES C[NH+](C)[C@@H]1CC[N@@H+](Cc2ccc(C(=O)OCCOCCOC(=O)c3ccc(-c4c5nc(c(-c6c(F)c(F)c(F)c(F)c6F)c6ccc([nH]6)c(-c6c(F)c(F)c(F)c(F)c6F)c6nc(c(-c7c(F)c(F)c(F)c(F)c7F)c7ccc4[nH]7)C=C6)C=C5)cc3)cn2)C1
REMARK SMILES IDX 17 1 16 2 15 3 13 4 14 5 12 6 9 7 10 8 88 9 11 10 87 11 8 12
REMARK SMILES IDX 7 13 4 14 5 15 89 16 6 17 2 19 1 20 3 21 18 23 19 24 20 25
REMARK SMILES IDX 21 26 22 27 23 28 24 29 25 30 86 31 26 32 85 33 27 34 28 35
REMARK SMILES IDX 29 36 79 37 30 38 84 39 78 40 80 41 31 42 83 43 77 44 76 45
REMARK SMILES IDX 32 47 64 48 44 49 63 50 45 51 48 52 62 53 81 54 46 55 47 56
REMARK SMILES IDX 61 58 82 59 49 60 33 61 34 62 42 63 35 64 36 65 40 66 43 67
REMARK SMILES IDX 37 68 38 69 41 70 39 71 65 72 66 73 74 74 67 75 68 76 72 77
REMARK SMILES IDX 75 78 69 79 70 80 73 81 71 82 50 83 51 84 59 85 52 86 53 87
REMARK SMILES IDX 57 88 60 89 54 90 55 91 58 92 56 93
REMARK H PARENT 7 18 2 22 80 46 48 57
REMARK Flexibility Score: inf
ROOT
ATOM      1  C   UNL     1       8.170   0.675  -5.996  1.00  0.00     0.202 C 
ENDROOT
BRANCH   1   2
ATOM      2  C   UNL     1       7.493   0.004  -4.799  1.00  0.00     0.261 C 
BRANCH   2   3
ATOM      3  O   UNL     1       6.146   0.478  -4.659  1.00  0.00    -0.460 OA
BRANCH   3   4
ATOM      4  C   UNL     1       5.920   1.213  -3.549  1.00  0.00     0.339 C 
ATOM      5  O   UNL     1       6.667   1.341  -2.587  1.00  0.00    -0.246 OA
BRANCH   4   6
ATOM      6  C   UNL     1       4.684   1.992  -3.699  1.00  0.00     0.078 A 
ATOM      7  C   UNL     1       2.377   3.459  -3.583  1.00  0.00     0.095 A 
ATOM      8  C   UNL     1       2.430   2.363  -4.443  1.00  0.00     0.031 A 
ATOM      9  N   UNL     1       3.470   3.919  -2.920  1.00  0.00    -0.254 NA
ATOM     10  C   UNL     1       3.605   1.614  -4.499  1.00  0.00     0.019 A 
ATOM     11  C   UNL     1       4.592   3.172  -2.980  1.00  0.00     0.127 A 
BRANCH   7  12
ATOM     12  C   UNL     1       1.043   4.036  -3.148  1.00  0.00     0.319 C 
BRANCH  12  13
ATOM     13  N   UNL     1       0.390   3.378  -1.997  1.00  0.00    -0.325 N 
ATOM     14  C   UNL     1       0.790   0.978  -1.656  1.00  0.00     0.245 C 
ATOM     15  C   UNL     1       1.818   1.809  -0.868  1.00  0.00     0.132 C 
ATOM     16  C   UNL     1      -0.174   2.048  -2.248  1.00  0.00     0.328 C 
ATOM     17  C   UNL     1       1.243   3.217  -0.816  1.00  0.00     0.269 C 
ATOM     18  H   UNL     1      -0.359   4.049  -1.828  1.00  0.00     0.348 HD
BRANCH  14  19
ATOM     19  N   UNL     1       0.230  -0.243  -1.034  1.00  0.00    -0.333 N 
ATOM     20  C   UNL     1       0.559  -0.454   0.370  1.00  0.00     0.332 C 
ATOM     21  C   UNL     1      -1.192  -0.467  -1.267  1.00  0.00     0.332 C 
ATOM     22  H   UNL     1       0.734  -0.960  -1.555  1.00  0.00     0.348 HD
ENDBRANCH  14  19
ENDBRANCH  12  13
ENDBRANCH   7  12
ENDBRANCH   4   6
ENDBRANCH   3   4
ENDBRANCH   2   3
ENDBRANCH   1   2
BRANCH   1  23
ATOM     23  O   UNL     1       8.393   2.082  -5.896  1.00  0.00    -0.374 OA
BRANCH  23  24
ATOM     24  C   UNL     1       7.287   2.955  -6.126  1.00  0.00     0.202 C 
BRANCH  24  25
ATOM     25  C   UNL     1       6.862   3.179  -7.582  1.00  0.00     0.261 C 
BRANCH  25  26
ATOM     26  O   UNL     1       6.311   1.990  -8.177  1.00  0.00    -0.460 OA
BRANCH  26  27
ATOM     27  C   UNL     1       7.105   1.398  -9.098  1.00  0.00     0.338 C 
ATOM     28  O   UNL     1       8.191   1.787  -9.506  1.00  0.00    -0.246 OA
BRANCH  27  29
ATOM     29  C   UNL     1       6.560   0.078  -9.454  1.00  0.00     0.060 A 
ATOM     30  C   UNL     1       7.410  -1.033  -9.350  1.00  0.00     0.016 A 
ATOM     31  C   UNL     1       5.268  -0.060  -9.963  1.00  0.00     0.016 A 
ATOM     32  C   UNL     1       6.989  -2.281  -9.804  1.00  0.00     0.010 A 
ATOM     33  C   UNL     1       4.852  -1.308 -10.431  1.00  0.00     0.010 A 
ATOM     34  C   UNL     1       5.723  -2.414 -10.388  1.00  0.00    -0.014 A 
BRANCH  34  35
ATOM     35  C   UNL     1       5.362  -3.650 -11.119  1.00  0.00     0.031 A 
ATOM     36  C   UNL     1       5.482  -3.653 -12.617  1.00  0.00     0.074 A 
ATOM     37  C   UNL     1       4.906  -4.735 -10.469  1.00  0.00     0.049 A 
ATOM     38  N   UNL     1       5.066  -4.540 -13.483  1.00  0.00    -0.248 NA
ATOM     39  C   UNL     1       6.156  -2.491 -13.222  1.00  0.00     0.031 C 
ATOM     40  C   UNL     1       4.800  -4.868  -9.018  1.00  0.00     0.029 A 
ATOM     41  N   UNL     1       4.420  -5.923 -10.954  1.00  0.00    -0.354 N 
ATOM     42  C   UNL     1       5.399  -4.031 -14.732  1.00  0.00     0.074 A 
ATOM     43  C   UNL     1       6.048  -2.757 -14.516  1.00  0.00     0.031 C 
ATOM     44  C   UNL     1       4.247  -6.060  -8.730  1.00  0.00     0.029 A 
ATOM     45  C   UNL     1       3.923  -6.750  -9.977  1.00  0.00     0.049 A 
ATOM     46  H   UNL     1       4.428  -6.160 -11.910  1.00  0.00     0.167 HD
ATOM     47  C   UNL     1       5.177  -4.581 -15.948  1.00  0.00     0.037 A 
ATOM     48  C   UNL     1       3.243  -7.909 -10.086  1.00  0.00     0.037 A 
ATOM     49  C   UNL     1       4.552  -5.859 -16.153  1.00  0.00     0.049 A 
ATOM     50  C   UNL     1       2.959  -8.472 -11.458  1.00  0.00     0.074 A 
ATOM     51  C   UNL     1       4.307  -6.517 -17.345  1.00  0.00     0.029 A 
ATOM     52  N   UNL     1       4.074  -6.673 -15.137  1.00  0.00    -0.354 N 
ATOM     53  N   UNL     1       3.289  -7.995 -12.633  1.00  0.00    -0.248 NA
ATOM     54  C   UNL     1       2.204  -9.732 -11.518  1.00  0.00     0.031 C 
ATOM     55  C   UNL     1       3.636  -7.708 -17.054  1.00  0.00     0.029 A 
ATOM     56  C   UNL     1       3.515  -7.817 -15.678  1.00  0.00     0.049 A 
ATOM     57  H   UNL     1       4.123  -6.467 -14.176  1.00  0.00     0.167 HD
ATOM     58  C   UNL     1       2.826  -8.915 -13.565  1.00  0.00     0.074 A 
ATOM     59  C   UNL     1       2.187  -9.979 -12.820  1.00  0.00     0.031 C 
ATOM     60  C   UNL     1       2.924  -8.886 -14.916  1.00  0.00     0.037 A 
BRANCH  47  61
ATOM     61  C   UNL     1       5.584  -3.799 -17.160  1.00  0.00     0.064 A 
ATOM     62  C   UNL     1       6.928  -3.663 -17.535  1.00  0.00     0.173 A 
ATOM     63  C   UNL     1       4.606  -3.245 -18.000  1.00  0.00     0.173 A 
ATOM     64  F   UNL     1       7.900  -4.164 -16.758  1.00  0.00    -0.203 F 
ATOM     65  C   UNL     1       7.278  -2.993 -18.705  1.00  0.00     0.198 A 
ATOM     66  C   UNL     1       4.958  -2.599 -19.181  1.00  0.00     0.198 A 
ATOM     67  F   UNL     1       3.306  -3.351 -17.685  1.00  0.00    -0.203 F 
ATOM     68  F   UNL     1       8.569  -2.852 -19.033  1.00  0.00    -0.200 F 
ATOM     69  C   UNL     1       6.293  -2.472 -19.532  1.00  0.00     0.200 A 
ATOM     70  F   UNL     1       4.004  -2.107 -19.984  1.00  0.00    -0.200 F 
ATOM     71  F   UNL     1       6.631  -1.845 -20.667  1.00  0.00    -0.200 F 
ENDBRANCH  47  61
BRANCH  48  72
ATOM     72  C   UNL     1       2.746  -8.606  -8.870  1.00  0.00     0.064 A 
ATOM     73  C   UNL     1       3.250  -9.859  -8.495  1.00  0.00     0.173 A 
ATOM     74  C   UNL     1       1.720  -8.056  -8.086  1.00  0.00     0.173 A 
ATOM     75  F   UNL     1       4.212 -10.439  -9.228  1.00  0.00    -0.203 F 
ATOM     76  C   UNL     1       2.728 -10.549  -7.403  1.00  0.00     0.198 A 
ATOM     77  C   UNL     1       1.220  -8.732  -6.975  1.00  0.00     0.198 A 
ATOM     78  F   UNL     1       1.200  -6.860  -8.400  1.00  0.00    -0.203 F 
ATOM     79  F   UNL     1       3.185 -11.773  -7.106  1.00  0.00    -0.200 F 
ATOM     80  C   UNL     1       1.716  -9.984  -6.642  1.00  0.00     0.200 A 
ATOM     81  F   UNL     1       0.250  -8.177  -6.236  1.00  0.00    -0.200 F 
ATOM     82  F   UNL     1       1.208 -10.651  -5.596  1.00  0.00    -0.200 F 
ENDBRANCH  48  72
BRANCH  60  83
ATOM     83  C   UNL     1       2.406 -10.065 -15.683  1.00  0.00     0.064 A 
ATOM     84  C   UNL     1       1.034 -10.285 -15.864  1.00  0.00     0.173 A 
ATOM     85  C   UNL     1       3.304 -10.936 -16.320  1.00  0.00     0.173 A 
ATOM     86  F   UNL     1       0.137  -9.487 -15.266  1.00  0.00    -0.203 F 
ATOM     87  C   UNL     1       0.579 -11.341 -16.650  1.00  0.00     0.198 A 
ATOM     88  C   UNL     1       2.846 -11.973 -17.126  1.00  0.00     0.198 A 
ATOM     89  F   UNL     1       4.627 -10.761 -16.184  1.00  0.00    -0.203 F 
ATOM     90  F   UNL     1      -0.737 -11.552 -16.789  1.00  0.00    -0.200 F 
ATOM     91  C   UNL     1       1.484 -12.177 -17.288  1.00  0.00     0.200 A 
ATOM     92  F   UNL     1       3.723 -12.768 -17.755  1.00  0.00    -0.200 F 
ATOM     93  F   UNL     1       1.044 -13.179 -18.061  1.00  0.00    -0.200 F 
ENDBRANCH  60  83
ENDBRANCH  34  35
ENDBRANCH  27  29
ENDBRANCH  26  27
ENDBRANCH  25  26
ENDBRANCH  24  25
ENDBRANCH  23  24
ENDBRANCH   1  23
TORSDOF 17
