REMARK SMILES CC[C@H](C)[C@@H](C(=O)OCCOCCOC(=O)c1ccc(-c2c3nc(c(-c4c(F)c(F)c(F)c(F)c4F)c4ccc([nH]4)c(-c4c(F)c(F)c(F)c(F)c4F)c4nc(c(-c5c(F)c(F)c(F)c(F)c5F)c5ccc2[nH]5)C=C4)C=C3)cc1)N1C(=O)/C(=C/c2ccccc2OC)SC1=S
REMARK SMILES IDX 10 1 9 2 8 3 6 4 7 5 5 6 3 7 4 8 2 9 1 10 80 11 81 12 94 13
REMARK SMILES IDX 82 14 83 15 93 16 95 17 84 18 85 19 86 20 90 21 87 22 89 23
REMARK SMILES IDX 88 24 91 25 92 26 11 27 12 28 13 29 14 30 15 31 16 32 17 33
REMARK SMILES IDX 18 34 79 35 19 36 78 37 20 38 21 39 22 40 72 41 23 42 77 43
REMARK SMILES IDX 71 44 73 45 24 46 76 47 70 48 69 49 25 51 57 52 37 53 56 54
REMARK SMILES IDX 38 55 41 56 55 57 74 58 39 59 40 60 54 62 75 63 42 64 26 65
REMARK SMILES IDX 27 66 35 67 28 68 29 69 33 70 36 71 30 72 31 73 34 74 32 75
REMARK SMILES IDX 58 76 59 77 67 78 60 79 61 80 65 81 68 82 62 83 63 84 66 85
REMARK SMILES IDX 64 86 43 87 44 88 52 89 45 90 46 91 50 92 53 93 47 94 48 95
REMARK SMILES IDX 51 96 49 97
REMARK H PARENT 73 50 41 61
REMARK Flexibility Score: inf
ROOT
ATOM      1  C   UNL     1       2.278  -3.708  -3.856  1.00  0.00     0.202 C 
ENDROOT
BRANCH   1   2
ATOM      2  C   UNL     1       0.874  -4.249  -3.566  1.00  0.00     0.261 C 
BRANCH   2   3
ATOM      3  O   UNL     1       0.341  -3.719  -2.336  1.00  0.00    -0.462 OA
BRANCH   3   4
ATOM      4  C   UNL     1       0.486  -4.503  -1.238  1.00  0.00     0.329 C 
ATOM      5  O   UNL     1       0.971  -5.630  -1.266  1.00  0.00    -0.250 OA
BRANCH   4   6
ATOM      6  C   UNL     1      -0.070  -3.829   0.043  1.00  0.00     0.204 C 
BRANCH   6   7
ATOM      7  C   UNL     1       0.516  -2.411   0.382  1.00  0.00     0.020 C 
ATOM      8  C   UNL     1       0.109  -1.315  -0.617  1.00  0.00     0.010 C 
BRANCH   7   9
ATOM      9  C   UNL     1       0.109  -1.954   1.809  1.00  0.00     0.002 C 
ATOM     10  C   UNL     1       1.023  -0.870   2.371  1.00  0.00     0.004 C 
ENDBRANCH   7   9
ENDBRANCH   6   7
BRANCH   6  11
ATOM     11  N   UNL     1       0.177  -4.859   1.100  1.00  0.00    -0.278 N 
ATOM     12  C   UNL     1       1.401  -4.913   1.744  1.00  0.00     0.267 C 
ATOM     13  C   UNL     1      -0.647  -5.953   1.311  1.00  0.00     0.149 C 
ATOM     14  O   UNL     1       2.371  -4.193   1.540  1.00  0.00    -0.268 OA
ATOM     15  C   UNL     1       1.448  -6.048   2.693  1.00  0.00     0.081 C 
ATOM     16  S   UNL     1       0.084  -7.053   2.482  1.00  0.00    -0.054 SA
ATOM     17  S   UNL     1      -2.128  -6.277   0.608  1.00  0.00    -0.052 S 
ATOM     18  C   UNL     1       2.523  -6.213   3.474  1.00  0.00     0.033 C 
BRANCH  18  19
ATOM     19  C   UNL     1       2.873  -7.427   4.209  1.00  0.00     0.018 A 
ATOM     20  C   UNL     1       2.449  -7.517   5.548  1.00  0.00     0.012 A 
ATOM     21  C   UNL     1       3.628  -8.475   3.651  1.00  0.00     0.126 A 
ATOM     22  C   UNL     1       2.759  -8.636   6.323  1.00  0.00     0.001 A 
ATOM     23  C   UNL     1       3.913  -9.597   4.443  1.00  0.00     0.047 A 
ATOM     24  C   UNL     1       3.489  -9.679   5.769  1.00  0.00     0.004 A 
BRANCH  21  25
ATOM     25  O   UNL     1       4.157  -8.601   2.394  1.00  0.00    -0.496 OA
ATOM     26  C   UNL     1       4.224  -7.495   1.509  1.00  0.00     0.278 C 
ENDBRANCH  21  25
ENDBRANCH  18  19
ENDBRANCH   6  11
ENDBRANCH   4   6
ENDBRANCH   3   4
ENDBRANCH   2   3
ENDBRANCH   1   2
BRANCH   1  27
ATOM     27  O   UNL     1       3.334  -4.256  -3.069  1.00  0.00    -0.374 OA
BRANCH  27  28
ATOM     28  C   UNL     1       3.564  -3.657  -1.794  1.00  0.00     0.202 C 
BRANCH  28  29
ATOM     29  C   UNL     1       4.430  -2.394  -1.797  1.00  0.00     0.261 C 
BRANCH  29  30
ATOM     30  O   UNL     1       3.766  -1.305  -2.468  1.00  0.00    -0.460 OA
BRANCH  30  31
ATOM     31  C   UNL     1       4.271  -0.992  -3.684  1.00  0.00     0.338 C 
ATOM     32  O   UNL     1       5.273  -1.452  -4.214  1.00  0.00    -0.246 OA
BRANCH  31  33
ATOM     33  C   UNL     1       3.322  -0.127  -4.408  1.00  0.00     0.060 A 
ATOM     34  C   UNL     1       2.937  -0.525  -5.695  1.00  0.00     0.016 A 
ATOM     35  C   UNL     1       2.842   1.067  -3.864  1.00  0.00     0.016 A 
ATOM     36  C   UNL     1       2.092   0.281  -6.455  1.00  0.00     0.010 A 
ATOM     37  C   UNL     1       2.003   1.881  -4.633  1.00  0.00     0.010 A 
ATOM     38  C   UNL     1       1.639   1.502  -5.938  1.00  0.00    -0.014 A 
BRANCH  38  39
ATOM     39  C   UNL     1       0.852   2.423  -6.793  1.00  0.00     0.031 A 
ATOM     40  C   UNL     1       1.529   3.601  -7.433  1.00  0.00     0.074 A 
ATOM     41  C   UNL     1      -0.460   2.206  -6.997  1.00  0.00     0.049 A 
ATOM     42  N   UNL     1       1.013   4.569  -8.147  1.00  0.00    -0.248 NA
ATOM     43  C   UNL     1       2.984   3.700  -7.244  1.00  0.00     0.031 C 
ATOM     44  C   UNL     1      -1.218   1.075  -6.468  1.00  0.00     0.029 A 
ATOM     45  N   UNL     1      -1.389   2.939  -7.693  1.00  0.00    -0.354 N 
ATOM     46  C   UNL     1       2.076   5.396  -8.486  1.00  0.00     0.074 A 
ATOM     47  C   UNL     1       3.263   4.830  -7.880  1.00  0.00     0.031 C 
ATOM     48  C   UNL     1      -2.502   1.198  -6.842  1.00  0.00     0.029 A 
ATOM     49  C   UNL     1      -2.663   2.438  -7.600  1.00  0.00     0.049 A 
ATOM     50  H   UNL     1      -1.162   3.746  -8.210  1.00  0.00     0.167 HD
ATOM     51  C   UNL     1       2.061   6.522  -9.239  1.00  0.00     0.037 A 
ATOM     52  C   UNL     1      -3.831   2.942  -8.044  1.00  0.00     0.037 A 
ATOM     53  C   UNL     1       0.876   7.081  -9.839  1.00  0.00     0.049 A 
ATOM     54  C   UNL     1      -3.834   4.247  -8.797  1.00  0.00     0.074 A 
ATOM     55  C   UNL     1       0.765   8.198 -10.649  1.00  0.00     0.029 A 
ATOM     56  N   UNL     1      -0.404   6.572  -9.683  1.00  0.00    -0.354 N 
ATOM     57  N   UNL     1      -2.823   5.008  -9.140  1.00  0.00    -0.248 NA
ATOM     58  C   UNL     1      -5.143   4.767  -9.218  1.00  0.00     0.031 C 
ATOM     59  C   UNL     1      -0.591   8.401 -10.930  1.00  0.00     0.029 A 
ATOM     60  C   UNL     1      -1.318   7.377 -10.345  1.00  0.00     0.049 A 
ATOM     61  H   UNL     1      -0.631   5.758  -9.177  1.00  0.00     0.167 HD
ATOM     62  C   UNL     1      -3.369   6.082  -9.831  1.00  0.00     0.074 A 
ATOM     63  C   UNL     1      -4.799   5.865  -9.877  1.00  0.00     0.031 C 
ATOM     64  C   UNL     1      -2.741   7.154 -10.376  1.00  0.00     0.037 A 
BRANCH  51  65
ATOM     65  C   UNL     1       3.360   7.249  -9.433  1.00  0.00     0.064 A 
ATOM     66  C   UNL     1       4.383   6.734 -10.243  1.00  0.00     0.173 A 
ATOM     67  C   UNL     1       3.563   8.504  -8.838  1.00  0.00     0.173 A 
ATOM     68  F   UNL     1       4.242   5.533 -10.825  1.00  0.00    -0.203 F 
ATOM     69  C   UNL     1       5.570   7.437 -10.431  1.00  0.00     0.198 A 
ATOM     70  C   UNL     1       4.740   9.217  -9.053  1.00  0.00     0.198 A 
ATOM     71  F   UNL     1       2.615   9.045  -8.059  1.00  0.00    -0.203 F 
ATOM     72  F   UNL     1       6.551   6.906 -11.175  1.00  0.00    -0.200 F 
ATOM     73  C   UNL     1       5.744   8.681  -9.843  1.00  0.00     0.200 A 
ATOM     74  F   UNL     1       4.900  10.425  -8.494  1.00  0.00    -0.200 F 
ATOM     75  F   UNL     1       6.883   9.361 -10.034  1.00  0.00    -0.200 F 
ENDBRANCH  51  65
BRANCH  52  76
ATOM     76  C   UNL     1      -5.104   2.229  -7.756  1.00  0.00     0.064 A 
ATOM     77  C   UNL     1      -5.859   1.650  -8.785  1.00  0.00     0.173 A 
ATOM     78  C   UNL     1      -5.600   2.128  -6.447  1.00  0.00     0.173 A 
ATOM     79  F   UNL     1      -5.441   1.743 -10.056  1.00  0.00    -0.203 F 
ATOM     80  C   UNL     1      -7.068   1.011  -8.518  1.00  0.00     0.198 A 
ATOM     81  C   UNL     1      -6.793   1.463  -6.178  1.00  0.00     0.198 A 
ATOM     82  F   UNL     1      -4.918   2.669  -5.427  1.00  0.00    -0.203 F 
ATOM     83  F   UNL     1      -7.794   0.508  -9.526  1.00  0.00    -0.200 F 
ATOM     84  C   UNL     1      -7.531   0.912  -7.214  1.00  0.00     0.200 A 
ATOM     85  F   UNL     1      -7.229   1.359  -4.915  1.00  0.00    -0.200 F 
ATOM     86  F   UNL     1      -8.692   0.294  -6.958  1.00  0.00    -0.200 F 
ENDBRANCH  52  76
BRANCH  64  87
ATOM     87  C   UNL     1      -3.595   8.171 -11.078  1.00  0.00     0.064 A 
ATOM     88  C   UNL     1      -4.443   9.034 -10.367  1.00  0.00     0.173 A 
ATOM     89  C   UNL     1      -3.532   8.316 -12.473  1.00  0.00     0.173 A 
ATOM     90  F   UNL     1      -4.553   8.925  -9.035  1.00  0.00    -0.203 F 
ATOM     91  C   UNL     1      -5.211   9.989 -11.029  1.00  0.00     0.198 A 
ATOM     92  C   UNL     1      -4.277   9.293 -13.127  1.00  0.00     0.198 A 
ATOM     93  F   UNL     1      -2.732   7.521 -13.200  1.00  0.00    -0.203 F 
ATOM     94  F   UNL     1      -6.048  10.771 -10.333  1.00  0.00    -0.200 F 
ATOM     95  C   UNL     1      -5.121  10.123 -12.406  1.00  0.00     0.200 A 
ATOM     96  F   UNL     1      -4.177   9.431 -14.457  1.00  0.00    -0.200 F 
ATOM     97  F   UNL     1      -5.853  11.050 -13.039  1.00  0.00    -0.200 F 
ENDBRANCH  64  87
ENDBRANCH  38  39
ENDBRANCH  31  33
ENDBRANCH  30  31
ENDBRANCH  29  30
ENDBRANCH  28  29
ENDBRANCH  27  28
ENDBRANCH   1  27
TORSDOF 19
