REMARK SMILES Cc1cscc1C(=O)N[C@H](C(=O)OCCOCCOC(=O)c1ccc(-c2c3nc(c(-c4c(F)c(F)c(F)c(F)c4F)c4ccc([nH]4)c(-c4c(F)c(F)c(F)c(F)c4F)c4nc(c(-c5c(F)c(F)c(F)c(F)c5F)c5ccc2[nH]5)C=C4)C=C3)cc1)c1ccccc1
REMARK SMILES IDX 16 1 15 2 14 3 13 4 11 5 12 6 10 7 9 8 7 9 8 10 6 12 1 13
REMARK SMILES IDX 2 14 3 15 4 16 5 17 85 18 86 19 90 20 87 21 89 22 88 23
REMARK SMILES IDX 17 24 18 25 19 26 20 27 21 28 22 29 23 30 84 31 24 32 83 33
REMARK SMILES IDX 25 34 26 35 27 36 77 37 28 38 82 39 76 40 78 41 29 42 81 43
REMARK SMILES IDX 75 44 74 45 30 47 62 48 42 49 61 50 43 51 46 52 60 53 79 54
REMARK SMILES IDX 44 55 45 56 59 58 80 59 47 60 31 61 32 62 40 63 33 64 34 65
REMARK SMILES IDX 38 66 41 67 35 68 36 69 39 70 37 71 63 72 64 73 72 74 65 75
REMARK SMILES IDX 66 76 70 77 73 78 67 79 68 80 71 81 69 82 48 83 49 84 57 85
REMARK SMILES IDX 50 86 51 87 55 88 58 89 52 90 53 91 56 92 54 93
REMARK H PARENT 9 11 78 46 46 57
REMARK Flexibility Score: inf
ROOT
ATOM      1  O   UNL     1       0.311   3.832   1.820  1.00  0.00    -0.374 OA
ENDROOT
BRANCH   1   2
ATOM      2  C   UNL     1      -0.118   3.331   0.560  1.00  0.00     0.202 C 
BRANCH   2   3
ATOM      3  C   UNL     1       0.927   2.953  -0.493  1.00  0.00     0.261 C 
BRANCH   3   4
ATOM      4  O   UNL     1       1.927   2.013  -0.047  1.00  0.00    -0.461 OA
BRANCH   4   5
ATOM      5  C   UNL     1       2.800   1.701  -1.040  1.00  0.00     0.333 C 
ATOM      6  O   UNL     1       2.566   1.950  -2.224  1.00  0.00    -0.249 OA
BRANCH   5   7
ATOM      7  C   UNL     1       4.099   1.004  -0.616  1.00  0.00     0.223 C 
BRANCH   7   8
ATOM      8  N   UNL     1       5.214   1.493  -1.430  1.00  0.00    -0.335 N 
ATOM      9  C   UNL     1       5.731   2.713  -1.765  1.00  0.00     0.253 C 
ATOM     10  O   UNL     1       6.774   2.649  -2.424  1.00  0.00    -0.269 OA
ATOM     11  H   UNL     1       5.720   0.755  -1.840  1.00  0.00     0.165 HD
BRANCH   9  12
ATOM     12  C   UNL     1       5.106   4.028  -1.523  1.00  0.00     0.053 A 
ATOM     13  C   UNL     1       4.376   4.222   1.028  1.00  0.00     0.046 C 
ATOM     14  C   UNL     1       4.528   4.703  -0.366  1.00  0.00    -0.028 A 
ATOM     15  C   UNL     1       4.151   6.005  -0.664  1.00  0.00     0.069 A 
ATOM     16  S   UNL     1       4.522   6.470  -2.250  1.00  0.00    -0.151 S 
ATOM     17  C   UNL     1       5.178   4.938  -2.576  1.00  0.00     0.079 A 
ENDBRANCH   9  12
ENDBRANCH   7   8
BRANCH   7  18
ATOM     18  C   UNL     1       4.527   0.736   0.830  1.00  0.00    -0.014 A 
ATOM     19  C   UNL     1       3.962  -0.311   1.578  1.00  0.00     0.006 A 
ATOM     20  C   UNL     1       5.620   1.409   1.414  1.00  0.00     0.006 A 
ATOM     21  C   UNL     1       4.444  -0.628   2.859  1.00  0.00     0.000 A 
ATOM     22  C   UNL     1       6.060   1.139   2.712  1.00  0.00     0.000 A 
ATOM     23  C   UNL     1       5.473   0.114   3.436  1.00  0.00     0.000 A 
ENDBRANCH   7  18
ENDBRANCH   5   7
ENDBRANCH   4   5
ENDBRANCH   3   4
ENDBRANCH   2   3
ENDBRANCH   1   2
BRANCH   1  24
ATOM     24  C   UNL     1       1.269   3.078   2.549  1.00  0.00     0.202 C 
BRANCH  24  25
ATOM     25  C   UNL     1       0.881   1.710   3.125  1.00  0.00     0.261 C 
BRANCH  25  26
ATOM     26  O   UNL     1       0.147   0.869   2.226  1.00  0.00    -0.460 OA
BRANCH  26  27
ATOM     27  C   UNL     1      -1.184   0.816   2.487  1.00  0.00     0.338 C 
ATOM     28  O   UNL     1      -1.785   1.345   3.402  1.00  0.00    -0.246 OA
BRANCH  27  29
ATOM     29  C   UNL     1      -1.874   0.149   1.369  1.00  0.00     0.060 A 
ATOM     30  C   UNL     1      -2.870   0.875   0.702  1.00  0.00     0.016 A 
ATOM     31  C   UNL     1      -1.601  -1.176   1.027  1.00  0.00     0.016 A 
ATOM     32  C   UNL     1      -3.623   0.268  -0.293  1.00  0.00     0.010 A 
ATOM     33  C   UNL     1      -2.379  -1.796   0.045  1.00  0.00     0.010 A 
ATOM     34  C   UNL     1      -3.413  -1.084  -0.589  1.00  0.00    -0.014 A 
BRANCH  34  35
ATOM     35  C   UNL     1      -4.420  -1.790  -1.411  1.00  0.00     0.031 A 
ATOM     36  C   UNL     1      -5.515  -2.537  -0.703  1.00  0.00     0.074 A 
ATOM     37  C   UNL     1      -4.394  -1.708  -2.751  1.00  0.00     0.049 A 
ATOM     38  N   UNL     1      -6.500  -3.238  -1.200  1.00  0.00    -0.248 NA
ATOM     39  C   UNL     1      -5.497  -2.481   0.768  1.00  0.00     0.031 C 
ATOM     40  C   UNL     1      -3.413  -0.956  -3.530  1.00  0.00     0.029 A 
ATOM     41  N   UNL     1      -5.220  -2.265  -3.692  1.00  0.00    -0.354 N 
ATOM     42  C   UNL     1      -7.213  -3.711  -0.105  1.00  0.00     0.074 A 
ATOM     43  C   UNL     1      -6.535  -3.242   1.082  1.00  0.00     0.031 C 
ATOM     44  C   UNL     1      -3.687  -1.109  -4.837  1.00  0.00     0.029 A 
ATOM     45  C   UNL     1      -4.839  -1.996  -4.983  1.00  0.00     0.049 A 
ATOM     46  H   UNL     1      -6.011  -2.805  -3.464  1.00  0.00     0.167 HD
ATOM     47  C   UNL     1      -8.337  -4.464  -0.098  1.00  0.00     0.037 A 
ATOM     48  C   UNL     1      -5.352  -2.443  -6.145  1.00  0.00     0.037 A 
ATOM     49  C   UNL     1      -8.999  -4.924  -1.289  1.00  0.00     0.049 A 
ATOM     50  C   UNL     1      -6.556  -3.350  -6.106  1.00  0.00     0.074 A 
ATOM     51  C   UNL     1     -10.148  -5.685  -1.400  1.00  0.00     0.029 A 
ATOM     52  N   UNL     1      -8.558  -4.671  -2.582  1.00  0.00    -0.354 N 
ATOM     53  N   UNL     1      -7.236  -3.783  -5.071  1.00  0.00    -0.248 NA
ATOM     54  C   UNL     1      -7.066  -3.829  -7.399  1.00  0.00     0.031 C 
ATOM     55  C   UNL     1     -10.367  -5.947  -2.756  1.00  0.00     0.029 A 
ATOM     56  C   UNL     1      -9.395  -5.290  -3.495  1.00  0.00     0.049 A 
ATOM     57  H   UNL     1      -7.768  -4.132  -2.814  1.00  0.00     0.167 HD
ATOM     58  C   UNL     1      -8.269  -4.556  -5.586  1.00  0.00     0.074 A 
ATOM     59  C   UNL     1      -8.133  -4.521  -7.027  1.00  0.00     0.031 C 
ATOM     60  C   UNL     1      -9.243  -5.234  -4.928  1.00  0.00     0.037 A 
BRANCH  47  61
ATOM     61  C   UNL     1      -8.892  -4.872   1.236  1.00  0.00     0.064 A 
ATOM     62  C   UNL     1      -9.490  -3.948   2.107  1.00  0.00     0.173 A 
ATOM     63  C   UNL     1      -8.845  -6.215   1.639  1.00  0.00     0.173 A 
ATOM     64  F   UNL     1      -9.546  -2.648   1.780  1.00  0.00    -0.203 F 
ATOM     65  C   UNL     1      -9.995  -4.351   3.342  1.00  0.00     0.198 A 
ATOM     66  C   UNL     1      -9.379  -6.619   2.860  1.00  0.00     0.198 A 
ATOM     67  F   UNL     1      -8.283  -7.140   0.846  1.00  0.00    -0.203 F 
ATOM     68  F   UNL     1     -10.515  -3.442   4.180  1.00  0.00    -0.200 F 
ATOM     69  C   UNL     1      -9.947  -5.686   3.713  1.00  0.00     0.200 A 
ATOM     70  F   UNL     1      -9.341  -7.912   3.211  1.00  0.00    -0.200 F 
ATOM     71  F   UNL     1     -10.440  -6.072   4.898  1.00  0.00    -0.200 F 
ENDBRANCH  47  61
BRANCH  48  72
ATOM     72  C   UNL     1      -4.719  -2.062  -7.435  1.00  0.00     0.064 A 
ATOM     73  C   UNL     1      -5.390  -1.260  -8.368  1.00  0.00     0.173 A 
ATOM     74  C   UNL     1      -3.432  -2.511  -7.771  1.00  0.00     0.173 A 
ATOM     75  F   UNL     1      -6.632  -0.825  -8.106  1.00  0.00    -0.203 F 
ATOM     76  C   UNL     1      -4.809  -0.939  -9.594  1.00  0.00     0.198 A 
ATOM     77  C   UNL     1      -2.839  -2.163  -8.983  1.00  0.00     0.198 A 
ATOM     78  F   UNL     1      -2.745  -3.284  -6.917  1.00  0.00    -0.203 F 
ATOM     79  F   UNL     1      -5.495  -0.215 -10.488  1.00  0.00    -0.200 F 
ATOM     80  C   UNL     1      -3.531  -1.386  -9.898  1.00  0.00     0.200 A 
ATOM     81  F   UNL     1      -1.600  -2.587  -9.265  1.00  0.00    -0.200 F 
ATOM     82  F   UNL     1      -2.973  -1.076 -11.075  1.00  0.00    -0.200 F 
ENDBRANCH  48  72
BRANCH  60  83
ATOM     83  C   UNL     1     -10.262  -5.958  -5.761  1.00  0.00     0.064 A 
ATOM     84  C   UNL     1      -9.938  -7.114  -6.486  1.00  0.00     0.173 A 
ATOM     85  C   UNL     1     -11.593  -5.512  -5.795  1.00  0.00     0.173 A 
ATOM     86  F   UNL     1      -8.678  -7.574  -6.497  1.00  0.00    -0.203 F 
ATOM     87  C   UNL     1     -10.903  -7.779  -7.238  1.00  0.00     0.198 A 
ATOM     88  C   UNL     1     -12.562  -6.201  -6.518  1.00  0.00     0.198 A 
ATOM     89  F   UNL     1     -11.957  -4.417  -5.110  1.00  0.00    -0.203 F 
ATOM     90  F   UNL     1     -10.560  -8.851  -7.966  1.00  0.00    -0.200 F 
ATOM     91  C   UNL     1     -12.214  -7.328  -7.247  1.00  0.00     0.200 A 
ATOM     92  F   UNL     1     -13.832  -5.773  -6.509  1.00  0.00    -0.200 F 
ATOM     93  F   UNL     1     -13.143  -7.976  -7.963  1.00  0.00    -0.200 F 
ENDBRANCH  60  83
ENDBRANCH  34  35
ENDBRANCH  27  29
ENDBRANCH  26  27
ENDBRANCH  25  26
ENDBRANCH  24  25
ENDBRANCH   1  24
TORSDOF 17
