REMARK SMILES COc1cc2c(cc1OC)[C@H](C(=O)OCCOCCOC(=O)c1ccc(-c3c4nc(c(-c5c(F)c(F)c(F)c(F)c5F)c5ccc([nH]5)c(-c5c(F)c(F)c(F)c(F)c5F)c5nc(c(-c6c(F)c(F)c(F)c(F)c6F)c6ccc3[nH]6)C=C5)C=C4)cc1)[C@H](c1cccc(Cl)c1)N(C)C2=O
REMARK SMILES IDX 18 1 17 2 16 3 15 4 14 5 12 6 13 7 11 8 3 9 4 10 8 11 5 12
REMARK SMILES IDX 7 13 6 14 96 15 94 16 97 17 86 18 95 19 2 20 1 21 9 22 10 23
REMARK SMILES IDX 87 24 88 25 93 26 89 27 91 28 90 29 92 30 19 31 20 32 21 33
REMARK SMILES IDX 22 34 23 35 24 36 85 37 25 38 84 39 26 40 27 41 28 42 78 43
REMARK SMILES IDX 29 44 83 45 77 46 79 47 30 48 82 49 76 50 75 51 31 53 63 54
REMARK SMILES IDX 43 55 62 56 44 57 47 58 61 59 80 60 45 61 46 62 60 64 81 65
REMARK SMILES IDX 48 66 32 67 33 68 41 69 34 70 35 71 39 72 42 73 36 74 37 75
REMARK SMILES IDX 40 76 38 77 64 78 65 79 73 80 66 81 67 82 71 83 74 84 68 85
REMARK SMILES IDX 69 86 72 87 70 88 49 89 50 90 58 91 51 92 52 93 56 94 59 95
REMARK SMILES IDX 53 96 54 97 57 98 55 99
REMARK H PARENT 79 52 47 63
REMARK Flexibility Score: inf
ROOT
ATOM      1  C   UNL     1      -0.973   4.042   7.592  1.00  0.00     0.202 C 
ENDROOT
BRANCH   1   2
ATOM      2  O   UNL     1      -1.698   5.266   7.476  1.00  0.00    -0.374 OA
BRANCH   2   3
ATOM      3  C   UNL     1      -2.051   5.689   6.158  1.00  0.00     0.202 C 
BRANCH   3   4
ATOM      4  C   UNL     1      -0.984   6.529   5.449  1.00  0.00     0.261 C 
BRANCH   4   5
ATOM      5  O   UNL     1      -0.016   5.665   4.822  1.00  0.00    -0.463 OA
BRANCH   5   6
ATOM      6  C   UNL     1       1.090   5.379   5.539  1.00  0.00     0.316 C 
ATOM      7  O   UNL     1       1.383   5.946   6.590  1.00  0.00    -0.251 OA
BRANCH   6   8
ATOM      8  C   UNL     1       1.931   4.246   5.000  1.00  0.00     0.157 C 
ATOM      9  C   UNL     1       1.032   1.887   1.437  1.00  0.00     0.161 A 
ATOM     10  C   UNL     1       2.314   1.933   1.993  1.00  0.00     0.064 A 
ATOM     11  C   UNL     1      -0.017   2.560   2.075  1.00  0.00     0.161 A 
ATOM     12  C   UNL     1       2.560   2.670   3.159  1.00  0.00     0.048 A 
ATOM     13  C   UNL     1       0.247   3.292   3.251  1.00  0.00     0.056 A 
ATOM     14  C   UNL     1       1.543   3.428   3.772  1.00  0.00    -0.015 A 
ATOM     15  C   UNL     1       3.929   2.607   3.757  1.00  0.00     0.254 C 
ATOM     16  N   UNL     1       4.265   3.614   4.656  1.00  0.00    -0.333 N 
ATOM     17  O   UNL     1       4.688   1.695   3.446  1.00  0.00    -0.269 OA
ATOM     18  C   UNL     1       3.385   4.775   4.854  1.00  0.00     0.134 C 
ATOM     19  C   UNL     1       5.554   3.584   5.323  1.00  0.00     0.147 C 
BRANCH   9  20
ATOM     20  O   UNL     1       0.828   1.261   0.237  1.00  0.00    -0.493 OA
ATOM     21  C   UNL     1       1.285  -0.089   0.200  1.00  0.00     0.278 C 
ENDBRANCH   9  20
BRANCH  11  22
ATOM     22  O   UNL     1      -1.340   2.604   1.717  1.00  0.00    -0.493 OA
ATOM     23  C   UNL     1      -1.727   2.033   0.474  1.00  0.00     0.278 C 
ENDBRANCH  11  22
BRANCH  18  24
ATOM     24  C   UNL     1       3.546   5.865   3.780  1.00  0.00    -0.023 A 
ATOM     25  C   UNL     1       3.024   7.154   4.008  1.00  0.00     0.006 A 
ATOM     26  C   UNL     1       4.161   5.630   2.538  1.00  0.00     0.026 A 
ATOM     27  C   UNL     1       3.014   8.127   3.005  1.00  0.00     0.002 A 
ATOM     28  C   UNL     1       4.168   6.611   1.544  1.00  0.00     0.041 A 
ATOM     29  C   UNL     1       3.576   7.849   1.764  1.00  0.00     0.020 A 
ATOM     30  Cl  UNL     1       4.905   6.277   0.025  1.00  0.00    -0.084 Cl
ENDBRANCH  18  24
ENDBRANCH   6   8
ENDBRANCH   5   6
ENDBRANCH   4   5
ENDBRANCH   3   4
ENDBRANCH   2   3
ENDBRANCH   1   2
BRANCH   1  31
ATOM     31  C   UNL     1      -1.833   2.781   7.690  1.00  0.00     0.261 C 
BRANCH  31  32
ATOM     32  O   UNL     1      -2.485   2.523   6.434  1.00  0.00    -0.460 OA
BRANCH  32  33
ATOM     33  C   UNL     1      -3.788   2.875   6.398  1.00  0.00     0.338 C 
ATOM     34  O   UNL     1      -4.477   3.263   7.334  1.00  0.00    -0.246 OA
BRANCH  33  35
ATOM     35  C   UNL     1      -4.266   2.902   5.005  1.00  0.00     0.060 A 
ATOM     36  C   UNL     1      -5.050   3.998   4.622  1.00  0.00     0.016 A 
ATOM     37  C   UNL     1      -4.011   1.863   4.108  1.00  0.00     0.016 A 
ATOM     38  C   UNL     1      -5.639   4.028   3.363  1.00  0.00     0.010 A 
ATOM     39  C   UNL     1      -4.612   1.889   2.846  1.00  0.00     0.010 A 
ATOM     40  C   UNL     1      -5.460   2.951   2.486  1.00  0.00    -0.014 A 
BRANCH  40  41
ATOM     41  C   UNL     1      -6.298   2.867   1.268  1.00  0.00     0.031 A 
ATOM     42  C   UNL     1      -7.520   1.992   1.291  1.00  0.00     0.074 A 
ATOM     43  C   UNL     1      -6.003   3.593   0.176  1.00  0.00     0.049 A 
ATOM     44  N   UNL     1      -8.397   1.762   0.347  1.00  0.00    -0.248 NA
ATOM     45  C   UNL     1      -7.788   1.277   2.549  1.00  0.00     0.031 C 
ATOM     46  C   UNL     1      -4.867   4.502   0.050  1.00  0.00     0.029 A 
ATOM     47  N   UNL     1      -6.640   3.674  -1.036  1.00  0.00    -0.354 N 
ATOM     48  C   UNL     1      -9.313   0.874   0.895  1.00  0.00     0.074 A 
ATOM     49  C   UNL     1      -8.870   0.580   2.240  1.00  0.00     0.031 C 
ATOM     50  C   UNL     1      -4.879   5.043  -1.180  1.00  0.00     0.029 A 
ATOM     51  C   UNL     1      -6.009   4.500  -1.932  1.00  0.00     0.049 A 
ATOM     52  H   UNL     1      -7.469   3.186  -1.244  1.00  0.00     0.167 HD
ATOM     53  C   UNL     1     -10.430   0.358   0.329  1.00  0.00     0.037 A 
ATOM     54  C   UNL     1      -6.305   4.770  -3.218  1.00  0.00     0.037 A 
ATOM     55  C   UNL     1     -10.872   0.659  -1.007  1.00  0.00     0.049 A 
ATOM     56  C   UNL     1      -7.520   4.139  -3.845  1.00  0.00     0.074 A 
ATOM     57  C   UNL     1     -12.008   0.215  -1.661  1.00  0.00     0.029 A 
ATOM     58  N   UNL     1     -10.189   1.474  -1.898  1.00  0.00    -0.354 N 
ATOM     59  N   UNL     1      -8.401   3.327  -3.312  1.00  0.00    -0.248 NA
ATOM     60  C   UNL     1      -7.784   4.465  -5.254  1.00  0.00     0.031 C 
ATOM     61  C   UNL     1     -11.985   0.720  -2.966  1.00  0.00     0.029 A 
ATOM     62  C   UNL     1     -10.863   1.521  -3.108  1.00  0.00     0.049 A 
ATOM     63  H   UNL     1      -9.350   1.950  -1.699  1.00  0.00     0.167 HD
ATOM     64  C   UNL     1      -9.332   3.063  -4.308  1.00  0.00     0.074 A 
ATOM     65  C   UNL     1      -8.917   3.813  -5.475  1.00  0.00     0.031 C 
ATOM     66  C   UNL     1     -10.432   2.271  -4.261  1.00  0.00     0.037 A 
BRANCH  53  67
ATOM     67  C   UNL     1     -11.234  -0.609   1.146  1.00  0.00     0.064 A 
ATOM     68  C   UNL     1     -11.989  -0.194   2.254  1.00  0.00     0.173 A 
ATOM     69  C   UNL     1     -11.263  -1.970   0.805  1.00  0.00     0.173 A 
ATOM     70  F   UNL     1     -11.983   1.093   2.631  1.00  0.00    -0.203 F 
ATOM     71  C   UNL     1     -12.719  -1.110   3.007  1.00  0.00     0.198 A 
ATOM     72  C   UNL     1     -12.017  -2.878   1.543  1.00  0.00     0.198 A 
ATOM     73  F   UNL     1     -10.561  -2.419  -0.246  1.00  0.00    -0.203 F 
ATOM     74  F   UNL     1     -13.392  -0.700   4.091  1.00  0.00    -0.200 F 
ATOM     75  C   UNL     1     -12.738  -2.450   2.647  1.00  0.00     0.200 A 
ATOM     76  F   UNL     1     -12.042  -4.170   1.188  1.00  0.00    -0.200 F 
ATOM     77  F   UNL     1     -13.443  -3.330   3.371  1.00  0.00    -0.200 F 
ENDBRANCH  53  67
BRANCH  54  78
ATOM     78  C   UNL     1      -5.425   5.675  -4.000  1.00  0.00     0.064 A 
ATOM     79  C   UNL     1      -5.860   6.946  -4.397  1.00  0.00     0.173 A 
ATOM     80  C   UNL     1      -4.128   5.284  -4.366  1.00  0.00     0.173 A 
ATOM     81  F   UNL     1      -7.101   7.354  -4.093  1.00  0.00    -0.203 F 
ATOM     82  C   UNL     1      -5.035   7.789  -5.139  1.00  0.00     0.198 A 
ATOM     83  C   UNL     1      -3.295   6.138  -5.085  1.00  0.00     0.198 A 
ATOM     84  F   UNL     1      -3.665   4.076  -4.012  1.00  0.00    -0.203 F 
ATOM     85  F   UNL     1      -5.489   8.985  -5.539  1.00  0.00    -0.200 F 
ATOM     86  C   UNL     1      -3.751   7.388  -5.476  1.00  0.00     0.200 A 
ATOM     87  F   UNL     1      -2.051   5.750  -5.400  1.00  0.00    -0.200 F 
ATOM     88  F   UNL     1      -2.956   8.202  -6.184  1.00  0.00    -0.200 F 
ENDBRANCH  54  78
BRANCH  66  89
ATOM     89  C   UNL     1     -11.278   2.190  -5.499  1.00  0.00     0.064 A 
ATOM     90  C   UNL     1     -10.848   1.492  -6.638  1.00  0.00     0.173 A 
ATOM     91  C   UNL     1     -12.551   2.778  -5.531  1.00  0.00     0.173 A 
ATOM     92  F   UNL     1      -9.633   0.924  -6.662  1.00  0.00    -0.203 F 
ATOM     93  C   UNL     1     -11.653   1.407  -7.771  1.00  0.00     0.198 A 
ATOM     94  C   UNL     1     -13.365   2.666  -6.655  1.00  0.00     0.198 A 
ATOM     95  F   UNL     1     -13.013   3.450  -4.465  1.00  0.00    -0.203 F 
ATOM     96  F   UNL     1     -11.204   0.773  -8.863  1.00  0.00    -0.200 F 
ATOM     97  C   UNL     1     -12.913   1.987  -7.776  1.00  0.00     0.200 A 
ATOM     98  F   UNL     1     -14.588   3.215  -6.652  1.00  0.00    -0.200 F 
ATOM     99  F   UNL     1     -13.690   1.896  -8.864  1.00  0.00    -0.200 F 
ENDBRANCH  66  89
ENDBRANCH  40  41
ENDBRANCH  33  35
ENDBRANCH  32  33
ENDBRANCH  31  32
ENDBRANCH   1  31
TORSDOF 17
