REMARK SMILES O=C(OCCOCCOC(=O)[C@H]1CSC2(CCCCC2)[NH2+]1)c1ccc(-c2c3nc(c(-c4c(F)c(F)c(F)c(F)c4F)c4ccc([nH]4)c(-c4c(F)c(F)c(F)c(F)c4F)c4nc(c(-c5c(F)c(F)c(F)c(F)c5F)c5ccc2[nH]5)C=C4)C=C3)cc1
REMARK SMILES IDX 5 1 4 2 3 3 2 4 1 5 22 6 23 7 84 8 24 9 83 10 25 11 26 12
REMARK SMILES IDX 27 13 77 14 28 15 82 16 76 17 78 18 29 19 81 20 75 21 74 22
REMARK SMILES IDX 30 24 62 25 42 26 61 27 43 28 46 29 60 30 79 31 44 32 45 33
REMARK SMILES IDX 59 35 80 36 47 37 31 38 32 39 40 40 33 41 34 42 38 43 41 44
REMARK SMILES IDX 35 45 36 46 39 47 37 48 63 49 64 50 72 51 65 52 66 53 70 54
REMARK SMILES IDX 73 55 67 56 68 57 71 58 69 59 48 60 49 61 57 62 50 63 51 64
REMARK SMILES IDX 55 65 58 66 52 67 53 68 56 69 54 70 6 71 7 72 8 73 9 74
REMARK SMILES IDX 10 75 11 76 12 77 13 78 21 79 14 80 15 81 16 84 20 85 17 86
REMARK SMILES IDX 19 87 18 88
REMARK H PARENT 78 23 46 34 21 82 21 83
REMARK Flexibility Score: inf
ROOT
ATOM      1  C   UNL     1       5.947  -0.054   1.389  1.00  0.00     0.202 C 
ENDROOT
BRANCH   1   2
ATOM      2  C   UNL     1       6.127  -0.466  -0.074  1.00  0.00     0.261 C 
BRANCH   2   3
ATOM      3  O   UNL     1       7.400  -1.104  -0.262  1.00  0.00    -0.460 OA
BRANCH   3   4
ATOM      4  C   UNL     1       8.555  -0.567  -0.715  1.00  0.00     0.338 C 
ATOM      5  O   UNL     1       9.549  -1.289  -0.771  1.00  0.00    -0.246 OA
BRANCH   4   6
ATOM      6  C   UNL     1       8.712   0.859  -1.146  1.00  0.00     0.060 A 
ATOM      7  C   UNL     1       7.927   1.931  -0.714  1.00  0.00     0.016 A 
ATOM      8  C   UNL     1       9.815   1.148  -1.971  1.00  0.00     0.016 A 
ATOM      9  C   UNL     1       8.202   3.237  -1.090  1.00  0.00     0.010 A 
ATOM     10  C   UNL     1      10.114   2.461  -2.341  1.00  0.00     0.010 A 
ATOM     11  C   UNL     1       9.301   3.506  -1.895  1.00  0.00    -0.014 A 
BRANCH  11  12
ATOM     12  C   UNL     1       9.531   4.901  -2.294  1.00  0.00     0.031 A 
ATOM     13  C   UNL     1       9.059   5.340  -3.640  1.00  0.00     0.074 A 
ATOM     14  C   UNL     1      10.048   5.759  -1.398  1.00  0.00     0.049 A 
ATOM     15  N   UNL     1       9.207   6.494  -4.229  1.00  0.00    -0.248 NA
ATOM     16  C   UNL     1       8.298   4.351  -4.423  1.00  0.00     0.031 C 
ATOM     17  C   UNL     1      10.405   5.420  -0.018  1.00  0.00     0.029 A 
ATOM     18  N   UNL     1      10.345   7.090  -1.503  1.00  0.00    -0.354 N 
ATOM     19  C   UNL     1       8.588   6.361  -5.463  1.00  0.00     0.074 A 
ATOM     20  C   UNL     1       8.043   5.025  -5.535  1.00  0.00     0.031 C 
ATOM     21  C   UNL     1      10.879   6.518   0.594  1.00  0.00     0.029 A 
ATOM     22  C   UNL     1      10.921   7.611  -0.371  1.00  0.00     0.049 A 
ATOM     23  H   UNL     1      10.164   7.622  -2.311  1.00  0.00     0.167 HD
ATOM     24  C   UNL     1       8.510   7.283  -6.448  1.00  0.00     0.037 A 
ATOM     25  C   UNL     1      11.470   8.823  -0.170  1.00  0.00     0.037 A 
ATOM     26  C   UNL     1       9.065   8.603  -6.334  1.00  0.00     0.049 A 
ATOM     27  C   UNL     1      11.458   9.793  -1.323  1.00  0.00     0.074 A 
ATOM     28  C   UNL     1       9.080   9.620  -7.268  1.00  0.00     0.029 A 
ATOM     29  N   UNL     1       9.711   9.081  -5.201  1.00  0.00    -0.354 N 
ATOM     30  N   UNL     1      10.912   9.658  -2.509  1.00  0.00    -0.248 NA
ATOM     31  C   UNL     1      12.160  11.066  -1.126  1.00  0.00     0.031 C 
ATOM     32  C   UNL     1       9.782  10.698  -6.717  1.00  0.00     0.029 A 
ATOM     33  C   UNL     1      10.165  10.367  -5.424  1.00  0.00     0.049 A 
ATOM     34  H   UNL     1       9.828   8.578  -4.362  1.00  0.00     0.167 HD
ATOM     35  C   UNL     1      11.204  10.823  -3.201  1.00  0.00     0.074 A 
ATOM     36  C   UNL     1      11.947  11.670  -2.288  1.00  0.00     0.031 C 
ATOM     37  C   UNL     1      10.903  11.165  -4.478  1.00  0.00     0.037 A 
BRANCH  24  38
ATOM     38  C   UNL     1       7.886   6.860  -7.741  1.00  0.00     0.064 A 
ATOM     39  C   UNL     1       6.500   6.710  -7.887  1.00  0.00     0.173 A 
ATOM     40  C   UNL     1       8.698   6.596  -8.854  1.00  0.00     0.173 A 
ATOM     41  F   UNL     1       5.684   6.922  -6.844  1.00  0.00    -0.203 F 
ATOM     42  C   UNL     1       5.951   6.298  -9.100  1.00  0.00     0.198 A 
ATOM     43  C   UNL     1       8.145   6.203 -10.069  1.00  0.00     0.198 A 
ATOM     44  F   UNL     1      10.031   6.711  -8.759  1.00  0.00    -0.203 F 
ATOM     45  F   UNL     1       4.627   6.122  -9.209  1.00  0.00    -0.200 F 
ATOM     46  C   UNL     1       6.773   6.051 -10.190  1.00  0.00     0.200 A 
ATOM     47  F   UNL     1       8.942   5.964 -11.120  1.00  0.00    -0.200 F 
ATOM     48  F   UNL     1       6.242   5.654 -11.355  1.00  0.00    -0.200 F 
ENDBRANCH  24  38
BRANCH  25  49
ATOM     49  C   UNL     1      12.149   9.147   1.114  1.00  0.00     0.064 A 
ATOM     50  C   UNL     1      11.693  10.178   1.945  1.00  0.00     0.173 A 
ATOM     51  C   UNL     1      13.299   8.450   1.520  1.00  0.00     0.173 A 
ATOM     52  F   UNL     1      10.614  10.893   1.594  1.00  0.00    -0.203 F 
ATOM     53  C   UNL     1      12.371  10.514   3.117  1.00  0.00     0.198 A 
ATOM     54  C   UNL     1      13.956   8.763   2.708  1.00  0.00     0.198 A 
ATOM     55  F   UNL     1      13.788   7.457   0.761  1.00  0.00    -0.203 F 
ATOM     56  F   UNL     1      11.945  11.542   3.864  1.00  0.00    -0.200 F 
ATOM     57  C   UNL     1      13.498   9.803   3.500  1.00  0.00     0.200 A 
ATOM     58  F   UNL     1      15.038   8.064   3.077  1.00  0.00    -0.200 F 
ATOM     59  F   UNL     1      14.151  10.129   4.624  1.00  0.00    -0.200 F 
ENDBRANCH  25  49
BRANCH  37  60
ATOM     60  C   UNL     1      11.387  12.501  -4.948  1.00  0.00     0.064 A 
ATOM     61  C   UNL     1      12.737  12.713  -5.261  1.00  0.00     0.173 A 
ATOM     62  C   UNL     1      10.484  13.555  -5.147  1.00  0.00     0.173 A 
ATOM     63  F   UNL     1      13.636  11.736  -5.068  1.00  0.00    -0.203 F 
ATOM     64  C   UNL     1      13.168  13.942  -5.747  1.00  0.00     0.198 A 
ATOM     65  C   UNL     1      10.915  14.773  -5.659  1.00  0.00     0.198 A 
ATOM     66  F   UNL     1       9.182  13.392  -4.866  1.00  0.00    -0.203 F 
ATOM     67  F   UNL     1      14.468  14.137  -6.008  1.00  0.00    -0.200 F 
ATOM     68  C   UNL     1      12.256  14.967  -5.955  1.00  0.00     0.200 A 
ATOM     69  F   UNL     1      10.032  15.758  -5.873  1.00  0.00    -0.200 F 
ATOM     70  F   UNL     1      12.672  16.145  -6.438  1.00  0.00    -0.200 F 
ENDBRANCH  37  60
ENDBRANCH  11  12
ENDBRANCH   4   6
ENDBRANCH   3   4
ENDBRANCH   2   3
ENDBRANCH   1   2
BRANCH   1  71
ATOM     71  O   UNL     1       6.958   0.829   1.877  1.00  0.00    -0.374 OA
BRANCH  71  72
ATOM     72  C   UNL     1       8.137   0.214   2.412  1.00  0.00     0.202 C 
BRANCH  72  73
ATOM     73  C   UNL     1       8.427   0.804   3.793  1.00  0.00     0.261 C 
BRANCH  73  74
ATOM     74  O   UNL     1       7.376   0.378   4.669  1.00  0.00    -0.459 OA
BRANCH  74  75
ATOM     75  C   UNL     1       6.249   1.148   4.611  1.00  0.00     0.365 C 
ATOM     76  O   UNL     1       6.194   2.298   4.204  1.00  0.00    -0.245 OA
BRANCH  75  77
ATOM     77  C   UNL     1       5.019   0.284   4.923  1.00  0.00     0.304 C 
ATOM     78  C   UNL     1       5.163  -0.534   6.190  1.00  0.00     0.153 C 
ATOM     79  N   UNL     1       3.793   1.113   5.024  1.00  0.00    -0.320 N 
ATOM     80  S   UNL     1       4.792   0.665   7.474  1.00  0.00    -0.089 SA
ATOM     81  C   UNL     1       3.682   1.654   6.390  1.00  0.00     0.143 C 
ATOM     82  H   UNL     1       2.976   0.539   4.817  1.00  0.00     0.348 HD
ATOM     83  H   UNL     1       3.844   1.881   4.355  1.00  0.00     0.348 HD
ATOM     84  C   UNL     1       4.044   3.152   6.433  1.00  0.00     0.081 C 
ATOM     85  C   UNL     1       2.224   1.462   6.845  1.00  0.00     0.081 C 
ATOM     86  C   UNL     1       3.776   3.798   7.792  1.00  0.00     0.007 C 
ATOM     87  C   UNL     1       1.946   2.080   8.217  1.00  0.00     0.007 C 
ATOM     88  C   UNL     1       2.349   3.552   8.271  1.00  0.00     0.001 C 
ENDBRANCH  75  77
ENDBRANCH  74  75
ENDBRANCH  73  74
ENDBRANCH  72  73
ENDBRANCH  71  72
ENDBRANCH   1  71
TORSDOF 14
