REMARK SMILES Cc1c(Cl)cc2c(c1C)O[C@@H](C(F)(F)F)C(C(=O)OCCOCCOC(=O)c1ccc(-c3c4nc(c(-c5c(F)c(F)c(F)c(F)c5F)c5ccc([nH]5)c(-c5c(F)c(F)c(F)c(F)c5F)c5nc(c(-c6c(F)c(F)c(F)c(F)c6F)c6ccc3[nH]6)C=C5)C=C4)cc1)=C2
REMARK SMILES IDX 23 1 22 2 21 3 20 4 19 5 17 6 18 7 16 8 1 9 2 10 3 11 8 12
REMARK SMILES IDX 4 13 5 14 7 15 9 16 6 17 10 18 91 19 11 20 12 21 13 22 14 23
REMARK SMILES IDX 15 24 24 25 25 26 26 27 27 28 28 29 29 30 90 31 30 32 89 33
REMARK SMILES IDX 31 34 32 35 33 36 83 37 34 38 88 39 82 40 84 41 35 42 87 43
REMARK SMILES IDX 81 44 80 45 36 47 68 48 48 49 67 50 49 51 52 52 66 53 85 54
REMARK SMILES IDX 50 55 51 56 65 58 86 59 53 60 37 61 38 62 46 63 39 64 40 65
REMARK SMILES IDX 44 66 47 67 41 68 42 69 45 70 43 71 69 72 70 73 78 74 71 75
REMARK SMILES IDX 72 76 76 77 79 78 73 79 74 80 77 81 75 82 54 83 55 84 63 85
REMARK SMILES IDX 56 86 57 87 61 88 64 89 58 90 59 91 62 92 60 93
REMARK H PARENT 84 46 52 57
REMARK Flexibility Score: inf
ROOT
ATOM      1  C   UNL     1       0.229   1.701   8.842  1.00  0.00     0.202 C 
ENDROOT
BRANCH   1   2
ATOM      2  O   UNL     1      -0.832   2.234   9.641  1.00  0.00    -0.374 OA
BRANCH   2   3
ATOM      3  C   UNL     1      -1.777   1.309  10.174  1.00  0.00     0.202 C 
BRANCH   3   4
ATOM      4  C   UNL     1      -2.931   0.919   9.247  1.00  0.00     0.261 C 
BRANCH   4   5
ATOM      5  O   UNL     1      -2.438   0.312   8.041  1.00  0.00    -0.460 OA
BRANCH   5   6
ATOM      6  C   UNL     1      -2.589   1.062   6.931  1.00  0.00     0.338 C 
ATOM      7  O   UNL     1      -3.268   2.072   6.828  1.00  0.00    -0.246 OA
BRANCH   6   8
ATOM      8  C   UNL     1      -1.720   0.563   5.851  1.00  0.00     0.087 C 
ATOM      9  C   UNL     1       1.129   0.016   0.014  1.00  0.00     0.046 C 
ATOM     10  C   UNL     1       0.617   0.356   1.392  1.00  0.00    -0.026 A 
ATOM     11  C   UNL     1       0.692   1.687   1.853  1.00  0.00     0.045 A 
ATOM     12  C   UNL     1       0.074  -0.632   2.254  1.00  0.00    -0.004 A 
ATOM     13  Cl  UNL     1       1.431   2.946   0.922  1.00  0.00    -0.084 Cl
ATOM     14  C   UNL     1       0.152   2.054   3.084  1.00  0.00     0.032 A 
ATOM     15  C   UNL     1      -0.493  -0.238   3.486  1.00  0.00     0.131 A 
ATOM     16  C   UNL     1       0.044  -2.099   1.902  1.00  0.00     0.049 C 
ATOM     17  C   UNL     1      -0.473   1.100   3.883  1.00  0.00     0.019 A 
ATOM     18  O   UNL     1      -1.133  -1.206   4.223  1.00  0.00    -0.475 OA
ATOM     19  C   UNL     1      -1.201   1.516   5.066  1.00  0.00     0.027 C 
ATOM     20  C   UNL     1      -1.504  -0.905   5.602  1.00  0.00     0.316 C 
BRANCH  20  21
ATOM     21  C   UNL     1      -0.489  -1.576   6.549  1.00  0.00     0.430 C 
ATOM     22  F   UNL     1       0.644  -0.849   6.692  1.00  0.00    -0.167 F 
ATOM     23  F   UNL     1      -0.999  -1.780   7.786  1.00  0.00    -0.167 F 
ATOM     24  F   UNL     1      -0.121  -2.800   6.091  1.00  0.00    -0.167 F 
ENDBRANCH  20  21
ENDBRANCH   6   8
ENDBRANCH   5   6
ENDBRANCH   4   5
ENDBRANCH   3   4
ENDBRANCH   2   3
ENDBRANCH   1   2
BRANCH   1  25
ATOM     25  C   UNL     1       1.331   0.940   9.590  1.00  0.00     0.261 C 
BRANCH  25  26
ATOM     26  O   UNL     1       0.869  -0.362  10.003  1.00  0.00    -0.460 OA
BRANCH  26  27
ATOM     27  C   UNL     1       0.860  -0.577  11.336  1.00  0.00     0.338 C 
ATOM     28  O   UNL     1       1.308   0.152  12.212  1.00  0.00    -0.246 OA
BRANCH  27  29
ATOM     29  C   UNL     1       0.014  -1.744  11.640  1.00  0.00     0.060 A 
ATOM     30  C   UNL     1      -1.077  -1.543  12.495  1.00  0.00     0.016 A 
ATOM     31  C   UNL     1       0.311  -3.019  11.153  1.00  0.00     0.016 A 
ATOM     32  C   UNL     1      -1.851  -2.625  12.903  1.00  0.00     0.010 A 
ATOM     33  C   UNL     1      -0.458  -4.108  11.579  1.00  0.00     0.010 A 
ATOM     34  C   UNL     1      -1.518  -3.919  12.484  1.00  0.00    -0.014 A 
BRANCH  34  35
ATOM     35  C   UNL     1      -2.174  -5.071  13.149  1.00  0.00     0.031 A 
ATOM     36  C   UNL     1      -1.477  -5.724  14.310  1.00  0.00     0.074 A 
ATOM     37  C   UNL     1      -3.403  -5.475  12.784  1.00  0.00     0.049 A 
ATOM     38  N   UNL     1      -1.885  -6.700  15.081  1.00  0.00    -0.248 NA
ATOM     39  C   UNL     1      -0.145  -5.201  14.656  1.00  0.00     0.031 C 
ATOM     40  C   UNL     1      -4.198  -4.889  11.708  1.00  0.00     0.029 A 
ATOM     41  N   UNL     1      -4.203  -6.468  13.293  1.00  0.00    -0.354 N 
ATOM     42  C   UNL     1      -0.869  -6.895  16.008  1.00  0.00     0.074 A 
ATOM     43  C   UNL     1       0.194  -5.971  15.678  1.00  0.00     0.031 C 
ATOM     44  C   UNL     1      -5.379  -5.527  11.642  1.00  0.00     0.029 A 
ATOM     45  C   UNL     1      -5.413  -6.582  12.655  1.00  0.00     0.049 A 
ATOM     46  H   UNL     1      -3.934  -7.044  14.045  1.00  0.00     0.167 HD
ATOM     47  C   UNL     1      -0.836  -7.753  17.054  1.00  0.00     0.037 A 
ATOM     48  C   UNL     1      -6.428  -7.446  12.863  1.00  0.00     0.037 A 
ATOM     49  C   UNL     1      -1.893  -8.670  17.383  1.00  0.00     0.049 A 
ATOM     50  C   UNL     1      -6.317  -8.468  13.966  1.00  0.00     0.074 A 
ATOM     51  C   UNL     1      -1.960  -9.562  18.438  1.00  0.00     0.029 A 
ATOM     52  N   UNL     1      -3.063  -8.818  16.656  1.00  0.00    -0.354 N 
ATOM     53  N   UNL     1      -5.371  -8.621  14.860  1.00  0.00    -0.248 NA
ATOM     54  C   UNL     1      -7.414  -9.442  14.084  1.00  0.00     0.031 C 
ATOM     55  C   UNL     1      -3.148 -10.287  18.320  1.00  0.00     0.029 A 
ATOM     56  C   UNL     1      -3.842  -9.816  17.216  1.00  0.00     0.049 A 
ATOM     57  H   UNL     1      -3.305  -8.291  15.860  1.00  0.00     0.167 HD
ATOM     58  C   UNL     1      -5.761  -9.694  15.651  1.00  0.00     0.074 A 
ATOM     59  C   UNL     1      -7.040 -10.144  15.146  1.00  0.00     0.031 C 
ATOM     60  C   UNL     1      -5.112 -10.257  16.700  1.00  0.00     0.037 A 
BRANCH  47  61
ATOM     61  C   UNL     1       0.386  -7.744  17.922  1.00  0.00     0.064 A 
ATOM     62  C   UNL     1       0.641  -6.693  18.814  1.00  0.00     0.173 A 
ATOM     63  C   UNL     1       1.278  -8.826  17.906  1.00  0.00     0.173 A 
ATOM     64  F   UNL     1      -0.178  -5.631  18.858  1.00  0.00    -0.203 F 
ATOM     65  C   UNL     1       1.755  -6.717  19.648  1.00  0.00     0.198 A 
ATOM     66  C   UNL     1       2.377  -8.859  18.759  1.00  0.00     0.198 A 
ATOM     67  F   UNL     1       1.075  -9.858  17.073  1.00  0.00    -0.203 F 
ATOM     68  F   UNL     1       1.997  -5.687  20.470  1.00  0.00    -0.200 F 
ATOM     69  C   UNL     1       2.617  -7.804  19.627  1.00  0.00     0.200 A 
ATOM     70  F   UNL     1       3.202  -9.915  18.746  1.00  0.00    -0.200 F 
ATOM     71  F   UNL     1       3.681  -7.832  20.441  1.00  0.00    -0.200 F 
ENDBRANCH  47  61
BRANCH  48  72
ATOM     72  C   UNL     1      -7.640  -7.383  12.006  1.00  0.00     0.064 A 
ATOM     73  C   UNL     1      -8.873  -6.971  12.529  1.00  0.00     0.173 A 
ATOM     74  C   UNL     1      -7.592  -7.735  10.648  1.00  0.00     0.173 A 
ATOM     75  F   UNL     1      -8.976  -6.651  13.827  1.00  0.00    -0.203 F 
ATOM     76  C   UNL     1     -10.014  -6.920  11.729  1.00  0.00     0.198 A 
ATOM     77  C   UNL     1      -8.727  -7.659   9.844  1.00  0.00     0.198 A 
ATOM     78  F   UNL     1      -6.438  -8.141  10.100  1.00  0.00    -0.203 F 
ATOM     79  F   UNL     1     -11.188  -6.557  12.262  1.00  0.00    -0.200 F 
ATOM     80  C   UNL     1      -9.938  -7.257  10.386  1.00  0.00     0.200 A 
ATOM     81  F   UNL     1      -8.646  -7.976   8.544  1.00  0.00    -0.200 F 
ATOM     82  F   UNL     1     -11.033  -7.200   9.615  1.00  0.00    -0.200 F 
ENDBRANCH  48  72
BRANCH  60  83
ATOM     83  C   UNL     1      -5.755 -11.433  17.375  1.00  0.00     0.064 A 
ATOM     84  C   UNL     1      -5.759 -12.700  16.774  1.00  0.00     0.173 A 
ATOM     85  C   UNL     1      -6.267 -11.320  18.677  1.00  0.00     0.173 A 
ATOM     86  F   UNL     1      -5.291 -12.856  15.527  1.00  0.00    -0.203 F 
ATOM     87  C   UNL     1      -6.252 -13.811  17.452  1.00  0.00     0.198 A 
ATOM     88  C   UNL     1      -6.735 -12.438  19.361  1.00  0.00     0.198 A 
ATOM     89  F   UNL     1      -6.277 -10.131  19.298  1.00  0.00    -0.203 F 
ATOM     90  F   UNL     1      -6.262 -15.009  16.852  1.00  0.00    -0.200 F 
ATOM     91  C   UNL     1      -6.727 -13.682  18.749  1.00  0.00     0.200 A 
ATOM     92  F   UNL     1      -7.177 -12.315  20.621  1.00  0.00    -0.200 F 
ATOM     93  F   UNL     1      -7.175 -14.758  19.410  1.00  0.00    -0.200 F 
ENDBRANCH  60  83
ENDBRANCH  34  35
ENDBRANCH  27  29
ENDBRANCH  26  27
ENDBRANCH  25  26
ENDBRANCH   1  25
TORSDOF 15
