REMARK SMILES CC(C)(CC(=O)Nc1cccc(C(=O)NC2CC2)c1)CC(=O)OCCOCCOC(=O)c1ccc(-c2c3nc(c(-c4c(F)c(F)c(F)c(F)c4F)c4ccc([nH]4)c(-c4c(F)c(F)c(F)c(F)c4F)c4nc(c(-c5c(F)c(F)c(F)c(F)c5F)c5ccc2[nH]5)C=C4)C=C3)cc1
REMARK SMILES IDX 24 1 23 2 21 3 22 4 20 5 2 6 1 7 3 8 4 9 5 10 6 11 7 12 8 14
REMARK SMILES IDX 9 15 19 16 10 17 12 18 11 19 13 20 14 21 15 22 16 24 17 25
REMARK SMILES IDX 18 26 25 27 26 28 27 29 28 30 29 31 30 32 31 33 32 34 33 35
REMARK SMILES IDX 94 36 34 37 93 38 35 39 36 40 37 41 87 42 38 43 92 44 86 45
REMARK SMILES IDX 88 46 39 47 91 48 85 49 84 50 40 52 72 53 52 54 71 55 53 56
REMARK SMILES IDX 56 57 70 58 89 59 54 60 55 61 69 63 90 64 57 65 41 66 42 67
REMARK SMILES IDX 50 68 43 69 44 70 48 71 51 72 45 73 46 74 49 75 47 76 73 77
REMARK SMILES IDX 74 78 82 79 75 80 76 81 80 82 83 83 77 84 78 85 81 86 79 87
REMARK SMILES IDX 58 88 59 89 67 90 60 91 61 92 65 93 68 94 62 95 63 96 66 97
REMARK SMILES IDX 64 98
REMARK H PARENT 7 13 15 23 88 51 56 62
REMARK Flexibility Score: inf
ROOT
ATOM      1  C   UNL     1      -1.022   4.557  -0.062  1.00  0.00     0.261 C 
ENDROOT
BRANCH   1   2
ATOM      2  O   UNL     1      -1.030   3.396  -0.921  1.00  0.00    -0.463 OA
BRANCH   2   3
ATOM      3  C   UNL     1       0.090   3.130  -1.626  1.00  0.00     0.306 C 
ATOM      4  O   UNL     1       1.175   3.667  -1.443  1.00  0.00    -0.252 OA
BRANCH   3   5
ATOM      5  C   UNL     1      -0.190   2.184  -2.787  1.00  0.00     0.129 C 
BRANCH   5   6
ATOM      6  C   UNL     1      -0.419   0.664  -2.565  1.00  0.00    -0.016 C 
ATOM      7  C   UNL     1       0.814   0.039  -1.991  1.00  0.00     0.012 C 
ATOM      8  C   UNL     1      -0.562   0.014  -3.966  1.00  0.00     0.012 C 
BRANCH   6   9
ATOM      9  C   UNL     1      -1.617   0.252  -1.690  1.00  0.00     0.107 C 
BRANCH   9  10
ATOM     10  C   UNL     1      -1.716   0.641  -0.220  1.00  0.00     0.224 C 
ATOM     11  O   UNL     1      -2.615   1.445   0.084  1.00  0.00    -0.275 OA
ATOM     12  N   UNL     1      -1.066   0.115   0.850  1.00  0.00    -0.326 N 
ATOM     13  H   UNL     1      -1.388   0.553   1.671  1.00  0.00     0.169 HD
BRANCH  12  14
ATOM     14  C   UNL     1      -0.088  -0.842   1.191  1.00  0.00     0.041 A 
ATOM     15  C   UNL     1      -0.466  -1.774   2.164  1.00  0.00     0.026 A 
ATOM     16  C   UNL     1       1.292  -0.685   0.967  1.00  0.00     0.040 A 
ATOM     17  C   UNL     1       0.474  -2.604   2.778  1.00  0.00     0.003 A 
ATOM     18  C   UNL     1       2.257  -1.567   1.491  1.00  0.00     0.041 A 
ATOM     19  C   UNL     1       1.817  -2.525   2.414  1.00  0.00     0.014 A 
BRANCH  18  20
ATOM     20  C   UNL     1       3.743  -1.520   1.233  1.00  0.00     0.251 C 
ATOM     21  O   UNL     1       4.489  -2.186   1.956  1.00  0.00    -0.269 OA
ATOM     22  N   UNL     1       4.342  -0.810   0.211  1.00  0.00    -0.349 N 
ATOM     23  H   UNL     1       5.326  -0.815   0.222  1.00  0.00     0.164 HD
BRANCH  22  24
ATOM     24  C   UNL     1       3.759  -0.078  -0.846  1.00  0.00     0.082 C 
ATOM     25  C   UNL     1       3.694   1.426  -0.742  1.00  0.00     0.027 C 
ATOM     26  C   UNL     1       4.518   0.792  -1.813  1.00  0.00     0.027 C 
ENDBRANCH  22  24
ENDBRANCH  18  20
ENDBRANCH  12  14
ENDBRANCH   9  10
ENDBRANCH   6   9
ENDBRANCH   5   6
ENDBRANCH   3   5
ENDBRANCH   2   3
ENDBRANCH   1   2
BRANCH   1  27
ATOM     27  C   UNL     1      -0.922   4.208   1.423  1.00  0.00     0.202 C 
BRANCH  27  28
ATOM     28  O   UNL     1       0.421   4.135   1.904  1.00  0.00    -0.374 OA
BRANCH  28  29
ATOM     29  C   UNL     1       0.955   2.815   2.010  1.00  0.00     0.202 C 
BRANCH  29  30
ATOM     30  C   UNL     1       0.509   2.079   3.286  1.00  0.00     0.261 C 
BRANCH  30  31
ATOM     31  O   UNL     1      -0.863   1.641   3.160  1.00  0.00    -0.460 OA
BRANCH  31  32
ATOM     32  C   UNL     1      -1.726   2.084   4.101  1.00  0.00     0.338 C 
ATOM     33  O   UNL     1      -1.452   2.635   5.156  1.00  0.00    -0.246 OA
BRANCH  32  34
ATOM     34  C   UNL     1      -3.103   1.989   3.571  1.00  0.00     0.060 A 
ATOM     35  C   UNL     1      -3.868   3.157   3.569  1.00  0.00     0.016 A 
ATOM     36  C   UNL     1      -3.648   0.796   3.087  1.00  0.00     0.016 A 
ATOM     37  C   UNL     1      -5.196   3.122   3.143  1.00  0.00     0.010 A 
ATOM     38  C   UNL     1      -4.961   0.777   2.600  1.00  0.00     0.010 A 
ATOM     39  C   UNL     1      -5.769   1.925   2.687  1.00  0.00    -0.014 A 
BRANCH  39  40
ATOM     40  C   UNL     1      -7.246   1.849   2.497  1.00  0.00     0.031 A 
ATOM     41  C   UNL     1      -8.070   1.043   3.472  1.00  0.00     0.074 A 
ATOM     42  C   UNL     1      -7.869   2.551   1.531  1.00  0.00     0.049 A 
ATOM     43  N   UNL     1      -9.372   0.911   3.556  1.00  0.00    -0.248 NA
ATOM     44  C   UNL     1      -7.331   0.275   4.486  1.00  0.00     0.031 C 
ATOM     45  C   UNL     1      -7.205   3.368   0.517  1.00  0.00     0.029 A 
ATOM     46  N   UNL     1      -9.208   2.700   1.257  1.00  0.00    -0.354 N 
ATOM     47  C   UNL     1      -9.598   0.052   4.625  1.00  0.00     0.074 A 
ATOM     48  C   UNL     1      -8.304  -0.363   5.115  1.00  0.00     0.031 C 
ATOM     49  C   UNL     1      -8.139   3.952  -0.254  1.00  0.00     0.029 A 
ATOM     50  C   UNL     1      -9.467   3.530   0.193  1.00  0.00     0.049 A 
ATOM     51  H   UNL     1      -9.916   2.253   1.775  1.00  0.00     0.167 HD
ATOM     52  C   UNL     1     -10.773  -0.333   5.177  1.00  0.00     0.037 A 
ATOM     53  C   UNL     1     -10.638   3.906  -0.359  1.00  0.00     0.037 A 
ATOM     54  C   UNL     1     -12.067   0.083   4.708  1.00  0.00     0.049 A 
ATOM     55  C   UNL     1     -11.937   3.422   0.239  1.00  0.00     0.074 A 
ATOM     56  C   UNL     1     -13.312  -0.230   5.223  1.00  0.00     0.029 A 
ATOM     57  N   UNL     1     -12.283   0.897   3.607  1.00  0.00    -0.354 N 
ATOM     58  N   UNL     1     -12.135   2.660   1.287  1.00  0.00    -0.248 NA
ATOM     59  C   UNL     1     -13.177   3.863  -0.419  1.00  0.00     0.031 C 
ATOM     60  C   UNL     1     -14.284   0.342   4.397  1.00  0.00     0.029 A 
ATOM     61  C   UNL     1     -13.643   1.070   3.408  1.00  0.00     0.049 A 
ATOM     62  H   UNL     1     -11.575   1.294   3.049  1.00  0.00     0.167 HD
ATOM     63  C   UNL     1     -13.514   2.555   1.431  1.00  0.00     0.074 A 
ATOM     64  C   UNL     1     -14.105   3.346   0.374  1.00  0.00     0.031 C 
ATOM     65  C   UNL     1     -14.226   1.865   2.357  1.00  0.00     0.037 A 
BRANCH  52  66
ATOM     66  C   UNL     1     -10.711  -1.264   6.356  1.00  0.00     0.064 A 
ATOM     67  C   UNL     1     -10.213  -0.848   7.601  1.00  0.00     0.173 A 
ATOM     68  C   UNL     1     -11.181  -2.581   6.246  1.00  0.00     0.173 A 
ATOM     69  F   UNL     1      -9.736   0.397   7.756  1.00  0.00    -0.203 F 
ATOM     70  C   UNL     1     -10.156  -1.726   8.680  1.00  0.00     0.198 A 
ATOM     71  C   UNL     1     -11.157  -3.445   7.338  1.00  0.00     0.198 A 
ATOM     72  F   UNL     1     -11.672  -3.030   5.081  1.00  0.00    -0.203 F 
ATOM     73  F   UNL     1      -9.621  -1.323   9.841  1.00  0.00    -0.200 F 
ATOM     74  C   UNL     1     -10.635  -3.020   8.550  1.00  0.00     0.200 A 
ATOM     75  F   UNL     1     -11.635  -4.691   7.215  1.00  0.00    -0.200 F 
ATOM     76  F   UNL     1     -10.587  -3.861   9.592  1.00  0.00    -0.200 F 
ENDBRANCH  52  66
BRANCH  53  77
ATOM     77  C   UNL     1     -10.646   4.796  -1.553  1.00  0.00     0.064 A 
ATOM     78  C   UNL     1     -11.158   6.101  -1.488  1.00  0.00     0.173 A 
ATOM     79  C   UNL     1     -10.170   4.346  -2.794  1.00  0.00     0.173 A 
ATOM     80  F   UNL     1     -11.653   6.569  -0.334  1.00  0.00    -0.203 F 
ATOM     81  C   UNL     1     -11.213   6.911  -2.622  1.00  0.00     0.198 A 
ATOM     82  C   UNL     1     -10.194   5.169  -3.918  1.00  0.00     0.198 A 
ATOM     83  F   UNL     1      -9.675   3.106  -2.913  1.00  0.00    -0.203 F 
ATOM     84  F   UNL     1     -11.759   8.132  -2.544  1.00  0.00    -0.200 F 
ATOM     85  C   UNL     1     -10.725   6.447  -3.834  1.00  0.00     0.200 A 
ATOM     86  F   UNL     1      -9.711   4.720  -5.084  1.00  0.00    -0.200 F 
ATOM     87  F   UNL     1     -10.776   7.226  -4.922  1.00  0.00    -0.200 F 
ENDBRANCH  53  77
BRANCH  65  88
ATOM     88  C   UNL     1     -15.725   1.960   2.301  1.00  0.00     0.064 A 
ATOM     89  C   UNL     1     -16.468   1.366   1.269  1.00  0.00     0.173 A 
ATOM     90  C   UNL     1     -16.433   2.613   3.323  1.00  0.00     0.173 A 
ATOM     91  F   UNL     1     -15.842   0.738   0.262  1.00  0.00    -0.203 F 
ATOM     92  C   UNL     1     -17.858   1.448   1.247  1.00  0.00     0.198 A 
ATOM     93  C   UNL     1     -17.825   2.662   3.316  1.00  0.00     0.198 A 
ATOM     94  F   UNL     1     -15.776   3.189   4.340  1.00  0.00    -0.203 F 
ATOM     95  F   UNL     1     -18.542   0.917   0.224  1.00  0.00    -0.200 F 
ATOM     96  C   UNL     1     -18.536   2.088   2.274  1.00  0.00     0.200 A 
ATOM     97  F   UNL     1     -18.478   3.264   4.320  1.00  0.00    -0.200 F 
ATOM     98  F   UNL     1     -19.874   2.156   2.256  1.00  0.00    -0.200 F 
ENDBRANCH  65  88
ENDBRANCH  39  40
ENDBRANCH  32  34
ENDBRANCH  31  32
ENDBRANCH  30  31
ENDBRANCH  29  30
ENDBRANCH  28  29
ENDBRANCH  27  28
ENDBRANCH   1  27
TORSDOF 20
