REMARK SMILES C[C@H](NC(=O)CCn1ccccc1=O)C(=O)OCCOCCOC(=O)c1ccc(-c2c3nc(c(-c4c(F)c(F)c(F)c(F)c4F)c4ccc([nH]4)c(-c4c(F)c(F)c(F)c(F)c4F)c4nc(c(-c5c(F)c(F)c(F)c(F)c5F)c5ccc2[nH]5)C=C4)C=C3)cc1
REMARK SMILES IDX 19 1 18 2 17 3 15 4 16 5 2 6 1 7 3 8 4 9 5 11 6 12 7 13 8 14
REMARK SMILES IDX 9 15 13 16 10 17 12 18 14 19 11 20 20 21 21 22 22 23 23 24
REMARK SMILES IDX 24 25 25 26 26 27 27 28 88 29 28 30 87 31 29 32 30 33 31 34
REMARK SMILES IDX 81 35 32 36 86 37 80 38 82 39 33 40 85 41 79 42 78 43 34 45
REMARK SMILES IDX 66 46 46 47 65 48 47 49 50 50 64 51 83 52 48 53 49 54 63 56
REMARK SMILES IDX 84 57 51 58 35 59 36 60 44 61 37 62 38 63 42 64 45 65 39 66
REMARK SMILES IDX 40 67 43 68 41 69 67 70 68 71 76 72 69 73 70 74 74 75 77 76
REMARK SMILES IDX 71 77 72 78 75 79 73 80 52 81 53 82 61 83 54 84 55 85 59 86
REMARK SMILES IDX 62 87 56 88 57 89 60 90 58 91
REMARK H PARENT 3 10 82 44 50 55
REMARK Flexibility Score: inf
ROOT
ATOM      1  C   UNL     1      -3.553   0.169  -0.265  1.00  0.00     0.202 C 
ENDROOT
BRANCH   1   2
ATOM      2  C   UNL     1      -2.915   1.027  -1.352  1.00  0.00     0.261 C 
BRANCH   2   3
ATOM      3  O   UNL     1      -1.522   1.307  -1.147  1.00  0.00    -0.462 OA
BRANCH   3   4
ATOM      4  C   UNL     1      -0.614   0.291  -1.204  1.00  0.00     0.328 C 
ATOM      5  O   UNL     1      -0.879  -0.890  -1.371  1.00  0.00    -0.250 OA
BRANCH   4   6
ATOM      6  C   UNL     1       0.794   0.892  -1.096  1.00  0.00     0.189 C 
ATOM      7  C   UNL     1       1.361   1.077  -2.502  1.00  0.00     0.043 C 
BRANCH   6   8
ATOM      8  N   UNL     1       1.730   0.176  -0.234  1.00  0.00    -0.343 N 
ATOM      9  C   UNL     1       2.118   0.415   1.047  1.00  0.00     0.222 C 
ATOM     10  H   UNL     1       2.151  -0.611  -0.650  1.00  0.00     0.164 HD
ATOM     11  O   UNL     1       3.049  -0.257   1.497  1.00  0.00    -0.275 OA
BRANCH   9  12
ATOM     12  C   UNL     1       1.382   1.389   1.949  1.00  0.00     0.122 C 
BRANCH  12  13
ATOM     13  C   UNL     1       1.685   2.879   1.770  1.00  0.00     0.135 C 
BRANCH  13  14
ATOM     14  N   UNL     1       0.735   3.613   0.920  1.00  0.00    -0.315 N 
ATOM     15  C   UNL     1      -0.631   3.516   1.158  1.00  0.00     0.089 A 
ATOM     16  C   UNL     1       1.238   4.404  -0.120  1.00  0.00     0.250 A 
ATOM     17  C   UNL     1      -1.525   4.053   0.319  1.00  0.00     0.018 A 
ATOM     18  C   UNL     1       0.228   4.969  -1.057  1.00  0.00     0.072 A 
ATOM     19  O   UNL     1       2.429   4.602  -0.340  1.00  0.00    -0.269 OA
ATOM     20  C   UNL     1      -1.079   4.765  -0.849  1.00  0.00     0.007 A 
ENDBRANCH  13  14
ENDBRANCH  12  13
ENDBRANCH   9  12
ENDBRANCH   6   8
ENDBRANCH   4   6
ENDBRANCH   3   4
ENDBRANCH   2   3
ENDBRANCH   1   2
BRANCH   1  21
ATOM     21  O   UNL     1      -3.398   0.659   1.065  1.00  0.00    -0.374 OA
BRANCH  21  22
ATOM     22  C   UNL     1      -2.322   0.070   1.806  1.00  0.00     0.202 C 
BRANCH  22  23
ATOM     23  C   UNL     1      -2.556  -1.355   2.338  1.00  0.00     0.261 C 
BRANCH  23  24
ATOM     24  O   UNL     1      -2.560  -2.316   1.267  1.00  0.00    -0.460 OA
BRANCH  24  25
ATOM     25  C   UNL     1      -3.767  -2.865   0.976  1.00  0.00     0.338 C 
ATOM     26  O   UNL     1      -4.780  -2.801   1.646  1.00  0.00    -0.246 OA
BRANCH  25  27
ATOM     27  C   UNL     1      -3.757  -3.338  -0.431  1.00  0.00     0.060 A 
ATOM     28  C   UNL     1      -2.672  -4.014  -0.995  1.00  0.00     0.016 A 
ATOM     29  C   UNL     1      -4.873  -3.020  -1.219  1.00  0.00     0.016 A 
ATOM     30  C   UNL     1      -2.726  -4.407  -2.338  1.00  0.00     0.010 A 
ATOM     31  C   UNL     1      -4.920  -3.398  -2.560  1.00  0.00     0.010 A 
ATOM     32  C   UNL     1      -3.857  -4.117  -3.122  1.00  0.00    -0.014 A 
BRANCH  32  33
ATOM     33  C   UNL     1      -4.020  -4.719  -4.467  1.00  0.00     0.031 A 
ATOM     34  C   UNL     1      -3.774  -3.948  -5.725  1.00  0.00     0.074 A 
ATOM     35  C   UNL     1      -4.452  -5.992  -4.529  1.00  0.00     0.049 A 
ATOM     36  N   UNL     1      -3.851  -4.356  -6.968  1.00  0.00    -0.248 NA
ATOM     37  C   UNL     1      -3.403  -2.536  -5.574  1.00  0.00     0.031 C 
ATOM     38  C   UNL     1      -4.752  -6.828  -3.367  1.00  0.00     0.029 A 
ATOM     39  N   UNL     1      -4.711  -6.802  -5.604  1.00  0.00    -0.354 N 
ATOM     40  C   UNL     1      -3.505  -3.264  -7.750  1.00  0.00     0.074 A 
ATOM     41  C   UNL     1      -3.277  -2.157  -6.840  1.00  0.00     0.031 C 
ATOM     42  C   UNL     1      -5.129  -8.043  -3.789  1.00  0.00     0.029 A 
ATOM     43  C   UNL     1      -5.118  -8.063  -5.248  1.00  0.00     0.049 A 
ATOM     44  H   UNL     1      -4.615  -6.508  -6.538  1.00  0.00     0.167 HD
ATOM     45  C   UNL     1      -3.371  -3.202  -9.098  1.00  0.00     0.037 A 
ATOM     46  C   UNL     1      -5.437  -9.123  -6.013  1.00  0.00     0.037 A 
ATOM     47  C   UNL     1      -3.641  -4.298  -9.997  1.00  0.00     0.049 A 
ATOM     48  C   UNL     1      -5.351  -9.007  -7.506  1.00  0.00     0.074 A 
ATOM     49  C   UNL     1      -3.522  -4.335 -11.377  1.00  0.00     0.029 A 
ATOM     50  N   UNL     1      -4.101  -5.550  -9.608  1.00  0.00    -0.354 N 
ATOM     51  N   UNL     1      -4.967  -7.988  -8.234  1.00  0.00    -0.248 NA
ATOM     52  C   UNL     1      -5.737 -10.193  -8.282  1.00  0.00     0.031 C 
ATOM     53  C   UNL     1      -3.957  -5.589 -11.824  1.00  0.00     0.029 A 
ATOM     54  C   UNL     1      -4.297  -6.354 -10.721  1.00  0.00     0.049 A 
ATOM     55  H   UNL     1      -4.264  -5.825  -8.677  1.00  0.00     0.167 HD
ATOM     56  C   UNL     1      -5.046  -8.411  -9.553  1.00  0.00     0.074 A 
ATOM     57  C   UNL     1      -5.499  -9.787  -9.522  1.00  0.00     0.031 C 
ATOM     58  C   UNL     1      -4.766  -7.718 -10.684  1.00  0.00     0.037 A 
BRANCH  45  59
ATOM     59  C   UNL     1      -2.899  -1.903  -9.687  1.00  0.00     0.064 A 
ATOM     60  C   UNL     1      -1.580  -1.458  -9.504  1.00  0.00     0.173 A 
ATOM     61  C   UNL     1      -3.748  -1.118 -10.483  1.00  0.00     0.173 A 
ATOM     62  F   UNL     1      -0.728  -2.167  -8.748  1.00  0.00    -0.203 F 
ATOM     63  C   UNL     1      -1.137  -0.266 -10.072  1.00  0.00     0.198 A 
ATOM     64  C   UNL     1      -3.293   0.060 -11.072  1.00  0.00     0.198 A 
ATOM     65  F   UNL     1      -5.015  -1.499 -10.700  1.00  0.00    -0.203 F 
ATOM     66  F   UNL     1       0.114   0.159  -9.844  1.00  0.00    -0.200 F 
ATOM     67  C   UNL     1      -1.992   0.488 -10.860  1.00  0.00     0.200 A 
ATOM     68  F   UNL     1      -4.117   0.782 -11.845  1.00  0.00    -0.200 F 
ATOM     69  F   UNL     1      -1.563   1.633 -11.409  1.00  0.00    -0.200 F 
ENDBRANCH  45  59
BRANCH  46  70
ATOM     70  C   UNL     1      -5.798 -10.402  -5.354  1.00  0.00     0.064 A 
ATOM     71  C   UNL     1      -4.895 -11.473  -5.346  1.00  0.00     0.173 A 
ATOM     72  C   UNL     1      -7.009 -10.556  -4.665  1.00  0.00     0.173 A 
ATOM     73  F   UNL     1      -3.732 -11.372  -6.005  1.00  0.00    -0.203 F 
ATOM     74  C   UNL     1      -5.190 -12.653  -4.669  1.00  0.00     0.198 A 
ATOM     75  C   UNL     1      -7.292 -11.729  -3.970  1.00  0.00     0.198 A 
ATOM     76  F   UNL     1      -7.900  -9.554  -4.639  1.00  0.00    -0.203 F 
ATOM     77  F   UNL     1      -4.317 -13.669  -4.689  1.00  0.00    -0.200 F 
ATOM     78  C   UNL     1      -6.383 -12.777  -3.973  1.00  0.00     0.200 A 
ATOM     79  F   UNL     1      -8.438 -11.839  -3.284  1.00  0.00    -0.200 F 
ATOM     80  F   UNL     1      -6.656 -13.905  -3.303  1.00  0.00    -0.200 F 
ENDBRANCH  46  70
BRANCH  58  81
ATOM     81  C   UNL     1      -4.937  -8.442 -11.989  1.00  0.00     0.064 A 
ATOM     82  C   UNL     1      -6.209  -8.754 -12.494  1.00  0.00     0.173 A 
ATOM     83  C   UNL     1      -3.821  -8.800 -12.760  1.00  0.00     0.173 A 
ATOM     84  F   UNL     1      -7.308  -8.448 -11.788  1.00  0.00    -0.203 F 
ATOM     85  C   UNL     1      -6.355  -9.419 -13.709  1.00  0.00     0.198 A 
ATOM     86  C   UNL     1      -3.972  -9.439 -13.988  1.00  0.00     0.198 A 
ATOM     87  F   UNL     1      -2.582  -8.523 -12.327  1.00  0.00    -0.203 F 
ATOM     88  F   UNL     1      -7.578  -9.748 -14.147  1.00  0.00    -0.200 F 
ATOM     89  C   UNL     1      -5.238  -9.754 -14.458  1.00  0.00     0.200 A 
ATOM     90  F   UNL     1      -2.891  -9.752 -14.717  1.00  0.00    -0.200 F 
ATOM     91  F   UNL     1      -5.381 -10.388 -15.630  1.00  0.00    -0.200 F 
ENDBRANCH  58  81
ENDBRANCH  32  33
ENDBRANCH  25  27
ENDBRANCH  24  25
ENDBRANCH  23  24
ENDBRANCH  22  23
ENDBRANCH  21  22
ENDBRANCH   1  21
TORSDOF 18
