REMARK SMILES CCC1(CC)C[NH+]([C@H](CCS(C)(=O)=O)C(=O)OCCOCCOC(=O)c2ccc(-c3c4nc(c(-c5c(F)c(F)c(F)c(F)c5F)c5ccc([nH]5)c(-c5c(F)c(F)c(F)c(F)c5F)c5nc(c(-c6c(F)c(F)c(F)c(F)c6F)c6ccc3[nH]6)C=C5)C=C4)cc2)C1
REMARK SMILES IDX 19 1 18 2 17 3 15 4 16 5 8 6 7 7 3 8 6 9 89 10 2 12 1 13
REMARK SMILES IDX 4 14 5 15 9 16 10 17 11 18 12 19 13 20 14 21 20 22 21 23
REMARK SMILES IDX 22 24 23 25 24 26 25 27 26 28 27 29 88 30 28 31 87 32 29 33
REMARK SMILES IDX 30 34 31 35 81 36 32 37 86 38 80 39 82 40 33 41 85 42 79 43
REMARK SMILES IDX 78 44 34 46 66 47 46 48 65 49 47 50 50 51 64 52 83 53 48 54
REMARK SMILES IDX 49 55 63 57 84 58 51 59 35 60 36 61 44 62 37 63 38 64 42 65
REMARK SMILES IDX 45 66 39 67 40 68 43 69 41 70 67 71 68 72 76 73 69 74 70 75
REMARK SMILES IDX 74 76 77 77 71 78 72 79 75 80 73 81 52 82 53 83 61 84 54 85
REMARK SMILES IDX 55 86 59 87 62 88 56 89 57 90 60 91 58 92
REMARK H PARENT 7 11 82 45 50 56
REMARK Flexibility Score: inf
ROOT
ATOM      1  C   UNL     1       1.521   3.025   6.465  1.00  0.00     0.202 C 
ENDROOT
BRANCH   1   2
ATOM      2  C   UNL     1       2.733   2.204   6.011  1.00  0.00     0.261 C 
BRANCH   2   3
ATOM      3  O   UNL     1       2.357   1.083   5.186  1.00  0.00    -0.459 OA
BRANCH   3   4
ATOM      4  C   UNL     1       2.594  -0.158   5.714  1.00  0.00     0.365 C 
ATOM      5  O   UNL     1       3.042  -0.357   6.838  1.00  0.00    -0.245 OA
BRANCH   4   6
ATOM      6  C   UNL     1       2.204  -1.294   4.730  1.00  0.00     0.296 C 
BRANCH   6   7
ATOM      7  N   UNL     1       3.307  -1.424   3.774  1.00  0.00    -0.322 N 
ATOM      8  C   UNL     1       3.838  -1.619   1.742  1.00  0.00     0.068 C 
ATOM      9  C   UNL     1       3.385  -0.451   2.691  1.00  0.00     0.275 C 
ATOM     10  C   UNL     1       3.227  -2.546   2.841  1.00  0.00     0.275 C 
ATOM     11  H   UNL     1       4.040  -1.412   4.483  1.00  0.00     0.348 HD
BRANCH   8  12
ATOM     12  C   UNL     1       3.072  -1.578   0.410  1.00  0.00     0.015 C 
ATOM     13  C   UNL     1       3.545  -0.440  -0.486  1.00  0.00     0.005 C 
ENDBRANCH   8  12
BRANCH   8  14
ATOM     14  C   UNL     1       5.354  -1.864   1.610  1.00  0.00     0.015 C 
ATOM     15  C   UNL     1       5.659  -3.206   0.949  1.00  0.00     0.005 C 
ENDBRANCH   8  14
ENDBRANCH   6   7
BRANCH   6  16
ATOM     16  C   UNL     1       0.713  -1.123   4.319  1.00  0.00     0.094 C 
BRANCH  16  17
ATOM     17  C   UNL     1       0.022  -2.117   3.392  1.00  0.00     0.143 C 
BRANCH  17  18
ATOM     18  S   UNL     1      -0.011  -3.832   3.908  1.00  0.00     0.147 S 
ATOM     19  C   UNL     1      -1.479  -3.970   4.894  1.00  0.00     0.158 C 
ATOM     20  O   UNL     1      -0.222  -4.629   2.715  1.00  0.00    -0.229 OA
ATOM     21  O   UNL     1       1.112  -4.106   4.779  1.00  0.00    -0.229 OA
ENDBRANCH  17  18
ENDBRANCH  16  17
ENDBRANCH   6  16
ENDBRANCH   4   6
ENDBRANCH   3   4
ENDBRANCH   2   3
ENDBRANCH   1   2
BRANCH   1  22
ATOM     22  O   UNL     1       0.681   2.426   7.451  1.00  0.00    -0.374 OA
BRANCH  22  23
ATOM     23  C   UNL     1      -0.205   1.402   7.012  1.00  0.00     0.202 C 
BRANCH  23  24
ATOM     24  C   UNL     1      -1.508   1.874   6.358  1.00  0.00     0.261 C 
BRANCH  24  25
ATOM     25  O   UNL     1      -1.275   2.558   5.112  1.00  0.00    -0.460 OA
BRANCH  25  26
ATOM     26  C   UNL     1      -1.503   3.892   5.151  1.00  0.00     0.338 C 
ATOM     27  O   UNL     1      -1.946   4.543   6.089  1.00  0.00    -0.246 OA
BRANCH  26  28
ATOM     28  C   UNL     1      -0.998   4.535   3.925  1.00  0.00     0.060 A 
ATOM     29  C   UNL     1      -0.136   5.629   4.073  1.00  0.00     0.016 A 
ATOM     30  C   UNL     1      -1.431   4.138   2.658  1.00  0.00     0.016 A 
ATOM     31  C   UNL     1       0.259   6.365   2.957  1.00  0.00     0.010 A 
ATOM     32  C   UNL     1      -1.041   4.883   1.540  1.00  0.00     0.010 A 
ATOM     33  C   UNL     1      -0.224   6.019   1.689  1.00  0.00    -0.014 A 
BRANCH  33  34
ATOM     34  C   UNL     1      -0.005   6.928   0.538  1.00  0.00     0.031 A 
ATOM     35  C   UNL     1      -1.112   7.861   0.129  1.00  0.00     0.074 A 
ATOM     36  C   UNL     1       1.160   6.927  -0.132  1.00  0.00     0.049 A 
ATOM     37  N   UNL     1      -1.185   8.665  -0.900  1.00  0.00    -0.248 NA
ATOM     38  C   UNL     1      -2.299   7.885   0.999  1.00  0.00     0.031 C 
ATOM     39  C   UNL     1       2.324   6.110   0.201  1.00  0.00     0.029 A 
ATOM     40  N   UNL     1       1.547   7.632  -1.244  1.00  0.00    -0.354 N 
ATOM     41  C   UNL     1      -2.426   9.281  -0.809  1.00  0.00     0.074 A 
ATOM     42  C   UNL     1      -3.083   8.742   0.362  1.00  0.00     0.031 C 
ATOM     43  C   UNL     1       3.291   6.343  -0.702  1.00  0.00     0.029 A 
ATOM     44  C   UNL     1       2.799   7.297  -1.696  1.00  0.00     0.049 A 
ATOM     45  H   UNL     1       0.981   8.311  -1.677  1.00  0.00     0.167 HD
ATOM     46  C   UNL     1      -2.967  10.215  -1.628  1.00  0.00     0.037 A 
ATOM     47  C   UNL     1       3.458   7.692  -2.803  1.00  0.00     0.037 A 
ATOM     48  C   UNL     1      -2.308  10.752  -2.789  1.00  0.00     0.049 A 
ATOM     49  C   UNL     1       2.805   8.676  -3.740  1.00  0.00     0.074 A 
ATOM     50  C   UNL     1      -2.767  11.710  -3.676  1.00  0.00     0.029 A 
ATOM     51  N   UNL     1      -1.048  10.372  -3.226  1.00  0.00    -0.354 N 
ATOM     52  N   UNL     1       1.635   9.258  -3.646  1.00  0.00    -0.248 NA
ATOM     53  C   UNL     1       3.566   9.055  -4.940  1.00  0.00     0.031 C 
ATOM     54  C   UNL     1      -1.804  11.876  -4.677  1.00  0.00     0.029 A 
ATOM     55  C   UNL     1      -0.722  11.060  -4.384  1.00  0.00     0.049 A 
ATOM     56  H   UNL     1      -0.470   9.712  -2.780  1.00  0.00     0.167 HD
ATOM     57  C   UNL     1       1.533  10.096  -4.750  1.00  0.00     0.074 A 
ATOM     58  C   UNL     1       2.763   9.949  -5.500  1.00  0.00     0.031 C 
ATOM     59  C   UNL     1       0.514  10.915  -5.108  1.00  0.00     0.037 A 
BRANCH  46  60
ATOM     60  C   UNL     1      -4.353  10.694  -1.313  1.00  0.00     0.064 A 
ATOM     61  C   UNL     1      -4.614  11.531  -0.219  1.00  0.00     0.173 A 
ATOM     62  C   UNL     1      -5.430  10.339  -2.140  1.00  0.00     0.173 A 
ATOM     63  F   UNL     1      -3.621  11.887   0.611  1.00  0.00    -0.203 F 
ATOM     64  C   UNL     1      -5.906  11.976   0.050  1.00  0.00     0.198 A 
ATOM     65  C   UNL     1      -6.715  10.808  -1.884  1.00  0.00     0.198 A 
ATOM     66  F   UNL     1      -5.233   9.543  -3.202  1.00  0.00    -0.203 F 
ATOM     67  F   UNL     1      -6.140  12.739   1.127  1.00  0.00    -0.200 F 
ATOM     68  C   UNL     1      -6.954  11.620  -0.786  1.00  0.00     0.200 A 
ATOM     69  F   UNL     1      -7.724  10.472  -2.700  1.00  0.00    -0.200 F 
ATOM     70  F   UNL     1      -8.195  12.055  -0.530  1.00  0.00    -0.200 F 
ENDBRANCH  46  60
BRANCH  47  71
ATOM     71  C   UNL     1       4.806   7.143  -3.099  1.00  0.00     0.064 A 
ATOM     72  C   UNL     1       5.947   7.955  -3.040  1.00  0.00     0.173 A 
ATOM     73  C   UNL     1       4.980   5.799  -3.461  1.00  0.00     0.173 A 
ATOM     74  F   UNL     1       5.828   9.253  -2.724  1.00  0.00    -0.203 F 
ATOM     75  C   UNL     1       7.208   7.448  -3.348  1.00  0.00     0.198 A 
ATOM     76  C   UNL     1       6.244   5.286  -3.742  1.00  0.00     0.198 A 
ATOM     77  F   UNL     1       3.920   4.981  -3.535  1.00  0.00    -0.203 F 
ATOM     78  F   UNL     1       8.276   8.256  -3.327  1.00  0.00    -0.200 F 
ATOM     79  C   UNL     1       7.356   6.112  -3.692  1.00  0.00     0.200 A 
ATOM     80  F   UNL     1       6.384   3.993  -4.063  1.00  0.00    -0.200 F 
ATOM     81  F   UNL     1       8.569   5.624  -3.985  1.00  0.00    -0.200 F 
ENDBRANCH  47  71
BRANCH  59  82
ATOM     82  C   UNL     1       0.701  11.758  -6.336  1.00  0.00     0.064 A 
ATOM     83  C   UNL     1       0.650  11.207  -7.624  1.00  0.00     0.173 A 
ATOM     84  C   UNL     1       0.875  13.146  -6.221  1.00  0.00     0.173 A 
ATOM     85  F   UNL     1       0.499   9.884  -7.787  1.00  0.00    -0.203 F 
ATOM     86  C   UNL     1       0.786  12.012  -8.752  1.00  0.00     0.198 A 
ATOM     87  C   UNL     1       0.983  13.951  -7.351  1.00  0.00     0.198 A 
ATOM     88  F   UNL     1       0.923  13.723  -5.011  1.00  0.00    -0.203 F 
ATOM     89  F   UNL     1       0.773  11.460  -9.973  1.00  0.00    -0.200 F 
ATOM     90  C   UNL     1       0.943  13.384  -8.615  1.00  0.00     0.200 A 
ATOM     91  F   UNL     1       1.121  15.278  -7.215  1.00  0.00    -0.200 F 
ATOM     92  F   UNL     1       1.062  14.158  -9.702  1.00  0.00    -0.200 F 
ENDBRANCH  59  82
ENDBRANCH  33  34
ENDBRANCH  26  28
ENDBRANCH  25  26
ENDBRANCH  24  25
ENDBRANCH  23  24
ENDBRANCH  22  23
ENDBRANCH   1  22
TORSDOF 20
