REMARK SMILES O=C(Cc1csc(NC(=O)[C@H]2CC(=O)N(C3CC3)C2)n1)OCCOCCOC(=O)c1ccc(-c2c3nc(c(-c4c(F)c(F)c(F)c(F)c4F)c4ccc([nH]4)c(-c4c(F)c(F)c(F)c(F)c4F)c4nc(c(-c5c(F)c(F)c(F)c(F)c5F)c5ccc2[nH]5)C=C4)C=C3)cc1
REMARK SMILES IDX 23 1 22 2 21 3 2 4 1 5 3 6 4 7 5 8 20 9 6 10 7 11 8 12 9 13
REMARK SMILES IDX 10 15 11 16 12 17 19 18 13 19 15 20 14 21 16 22 17 23 18 24
REMARK SMILES IDX 24 25 25 26 26 27 27 28 28 29 29 30 30 31 31 32 92 33 32 34
REMARK SMILES IDX 91 35 33 36 34 37 35 38 85 39 36 40 90 41 84 42 86 43 37 44
REMARK SMILES IDX 89 45 83 46 82 47 38 49 70 50 50 51 69 52 51 53 54 54 68 55
REMARK SMILES IDX 87 56 52 57 53 58 67 60 88 61 55 62 39 63 40 64 48 65 41 66
REMARK SMILES IDX 42 67 46 68 49 69 43 70 44 71 47 72 45 73 71 74 72 75 80 76
REMARK SMILES IDX 73 77 74 78 78 79 81 80 75 81 76 82 79 83 77 84 56 85 57 86
REMARK SMILES IDX 65 87 58 88 59 89 63 90 66 91 60 92 61 93 64 94 62 95
REMARK H PARENT 8 14 86 48 54 59
REMARK Flexibility Score: inf
ROOT
ATOM      1  C   UNL     1       0.688  -0.631   2.130  1.00  0.00     0.202 C 
ENDROOT
BRANCH   1   2
ATOM      2  C   UNL     1       1.527  -0.146   3.308  1.00  0.00     0.261 C 
BRANCH   2   3
ATOM      3  O   UNL     1       1.425   1.273   3.526  1.00  0.00    -0.463 OA
BRANCH   3   4
ATOM      4  C   UNL     1       2.299   2.189   3.044  1.00  0.00     0.311 C 
ATOM      5  O   UNL     1       2.142   3.379   3.315  1.00  0.00    -0.252 OA
BRANCH   4   6
ATOM      6  C   UNL     1       3.424   1.746   2.146  1.00  0.00     0.179 C 
BRANCH   6   7
ATOM      7  C   UNL     1       4.503   1.023   2.867  1.00  0.00     0.065 A 
ATOM      8  C   UNL     1       5.163   1.415   4.015  1.00  0.00     0.093 A 
ATOM      9  N   UNL     1       4.897  -0.211   2.373  1.00  0.00    -0.224 NA
ATOM     10  S   UNL     1       6.390   0.275   4.378  1.00  0.00    -0.105 S 
ATOM     11  C   UNL     1       5.767  -0.757   3.184  1.00  0.00     0.189 A 
BRANCH  11  12
ATOM     12  N   UNL     1       6.203  -2.030   2.981  1.00  0.00    -0.302 N 
ATOM     13  C   UNL     1       6.767  -2.958   3.786  1.00  0.00     0.231 C 
ATOM     14  H   UNL     1       6.083  -2.339   2.055  1.00  0.00     0.172 HD
ATOM     15  O   UNL     1       7.221  -3.959   3.216  1.00  0.00    -0.274 OA
BRANCH  13  16
ATOM     16  C   UNL     1       6.867  -2.851   5.302  1.00  0.00     0.107 C 
ATOM     17  C   UNL     1       5.640  -2.372   6.075  1.00  0.00     0.115 C 
ATOM     18  C   UNL     1       7.038  -4.271   5.854  1.00  0.00     0.133 C 
ATOM     19  C   UNL     1       5.679  -3.135   7.371  1.00  0.00     0.223 C 
ATOM     20  N   UNL     1       6.539  -4.211   7.201  1.00  0.00    -0.339 N 
ATOM     21  O   UNL     1       5.022  -2.831   8.354  1.00  0.00    -0.275 OA
BRANCH  20  22
ATOM     22  C   UNL     1       6.757  -5.294   8.108  1.00  0.00     0.085 C 
ATOM     23  C   UNL     1       6.641  -5.166   9.600  1.00  0.00     0.027 C 
ATOM     24  C   UNL     1       5.610  -5.945   8.832  1.00  0.00     0.027 C 
ENDBRANCH  20  22
ENDBRANCH  13  16
ENDBRANCH  11  12
ENDBRANCH   6   7
ENDBRANCH   4   6
ENDBRANCH   3   4
ENDBRANCH   2   3
ENDBRANCH   1   2
BRANCH   1  25
ATOM     25  O   UNL     1       0.996  -0.075   0.856  1.00  0.00    -0.374 OA
BRANCH  25  26
ATOM     26  C   UNL     1       0.360   1.163   0.522  1.00  0.00     0.202 C 
BRANCH  26  27
ATOM     27  C   UNL     1      -1.093   1.082   0.038  1.00  0.00     0.261 C 
BRANCH  27  28
ATOM     28  O   UNL     1      -1.988   0.684   1.089  1.00  0.00    -0.460 OA
BRANCH  28  29
ATOM     29  C   UNL     1      -2.391  -0.608   1.048  1.00  0.00     0.338 C 
ATOM     30  O   UNL     1      -2.146  -1.437   0.188  1.00  0.00    -0.246 OA
BRANCH  29  31
ATOM     31  C   UNL     1      -3.004  -0.949   2.346  1.00  0.00     0.060 A 
ATOM     32  C   UNL     1      -2.536  -2.089   3.016  1.00  0.00     0.016 A 
ATOM     33  C   UNL     1      -4.011  -0.160   2.902  1.00  0.00     0.016 A 
ATOM     34  C   UNL     1      -3.090  -2.456   4.240  1.00  0.00     0.010 A 
ATOM     35  C   UNL     1      -4.578  -0.538   4.119  1.00  0.00     0.010 A 
ATOM     36  C   UNL     1      -4.134  -1.697   4.782  1.00  0.00    -0.014 A 
BRANCH  36  37
ATOM     37  C   UNL     1      -4.854  -2.160   5.989  1.00  0.00     0.031 A 
ATOM     38  C   UNL     1      -6.191  -2.820   5.819  1.00  0.00     0.074 A 
ATOM     39  C   UNL     1      -4.338  -1.948   7.212  1.00  0.00     0.049 A 
ATOM     40  N   UNL     1      -7.069  -3.160   6.725  1.00  0.00    -0.248 NA
ATOM     41  C   UNL     1      -6.599  -3.129   4.438  1.00  0.00     0.031 C 
ATOM     42  C   UNL     1      -3.034  -1.348   7.486  1.00  0.00     0.029 A 
ATOM     43  N   UNL     1      -4.868  -2.185   8.456  1.00  0.00    -0.354 N 
ATOM     44  C   UNL     1      -8.141  -3.699   6.026  1.00  0.00     0.074 A 
ATOM     45  C   UNL     1      -7.811  -3.634   4.620  1.00  0.00     0.031 C 
ATOM     46  C   UNL     1      -2.879  -1.229   8.816  1.00  0.00     0.029 A 
ATOM     47  C   UNL     1      -4.092  -1.700   9.480  1.00  0.00     0.049 A 
ATOM     48  H   UNL     1      -5.721  -2.656   8.599  1.00  0.00     0.167 HD
ATOM     49  C   UNL     1      -9.296  -4.198   6.523  1.00  0.00     0.037 A 
ATOM     50  C   UNL     1      -4.359  -1.603  10.798  1.00  0.00     0.037 A 
ATOM     51  C   UNL     1      -9.602  -4.267   7.927  1.00  0.00     0.049 A 
ATOM     52  C   UNL     1      -5.685  -2.106  11.313  1.00  0.00     0.074 A 
ATOM     53  C   UNL     1     -10.717  -4.812   8.538  1.00  0.00     0.029 A 
ATOM     54  N   UNL     1      -8.796  -3.763   8.936  1.00  0.00    -0.354 N 
ATOM     55  N   UNL     1      -6.672  -2.666  10.655  1.00  0.00    -0.248 NA
ATOM     56  C   UNL     1      -5.939  -1.956  12.753  1.00  0.00     0.031 C 
ATOM     57  C   UNL     1     -10.620  -4.573   9.912  1.00  0.00     0.029 A 
ATOM     58  C   UNL     1      -9.413  -3.940  10.163  1.00  0.00     0.049 A 
ATOM     59  H   UNL     1      -7.916  -3.342   8.801  1.00  0.00     0.167 HD
ATOM     60  C   UNL     1      -7.647  -2.956  11.601  1.00  0.00     0.074 A 
ATOM     61  C   UNL     1      -7.125  -2.532  12.882  1.00  0.00     0.031 C 
ATOM     62  C   UNL     1      -8.870  -3.515  11.427  1.00  0.00     0.037 A 
BRANCH  49  63
ATOM     63  C   UNL     1     -10.335  -4.682   5.557  1.00  0.00     0.064 A 
ATOM     64  C   UNL     1     -10.181  -5.876   4.839  1.00  0.00     0.173 A 
ATOM     65  C   UNL     1     -11.544  -3.982   5.419  1.00  0.00     0.173 A 
ATOM     66  F   UNL     1      -9.040  -6.575   4.926  1.00  0.00    -0.203 F 
ATOM     67  C   UNL     1     -11.200  -6.351   4.016  1.00  0.00     0.198 A 
ATOM     68  C   UNL     1     -12.570  -4.474   4.617  1.00  0.00     0.198 A 
ATOM     69  F   UNL     1     -11.741  -2.834   6.085  1.00  0.00    -0.203 F 
ATOM     70  F   UNL     1     -11.024  -7.483   3.321  1.00  0.00    -0.200 F 
ATOM     71  C   UNL     1     -12.397  -5.657   3.916  1.00  0.00     0.200 A 
ATOM     72  F   UNL     1     -13.730  -3.809   4.534  1.00  0.00    -0.200 F 
ATOM     73  F   UNL     1     -13.385  -6.129   3.143  1.00  0.00    -0.200 F 
ENDBRANCH  49  63
BRANCH  50  74
ATOM     74  C   UNL     1      -3.385  -0.956  11.719  1.00  0.00     0.064 A 
ATOM     75  C   UNL     1      -2.770  -1.678  12.751  1.00  0.00     0.173 A 
ATOM     76  C   UNL     1      -3.094   0.414  11.623  1.00  0.00     0.173 A 
ATOM     77  F   UNL     1      -3.036  -2.984  12.904  1.00  0.00    -0.203 F 
ATOM     78  C   UNL     1      -1.933  -1.050  13.672  1.00  0.00     0.198 A 
ATOM     79  C   UNL     1      -2.227   1.033  12.521  1.00  0.00     0.198 A 
ATOM     80  F   UNL     1      -3.656   1.156  10.657  1.00  0.00    -0.203 F 
ATOM     81  F   UNL     1      -1.420  -1.750  14.692  1.00  0.00    -0.200 F 
ATOM     82  C   UNL     1      -1.659   0.304  13.554  1.00  0.00     0.200 A 
ATOM     83  F   UNL     1      -1.956   2.340  12.395  1.00  0.00    -0.200 F 
ATOM     84  F   UNL     1      -0.863   0.910  14.445  1.00  0.00    -0.200 F 
ENDBRANCH  50  74
BRANCH  62  85
ATOM     85  C   UNL     1      -9.716  -3.723  12.650  1.00  0.00     0.064 A 
ATOM     86  C   UNL     1     -10.306  -2.645  13.326  1.00  0.00     0.173 A 
ATOM     87  C   UNL     1      -9.986  -5.018  13.117  1.00  0.00     0.173 A 
ATOM     88  F   UNL     1     -10.068  -1.386  12.928  1.00  0.00    -0.203 F 
ATOM     89  C   UNL     1     -11.118  -2.855  14.437  1.00  0.00     0.198 A 
ATOM     90  C   UNL     1     -10.826  -5.227  14.207  1.00  0.00     0.198 A 
ATOM     91  F   UNL     1      -9.454  -6.085  12.501  1.00  0.00    -0.203 F 
ATOM     92  F   UNL     1     -11.634  -1.808  15.095  1.00  0.00    -0.200 F 
ATOM     93  C   UNL     1     -11.385  -4.145  14.870  1.00  0.00     0.200 A 
ATOM     94  F   UNL     1     -11.099  -6.475  14.612  1.00  0.00    -0.200 F 
ATOM     95  F   UNL     1     -12.179  -4.346  15.931  1.00  0.00    -0.200 F 
ENDBRANCH  62  85
ENDBRANCH  36  37
ENDBRANCH  29  31
ENDBRANCH  28  29
ENDBRANCH  27  28
ENDBRANCH  26  27
ENDBRANCH  25  26
ENDBRANCH   1  25
TORSDOF 18
