REMARK SMILES O=C(C[C@@H]1S/C(=[NH+]\c2ccccc2)N(CCO)C1=O)Nc1ccc(C(=O)OCCOCCOC(=O)c2ccc(-c3c4nc(c(-c5c(F)c(F)c(F)c(F)c5F)c5ccc([nH]5)c(-c5c(F)c(F)c(F)c(F)c5F)c5nc(c(-c6c(F)c(F)c(F)c(F)c6F)c6ccc3[nH]6)C=C5)C=C4)cc2)cc1
REMARK SMILES IDX 28 1 27 2 25 3 26 4 24 5 21 6 22 7 100 8 23 9 99 10 20 11
REMARK SMILES IDX 1 12 2 13 3 15 4 16 5 17 18 18 6 19 14 20 19 21 7 22 15 24
REMARK SMILES IDX 16 25 17 26 8 28 9 29 13 30 10 31 12 32 11 33 29 34 30 35
REMARK SMILES IDX 31 36 32 37 33 38 34 39 35 40 36 41 37 42 98 43 38 44 97 45
REMARK SMILES IDX 39 46 40 47 41 48 91 49 42 50 96 51 90 52 92 53 43 54 95 55
REMARK SMILES IDX 89 56 88 57 44 59 76 60 56 61 75 62 57 63 60 64 74 65 93 66
REMARK SMILES IDX 58 67 59 68 73 70 94 71 61 72 45 73 46 74 54 75 47 76 48 77
REMARK SMILES IDX 52 78 55 79 49 80 50 81 53 82 51 83 77 84 78 85 86 86 79 87
REMARK SMILES IDX 80 88 84 89 87 90 81 91 82 92 85 93 83 94 62 95 63 96 71 97
REMARK SMILES IDX 64 98 65 99 69 100 72 101 66 102 67 103 70 104 68 105
REMARK H PARENT 20 14 7 23 17 27 92 58 60 69
REMARK Flexibility Score: inf
ROOT
ATOM      1  C   UNL     1       7.071  -4.685   6.884  1.00  0.00     0.261 C 
ENDROOT
BRANCH   1   2
ATOM      2  O   UNL     1       6.955  -4.159   5.551  1.00  0.00    -0.460 OA
BRANCH   2   3
ATOM      3  C   UNL     1       5.808  -3.483   5.309  1.00  0.00     0.338 C 
ATOM      4  O   UNL     1       4.842  -3.387   6.051  1.00  0.00    -0.246 OA
BRANCH   3   5
ATOM      5  C   UNL     1       5.919  -2.712   4.053  1.00  0.00     0.060 A 
ATOM      6  C   UNL     1       5.878  -1.234   1.680  1.00  0.00     0.041 A 
ATOM      7  C   UNL     1       5.304  -0.711   2.843  1.00  0.00     0.027 A 
ATOM      8  C   UNL     1       6.549  -2.458   1.732  1.00  0.00     0.027 A 
ATOM      9  C   UNL     1       5.299  -1.459   4.017  1.00  0.00     0.018 A 
ATOM     10  C   UNL     1       6.587  -3.194   2.923  1.00  0.00     0.018 A 
BRANCH   6  11
ATOM     11  N   UNL     1       5.706  -0.483   0.504  1.00  0.00    -0.326 N 
ATOM     12  O   UNL     1       5.928  -2.131  -1.113  1.00  0.00    -0.275 OA
ATOM     13  C   UNL     1       5.740  -0.962  -0.790  1.00  0.00     0.226 C 
ATOM     14  H   UNL     1       5.545   0.482   0.614  1.00  0.00     0.169 HD
BRANCH  13  15
ATOM     15  C   UNL     1       5.508   0.099  -1.856  1.00  0.00     0.128 C 
BRANCH  15  16
ATOM     16  C   UNL     1       4.104   0.698  -1.800  1.00  0.00     0.183 C 
ATOM     17  S   UNL     1       3.634   1.375  -3.424  1.00  0.00    -0.022 SA
ATOM     18  C   UNL     1       4.077   1.898  -0.870  1.00  0.00     0.324 C 
ATOM     19  C   UNL     1       3.499   3.008  -2.843  1.00  0.00     0.319 C 
ATOM     20  N   UNL     1       3.725   3.067  -1.496  1.00  0.00    -0.188 N 
ATOM     21  O   UNL     1       4.400   1.817   0.314  1.00  0.00    -0.245 OA
ATOM     22  N   UNL     1       3.261   4.085  -3.513  1.00  0.00    -0.235 N 
ATOM     23  H   UNL     1       3.218   4.945  -3.035  1.00  0.00     0.313 HD
BRANCH  20  24
ATOM     24  C   UNL     1       3.702   4.329  -0.753  1.00  0.00     0.275 C 
BRANCH  24  25
ATOM     25  C   UNL     1       5.014   5.105  -0.920  1.00  0.00     0.202 C 
BRANCH  25  26
ATOM     26  O   UNL     1       5.099   5.777  -2.175  1.00  0.00    -0.392 OA
ATOM     27  H   UNL     1       5.069   5.125  -2.893  1.00  0.00     0.210 HD
ENDBRANCH  25  26
ENDBRANCH  24  25
ENDBRANCH  20  24
BRANCH  22  28
ATOM     28  C   UNL     1       3.060   4.069  -4.900  1.00  0.00     0.125 A 
ATOM     29  C   UNL     1       3.971   4.744  -5.719  1.00  0.00     0.051 A 
ATOM     30  C   UNL     1       1.924   3.497  -5.479  1.00  0.00     0.051 A 
ATOM     31  C   UNL     1       3.768   4.819  -7.098  1.00  0.00     0.004 A 
ATOM     32  C   UNL     1       1.725   3.558  -6.860  1.00  0.00     0.004 A 
ATOM     33  C   UNL     1       2.647   4.220  -7.669  1.00  0.00     0.000 A 
ENDBRANCH  22  28
ENDBRANCH  15  16
ENDBRANCH  13  15
ENDBRANCH   6  11
ENDBRANCH   3   5
ENDBRANCH   2   3
ENDBRANCH   1   2
BRANCH   1  34
ATOM     34  C   UNL     1       8.117  -3.913   7.692  1.00  0.00     0.202 C 
BRANCH  34  35
ATOM     35  O   UNL     1       7.810  -2.546   7.964  1.00  0.00    -0.374 OA
BRANCH  35  36
ATOM     36  C   UNL     1       8.121  -1.599   6.940  1.00  0.00     0.202 C 
BRANCH  36  37
ATOM     37  C   UNL     1       9.585  -1.149   6.872  1.00  0.00     0.261 C 
BRANCH  37  38
ATOM     38  O   UNL     1      10.440  -2.209   6.406  1.00  0.00    -0.460 OA
BRANCH  38  39
ATOM     39  C   UNL     1      11.271  -2.727   7.338  1.00  0.00     0.338 C 
ATOM     40  O   UNL     1      11.444  -2.331   8.483  1.00  0.00    -0.246 OA
BRANCH  39  41
ATOM     41  C   UNL     1      11.848  -3.991   6.846  1.00  0.00     0.060 A 
ATOM     42  C   UNL     1      11.760  -5.110   7.684  1.00  0.00     0.016 A 
ATOM     43  C   UNL     1      12.517  -4.071   5.623  1.00  0.00     0.016 A 
ATOM     44  C   UNL     1      12.387  -6.301   7.327  1.00  0.00     0.010 A 
ATOM     45  C   UNL     1      13.153  -5.265   5.269  1.00  0.00     0.010 A 
ATOM     46  C   UNL     1      13.122  -6.372   6.136  1.00  0.00    -0.014 A 
BRANCH  46  47
ATOM     47  C   UNL     1      13.983  -7.551   5.880  1.00  0.00     0.031 A 
ATOM     48  C   UNL     1      15.450  -7.462   6.195  1.00  0.00     0.074 A 
ATOM     49  C   UNL     1      13.462  -8.695   5.407  1.00  0.00     0.049 A 
ATOM     50  N   UNL     1      16.392  -8.358   6.041  1.00  0.00    -0.248 NA
ATOM     51  C   UNL     1      15.918  -6.187   6.761  1.00  0.00     0.031 C 
ATOM     52  C   UNL     1      12.050  -8.919   5.108  1.00  0.00     0.029 A 
ATOM     53  N   UNL     1      14.068  -9.887   5.097  1.00  0.00    -0.354 N 
ATOM     54  C   UNL     1      17.561  -7.756   6.489  1.00  0.00     0.074 A 
ATOM     55  C   UNL     1      17.218  -6.407   6.885  1.00  0.00     0.031 C 
ATOM     56  C   UNL     1      11.896 -10.175   4.656  1.00  0.00     0.029 A 
ATOM     57  C   UNL     1      13.202 -10.831   4.606  1.00  0.00     0.049 A 
ATOM     58  H   UNL     1      15.032 -10.049   5.215  1.00  0.00     0.167 HD
ATOM     59  C   UNL     1      18.805  -8.285   6.573  1.00  0.00     0.037 A 
ATOM     60  C   UNL     1      13.442 -12.077   4.156  1.00  0.00     0.037 A 
ATOM     61  C   UNL     1      19.145  -9.624   6.170  1.00  0.00     0.049 A 
ATOM     62  C   UNL     1      14.850 -12.612   4.173  1.00  0.00     0.074 A 
ATOM     63  C   UNL     1      20.374 -10.258   6.226  1.00  0.00     0.029 A 
ATOM     64  N   UNL     1      18.250 -10.534   5.625  1.00  0.00    -0.354 N 
ATOM     65  N   UNL     1      15.947 -12.047   4.617  1.00  0.00    -0.248 NA
ATOM     66  C   UNL     1      15.051 -13.961   3.625  1.00  0.00     0.031 C 
ATOM     67  C   UNL     1      20.233 -11.534   5.667  1.00  0.00     0.029 A 
ATOM     68  C   UNL     1      18.905 -11.714   5.313  1.00  0.00     0.049 A 
ATOM     69  H   UNL     1      17.291 -10.365   5.481  1.00  0.00     0.167 HD
ATOM     70  C   UNL     1      16.960 -12.978   4.431  1.00  0.00     0.074 A 
ATOM     71  C   UNL     1      16.346 -14.149   3.840  1.00  0.00     0.031 C 
ATOM     72  C   UNL     1      18.279 -12.874   4.728  1.00  0.00     0.037 A 
BRANCH  59  73
ATOM     73  C   UNL     1      19.894  -7.392   7.094  1.00  0.00     0.064 A 
ATOM     74  C   UNL     1      19.946  -7.002   8.441  1.00  0.00     0.173 A 
ATOM     75  C   UNL     1      20.897  -6.919   6.235  1.00  0.00     0.173 A 
ATOM     76  F   UNL     1      19.003  -7.414   9.301  1.00  0.00    -0.203 F 
ATOM     77  C   UNL     1      20.941  -6.141   8.899  1.00  0.00     0.198 A 
ATOM     78  C   UNL     1      21.907  -6.083   6.703  1.00  0.00     0.198 A 
ATOM     79  F   UNL     1      20.896  -7.264   4.939  1.00  0.00    -0.203 F 
ATOM     80  F   UNL     1      20.936  -5.734  10.176  1.00  0.00    -0.200 F 
ATOM     81  C   UNL     1      21.922  -5.686   8.032  1.00  0.00     0.200 A 
ATOM     82  F   UNL     1      22.861  -5.652   5.866  1.00  0.00    -0.200 F 
ATOM     83  F   UNL     1      22.876  -4.855   8.473  1.00  0.00    -0.200 F 
ENDBRANCH  59  73
BRANCH  60  84
ATOM     84  C   UNL     1      12.318 -12.910   3.657  1.00  0.00     0.064 A 
ATOM     85  C   UNL     1      11.879 -14.029   4.378  1.00  0.00     0.173 A 
ATOM     86  C   UNL     1      11.661 -12.606   2.456  1.00  0.00     0.173 A 
ATOM     87  F   UNL     1      12.494 -14.374   5.518  1.00  0.00    -0.203 F 
ATOM     88  C   UNL     1      10.828 -14.816   3.912  1.00  0.00     0.198 A 
ATOM     89  C   UNL     1      10.595 -13.380   2.004  1.00  0.00     0.198 A 
ATOM     90  F   UNL     1      12.048 -11.548   1.729  1.00  0.00    -0.203 F 
ATOM     91  F   UNL     1      10.450 -15.901   4.602  1.00  0.00    -0.200 F 
ATOM     92  C   UNL     1      10.182 -14.487   2.729  1.00  0.00     0.200 A 
ATOM     93  F   UNL     1       9.967 -13.053   0.866  1.00  0.00    -0.200 F 
ATOM     94  F   UNL     1       9.167 -15.241   2.286  1.00  0.00    -0.200 F 
ENDBRANCH  60  84
BRANCH  72  95
ATOM     95  C   UNL     1      19.145 -14.070   4.454  1.00  0.00     0.064 A 
ATOM     96  C   UNL     1      19.491 -14.447   3.148  1.00  0.00     0.173 A 
ATOM     97  C   UNL     1      19.667 -14.826   5.515  1.00  0.00     0.173 A 
ATOM     98  F   UNL     1      19.006 -13.767   2.098  1.00  0.00    -0.203 F 
ATOM     99  C   UNL     1      20.308 -15.550   2.914  1.00  0.00     0.198 A 
ATOM    100  C   UNL     1      20.507 -15.910   5.279  1.00  0.00     0.198 A 
ATOM    101  F   UNL     1      19.371 -14.505   6.784  1.00  0.00    -0.203 F 
ATOM    102  F   UNL     1      20.589 -15.919   1.656  1.00  0.00    -0.200 F 
ATOM    103  C   UNL     1      20.822 -16.276   3.979  1.00  0.00     0.200 A 
ATOM    104  F   UNL     1      21.012 -16.602   6.309  1.00  0.00    -0.200 F 
ATOM    105  F   UNL     1      21.614 -17.332   3.751  1.00  0.00    -0.200 F 
ENDBRANCH  72  95
ENDBRANCH  46  47
ENDBRANCH  39  41
ENDBRANCH  38  39
ENDBRANCH  37  38
ENDBRANCH  36  37
ENDBRANCH  35  36
ENDBRANCH  34  35
ENDBRANCH   1  34
TORSDOF 21
