REMARK SMILES COC(=O)c1cccc(NC(=O)[C@@H]2[C@@H]3CC[C@@H](C3)[C@@H]2C(=O)OCCOCCOC(=O)c2ccc(-c3c4nc(c(-c5c(F)c(F)c(F)c(F)c5F)c5ccc([nH]5)c(-c5c(F)c(F)c(F)c(F)c5F)c5nc(c(-c6c(F)c(F)c(F)c(F)c6F)c6ccc3[nH]6)C=C5)C=C4)cc2)c1
REMARK SMILES IDX 24 1 23 2 22 3 20 4 21 5 19 6 13 7 14 8 15 9 18 10 17 11
REMARK SMILES IDX 16 12 11 13 10 14 12 16 9 17 5 18 6 19 94 20 7 21 8 22 3 23
REMARK SMILES IDX 4 24 2 25 1 26 25 27 26 28 27 29 28 30 29 31 30 32 31 33
REMARK SMILES IDX 32 34 93 35 33 36 92 37 34 38 35 39 36 40 86 41 37 42 91 43
REMARK SMILES IDX 85 44 87 45 38 46 90 47 84 48 83 49 39 51 71 52 51 53 70 54
REMARK SMILES IDX 52 55 55 56 69 57 88 58 53 59 54 60 68 62 89 63 56 64 40 65
REMARK SMILES IDX 41 66 49 67 42 68 43 69 47 70 50 71 44 72 45 73 48 74 46 75
REMARK SMILES IDX 72 76 73 77 81 78 74 79 75 80 79 81 82 82 76 83 77 84 80 85
REMARK SMILES IDX 78 86 57 87 58 88 66 89 59 90 60 91 64 92 67 93 61 94 62 95
REMARK SMILES IDX 65 96 63 97
REMARK H PARENT 10 15 87 50 55 61
REMARK Flexibility Score: inf
ROOT
ATOM      1  C   UNL     1      -1.456  -0.311  12.056  1.00  0.00     0.202 C 
ENDROOT
BRANCH   1   2
ATOM      2  C   UNL     1      -2.440  -0.183  10.893  1.00  0.00     0.261 C 
BRANCH   2   3
ATOM      3  O   UNL     1      -2.232  -1.211   9.904  1.00  0.00    -0.463 OA
BRANCH   3   4
ATOM      4  C   UNL     1      -1.888  -0.781   8.670  1.00  0.00     0.310 C 
ATOM      5  O   UNL     1      -1.744   0.397   8.357  1.00  0.00    -0.252 OA
BRANCH   4   6
ATOM      6  C   UNL     1      -1.663  -1.890   7.660  1.00  0.00     0.115 C 
ATOM      7  C   UNL     1      -2.784  -2.901   7.333  1.00  0.00     0.096 C 
ATOM      8  C   UNL     1      -1.982  -4.231   7.148  1.00  0.00     0.003 C 
ATOM      9  C   UNL     1      -1.498  -4.857   8.455  1.00  0.00     0.005 C 
ATOM     10  C   UNL     1      -0.629  -3.709   6.623  1.00  0.00     0.009 C 
ATOM     11  C   UNL     1      -0.421  -2.785   7.830  1.00  0.00     0.004 C 
ATOM     12  C   UNL     1      -0.558  -3.782   9.001  1.00  0.00     0.005 C 
BRANCH   7  13
ATOM     13  C   UNL     1      -3.949  -2.877   8.309  1.00  0.00     0.228 C 
ATOM     14  N   UNL     1      -4.971  -1.978   8.202  1.00  0.00    -0.326 N 
ATOM     15  H   UNL     1      -5.603  -2.038   8.954  1.00  0.00     0.169 HD
ATOM     16  O   UNL     1      -4.029  -3.667   9.253  1.00  0.00    -0.274 OA
BRANCH  14  17
ATOM     17  C   UNL     1      -5.335  -0.986   7.273  1.00  0.00     0.042 A 
ATOM     18  C   UNL     1      -7.155   0.383   6.407  1.00  0.00     0.062 A 
ATOM     19  C   UNL     1      -6.347   0.817   5.356  1.00  0.00     0.016 A 
ATOM     20  C   UNL     1      -6.650  -0.505   7.369  1.00  0.00     0.041 A 
ATOM     21  C   UNL     1      -5.023   0.408   5.301  1.00  0.00     0.003 A 
ATOM     22  C   UNL     1      -4.524  -0.478   6.259  1.00  0.00     0.026 A 
BRANCH  18  23
ATOM     23  C   UNL     1      -8.551   0.859   6.440  1.00  0.00     0.337 C 
ATOM     24  O   UNL     1      -9.211   1.074   5.433  1.00  0.00    -0.246 OA
BRANCH  23  25
ATOM     25  O   UNL     1      -8.925   1.100   7.718  1.00  0.00    -0.465 OA
ATOM     26  C   UNL     1     -10.199   1.737   7.822  1.00  0.00     0.282 C 
ENDBRANCH  23  25
ENDBRANCH  18  23
ENDBRANCH  14  17
ENDBRANCH   7  13
ENDBRANCH   4   6
ENDBRANCH   3   4
ENDBRANCH   2   3
ENDBRANCH   1   2
BRANCH   1  27
ATOM     27  O   UNL     1      -0.092  -0.016  11.764  1.00  0.00    -0.374 OA
BRANCH  27  28
ATOM     28  C   UNL     1       0.653  -1.005  11.055  1.00  0.00     0.202 C 
BRANCH  28  29
ATOM     29  C   UNL     1       1.120  -2.216  11.874  1.00  0.00     0.261 C 
BRANCH  29  30
ATOM     30  O   UNL     1       0.021  -3.049  12.293  1.00  0.00    -0.460 OA
BRANCH  30  31
ATOM     31  C   UNL     1      -0.211  -3.073  13.626  1.00  0.00     0.338 C 
ATOM     32  O   UNL     1       0.460  -2.548  14.503  1.00  0.00    -0.246 OA
BRANCH  31  33
ATOM     33  C   UNL     1      -1.530  -3.677  13.905  1.00  0.00     0.060 A 
ATOM     34  C   UNL     1      -2.416  -2.943  14.706  1.00  0.00     0.016 A 
ATOM     35  C   UNL     1      -1.874  -4.955  13.460  1.00  0.00     0.016 A 
ATOM     36  C   UNL     1      -3.628  -3.503  15.107  1.00  0.00     0.010 A 
ATOM     37  C   UNL     1      -3.088  -5.520  13.874  1.00  0.00     0.010 A 
ATOM     38  C   UNL     1      -3.955  -4.811  14.726  1.00  0.00    -0.014 A 
BRANCH  38  39
ATOM     39  C   UNL     1      -5.137  -5.478  15.329  1.00  0.00     0.031 A 
ATOM     40  C   UNL     1      -4.933  -6.430  16.475  1.00  0.00     0.074 A 
ATOM     41  C   UNL     1      -6.380  -5.215  14.889  1.00  0.00     0.049 A 
ATOM     42  N   UNL     1      -5.810  -7.161  17.116  1.00  0.00    -0.248 NA
ATOM     43  C   UNL     1      -3.554  -6.575  16.968  1.00  0.00     0.031 C 
ATOM     44  C   UNL     1      -6.715  -4.273  13.825  1.00  0.00     0.029 A 
ATOM     45  N   UNL     1      -7.592  -5.728  15.281  1.00  0.00    -0.354 N 
ATOM     46  C   UNL     1      -5.091  -7.856  18.080  1.00  0.00     0.074 A 
ATOM     47  C   UNL     1      -3.702  -7.480  17.925  1.00  0.00     0.031 C 
ATOM     48  C   UNL     1      -8.047  -4.283  13.638  1.00  0.00     0.029 A 
ATOM     49  C   UNL     1      -8.650  -5.264  14.540  1.00  0.00     0.049 A 
ATOM     50  H   UNL     1      -7.693  -6.368  16.023  1.00  0.00     0.167 HD
ATOM     51  C   UNL     1      -5.549  -8.723  19.014  1.00  0.00     0.037 A 
ATOM     52  C   UNL     1      -9.951  -5.617  14.563  1.00  0.00     0.037 A 
ATOM     53  C   UNL     1      -6.931  -9.096  19.169  1.00  0.00     0.049 A 
ATOM     54  C   UNL     1     -10.419  -6.664  15.542  1.00  0.00     0.074 A 
ATOM     55  C   UNL     1      -7.495  -9.946  20.104  1.00  0.00     0.029 A 
ATOM     56  N   UNL     1      -7.965  -8.648  18.361  1.00  0.00    -0.354 N 
ATOM     57  N   UNL     1      -9.739  -7.298  16.466  1.00  0.00    -0.248 NA
ATOM     58  C   UNL     1     -11.837  -7.051  15.475  1.00  0.00     0.031 C 
ATOM     59  C   UNL     1      -8.860 -10.059  19.825  1.00  0.00     0.029 A 
ATOM     60  C   UNL     1      -9.158  -9.236  18.751  1.00  0.00     0.049 A 
ATOM     61  H   UNL     1      -7.866  -8.007  17.620  1.00  0.00     0.167 HD
ATOM     62  C   UNL     1     -10.645  -8.137  17.102  1.00  0.00     0.074 A 
ATOM     63  C   UNL     1     -11.929  -7.922  16.470  1.00  0.00     0.031 C 
ATOM     64  C   UNL     1     -10.431  -9.011  18.116  1.00  0.00     0.037 A 
BRANCH  51  65
ATOM     65  C   UNL     1      -4.542  -9.358  19.928  1.00  0.00     0.064 A 
ATOM     66  C   UNL     1      -3.905  -8.630  20.944  1.00  0.00     0.173 A 
ATOM     67  C   UNL     1      -4.249 -10.726  19.818  1.00  0.00     0.173 A 
ATOM     68  F   UNL     1      -4.143  -7.317  21.085  1.00  0.00    -0.203 F 
ATOM     69  C   UNL     1      -2.994  -9.244  21.801  1.00  0.00     0.198 A 
ATOM     70  C   UNL     1      -3.360 -11.342  20.694  1.00  0.00     0.198 A 
ATOM     71  F   UNL     1      -4.836 -11.469  18.868  1.00  0.00    -0.203 F 
ATOM     72  F   UNL     1      -2.367  -8.520  22.738  1.00  0.00    -0.200 F 
ATOM     73  C   UNL     1      -2.729 -10.600  21.680  1.00  0.00     0.200 A 
ATOM     74  F   UNL     1      -3.116 -12.655  20.585  1.00  0.00    -0.200 F 
ATOM     75  F   UNL     1      -1.860 -11.191  22.512  1.00  0.00    -0.200 F 
ENDBRANCH  51  65
BRANCH  52  76
ATOM     76  C   UNL     1     -10.906  -5.002  13.603  1.00  0.00     0.064 A 
ATOM     77  C   UNL     1     -11.938  -4.162  14.044  1.00  0.00     0.173 A 
ATOM     78  C   UNL     1     -10.822  -5.263  12.227  1.00  0.00     0.173 A 
ATOM     79  F   UNL     1     -12.078  -3.905  15.352  1.00  0.00    -0.203 F 
ATOM     80  C   UNL     1     -12.857  -3.620  13.148  1.00  0.00     0.198 A 
ATOM     81  C   UNL     1     -11.723  -4.696  11.329  1.00  0.00     0.198 A 
ATOM     82  F   UNL     1      -9.857  -6.066  11.753  1.00  0.00    -0.203 F 
ATOM     83  F   UNL     1     -13.862  -2.859  13.601  1.00  0.00    -0.200 F 
ATOM     84  C   UNL     1     -12.745  -3.882  11.790  1.00  0.00     0.200 A 
ATOM     85  F   UNL     1     -11.602  -4.942  10.017  1.00  0.00    -0.200 F 
ATOM     86  F   UNL     1     -13.626  -3.357  10.929  1.00  0.00    -0.200 F 
ENDBRANCH  52  76
BRANCH  64  87
ATOM     87  C   UNL     1     -11.611  -9.787  18.628  1.00  0.00     0.064 A 
ATOM     88  C   UNL     1     -12.179 -10.833  17.885  1.00  0.00     0.173 A 
ATOM     89  C   UNL     1     -12.139  -9.524  19.901  1.00  0.00     0.173 A 
ATOM     90  F   UNL     1     -11.721 -11.114  16.656  1.00  0.00    -0.203 F 
ATOM     91  C   UNL     1     -13.241 -11.576  18.392  1.00  0.00     0.198 A 
ATOM     92  C   UNL     1     -13.182 -10.289  20.417  1.00  0.00     0.198 A 
ATOM     93  F   UNL     1     -11.628  -8.540  20.655  1.00  0.00    -0.203 F 
ATOM     94  F   UNL     1     -13.793 -12.546  17.650  1.00  0.00    -0.200 F 
ATOM     95  C   UNL     1     -13.735 -11.310  19.661  1.00  0.00     0.200 A 
ATOM     96  F   UNL     1     -13.648 -10.040  21.649  1.00  0.00    -0.200 F 
ATOM     97  F   UNL     1     -14.748 -12.037  20.153  1.00  0.00    -0.200 F 
ENDBRANCH  64  87
ENDBRANCH  38  39
ENDBRANCH  31  33
ENDBRANCH  30  31
ENDBRANCH  29  30
ENDBRANCH  28  29
ENDBRANCH  27  28
ENDBRANCH   1  27
TORSDOF 18
