REMARK SMILES C[C@H](NC(=O)c1cccc(NC(=O)/C=C/C(=O)OCCOCCOC(=O)c2ccc(-c3c4nc(c(-c5c(F)c(F)c(F)c(F)c5F)c5ccc([nH]5)c(-c5c(F)c(F)c(F)c(F)c5F)c5nc(c(-c6c(F)c(F)c(F)c(F)c6F)c6ccc3[nH]6)C=C5)C=C4)cc2)c1)c1ccccc1
REMARK SMILES IDX 19 1 18 2 16 3 17 4 15 5 14 6 12 7 11 8 13 10 10 11 6 12
REMARK SMILES IDX 7 13 90 14 8 15 9 16 4 17 3 18 5 20 2 21 1 22 91 23 92 24
REMARK SMILES IDX 96 25 93 26 95 27 94 28 20 29 21 30 22 31 23 32 24 33 25 34
REMARK SMILES IDX 26 35 27 36 28 37 89 38 29 39 88 40 30 41 31 42 32 43 82 44
REMARK SMILES IDX 33 45 87 46 81 47 83 48 34 49 86 50 80 51 79 52 35 54 67 55
REMARK SMILES IDX 47 56 66 57 48 58 51 59 65 60 84 61 49 62 50 63 64 65 85 66
REMARK SMILES IDX 52 67 36 68 37 69 45 70 38 71 39 72 43 73 46 74 40 75 41 76
REMARK SMILES IDX 44 77 42 78 68 79 69 80 77 81 70 82 71 83 75 84 78 85 72 86
REMARK SMILES IDX 73 87 76 88 74 89 53 90 54 91 62 92 55 93 56 94 60 95 63 96
REMARK SMILES IDX 57 97 58 98 61 99 59 100
REMARK H PARENT 11 9 3 19 83 53 51 64
REMARK Flexibility Score: inf
ROOT
ATOM      1  C   UNL     1       8.420   1.874   6.407  1.00  0.00     0.261 C 
ENDROOT
BRANCH   1   2
ATOM      2  O   UNL     1       8.293   0.509   5.973  1.00  0.00    -0.460 OA
BRANCH   2   3
ATOM      3  C   UNL     1       7.127  -0.085   6.319  1.00  0.00     0.331 C 
ATOM      4  O   UNL     1       6.310   0.334   7.121  1.00  0.00    -0.247 OA
BRANCH   3   5
ATOM      5  C   UNL     1       6.904  -1.229   5.412  1.00  0.00     0.099 C 
ATOM      6  C   UNL     1       5.709  -1.831   5.465  1.00  0.00     0.079 C 
BRANCH   6   7
ATOM      7  C   UNL     1       5.324  -2.782   4.418  1.00  0.00     0.248 C 
ATOM      8  N   UNL     1       4.728  -2.345   3.269  1.00  0.00    -0.322 N 
ATOM      9  H   UNL     1       4.461  -3.083   2.675  1.00  0.00     0.170 HD
ATOM     10  O   UNL     1       5.494  -3.984   4.604  1.00  0.00    -0.270 OA
BRANCH   8  11
ATOM     11  C   UNL     1       4.409  -1.075   2.739  1.00  0.00     0.042 A 
ATOM     12  C   UNL     1       3.322   0.152   0.953  1.00  0.00     0.041 A 
ATOM     13  C   UNL     1       3.707   1.373   1.505  1.00  0.00     0.014 A 
ATOM     14  C   UNL     1       3.715  -1.066   1.522  1.00  0.00     0.040 A 
ATOM     15  C   UNL     1       4.389   1.370   2.711  1.00  0.00     0.003 A 
ATOM     16  C   UNL     1       4.697   0.156   3.338  1.00  0.00     0.026 A 
BRANCH  12  17
ATOM     17  C   UNL     1       2.343   0.187  -0.141  1.00  0.00     0.251 C 
ATOM     18  N   UNL     1       1.026  -0.059   0.156  1.00  0.00    -0.346 N 
ATOM     19  H   UNL     1       0.394   0.134  -0.574  1.00  0.00     0.164 HD
ATOM     20  O   UNL     1       2.705   0.507  -1.266  1.00  0.00    -0.269 OA
BRANCH  18  21
ATOM     21  C   UNL     1       0.410  -0.564   1.385  1.00  0.00     0.109 C 
ATOM     22  C   UNL     1       0.708   0.245   2.655  1.00  0.00     0.036 C 
BRANCH  21  23
ATOM     23  C   UNL     1      -1.099  -0.636   1.221  1.00  0.00    -0.026 A 
ATOM     24  C   UNL     1      -1.869   0.537   1.135  1.00  0.00     0.006 A 
ATOM     25  C   UNL     1      -1.755  -1.875   1.246  1.00  0.00     0.006 A 
ATOM     26  C   UNL     1      -3.261   0.474   1.129  1.00  0.00     0.000 A 
ATOM     27  C   UNL     1      -3.149  -1.935   1.232  1.00  0.00     0.000 A 
ATOM     28  C   UNL     1      -3.901  -0.762   1.187  1.00  0.00     0.000 A 
ENDBRANCH  21  23
ENDBRANCH  18  21
ENDBRANCH  12  17
ENDBRANCH   8  11
ENDBRANCH   6   7
ENDBRANCH   3   5
ENDBRANCH   2   3
ENDBRANCH   1   2
BRANCH   1  29
ATOM     29  C   UNL     1       9.347   2.649   5.465  1.00  0.00     0.202 C 
BRANCH  29  30
ATOM     30  O   UNL     1       8.846   2.883   4.149  1.00  0.00    -0.374 OA
BRANCH  30  31
ATOM     31  C   UNL     1       8.540   1.753   3.332  1.00  0.00     0.202 C 
BRANCH  31  32
ATOM     32  C   UNL     1       9.723   0.887   2.872  1.00  0.00     0.261 C 
BRANCH  32  33
ATOM     33  O   UNL     1      10.376   0.199   3.957  1.00  0.00    -0.460 OA
BRANCH  33  34
ATOM     34  C   UNL     1      11.690   0.492   4.115  1.00  0.00     0.338 C 
ATOM     35  O   UNL     1      12.377   1.222   3.422  1.00  0.00    -0.246 OA
BRANCH  34  36
ATOM     36  C   UNL     1      12.192  -0.078   5.380  1.00  0.00     0.060 A 
ATOM     37  C   UNL     1      12.663   0.810   6.355  1.00  0.00     0.016 A 
ATOM     38  C   UNL     1      12.319  -1.457   5.555  1.00  0.00     0.016 A 
ATOM     39  C   UNL     1      13.290   0.321   7.500  1.00  0.00     0.010 A 
ATOM     40  C   UNL     1      12.961  -1.945   6.699  1.00  0.00     0.010 A 
ATOM     41  C   UNL     1      13.475  -1.058   7.663  1.00  0.00    -0.014 A 
BRANCH  41  42
ATOM     42  C   UNL     1      14.323  -1.555   8.775  1.00  0.00     0.031 A 
ATOM     43  C   UNL     1      15.764  -1.887   8.509  1.00  0.00     0.074 A 
ATOM     44  C   UNL     1      13.822  -1.675  10.017  1.00  0.00     0.049 A 
ATOM     45  N   UNL     1      16.676  -2.351   9.326  1.00  0.00    -0.248 NA
ATOM     46  C   UNL     1      16.244  -1.665   7.136  1.00  0.00     0.031 C 
ATOM     47  C   UNL     1      12.454  -1.347  10.409  1.00  0.00     0.029 A 
ATOM     48  N   UNL     1      14.411  -2.113  11.177  1.00  0.00    -0.354 N 
ATOM     49  C   UNL     1      17.833  -2.478   8.569  1.00  0.00     0.074 A 
ATOM     50  C   UNL     1      17.503  -2.070   7.220  1.00  0.00     0.031 C 
ATOM     51  C   UNL     1      12.304  -1.605  11.720  1.00  0.00     0.029 A 
ATOM     52  C   UNL     1      13.556  -2.143  12.249  1.00  0.00     0.049 A 
ATOM     53  H   UNL     1      15.357  -2.380  11.234  1.00  0.00     0.167 HD
ATOM     54  C   UNL     1      19.061  -2.891   8.965  1.00  0.00     0.037 A 
ATOM     55  C   UNL     1      13.756  -2.575  13.510  1.00  0.00     0.037 A 
ATOM     56  C   UNL     1      19.389  -3.299  10.306  1.00  0.00     0.049 A 
ATOM     57  C   UNL     1      15.112  -3.097  13.908  1.00  0.00     0.074 A 
ATOM     58  C   UNL     1      20.610  -3.716  10.808  1.00  0.00     0.029 A 
ATOM     59  N   UNL     1      18.486  -3.349  11.357  1.00  0.00    -0.354 N 
ATOM     60  N   UNL     1      16.207  -3.189  13.193  1.00  0.00    -0.248 NA
ATOM     61  C   UNL     1      15.260  -3.572  15.291  1.00  0.00     0.031 C 
ATOM     62  C   UNL     1      20.434  -4.064  12.152  1.00  0.00     0.029 A 
ATOM     63  C   UNL     1      19.116  -3.815  12.500  1.00  0.00     0.049 A 
ATOM     64  H   UNL     1      17.538  -3.091  11.300  1.00  0.00     0.167 HD
ATOM     65  C   UNL     1      17.177  -3.705  14.042  1.00  0.00     0.074 A 
ATOM     66  C   UNL     1      16.545  -3.896  15.331  1.00  0.00     0.031 C 
ATOM     67  C   UNL     1      18.475  -3.994  13.778  1.00  0.00     0.037 A 
BRANCH  54  68
ATOM     68  C   UNL     1      20.140  -2.946   7.924  1.00  0.00     0.064 A 
ATOM     69  C   UNL     1      20.722  -1.781   7.402  1.00  0.00     0.173 A 
ATOM     70  C   UNL     1      20.622  -4.182   7.465  1.00  0.00     0.173 A 
ATOM     71  F   UNL     1      20.288  -0.575   7.799  1.00  0.00    -0.203 F 
ATOM     72  C   UNL     1      21.728  -1.851   6.442  1.00  0.00     0.198 A 
ATOM     73  C   UNL     1      21.646  -4.248   6.525  1.00  0.00     0.198 A 
ATOM     74  F   UNL     1      20.102  -5.326   7.936  1.00  0.00    -0.203 F 
ATOM     75  F   UNL     1      22.239  -0.724   5.926  1.00  0.00    -0.200 F 
ATOM     76  C   UNL     1      22.194  -3.083   6.009  1.00  0.00     0.200 A 
ATOM     77  F   UNL     1      22.102  -5.440   6.116  1.00  0.00    -0.200 F 
ATOM     78  F   UNL     1      23.166  -3.149   5.089  1.00  0.00    -0.200 F 
ENDBRANCH  54  68
BRANCH  55  79
ATOM     79  C   UNL     1      12.639  -2.544  14.489  1.00  0.00     0.064 A 
ATOM     80  C   UNL     1      12.655  -1.662  15.578  1.00  0.00     0.173 A 
ATOM     81  C   UNL     1      11.539  -3.405  14.362  1.00  0.00     0.173 A 
ATOM     82  F   UNL     1      13.698  -0.838  15.757  1.00  0.00    -0.203 F 
ATOM     83  C   UNL     1      11.620  -1.653  16.511  1.00  0.00     0.198 A 
ATOM     84  C   UNL     1      10.493  -3.377  15.280  1.00  0.00     0.198 A 
ATOM     85  F   UNL     1      11.479  -4.271  13.339  1.00  0.00    -0.203 F 
ATOM     86  F   UNL     1      11.681  -0.830  17.567  1.00  0.00    -0.200 F 
ATOM     87  C   UNL     1      10.537  -2.506  16.358  1.00  0.00     0.200 A 
ATOM     88  F   UNL     1       9.444  -4.196  15.124  1.00  0.00    -0.200 F 
ATOM     89  F   UNL     1       9.541  -2.494  17.254  1.00  0.00    -0.200 F 
ENDBRANCH  55  79
BRANCH  67  90
ATOM     90  C   UNL     1      19.311  -4.516  14.911  1.00  0.00     0.064 A 
ATOM     91  C   UNL     1      19.151  -5.819  15.405  1.00  0.00     0.173 A 
ATOM     92  C   UNL     1      20.313  -3.716  15.481  1.00  0.00     0.173 A 
ATOM     93  F   UNL     1      18.197  -6.618  14.904  1.00  0.00    -0.203 F 
ATOM     94  C   UNL     1      19.949  -6.293  16.443  1.00  0.00     0.198 A 
ATOM     95  C   UNL     1      21.128  -4.203  16.499  1.00  0.00     0.198 A 
ATOM     96  F   UNL     1      20.512  -2.464  15.040  1.00  0.00    -0.203 F 
ATOM     97  F   UNL     1      19.750  -7.527  16.929  1.00  0.00    -0.200 F 
ATOM     98  C   UNL     1      20.941  -5.489  16.984  1.00  0.00     0.200 A 
ATOM     99  F   UNL     1      22.094  -3.428  17.011  1.00  0.00    -0.200 F 
ATOM    100  F   UNL     1      21.712  -5.950  17.977  1.00  0.00    -0.200 F 
ENDBRANCH  67  90
ENDBRANCH  41  42
ENDBRANCH  34  36
ENDBRANCH  33  34
ENDBRANCH  32  33
ENDBRANCH  31  32
ENDBRANCH  30  31
ENDBRANCH  29  30
ENDBRANCH   1  29
TORSDOF 19
