REMARK SMILES Cc1cccc(Cn2c(=O)c3sccc3n(CC(=O)OCCOCCOC(=O)c3ccc(-c4c5nc(c(-c6c(F)c(F)c(F)c(F)c6F)c6ccc([nH]6)c(-c6c(F)c(F)c(F)c(F)c6F)c6nc(c(-c7c(F)c(F)c(F)c(F)c7F)c7ccc4[nH]7)C=C6)C=C5)cc3)c2=O)c1
REMARK SMILES IDX 22 1 21 2 20 3 18 4 19 5 17 6 16 7 8 8 9 9 92 10 10 11 11 12
REMARK SMILES IDX 93 13 12 14 15 15 13 16 14 17 7 18 6 19 1 20 2 21 3 22 94 23
REMARK SMILES IDX 4 24 5 25 23 26 24 27 25 28 26 29 27 30 28 31 29 32 30 33
REMARK SMILES IDX 91 34 31 35 90 36 32 37 33 38 34 39 84 40 35 41 89 42 83 43
REMARK SMILES IDX 85 44 36 45 88 46 82 47 81 48 37 50 69 51 49 52 68 53 50 54
REMARK SMILES IDX 53 55 67 56 86 57 51 58 52 59 66 61 87 62 54 63 38 64 39 65
REMARK SMILES IDX 47 66 40 67 41 68 45 69 48 70 42 71 43 72 46 73 44 74 70 75
REMARK SMILES IDX 71 76 79 77 72 78 73 79 77 80 80 81 74 82 75 83 78 84 76 85
REMARK SMILES IDX 55 86 56 87 64 88 57 89 58 90 62 91 65 92 59 93 60 94 63 95
REMARK SMILES IDX 61 96
REMARK H PARENT 85 49 53 60
REMARK Flexibility Score: inf
ROOT
ATOM      1  C   UNL     1      -6.440   4.219  -2.970  1.00  0.00     0.202 C 
ENDROOT
BRANCH   1   2
ATOM      2  C   UNL     1      -6.732   3.002  -2.155  1.00  0.00     0.261 C 
BRANCH   2   3
ATOM      3  O   UNL     1      -5.704   2.034  -2.338  1.00  0.00    -0.462 OA
BRANCH   3   4
ATOM      4  C   UNL     1      -5.821   1.011  -3.243  1.00  0.00     0.326 C 
ATOM      5  O   UNL     1      -6.845   0.633  -3.764  1.00  0.00    -0.250 OA
BRANCH   4   6
ATOM      6  C   UNL     1      -4.457   0.338  -3.421  1.00  0.00     0.250 C 
BRANCH   6   7
ATOM      7  N   UNL     1      -3.432   1.304  -3.017  1.00  0.00    -0.281 N 
ATOM      8  N   UNL     1      -2.282   2.376  -1.219  1.00  0.00    -0.254 N 
ATOM      9  C   UNL     1      -1.895   3.476  -1.987  1.00  0.00     0.274 A 
ATOM     10  C   UNL     1      -3.188   1.407  -1.644  1.00  0.00     0.332 A 
ATOM     11  O   UNL     1      -1.285   4.436  -1.522  1.00  0.00    -0.268 OA
ATOM     12  C   UNL     1      -2.310   3.382  -3.364  1.00  0.00     0.116 A 
ATOM     13  O   UNL     1      -3.825   0.706  -0.851  1.00  0.00    -0.247 OA
ATOM     14  S   UNL     1      -2.031   4.594  -4.522  1.00  0.00    -0.136 S 
ATOM     15  C   UNL     1      -3.013   2.322  -3.870  1.00  0.00     0.070 A 
ATOM     16  C   UNL     1      -2.825   3.684  -5.739  1.00  0.00     0.068 A 
ATOM     17  C   UNL     1      -3.304   2.485  -5.255  1.00  0.00     0.039 A 
BRANCH   8  18
ATOM     18  C   UNL     1      -1.826   2.280   0.165  1.00  0.00     0.166 C 
BRANCH  18  19
ATOM     19  C   UNL     1      -0.939   1.056   0.324  1.00  0.00    -0.028 A 
ATOM     20  C   UNL     1       2.709   0.057  -0.126  1.00  0.00     0.044 C 
ATOM     21  C   UNL     1       1.224  -0.020   0.060  1.00  0.00    -0.051 A 
ATOM     22  C   UNL     1       0.613  -1.274   0.192  1.00  0.00     0.003 A 
ATOM     23  C   UNL     1       0.440   1.141   0.097  1.00  0.00     0.009 A 
ATOM     24  C   UNL     1      -0.750  -1.367   0.442  1.00  0.00     0.001 A 
ATOM     25  C   UNL     1      -1.509  -0.207   0.552  1.00  0.00     0.005 A 
ENDBRANCH  18  19
ENDBRANCH   8  18
ENDBRANCH   6   7
ENDBRANCH   4   6
ENDBRANCH   3   4
ENDBRANCH   2   3
ENDBRANCH   1   2
BRANCH   1  26
ATOM     26  O   UNL     1      -6.761   3.832  -4.299  1.00  0.00    -0.374 OA
BRANCH  26  27
ATOM     27  C   UNL     1      -6.374   4.746  -5.304  1.00  0.00     0.202 C 
BRANCH  27  28
ATOM     28  C   UNL     1      -6.925   6.162  -5.116  1.00  0.00     0.261 C 
BRANCH  28  29
ATOM     29  O   UNL     1      -8.364   6.140  -5.201  1.00  0.00    -0.460 OA
BRANCH  29  30
ATOM     30  C   UNL     1      -9.020   6.276  -4.016  1.00  0.00     0.338 C 
ATOM     31  O   UNL     1      -8.829   7.168  -3.205  1.00  0.00    -0.246 OA
BRANCH  30  32
ATOM     32  C   UNL     1      -9.763   5.019  -3.710  1.00  0.00     0.060 A 
ATOM     33  C   UNL     1     -10.225   4.785  -2.401  1.00  0.00     0.016 A 
ATOM     34  C   UNL     1      -9.676   3.963  -4.615  1.00  0.00     0.016 A 
ATOM     35  C   UNL     1     -10.445   3.474  -1.956  1.00  0.00     0.010 A 
ATOM     36  C   UNL     1      -9.765   2.675  -4.134  1.00  0.00     0.010 A 
ATOM     37  C   UNL     1     -10.129   2.414  -2.802  1.00  0.00    -0.014 A 
BRANCH  37  38
ATOM     38  C   UNL     1     -10.113   0.995  -2.437  1.00  0.00     0.031 A 
ATOM     39  C   UNL     1     -11.098   0.125  -3.120  1.00  0.00     0.074 A 
ATOM     40  C   UNL     1      -9.136   0.431  -1.679  1.00  0.00     0.049 A 
ATOM     41  N   UNL     1     -11.398  -1.060  -2.720  1.00  0.00    -0.248 NA
ATOM     42  C   UNL     1     -11.895   0.535  -4.279  1.00  0.00     0.031 C 
ATOM     43  C   UNL     1      -8.766  -0.986  -1.590  1.00  0.00     0.029 A 
ATOM     44  N   UNL     1      -8.234   1.025  -0.777  1.00  0.00    -0.354 N 
ATOM     45  C   UNL     1     -12.090  -1.674  -3.734  1.00  0.00     0.074 A 
ATOM     46  C   UNL     1     -12.533  -0.599  -4.576  1.00  0.00     0.031 C 
ATOM     47  C   UNL     1      -8.007  -1.183  -0.496  1.00  0.00     0.029 A 
ATOM     48  C   UNL     1      -7.962   0.078   0.224  1.00  0.00     0.049 A 
ATOM     49  H   UNL     1      -7.862   1.935  -0.836  1.00  0.00     0.167 HD
ATOM     50  C   UNL     1     -12.047  -3.034  -3.797  1.00  0.00     0.037 A 
ATOM     51  C   UNL     1      -8.288   0.316   1.522  1.00  0.00     0.037 A 
ATOM     52  C   UNL     1     -11.451  -3.576  -2.561  1.00  0.00     0.049 A 
ATOM     53  C   UNL     1      -9.292  -0.703   1.970  1.00  0.00     0.074 A 
ATOM     54  C   UNL     1     -10.254  -4.208  -2.269  1.00  0.00     0.029 A 
ATOM     55  N   UNL     1     -11.993  -3.196  -1.327  1.00  0.00    -0.354 N 
ATOM     56  N   UNL     1     -10.006  -1.393   1.122  1.00  0.00    -0.248 NA
ATOM     57  C   UNL     1      -9.540  -1.085   3.352  1.00  0.00     0.031 C 
ATOM     58  C   UNL     1     -10.050  -4.132  -0.858  1.00  0.00     0.029 A 
ATOM     59  C   UNL     1     -11.139  -3.494  -0.282  1.00  0.00     0.049 A 
ATOM     60  H   UNL     1     -12.873  -2.769  -1.218  1.00  0.00     0.167 HD
ATOM     61  C   UNL     1     -10.732  -2.331   1.783  1.00  0.00     0.074 A 
ATOM     62  C   UNL     1     -10.426  -2.084   3.184  1.00  0.00     0.031 C 
ATOM     63  C   UNL     1     -11.519  -3.217   1.107  1.00  0.00     0.037 A 
BRANCH  50  64
ATOM     64  C   UNL     1     -12.356  -3.871  -5.033  1.00  0.00     0.064 A 
ATOM     65  C   UNL     1     -12.206  -5.276  -4.990  1.00  0.00     0.173 A 
ATOM     66  C   UNL     1     -12.719  -3.376  -6.308  1.00  0.00     0.173 A 
ATOM     67  F   UNL     1     -11.846  -5.902  -3.862  1.00  0.00    -0.203 F 
ATOM     68  C   UNL     1     -12.403  -6.096  -6.111  1.00  0.00     0.198 A 
ATOM     69  C   UNL     1     -12.958  -4.199  -7.415  1.00  0.00     0.198 A 
ATOM     70  F   UNL     1     -12.817  -2.074  -6.579  1.00  0.00    -0.203 F 
ATOM     71  F   UNL     1     -12.200  -7.417  -6.011  1.00  0.00    -0.200 F 
ATOM     72  C   UNL     1     -12.792  -5.560  -7.320  1.00  0.00     0.200 A 
ATOM     73  F   UNL     1     -13.328  -3.648  -8.581  1.00  0.00    -0.200 F 
ATOM     74  F   UNL     1     -12.991  -6.342  -8.389  1.00  0.00    -0.200 F 
ENDBRANCH  50  64
BRANCH  51  75
ATOM     75  C   UNL     1      -8.196   1.765   1.871  1.00  0.00     0.064 A 
ATOM     76  C   UNL     1      -6.909   2.350   1.861  1.00  0.00     0.173 A 
ATOM     77  C   UNL     1      -9.289   2.629   1.716  1.00  0.00     0.173 A 
ATOM     78  F   UNL     1      -5.820   1.574   1.990  1.00  0.00    -0.203 F 
ATOM     79  C   UNL     1      -6.721   3.701   1.564  1.00  0.00     0.198 A 
ATOM     80  C   UNL     1      -9.095   3.985   1.422  1.00  0.00     0.198 A 
ATOM     81  F   UNL     1     -10.538   2.145   1.707  1.00  0.00    -0.203 F 
ATOM     82  F   UNL     1      -5.480   4.184   1.393  1.00  0.00    -0.200 F 
ATOM     83  C   UNL     1      -7.814   4.508   1.303  1.00  0.00     0.200 A 
ATOM     84  F   UNL     1     -10.149   4.766   1.145  1.00  0.00    -0.200 F 
ATOM     85  F   UNL     1      -7.633   5.762   0.864  1.00  0.00    -0.200 F 
ENDBRANCH  51  75
BRANCH  63  86
ATOM     86  C   UNL     1     -12.681  -3.960   1.715  1.00  0.00     0.064 A 
ATOM     87  C   UNL     1     -13.328  -3.566   2.899  1.00  0.00     0.173 A 
ATOM     88  C   UNL     1     -13.303  -5.018   1.010  1.00  0.00     0.173 A 
ATOM     89  F   UNL     1     -12.941  -2.488   3.592  1.00  0.00    -0.203 F 
ATOM     90  C   UNL     1     -14.456  -4.230   3.382  1.00  0.00     0.198 A 
ATOM     91  C   UNL     1     -14.477  -5.621   1.451  1.00  0.00     0.198 A 
ATOM     92  F   UNL     1     -12.817  -5.479  -0.152  1.00  0.00    -0.203 F 
ATOM     93  F   UNL     1     -14.995  -3.850   4.548  1.00  0.00    -0.200 F 
ATOM     94  C   UNL     1     -15.040  -5.244   2.651  1.00  0.00     0.200 A 
ATOM     95  F   UNL     1     -15.070  -6.551   0.691  1.00  0.00    -0.200 F 
ATOM     96  F   UNL     1     -16.156  -5.838   3.089  1.00  0.00    -0.200 F 
ENDBRANCH  63  86
ENDBRANCH  37  38
ENDBRANCH  30  32
ENDBRANCH  29  30
ENDBRANCH  28  29
ENDBRANCH  27  28
ENDBRANCH  26  27
ENDBRANCH   1  26
TORSDOF 17
