REMARK SMILES Cc1ccc(CSCC(=O)N[C@H]2C=C[C@@H](C(=O)OCCOCCOC(=O)c3ccc(-c4c5nc(c(-c6c(F)c(F)c(F)c(F)c6F)c6ccc([nH]6)c(-c6c(F)c(F)c(F)c(F)c6F)c6nc(c(-c7c(F)c(F)c(F)c(F)c7F)c7ccc4[nH]7)C=C6)C=C5)cc3)C2)cc1
REMARK SMILES IDX 19 1 18 2 16 3 17 4 15 5 12 6 13 7 90 8 14 9 11 10 9 11
REMARK SMILES IDX 10 12 8 14 7 15 6 16 5 17 1 18 2 19 3 20 92 21 4 22 91 23
REMARK SMILES IDX 20 24 21 25 22 26 23 27 24 28 25 29 26 30 27 31 28 32 89 33
REMARK SMILES IDX 29 34 88 35 30 36 31 37 32 38 82 39 33 40 87 41 81 42 83 43
REMARK SMILES IDX 34 44 86 45 80 46 79 47 35 49 67 50 47 51 66 52 48 53 51 54
REMARK SMILES IDX 65 55 84 56 49 57 50 58 64 60 85 61 52 62 36 63 37 64 45 65
REMARK SMILES IDX 38 66 39 67 43 68 46 69 40 70 41 71 44 72 42 73 68 74 69 75
REMARK SMILES IDX 77 76 70 77 71 78 75 79 78 80 72 81 73 82 76 83 74 84 53 85
REMARK SMILES IDX 54 86 62 87 55 88 56 89 60 90 63 91 57 92 58 93 61 94 59 95
REMARK H PARENT 11 13 83 48 51 59
REMARK Flexibility Score: inf
ROOT
ATOM      1  C   UNL     1      -6.575  -0.332   0.625  1.00  0.00     0.261 C 
ENDROOT
BRANCH   1   2
ATOM      2  O   UNL     1      -6.661  -0.451  -0.793  1.00  0.00    -0.463 OA
BRANCH   2   3
ATOM      3  C   UNL     1      -7.838  -0.940  -1.295  1.00  0.00     0.312 C 
ATOM      4  O   UNL     1      -8.673  -1.564  -0.680  1.00  0.00    -0.252 OA
BRANCH   3   5
ATOM      5  C   UNL     1      -7.923  -0.604  -2.774  1.00  0.00     0.124 C 
ATOM      6  C   UNL     1      -6.273   0.878  -3.880  1.00  0.00     0.106 C 
ATOM      7  C   UNL     1      -5.958  -0.568  -4.055  1.00  0.00    -0.006 C 
ATOM      8  C   UNL     1      -7.561   0.869  -3.028  1.00  0.00     0.048 C 
ATOM      9  C   UNL     1      -6.879  -1.371  -3.514  1.00  0.00    -0.014 C 
BRANCH   6  10
ATOM     10  N   UNL     1      -5.234   1.643  -3.218  1.00  0.00    -0.349 N 
ATOM     11  C   UNL     1      -3.998   2.005  -3.646  1.00  0.00     0.230 C 
ATOM     12  O   UNL     1      -3.565   3.089  -3.239  1.00  0.00    -0.274 OA
ATOM     13  H   UNL     1      -5.463   1.949  -2.310  1.00  0.00     0.164 HD
BRANCH  11  14
ATOM     14  C   UNL     1      -3.135   1.096  -4.495  1.00  0.00     0.169 C 
BRANCH  14  15
ATOM     15  S   UNL     1      -2.104  -0.022  -3.474  1.00  0.00    -0.147 SA
BRANCH  15  16
ATOM     16  C   UNL     1      -1.703   1.091  -2.077  1.00  0.00     0.105 C 
BRANCH  16  17
ATOM     17  C   UNL     1      -0.511   0.701  -1.229  1.00  0.00    -0.038 A 
ATOM     18  C   UNL     1       3.320  -0.004   0.589  1.00  0.00     0.044 C 
ATOM     19  C   UNL     1       1.919   0.217   0.105  1.00  0.00    -0.051 A 
ATOM     20  C   UNL     1       1.193  -0.842  -0.447  1.00  0.00     0.004 A 
ATOM     21  C   UNL     1       1.348   1.490   0.132  1.00  0.00     0.004 A 
ATOM     22  C   UNL     1      -0.012  -0.602  -1.112  1.00  0.00     0.005 A 
ATOM     23  C   UNL     1       0.137   1.725  -0.517  1.00  0.00     0.005 A 
ENDBRANCH  16  17
ENDBRANCH  15  16
ENDBRANCH  14  15
ENDBRANCH  11  14
ENDBRANCH   6  10
ENDBRANCH   3   5
ENDBRANCH   2   3
ENDBRANCH   1   2
BRANCH   1  24
ATOM     24  C   UNL     1      -6.972   1.045   1.062  1.00  0.00     0.202 C 
BRANCH  24  25
ATOM     25  O   UNL     1      -8.359   0.977   1.360  1.00  0.00    -0.374 OA
BRANCH  25  26
ATOM     26  C   UNL     1      -8.913   2.170   1.894  1.00  0.00     0.202 C 
BRANCH  26  27
ATOM     27  C   UNL     1      -8.201   2.697   3.153  1.00  0.00     0.261 C 
BRANCH  27  28
ATOM     28  O   UNL     1      -8.217   1.675   4.169  1.00  0.00    -0.460 OA
BRANCH  28  29
ATOM     29  C   UNL     1      -7.009   1.170   4.535  1.00  0.00     0.338 C 
ATOM     30  O   UNL     1      -5.994   1.824   4.731  1.00  0.00    -0.246 OA
BRANCH  29  31
ATOM     31  C   UNL     1      -7.021  -0.309   4.342  1.00  0.00     0.060 A 
ATOM     32  C   UNL     1      -5.809  -1.023   4.308  1.00  0.00     0.016 A 
ATOM     33  C   UNL     1      -8.192  -0.913   3.884  1.00  0.00     0.016 A 
ATOM     34  C   UNL     1      -5.749  -2.278   3.682  1.00  0.00     0.010 A 
ATOM     35  C   UNL     1      -8.110  -2.109   3.198  1.00  0.00     0.010 A 
ATOM     36  C   UNL     1      -6.889  -2.784   3.056  1.00  0.00    -0.014 A 
BRANCH  36  37
ATOM     37  C   UNL     1      -6.912  -3.930   2.140  1.00  0.00     0.031 A 
ATOM     38  C   UNL     1      -7.667  -5.141   2.511  1.00  0.00     0.074 A 
ATOM     39  C   UNL     1      -6.411  -3.860   0.884  1.00  0.00     0.049 A 
ATOM     40  N   UNL     1      -7.384  -6.320   2.069  1.00  0.00    -0.248 NA
ATOM     41  C   UNL     1      -8.812  -5.127   3.416  1.00  0.00     0.031 C 
ATOM     42  C   UNL     1      -6.631  -4.763  -0.248  1.00  0.00     0.029 A 
ATOM     43  N   UNL     1      -5.467  -2.966   0.379  1.00  0.00    -0.354 N 
ATOM     44  C   UNL     1      -8.480  -7.110   2.316  1.00  0.00     0.074 A 
ATOM     45  C   UNL     1      -9.286  -6.363   3.252  1.00  0.00     0.031 C 
ATOM     46  C   UNL     1      -5.634  -4.604  -1.139  1.00  0.00     0.029 A 
ATOM     47  C   UNL     1      -4.689  -3.673  -0.546  1.00  0.00     0.049 A 
ATOM     48  H   UNL     1      -5.367  -2.018   0.625  1.00  0.00     0.167 HD
ATOM     49  C   UNL     1      -8.689  -8.223   1.556  1.00  0.00     0.037 A 
ATOM     50  C   UNL     1      -3.344  -3.802  -0.395  1.00  0.00     0.037 A 
ATOM     51  C   UNL     1      -7.669  -8.357   0.512  1.00  0.00     0.049 A 
ATOM     52  C   UNL     1      -3.000  -5.253  -0.458  1.00  0.00     0.074 A 
ATOM     53  C   UNL     1      -7.694  -8.115  -0.854  1.00  0.00     0.029 A 
ATOM     54  N   UNL     1      -6.321  -8.469   0.856  1.00  0.00    -0.354 N 
ATOM     55  N   UNL     1      -3.819  -6.170  -0.023  1.00  0.00    -0.248 NA
ATOM     56  C   UNL     1      -1.805  -5.798  -1.088  1.00  0.00     0.031 C 
ATOM     57  C   UNL     1      -6.361  -8.110  -1.333  1.00  0.00     0.029 A 
ATOM     58  C   UNL     1      -5.517  -8.339  -0.260  1.00  0.00     0.049 A 
ATOM     59  H   UNL     1      -5.989  -8.620   1.770  1.00  0.00     0.167 HD
ATOM     60  C   UNL     1      -3.342  -7.392  -0.392  1.00  0.00     0.074 A 
ATOM     61  C   UNL     1      -2.055  -7.118  -1.007  1.00  0.00     0.031 C 
ATOM     62  C   UNL     1      -4.074  -8.522  -0.193  1.00  0.00     0.037 A 
BRANCH  49  63
ATOM     63  C   UNL     1     -10.006  -8.971   1.562  1.00  0.00     0.064 A 
ATOM     64  C   UNL     1     -10.501  -9.611   0.406  1.00  0.00     0.173 A 
ATOM     65  C   UNL     1     -10.847  -9.065   2.688  1.00  0.00     0.173 A 
ATOM     66  F   UNL     1      -9.764  -9.730  -0.704  1.00  0.00    -0.203 F 
ATOM     67  C   UNL     1     -11.780 -10.170   0.346  1.00  0.00     0.198 A 
ATOM     68  C   UNL     1     -12.150  -9.568   2.613  1.00  0.00     0.198 A 
ATOM     69  F   UNL     1     -10.412  -8.719   3.908  1.00  0.00    -0.203 F 
ATOM     70  F   UNL     1     -12.194 -10.759  -0.785  1.00  0.00    -0.200 F 
ATOM     71  C   UNL     1     -12.621 -10.111   1.437  1.00  0.00     0.200 A 
ATOM     72  F   UNL     1     -12.944  -9.524   3.693  1.00  0.00    -0.200 F 
ATOM     73  F   UNL     1     -13.864 -10.606   1.364  1.00  0.00    -0.200 F 
ENDBRANCH  49  63
BRANCH  50  74
ATOM     74  C   UNL     1      -2.745  -2.751   0.483  1.00  0.00     0.064 A 
ATOM     75  C   UNL     1      -3.022  -1.400   0.172  1.00  0.00     0.173 A 
ATOM     76  C   UNL     1      -2.236  -3.005   1.758  1.00  0.00     0.173 A 
ATOM     77  F   UNL     1      -3.587  -1.093  -1.007  1.00  0.00    -0.203 F 
ATOM     78  C   UNL     1      -2.899  -0.377   1.111  1.00  0.00     0.198 A 
ATOM     79  C   UNL     1      -2.102  -1.971   2.699  1.00  0.00     0.198 A 
ATOM     80  F   UNL     1      -1.969  -4.259   2.145  1.00  0.00    -0.203 F 
ATOM     81  F   UNL     1      -3.337   0.857   0.817  1.00  0.00    -0.200 F 
ATOM     82  C   UNL     1      -2.458  -0.667   2.383  1.00  0.00     0.200 A 
ATOM     83  F   UNL     1      -1.727  -2.257   3.954  1.00  0.00    -0.200 F 
ATOM     84  F   UNL     1      -2.454   0.288   3.323  1.00  0.00    -0.200 F 
ENDBRANCH  50  74
BRANCH  62  85
ATOM     85  C   UNL     1      -3.507  -9.904  -0.023  1.00  0.00     0.064 A 
ATOM     86  C   UNL     1      -2.162 -10.156   0.293  1.00  0.00     0.173 A 
ATOM     87  C   UNL     1      -4.370 -11.026   0.043  1.00  0.00     0.173 A 
ATOM     88  F   UNL     1      -1.257  -9.171   0.366  1.00  0.00    -0.203 F 
ATOM     89  C   UNL     1      -1.707 -11.433   0.617  1.00  0.00     0.198 A 
ATOM     90  C   UNL     1      -3.923 -12.286   0.429  1.00  0.00     0.198 A 
ATOM     91  F   UNL     1      -5.682 -10.929  -0.214  1.00  0.00    -0.203 F 
ATOM     92  F   UNL     1      -0.408 -11.621   0.885  1.00  0.00    -0.200 F 
ATOM     93  C   UNL     1      -2.589 -12.492   0.705  1.00  0.00     0.200 A 
ATOM     94  F   UNL     1      -4.802 -13.288   0.563  1.00  0.00    -0.200 F 
ATOM     95  F   UNL     1      -2.157 -13.703   1.079  1.00  0.00    -0.200 F 
ENDBRANCH  62  85
ENDBRANCH  36  37
ENDBRANCH  29  31
ENDBRANCH  28  29
ENDBRANCH  27  28
ENDBRANCH  26  27
ENDBRANCH  25  26
ENDBRANCH  24  25
ENDBRANCH   1  24
TORSDOF 19
