REMARK SMILES COc1cc(Br)c(OC)c(C(=O)NCCC(=O)OCCOCCOC(=O)c2ccc(-c3c4nc(c(-c5c(F)c(F)c(F)c(F)c5F)c5ccc([nH]5)c(-c5c(F)c(F)c(F)c(F)c5F)c5nc(c(-c6c(F)c(F)c(F)c(F)c6F)c6ccc3[nH]6)C=C5)C=C4)cc2)c1
REMARK SMILES IDX 20 1 19 2 18 3 16 4 17 5 15 6 14 7 13 8 11 9 12 10 10 12
REMARK SMILES IDX 3 13 4 14 90 15 5 16 6 17 7 18 2 19 1 20 8 21 9 22 21 23
REMARK SMILES IDX 22 24 23 25 24 26 25 27 26 28 27 29 28 30 89 31 29 32 88 33
REMARK SMILES IDX 30 34 31 35 32 36 82 37 33 38 87 39 81 40 83 41 34 42 86 43
REMARK SMILES IDX 80 44 79 45 35 47 67 48 47 49 66 50 48 51 51 52 65 53 84 54
REMARK SMILES IDX 49 55 50 56 64 58 85 59 52 60 36 61 37 62 45 63 38 64 39 65
REMARK SMILES IDX 43 66 46 67 40 68 41 69 44 70 42 71 68 72 69 73 77 74 70 75
REMARK SMILES IDX 71 76 75 77 78 78 72 79 73 80 76 81 74 82 53 83 54 84 62 85
REMARK SMILES IDX 55 86 56 87 60 88 63 89 57 90 58 91 61 92 59 93
REMARK H PARENT 13 11 83 46 51 57
REMARK Flexibility Score: inf
ROOT
ATOM      1  C   UNL     1      -6.572   5.496   3.968  1.00  0.00     0.202 C 
ENDROOT
BRANCH   1   2
ATOM      2  C   UNL     1      -6.098   4.305   4.804  1.00  0.00     0.261 C 
BRANCH   2   3
ATOM      3  O   UNL     1      -4.781   3.850   4.429  1.00  0.00    -0.463 OA
BRANCH   3   4
ATOM      4  C   UNL     1      -4.712   2.567   3.983  1.00  0.00     0.307 C 
ATOM      5  O   UNL     1      -5.672   1.823   3.827  1.00  0.00    -0.252 OA
BRANCH   4   6
ATOM      6  C   UNL     1      -3.294   2.110   3.761  1.00  0.00     0.144 C 
BRANCH   6   7
ATOM      7  C   UNL     1      -2.476   2.962   2.804  1.00  0.00     0.128 C 
BRANCH   7   8
ATOM      8  N   UNL     1      -1.774   4.073   3.437  1.00  0.00    -0.351 N 
ATOM      9  C   UNL     1      -0.431   4.387   3.510  1.00  0.00     0.255 C 
ATOM     10  O   UNL     1      -0.099   5.426   4.078  1.00  0.00    -0.269 OA
ATOM     11  H   UNL     1      -2.364   4.715   3.894  1.00  0.00     0.163 HD
BRANCH   9  12
ATOM     12  C   UNL     1       0.609   3.514   2.900  1.00  0.00     0.086 A 
ATOM     13  C   UNL     1       1.321   2.129   1.044  1.00  0.00     0.121 A 
ATOM     14  C   UNL     1       2.472   1.772   1.738  1.00  0.00     0.066 A 
ATOM     15  C   UNL     1       0.438   3.059   1.585  1.00  0.00     0.064 A 
ATOM     16  C   UNL     1       2.701   2.284   3.017  1.00  0.00     0.064 A 
ATOM     17  Br  UNL     1       4.254   1.649   3.912  1.00  0.00    -0.047 Br
ATOM     18  C   UNL     1       1.774   3.161   3.610  1.00  0.00     0.146 A 
BRANCH  13  19
ATOM     19  O   UNL     1       0.984   1.595  -0.169  1.00  0.00    -0.497 OA
ATOM     20  C   UNL     1       1.099   0.169  -0.191  1.00  0.00     0.278 C 
ENDBRANCH  13  19
BRANCH  18  21
ATOM     21  O   UNL     1       1.914   3.574   4.911  1.00  0.00    -0.495 OA
ATOM     22  C   UNL     1       2.992   4.498   5.092  1.00  0.00     0.278 C 
ENDBRANCH  18  21
ENDBRANCH   9  12
ENDBRANCH   7   8
ENDBRANCH   6   7
ENDBRANCH   4   6
ENDBRANCH   3   4
ENDBRANCH   2   3
ENDBRANCH   1   2
BRANCH   1  23
ATOM     23  O   UNL     1      -6.857   5.231   2.597  1.00  0.00    -0.374 OA
BRANCH  23  24
ATOM     24  C   UNL     1      -5.746   5.069   1.718  1.00  0.00     0.202 C 
BRANCH  24  25
ATOM     25  C   UNL     1      -5.032   6.358   1.293  1.00  0.00     0.261 C 
BRANCH  25  26
ATOM     26  O   UNL     1      -4.396   7.013   2.407  1.00  0.00    -0.460 OA
BRANCH  26  27
ATOM     27  C   UNL     1      -4.893   8.239   2.691  1.00  0.00     0.338 C 
ATOM     28  O   UNL     1      -5.725   8.867   2.049  1.00  0.00    -0.246 OA
BRANCH  27  29
ATOM     29  C   UNL     1      -4.434   8.704   4.012  1.00  0.00     0.060 A 
ATOM     30  C   UNL     1      -5.421   9.129   4.911  1.00  0.00     0.016 A 
ATOM     31  C   UNL     1      -3.080   8.848   4.326  1.00  0.00     0.016 A 
ATOM     32  C   UNL     1      -5.060   9.781   6.086  1.00  0.00     0.010 A 
ATOM     33  C   UNL     1      -2.719   9.512   5.507  1.00  0.00     0.010 A 
ATOM     34  C   UNL     1      -3.709  10.031   6.361  1.00  0.00    -0.014 A 
BRANCH  34  35
ATOM     35  C   UNL     1      -3.382  11.009   7.430  1.00  0.00     0.031 A 
ATOM     36  C   UNL     1      -3.123  12.443   7.045  1.00  0.00     0.074 A 
ATOM     37  C   UNL     1      -3.418  10.658   8.727  1.00  0.00     0.049 A 
ATOM     38  N   UNL     1      -2.928  13.489   7.810  1.00  0.00    -0.248 NA
ATOM     39  C   UNL     1      -3.087  12.741   5.604  1.00  0.00     0.031 C 
ATOM     40  C   UNL     1      -3.689   9.314   9.231  1.00  0.00     0.029 A 
ATOM     41  N   UNL     1      -3.241  11.414   9.860  1.00  0.00    -0.354 N 
ATOM     42  C   UNL     1      -2.746  14.561   6.945  1.00  0.00     0.074 A 
ATOM     43  C   UNL     1      -2.823  14.039   5.598  1.00  0.00     0.031 C 
ATOM     44  C   UNL     1      -3.668   9.341  10.576  1.00  0.00     0.029 A 
ATOM     45  C   UNL     1      -3.370  10.700  11.025  1.00  0.00     0.049 A 
ATOM     46  H   UNL     1      -3.040  12.378   9.838  1.00  0.00     0.167 HD
ATOM     47  C   UNL     1      -2.548  15.867   7.245  1.00  0.00     0.037 A 
ATOM     48  C   UNL     1      -3.259  11.101  12.306  1.00  0.00     0.037 A 
ATOM     49  C   UNL     1      -2.488  16.395   8.582  1.00  0.00     0.049 A 
ATOM     50  C   UNL     1      -2.990  12.553  12.608  1.00  0.00     0.074 A 
ATOM     51  C   UNL     1      -2.329  17.710   8.984  1.00  0.00     0.029 A 
ATOM     52  N   UNL     1      -2.578  15.631   9.735  1.00  0.00    -0.354 N 
ATOM     53  N   UNL     1      -2.876  13.567  11.785  1.00  0.00    -0.248 NA
ATOM     54  C   UNL     1      -2.845  12.917  14.026  1.00  0.00     0.031 C 
ATOM     55  C   UNL     1      -2.276  17.736  10.382  1.00  0.00     0.029 A 
ATOM     56  C   UNL     1      -2.450  16.444  10.850  1.00  0.00     0.049 A 
ATOM     57  H   UNL     1      -2.713  14.656   9.758  1.00  0.00     0.167 HD
ATOM     58  C   UNL     1      -2.679  14.688  12.582  1.00  0.00     0.074 A 
ATOM     59  C   UNL     1      -2.706  14.233  13.956  1.00  0.00     0.031 C 
ATOM     60  C   UNL     1      -2.491  15.978  12.211  1.00  0.00     0.037 A 
BRANCH  47  61
ATOM     61  C   UNL     1      -2.363  16.821   6.103  1.00  0.00     0.064 A 
ATOM     62  C   UNL     1      -3.436  17.219   5.293  1.00  0.00     0.173 A 
ATOM     63  C   UNL     1      -1.102  17.382   5.848  1.00  0.00     0.173 A 
ATOM     64  F   UNL     1      -4.658  16.701   5.489  1.00  0.00    -0.203 F 
ATOM     65  C   UNL     1      -3.251  18.132   4.258  1.00  0.00     0.198 A 
ATOM     66  C   UNL     1      -0.926  18.313   4.828  1.00  0.00     0.198 A 
ATOM     67  F   UNL     1      -0.044  17.037   6.597  1.00  0.00    -0.203 F 
ATOM     68  F   UNL     1      -4.283  18.473   3.474  1.00  0.00    -0.200 F 
ATOM     69  C   UNL     1      -1.999  18.684   4.031  1.00  0.00     0.200 A 
ATOM     70  F   UNL     1       0.282  18.853   4.617  1.00  0.00    -0.200 F 
ATOM     71  F   UNL     1      -1.825  19.570   3.042  1.00  0.00    -0.200 F 
ENDBRANCH  47  61
BRANCH  48  72
ATOM     72  C   UNL     1      -3.407  10.121  13.415  1.00  0.00     0.064 A 
ATOM     73  C   UNL     1      -4.495  10.185  14.297  1.00  0.00     0.173 A 
ATOM     74  C   UNL     1      -2.436   9.137  13.646  1.00  0.00     0.173 A 
ATOM     75  F   UNL     1      -5.435  11.128  14.134  1.00  0.00    -0.203 F 
ATOM     76  C   UNL     1      -4.591   9.319  15.384  1.00  0.00     0.198 A 
ATOM     77  C   UNL     1      -2.547   8.254  14.717  1.00  0.00     0.198 A 
ATOM     78  F   UNL     1      -1.373   9.038  12.834  1.00  0.00    -0.203 F 
ATOM     79  F   UNL     1      -5.610   9.440  16.246  1.00  0.00    -0.200 F 
ATOM     80  C   UNL     1      -3.619   8.352  15.592  1.00  0.00     0.200 A 
ATOM     81  F   UNL     1      -1.609   7.316  14.911  1.00  0.00    -0.200 F 
ATOM     82  F   UNL     1      -3.707   7.525  16.643  1.00  0.00    -0.200 F 
ENDBRANCH  48  72
BRANCH  60  83
ATOM     83  C   UNL     1      -2.338  16.993  13.307  1.00  0.00     0.064 A 
ATOM     84  C   UNL     1      -1.181  17.054  14.098  1.00  0.00     0.173 A 
ATOM     85  C   UNL     1      -3.353  17.930  13.555  1.00  0.00     0.173 A 
ATOM     86  F   UNL     1      -0.188  16.172  13.909  1.00  0.00    -0.203 F 
ATOM     87  C   UNL     1      -1.060  17.993  15.118  1.00  0.00     0.198 A 
ATOM     88  C   UNL     1      -3.216  18.887  14.556  1.00  0.00     0.198 A 
ATOM     89  F   UNL     1      -4.476  17.921  12.822  1.00  0.00    -0.203 F 
ATOM     90  F   UNL     1       0.031  17.997  15.897  1.00  0.00    -0.200 F 
ATOM     91  C   UNL     1      -2.074  18.912  15.343  1.00  0.00     0.200 A 
ATOM     92  F   UNL     1      -4.191  19.782  14.764  1.00  0.00    -0.200 F 
ATOM     93  F   UNL     1      -1.956  19.815  16.326  1.00  0.00    -0.200 F 
ENDBRANCH  60  83
ENDBRANCH  34  35
ENDBRANCH  27  29
ENDBRANCH  26  27
ENDBRANCH  25  26
ENDBRANCH  24  25
ENDBRANCH  23  24
ENDBRANCH   1  23
TORSDOF 19
