REMARK SMILES NC(=O)c1cccc(NC2(CC(=O)OCCOCCOC(=O)c3ccc(-c4c5nc(c(-c6c(F)c(F)c(F)c(F)c6F)c6ccc([nH]6)c(-c6c(F)c(F)c(F)c(F)c6F)c6nc(c(-c7c(F)c(F)c(F)c(F)c7F)c7ccc4[nH]7)C=C6)C=C5)cc3)CCC2)n1
REMARK SMILES IDX 16 1 15 2 14 3 12 4 13 5 11 6 10 7 86 8 88 9 87 10 9 11 8 13
REMARK SMILES IDX 4 14 5 15 89 16 6 17 7 18 2 19 1 20 3 23 17 24 18 25 19 26
REMARK SMILES IDX 20 27 21 28 22 29 23 30 24 31 85 32 25 33 84 34 26 35 27 36
REMARK SMILES IDX 28 37 78 38 29 39 83 40 77 41 79 42 30 43 82 44 76 45 75 46
REMARK SMILES IDX 31 48 63 49 43 50 62 51 44 52 47 53 61 54 80 55 45 56 46 57
REMARK SMILES IDX 60 59 81 60 48 61 32 62 33 63 41 64 34 65 35 66 39 67 42 68
REMARK SMILES IDX 36 69 37 70 40 71 38 72 64 73 65 74 73 75 66 76 67 77 71 78
REMARK SMILES IDX 74 79 68 80 69 81 72 82 70 83 49 84 50 85 58 86 51 87 52 88
REMARK SMILES IDX 56 89 59 90 53 91 54 92 57 93 55 94
REMARK H PARENT 9 12 1 21 1 22 79 47 47 58
REMARK Flexibility Score: inf
ROOT
ATOM      1  C   UNL     1       2.915  -5.564  -7.402  1.00  0.00     0.202 C 
ENDROOT
BRANCH   1   2
ATOM      2  C   UNL     1       1.451  -5.582  -7.848  1.00  0.00     0.261 C 
BRANCH   2   3
ATOM      3  O   UNL     1       0.552  -5.097  -6.832  1.00  0.00    -0.463 OA
BRANCH   3   4
ATOM      4  C   UNL     1      -0.207  -6.038  -6.214  1.00  0.00     0.308 C 
ATOM      5  O   UNL     1      -0.157  -7.241  -6.447  1.00  0.00    -0.252 OA
BRANCH   4   6
ATOM      6  C   UNL     1      -1.221  -5.453  -5.271  1.00  0.00     0.151 C 
BRANCH   6   7
ATOM      7  C   UNL     1      -0.796  -4.373  -4.263  1.00  0.00     0.049 C 
ATOM      8  C   UNL     1      -2.068  -3.733  -3.625  1.00  0.00     0.029 C 
ATOM      9  C   UNL     1      -0.440  -2.965  -4.822  1.00  0.00     0.029 C 
ATOM     10  C   UNL     1      -1.905  -2.547  -4.593  1.00  0.00     0.005 C 
BRANCH   7  11
ATOM     11  N   UNL     1       0.128  -4.883  -3.264  1.00  0.00    -0.364 N 
ATOM     12  H   UNL     1       0.408  -5.820  -3.377  1.00  0.00     0.162 HD
BRANCH  11  13
ATOM     13  C   UNL     1       0.676  -4.206  -2.148  1.00  0.00     0.127 A 
ATOM     14  C   UNL     1       0.812  -2.340  -0.766  1.00  0.00     0.130 A 
ATOM     15  C   UNL     1       1.835  -2.885  -0.005  1.00  0.00     0.034 A 
ATOM     16  N   UNL     1       0.258  -2.971  -1.829  1.00  0.00    -0.226 NA
ATOM     17  C   UNL     1       2.285  -4.153  -0.347  1.00  0.00     0.006 A 
ATOM     18  C   UNL     1       1.693  -4.822  -1.420  1.00  0.00     0.047 A 
BRANCH  14  19
ATOM     19  C   UNL     1       0.217  -1.010  -0.422  1.00  0.00     0.267 C 
ATOM     20  N   UNL     1       1.066  -0.037   0.045  1.00  0.00    -0.364 N 
ATOM     21  H   UNL     1       0.715   0.851   0.282  1.00  0.00     0.160 HD
ATOM     22  H   UNL     1       2.027  -0.228   0.142  1.00  0.00     0.160 HD
ATOM     23  O   UNL     1      -0.978  -0.769  -0.548  1.00  0.00    -0.268 OA
ENDBRANCH  14  19
ENDBRANCH  11  13
ENDBRANCH   7  11
ENDBRANCH   6   7
ENDBRANCH   4   6
ENDBRANCH   3   4
ENDBRANCH   2   3
ENDBRANCH   1   2
BRANCH   1  24
ATOM     24  O   UNL     1       3.248  -6.470  -6.353  1.00  0.00    -0.374 OA
BRANCH  24  25
ATOM     25  C   UNL     1       2.946  -6.042  -5.024  1.00  0.00     0.202 C 
BRANCH  25  26
ATOM     26  C   UNL     1       3.950  -5.056  -4.426  1.00  0.00     0.261 C 
BRANCH  26  27
ATOM     27  O   UNL     1       3.785  -3.750  -5.007  1.00  0.00    -0.460 OA
BRANCH  27  28
ATOM     28  C   UNL     1       4.883  -3.258  -5.617  1.00  0.00     0.338 C 
ATOM     29  O   UNL     1       6.012  -3.734  -5.614  1.00  0.00    -0.246 OA
BRANCH  28  30
ATOM     30  C   UNL     1       4.521  -2.106  -6.458  1.00  0.00     0.060 A 
ATOM     31  C   UNL     1       4.998  -2.101  -7.775  1.00  0.00     0.016 A 
ATOM     32  C   UNL     1       3.806  -1.016  -5.954  1.00  0.00     0.016 A 
ATOM     33  C   UNL     1       4.830  -0.973  -8.571  1.00  0.00     0.010 A 
ATOM     34  C   UNL     1       3.643   0.119  -6.753  1.00  0.00     0.010 A 
ATOM     35  C   UNL     1       4.194   0.160  -8.047  1.00  0.00    -0.014 A 
BRANCH  35  36
ATOM     36  C   UNL     1       4.253   1.437  -8.796  1.00  0.00     0.031 A 
ATOM     37  C   UNL     1       5.293   2.452  -8.413  1.00  0.00     0.074 A 
ATOM     38  C   UNL     1       3.413   1.672  -9.817  1.00  0.00     0.049 A 
ATOM     39  N   UNL     1       5.506   3.649  -8.897  1.00  0.00    -0.248 NA
ATOM     40  C   UNL     1       6.219   2.065  -7.336  1.00  0.00     0.031 C 
ATOM     41  C   UNL     1       2.394   0.743 -10.300  1.00  0.00     0.029 A 
ATOM     42  N   UNL     1       3.281   2.772 -10.626  1.00  0.00    -0.354 N 
ATOM     43  C   UNL     1       6.579   4.160  -8.178  1.00  0.00     0.074 A 
ATOM     44  C   UNL     1       6.959   3.156  -7.209  1.00  0.00     0.031 C 
ATOM     45  C   UNL     1       1.728   1.318 -11.316  1.00  0.00     0.029 A 
ATOM     46  C   UNL     1       2.255   2.665 -11.531  1.00  0.00     0.049 A 
ATOM     47  H   UNL     1       3.866   3.561 -10.564  1.00  0.00     0.167 HD
ATOM     48  C   UNL     1       7.195   5.358  -8.321  1.00  0.00     0.037 A 
ATOM     49  C   UNL     1       1.782   3.565 -12.415  1.00  0.00     0.037 A 
ATOM     50  C   UNL     1       6.812   6.349  -9.292  1.00  0.00     0.049 A 
ATOM     51  C   UNL     1       2.447   4.912 -12.517  1.00  0.00     0.074 A 
ATOM     52  C   UNL     1       7.379   7.588  -9.532  1.00  0.00     0.029 A 
ATOM     53  N   UNL     1       5.756   6.213 -10.181  1.00  0.00    -0.354 N 
ATOM     54  N   UNL     1       3.474   5.382 -11.850  1.00  0.00    -0.248 NA
ATOM     55  C   UNL     1       1.891   5.854 -13.499  1.00  0.00     0.031 C 
ATOM     56  C   UNL     1       6.637   8.221 -10.534  1.00  0.00     0.029 A 
ATOM     57  C   UNL     1       5.640   7.355 -10.956  1.00  0.00     0.049 A 
ATOM     58  H   UNL     1       5.174   5.421 -10.250  1.00  0.00     0.167 HD
ATOM     59  C   UNL     1       3.706   6.657 -12.349  1.00  0.00     0.074 A 
ATOM     60  C   UNL     1       2.716   6.886 -13.381  1.00  0.00     0.031 C 
ATOM     61  C   UNL     1       4.654   7.556 -11.988  1.00  0.00     0.037 A 
BRANCH  48  62
ATOM     62  C   UNL     1       8.326   5.672  -7.387  1.00  0.00     0.064 A 
ATOM     63  C   UNL     1       9.569   5.030  -7.488  1.00  0.00     0.173 A 
ATOM     64  C   UNL     1       8.171   6.647  -6.389  1.00  0.00     0.173 A 
ATOM     65  F   UNL     1       9.764   4.079  -8.414  1.00  0.00    -0.203 F 
ATOM     66  C   UNL     1      10.606   5.333  -6.609  1.00  0.00     0.198 A 
ATOM     67  C   UNL     1       9.219   6.968  -5.530  1.00  0.00     0.198 A 
ATOM     68  F   UNL     1       7.004   7.293  -6.250  1.00  0.00    -0.203 F 
ATOM     69  F   UNL     1      11.769   4.672  -6.694  1.00  0.00    -0.200 F 
ATOM     70  C   UNL     1      10.433   6.305  -5.636  1.00  0.00     0.200 A 
ATOM     71  F   UNL     1       9.053   7.915  -4.597  1.00  0.00    -0.200 F 
ATOM     72  F   UNL     1      11.433   6.598  -4.793  1.00  0.00    -0.200 F 
ENDBRANCH  48  62
BRANCH  49  73
ATOM     73  C   UNL     1       0.615   3.220 -13.265  1.00  0.00     0.064 A 
ATOM     74  C   UNL     1       0.755   3.029 -14.646  1.00  0.00     0.173 A 
ATOM     75  C   UNL     1      -0.666   3.071 -12.713  1.00  0.00     0.173 A 
ATOM     76  F   UNL     1       1.955   3.184 -15.225  1.00  0.00    -0.203 F 
ATOM     77  C   UNL     1      -0.343   2.713 -15.444  1.00  0.00     0.198 A 
ATOM     78  C   UNL     1      -1.758   2.729 -13.507  1.00  0.00     0.198 A 
ATOM     79  F   UNL     1      -0.854   3.244 -11.396  1.00  0.00    -0.203 F 
ATOM     80  F   UNL     1      -0.188   2.573 -16.768  1.00  0.00    -0.200 F 
ATOM     81  C   UNL     1      -1.597   2.556 -14.873  1.00  0.00     0.200 A 
ATOM     82  F   UNL     1      -2.966   2.566 -12.949  1.00  0.00    -0.200 F 
ATOM     83  F   UNL     1      -2.651   2.244 -15.640  1.00  0.00    -0.200 F 
ENDBRANCH  49  73
BRANCH  61  84
ATOM     84  C   UNL     1       4.698   8.852 -12.742  1.00  0.00     0.064 A 
ATOM     85  C   UNL     1       3.735   9.852 -12.546  1.00  0.00     0.173 A 
ATOM     86  C   UNL     1       5.750   9.116 -13.632  1.00  0.00     0.173 A 
ATOM     87  F   UNL     1       2.703   9.642 -11.715  1.00  0.00    -0.203 F 
ATOM     88  C   UNL     1       3.812  11.062 -13.230  1.00  0.00     0.198 A 
ATOM     89  C   UNL     1       5.840  10.338 -14.293  1.00  0.00     0.198 A 
ATOM     90  F   UNL     1       6.701   8.195 -13.848  1.00  0.00    -0.203 F 
ATOM     91  F   UNL     1       2.860  11.989 -13.059  1.00  0.00    -0.200 F 
ATOM     92  C   UNL     1       4.868  11.307 -14.096  1.00  0.00     0.200 A 
ATOM     93  F   UNL     1       6.868  10.578 -15.119  1.00  0.00    -0.200 F 
ATOM     94  F   UNL     1       4.946  12.477 -14.746  1.00  0.00    -0.200 F 
ENDBRANCH  61  84
ENDBRANCH  35  36
ENDBRANCH  28  30
ENDBRANCH  27  28
ENDBRANCH  26  27
ENDBRANCH  25  26
ENDBRANCH  24  25
ENDBRANCH   1  24
TORSDOF 18
