REMARK SMILES O=C(OCCOCCOC(=O)c1cccn(Cc2ccc3c(c2)OC(F)(F)O3)c1=O)c1ccc(-c2c3nc(c(-c4c(F)c(F)c(F)c(F)c4F)c4ccc([nH]4)c(-c4c(F)c(F)c(F)c(F)c4F)c4nc(c(-c5c(F)c(F)c(F)c(F)c5F)c5ccc2[nH]5)C=C4)C=C3)cc1
REMARK SMILES IDX 6 1 5 2 4 3 3 4 2 5 1 6 31 7 32 8 93 9 33 10 92 11 34 12
REMARK SMILES IDX 35 13 36 14 86 15 37 16 91 17 85 18 87 19 38 20 90 21 84 22
REMARK SMILES IDX 83 23 39 25 71 26 51 27 70 28 52 29 55 30 69 31 88 32 53 33
REMARK SMILES IDX 54 34 68 36 89 37 56 38 40 39 41 40 49 41 42 42 43 43 47 44
REMARK SMILES IDX 50 45 44 46 45 47 48 48 46 49 72 50 73 51 81 52 74 53 75 54
REMARK SMILES IDX 79 55 82 56 76 57 77 58 80 59 78 60 57 61 58 62 66 63 59 64
REMARK SMILES IDX 60 65 64 66 67 67 61 68 62 69 65 70 63 71 7 72 8 73 9 74
REMARK SMILES IDX 10 75 11 76 12 77 13 78 29 79 14 80 16 81 30 82 15 83 17 84
REMARK SMILES IDX 18 85 19 86 23 87 20 88 22 89 21 90 24 91 28 92 25 93 26 94
REMARK SMILES IDX 27 95
REMARK H PARENT 87 24 55 35
REMARK Flexibility Score: inf
ROOT
ATOM      1  O   UNL     1       4.117   0.938  -0.946  1.00  0.00    -0.374 OA
ENDROOT
BRANCH   1   2
ATOM      2  C   UNL     1       4.487  -0.400  -1.271  1.00  0.00     0.202 C 
BRANCH   2   3
ATOM      3  C   UNL     1       4.415  -1.406  -0.127  1.00  0.00     0.261 C 
BRANCH   3   4
ATOM      4  O   UNL     1       3.113  -1.483   0.459  1.00  0.00    -0.460 OA
BRANCH   4   5
ATOM      5  C   UNL     1       2.504  -0.622   1.302  1.00  0.00     0.338 C 
ATOM      6  O   UNL     1       1.320  -0.834   1.565  1.00  0.00    -0.246 OA
BRANCH   5   7
ATOM      7  C   UNL     1       3.145   0.592   1.915  1.00  0.00     0.060 A 
ATOM      8  C   UNL     1       2.284   1.420   2.661  1.00  0.00     0.016 A 
ATOM      9  C   UNL     1       4.477   1.002   1.787  1.00  0.00     0.016 A 
ATOM     10  C   UNL     1       2.725   2.627   3.201  1.00  0.00     0.010 A 
ATOM     11  C   UNL     1       4.922   2.219   2.294  1.00  0.00     0.010 A 
ATOM     12  C   UNL     1       4.045   3.033   3.002  1.00  0.00    -0.014 A 
BRANCH  12  13
ATOM     13  C   UNL     1       4.577   4.224   3.672  1.00  0.00     0.031 A 
ATOM     14  C   UNL     1       4.745   5.511   2.941  1.00  0.00     0.074 A 
ATOM     15  C   UNL     1       4.966   4.067   4.948  1.00  0.00     0.049 A 
ATOM     16  N   UNL     1       5.077   6.681   3.417  1.00  0.00    -0.248 NA
ATOM     17  C   UNL     1       4.535   5.484   1.485  1.00  0.00     0.031 C 
ATOM     18  C   UNL     1       4.924   2.796   5.676  1.00  0.00     0.029 A 
ATOM     19  N   UNL     1       5.467   4.958   5.851  1.00  0.00    -0.354 N 
ATOM     20  C   UNL     1       5.080   7.540   2.329  1.00  0.00     0.074 A 
ATOM     21  C   UNL     1       4.785   6.745   1.156  1.00  0.00     0.031 C 
ATOM     22  C   UNL     1       5.349   2.998   6.930  1.00  0.00     0.029 A 
ATOM     23  C   UNL     1       5.693   4.406   7.085  1.00  0.00     0.049 A 
ATOM     24  H   UNL     1       5.648   5.902   5.638  1.00  0.00     0.167 HD
ATOM     25  C   UNL     1       5.289   8.878   2.338  1.00  0.00     0.037 A 
ATOM     26  C   UNL     1       6.102   4.990   8.224  1.00  0.00     0.037 A 
ATOM     27  C   UNL     1       5.612   9.613   3.536  1.00  0.00     0.049 A 
ATOM     28  C   UNL     1       6.322   6.473   8.212  1.00  0.00     0.074 A 
ATOM     29  C   UNL     1       5.776  10.976   3.698  1.00  0.00     0.029 A 
ATOM     30  N   UNL     1       5.843   9.030   4.778  1.00  0.00    -0.354 N 
ATOM     31  N   UNL     1       6.176   7.316   7.217  1.00  0.00    -0.248 NA
ATOM     32  C   UNL     1       6.749   7.091   9.471  1.00  0.00     0.031 C 
ATOM     33  C   UNL     1       6.165  11.210   5.020  1.00  0.00     0.029 A 
ATOM     34  C   UNL     1       6.193  10.001   5.701  1.00  0.00     0.049 A 
ATOM     35  H   UNL     1       5.768   8.068   4.972  1.00  0.00     0.167 HD
ATOM     36  C   UNL     1       6.491   8.565   7.723  1.00  0.00     0.074 A 
ATOM     37  C   UNL     1       6.808   8.372   9.127  1.00  0.00     0.031 C 
ATOM     38  C   UNL     1       6.524   9.762   7.086  1.00  0.00     0.037 A 
BRANCH  25  39
ATOM     39  C   UNL     1       5.160   9.624   1.040  1.00  0.00     0.064 A 
ATOM     40  C   UNL     1       3.921   9.756   0.393  1.00  0.00     0.173 A 
ATOM     41  C   UNL     1       6.265  10.270   0.466  1.00  0.00     0.173 A 
ATOM     42  F   UNL     1       2.829   9.160   0.896  1.00  0.00    -0.203 F 
ATOM     43  C   UNL     1       3.798  10.483  -0.789  1.00  0.00     0.198 A 
ATOM     44  C   UNL     1       6.133  11.022  -0.701  1.00  0.00     0.198 A 
ATOM     45  F   UNL     1       7.473  10.189   1.044  1.00  0.00    -0.203 F 
ATOM     46  F   UNL     1       2.611  10.562  -1.406  1.00  0.00    -0.200 F 
ATOM     47  C   UNL     1       4.902  11.123  -1.331  1.00  0.00     0.200 A 
ATOM     48  F   UNL     1       7.199  11.654  -1.213  1.00  0.00    -0.200 F 
ATOM     49  F   UNL     1       4.780  11.835  -2.459  1.00  0.00    -0.200 F 
ENDBRANCH  25  39
BRANCH  26  50
ATOM     50  C   UNL     1       6.220   4.161   9.448  1.00  0.00     0.064 A 
ATOM     51  C   UNL     1       5.269   4.260  10.471  1.00  0.00     0.173 A 
ATOM     52  C   UNL     1       7.202   3.164   9.562  1.00  0.00     0.173 A 
ATOM     53  F   UNL     1       4.310   5.196  10.405  1.00  0.00    -0.203 F 
ATOM     54  C   UNL     1       5.291   3.391  11.560  1.00  0.00     0.198 A 
ATOM     55  C   UNL     1       7.208   2.280  10.638  1.00  0.00     0.198 A 
ATOM     56  F   UNL     1       8.120   3.012   8.595  1.00  0.00    -0.203 F 
ATOM     57  F   UNL     1       4.371   3.509  12.527  1.00  0.00    -0.200 F 
ATOM     58  C   UNL     1       6.252   2.394  11.636  1.00  0.00     0.200 A 
ATOM     59  F   UNL     1       8.120   1.300  10.693  1.00  0.00    -0.200 F 
ATOM     60  F   UNL     1       6.252   1.537  12.666  1.00  0.00    -0.200 F 
ENDBRANCH  26  50
BRANCH  38  61
ATOM     61  C   UNL     1       6.958  10.949   7.891  1.00  0.00     0.064 A 
ATOM     62  C   UNL     1       8.304  11.128   8.240  1.00  0.00     0.173 A 
ATOM     63  C   UNL     1       6.046  11.962   8.223  1.00  0.00     0.173 A 
ATOM     64  F   UNL     1       9.207  10.178   7.958  1.00  0.00    -0.203 F 
ATOM     65  C   UNL     1       8.723  12.282   8.894  1.00  0.00     0.198 A 
ATOM     66  C   UNL     1       6.474  13.128   8.849  1.00  0.00     0.198 A 
ATOM     67  F   UNL     1       4.750  11.837   7.903  1.00  0.00    -0.203 F 
ATOM     68  F   UNL     1      10.010  12.424   9.239  1.00  0.00    -0.200 F 
ATOM     69  C   UNL     1       7.811  13.287   9.184  1.00  0.00     0.200 A 
ATOM     70  F   UNL     1       5.597  14.106   9.113  1.00  0.00    -0.200 F 
ATOM     71  F   UNL     1       8.222  14.411   9.787  1.00  0.00    -0.200 F 
ENDBRANCH  38  61
ENDBRANCH  12  13
ENDBRANCH   5   7
ENDBRANCH   4   5
ENDBRANCH   3   4
ENDBRANCH   2   3
ENDBRANCH   1   2
BRANCH   1  72
ATOM     72  C   UNL     1       2.835   1.353  -1.434  1.00  0.00     0.202 C 
BRANCH  72  73
ATOM     73  C   UNL     1       2.927   2.047  -2.796  1.00  0.00     0.261 C 
BRANCH  73  74
ATOM     74  O   UNL     1       3.368   1.106  -3.781  1.00  0.00    -0.459 OA
BRANCH  74  75
ATOM     75  C   UNL     1       4.701   1.057  -4.018  1.00  0.00     0.343 C 
ATOM     76  O   UNL     1       5.544   1.851  -3.619  1.00  0.00    -0.246 OA
BRANCH  75  77
ATOM     77  C   UNL     1       5.019  -0.250  -4.617  1.00  0.00     0.125 A 
ATOM     78  C   UNL     1       6.077  -0.935  -4.143  1.00  0.00     0.023 A 
ATOM     79  C   UNL     1       4.195  -0.841  -5.702  1.00  0.00     0.265 A 
ATOM     80  C   UNL     1       6.372  -2.267  -4.605  1.00  0.00     0.019 A 
ATOM     81  N   UNL     1       4.724  -2.002  -6.275  1.00  0.00    -0.310 N 
ATOM     82  O   UNL     1       3.197  -0.270  -6.133  1.00  0.00    -0.268 OA
ATOM     83  C   UNL     1       5.726  -2.742  -5.674  1.00  0.00     0.089 A 
BRANCH  81  84
ATOM     84  C   UNL     1       4.400  -2.245  -7.674  1.00  0.00     0.161 C 
BRANCH  84  85
ATOM     85  C   UNL     1       5.385  -1.459  -8.529  1.00  0.00    -0.024 A 
ATOM     86  C   UNL     1       6.494  -2.101  -9.123  1.00  0.00     0.010 A 
ATOM     87  C   UNL     1       5.257  -0.060  -8.637  1.00  0.00     0.056 A 
ATOM     88  C   UNL     1       7.444  -1.372  -9.848  1.00  0.00     0.051 A 
ATOM     89  C   UNL     1       6.201   0.629  -9.361  1.00  0.00     0.173 A 
ATOM     90  C   UNL     1       7.259  -0.012  -9.964  1.00  0.00     0.172 A 
ATOM     91  O   UNL     1       6.205   1.970  -9.587  1.00  0.00    -0.395 OA
ATOM     92  O   UNL     1       8.041   0.848 -10.671  1.00  0.00    -0.395 OA
ATOM     93  C   UNL     1       7.216   2.021 -10.600  1.00  0.00     0.586 C 
ATOM     94  F   UNL     1       6.602   2.186 -11.800  1.00  0.00    -0.125 F 
ATOM     95  F   UNL     1       8.002   3.103 -10.390  1.00  0.00    -0.125 F 
ENDBRANCH  84  85
ENDBRANCH  81  84
ENDBRANCH  75  77
ENDBRANCH  74  75
ENDBRANCH  73  74
ENDBRANCH  72  73
ENDBRANCH   1  72
TORSDOF 16
