REMARK SMILES O=C(OCCOCCOC(=O)[C@@H]1CS[C@@H](c2ncc(-c3cccc(Br)c3)s2)[NH2+]1)c1ccc(-c2c3nc(c(-c4c(F)c(F)c(F)c(F)c4F)c4ccc([nH]4)c(-c4c(F)c(F)c(F)c(F)c4F)c4nc(c(-c5c(F)c(F)c(F)c(F)c5F)c5ccc2[nH]5)C=C4)C=C3)cc1
REMARK SMILES IDX 6 1 5 2 4 3 3 4 2 5 1 6 29 7 30 8 91 9 31 10 90 11 32 12
REMARK SMILES IDX 33 13 34 14 84 15 35 16 89 17 83 18 85 19 36 20 88 21 82 22
REMARK SMILES IDX 81 23 37 25 69 26 49 27 68 28 50 29 53 30 67 31 86 32 51 33
REMARK SMILES IDX 52 34 66 36 87 37 54 38 38 39 39 40 47 41 40 42 41 43 45 44
REMARK SMILES IDX 48 45 42 46 43 47 46 48 44 49 70 50 71 51 79 52 72 53 73 54
REMARK SMILES IDX 77 55 80 56 74 57 75 58 78 59 76 60 55 61 56 62 64 63 57 64
REMARK SMILES IDX 58 65 62 66 65 67 59 68 60 69 63 70 61 71 7 72 8 73 9 74
REMARK SMILES IDX 10 75 11 76 12 77 13 78 28 79 14 80 15 81 16 84 17 85 27 86
REMARK SMILES IDX 18 87 19 88 20 89 21 90 26 91 22 92 24 93 23 94 25 95
REMARK H PARENT 85 24 53 35 28 82 28 83
REMARK Flexibility Score: inf
ROOT
ATOM      1  O   UNL     1       3.054  -0.903  -5.909  1.00  0.00    -0.374 OA
ENDROOT
BRANCH   1   2
ATOM      2  C   UNL     1       2.583  -1.211  -4.591  1.00  0.00     0.202 C 
BRANCH   2   3
ATOM      3  C   UNL     1       1.167  -1.798  -4.488  1.00  0.00     0.261 C 
BRANCH   3   4
ATOM      4  O   UNL     1       1.024  -2.973  -5.305  1.00  0.00    -0.460 OA
BRANCH   4   5
ATOM      5  C   UNL     1       0.561  -3.069  -6.573  1.00  0.00     0.338 C 
ATOM      6  O   UNL     1       0.549  -4.170  -7.120  1.00  0.00    -0.246 OA
BRANCH   5   7
ATOM      7  C   UNL     1       0.038  -1.902  -7.343  1.00  0.00     0.060 A 
ATOM      8  C   UNL     1       0.379  -0.573  -7.101  1.00  0.00     0.016 A 
ATOM      9  C   UNL     1      -0.822  -2.172  -8.422  1.00  0.00     0.016 A 
ATOM     10  C   UNL     1      -0.174   0.465  -7.818  1.00  0.00     0.010 A 
ATOM     11  C   UNL     1      -1.361  -1.132  -9.185  1.00  0.00     0.010 A 
ATOM     12  C   UNL     1      -1.059   0.191  -8.851  1.00  0.00    -0.014 A 
BRANCH  12  13
ATOM     13  C   UNL     1      -1.768   1.352  -9.401  1.00  0.00     0.031 A 
ATOM     14  C   UNL     1      -3.152   1.616  -8.899  1.00  0.00     0.074 A 
ATOM     15  C   UNL     1      -1.078   2.252 -10.122  1.00  0.00     0.049 A 
ATOM     16  N   UNL     1      -3.956   2.607  -9.167  1.00  0.00    -0.248 NA
ATOM     17  C   UNL     1      -3.696   0.642  -7.934  1.00  0.00     0.031 C 
ATOM     18  C   UNL     1       0.337   2.130 -10.488  1.00  0.00     0.029 A 
ATOM     19  N   UNL     1      -1.448   3.470 -10.617  1.00  0.00    -0.354 N 
ATOM     20  C   UNL     1      -5.109   2.357  -8.437  1.00  0.00     0.074 A 
ATOM     21  C   UNL     1      -4.905   1.127  -7.708  1.00  0.00     0.031 C 
ATOM     22  C   UNL     1       0.723   3.249 -11.121  1.00  0.00     0.029 A 
ATOM     23  C   UNL     1      -0.432   4.126 -11.268  1.00  0.00     0.049 A 
ATOM     24  H   UNL     1      -2.354   3.841 -10.518  1.00  0.00     0.167 HD
ATOM     25  C   UNL     1      -6.240   3.095  -8.399  1.00  0.00     0.037 A 
ATOM     26  C   UNL     1      -0.460   5.295 -11.930  1.00  0.00     0.037 A 
ATOM     27  C   UNL     1      -6.396   4.319  -9.137  1.00  0.00     0.049 A 
ATOM     28  C   UNL     1      -1.767   6.042 -11.960  1.00  0.00     0.074 A 
ATOM     29  C   UNL     1      -7.509   5.127  -9.255  1.00  0.00     0.029 A 
ATOM     30  N   UNL     1      -5.384   4.908  -9.888  1.00  0.00    -0.354 N 
ATOM     31  N   UNL     1      -2.895   5.761 -11.348  1.00  0.00    -0.248 NA
ATOM     32  C   UNL     1      -1.813   7.256 -12.780  1.00  0.00     0.031 C 
ATOM     33  C   UNL     1      -7.186   6.177 -10.123  1.00  0.00     0.029 A 
ATOM     34  C   UNL     1      -5.853   6.061 -10.491  1.00  0.00     0.049 A 
ATOM     35  H   UNL     1      -4.469   4.556  -9.978  1.00  0.00     0.167 HD
ATOM     36  C   UNL     1      -3.777   6.777 -11.684  1.00  0.00     0.074 A 
ATOM     37  C   UNL     1      -3.043   7.688 -12.542  1.00  0.00     0.031 C 
ATOM     38  C   UNL     1      -5.074   6.946 -11.323  1.00  0.00     0.037 A 
BRANCH  25  39
ATOM     39  C   UNL     1      -7.397   2.533  -7.627  1.00  0.00     0.064 A 
ATOM     40  C   UNL     1      -7.401   2.454  -6.226  1.00  0.00     0.173 A 
ATOM     41  C   UNL     1      -8.501   2.006  -8.315  1.00  0.00     0.173 A 
ATOM     42  F   UNL     1      -6.354   2.909  -5.521  1.00  0.00    -0.203 F 
ATOM     43  C   UNL     1      -8.450   1.838  -5.546  1.00  0.00     0.198 A 
ATOM     44  C   UNL     1      -9.562   1.419  -7.631  1.00  0.00     0.198 A 
ATOM     45  F   UNL     1      -8.543   2.043  -9.655  1.00  0.00    -0.203 F 
ATOM     46  F   UNL     1      -8.399   1.710  -4.213  1.00  0.00    -0.200 F 
ATOM     47  C   UNL     1      -9.530   1.325  -6.248  1.00  0.00     0.200 A 
ATOM     48  F   UNL     1     -10.605   0.925  -8.313  1.00  0.00    -0.200 F 
ATOM     49  F   UNL     1     -10.533   0.723  -5.594  1.00  0.00    -0.200 F 
ENDBRANCH  25  39
BRANCH  26  50
ATOM     50  C   UNL     1       0.747   5.792 -12.643  1.00  0.00     0.064 A 
ATOM     51  C   UNL     1       1.365   6.998 -12.285  1.00  0.00     0.173 A 
ATOM     52  C   UNL     1       1.299   5.078 -13.719  1.00  0.00     0.173 A 
ATOM     53  F   UNL     1       0.869   7.731 -11.277  1.00  0.00    -0.203 F 
ATOM     54  C   UNL     1       2.469   7.480 -12.987  1.00  0.00     0.198 A 
ATOM     55  C   UNL     1       2.422   5.543 -14.399  1.00  0.00     0.198 A 
ATOM     56  F   UNL     1       0.749   3.918 -14.110  1.00  0.00    -0.203 F 
ATOM     57  F   UNL     1       3.006   8.662 -12.657  1.00  0.00    -0.200 F 
ATOM     58  C   UNL     1       3.000   6.750 -14.040  1.00  0.00     0.200 A 
ATOM     59  F   UNL     1       2.939   4.825 -15.405  1.00  0.00    -0.200 F 
ATOM     60  F   UNL     1       4.061   7.214 -14.715  1.00  0.00    -0.200 F 
ENDBRANCH  26  50
BRANCH  38  61
ATOM     61  C   UNL     1      -5.750   8.192 -11.809  1.00  0.00     0.064 A 
ATOM     62  C   UNL     1      -6.100   8.367 -13.155  1.00  0.00     0.173 A 
ATOM     63  C   UNL     1      -6.083   9.207 -10.900  1.00  0.00     0.173 A 
ATOM     64  F   UNL     1      -5.788   7.430 -14.062  1.00  0.00    -0.203 F 
ATOM     65  C   UNL     1      -6.731   9.532 -13.579  1.00  0.00     0.198 A 
ATOM     66  C   UNL     1      -6.748  10.353 -11.322  1.00  0.00     0.198 A 
ATOM     67  F   UNL     1      -5.777   9.079  -9.600  1.00  0.00    -0.203 F 
ATOM     68  F   UNL     1      -7.006   9.706 -14.879  1.00  0.00    -0.200 F 
ATOM     69  C   UNL     1      -7.062  10.519 -12.662  1.00  0.00     0.200 A 
ATOM     70  F   UNL     1      -7.082  11.296 -10.431  1.00  0.00    -0.200 F 
ATOM     71  F   UNL     1      -7.678  11.636 -13.072  1.00  0.00    -0.200 F 
ENDBRANCH  38  61
ENDBRANCH  12  13
ENDBRANCH   5   7
ENDBRANCH   4   5
ENDBRANCH   3   4
ENDBRANCH   2   3
ENDBRANCH   1   2
BRANCH   1  72
ATOM     72  C   UNL     1       3.578  -2.016  -6.647  1.00  0.00     0.202 C 
BRANCH  72  73
ATOM     73  C   UNL     1       5.071  -1.837  -6.902  1.00  0.00     0.261 C 
BRANCH  73  74
ATOM     74  O   UNL     1       5.736  -1.904  -5.633  1.00  0.00    -0.459 OA
BRANCH  74  75
ATOM     75  C   UNL     1       5.917  -0.712  -5.012  1.00  0.00     0.365 C 
ATOM     76  O   UNL     1       5.997   0.372  -5.587  1.00  0.00    -0.245 OA
BRANCH  75  77
ATOM     77  C   UNL     1       6.012  -0.838  -3.490  1.00  0.00     0.304 C 
ATOM     78  C   UNL     1       7.456  -0.850  -3.032  1.00  0.00     0.153 C 
ATOM     79  N   UNL     1       5.288  -1.994  -2.900  1.00  0.00    -0.317 N 
ATOM     80  S   UNL     1       7.852  -2.588  -2.692  1.00  0.00    -0.085 SA
ATOM     81  C   UNL     1       6.158  -3.179  -2.976  1.00  0.00     0.303 C 
ATOM     82  H   UNL     1       4.429  -2.164  -3.422  1.00  0.00     0.348 HD
ATOM     83  H   UNL     1       5.051  -1.797  -1.928  1.00  0.00     0.348 HD
BRANCH  81  84
ATOM     84  C   UNL     1       5.650  -4.285  -2.058  1.00  0.00     0.162 A 
ATOM     85  N   UNL     1       4.688  -5.125  -2.401  1.00  0.00    -0.242 NA
ATOM     86  S   UNL     1       6.213  -4.477  -0.440  1.00  0.00    -0.112 S 
ATOM     87  C   UNL     1       4.421  -6.001  -1.365  1.00  0.00     0.132 A 
ATOM     88  C   UNL     1       5.176  -5.827  -0.222  1.00  0.00     0.055 A 
BRANCH  88  89
ATOM     89  C   UNL     1       5.223  -6.610   1.011  1.00  0.00    -0.006 A 
ATOM     90  C   UNL     1       5.412  -7.999   0.952  1.00  0.00     0.010 A 
ATOM     91  C   UNL     1       5.122  -5.994   2.267  1.00  0.00     0.025 A 
ATOM     92  C   UNL     1       5.533  -8.753   2.122  1.00  0.00     0.002 A 
ATOM     93  C   UNL     1       5.242  -6.753   3.432  1.00  0.00     0.018 A 
ATOM     94  C   UNL     1       5.454  -8.128   3.365  1.00  0.00     0.016 A 
ATOM     95  Br  UNL     1       5.133  -5.901   5.117  1.00  0.00    -0.051 Br
ENDBRANCH  88  89
ENDBRANCH  81  84
ENDBRANCH  75  77
ENDBRANCH  74  75
ENDBRANCH  73  74
ENDBRANCH  72  73
ENDBRANCH   1  72
TORSDOF 16
