REMARK SMILES Cn1ccc(CNC(=O)[C@@H]2[C@@H]3CC[C@@H](C3)[C@@H]2C(=O)OCCOCCOC(=O)c2ccc(-c3c4nc(c(-c5c(F)c(F)c(F)c(F)c5F)c5ccc([nH]5)c(-c5c(F)c(F)c(F)c(F)c5F)c5nc(c(-c6c(F)c(F)c(F)c(F)c6F)c6ccc3[nH]6)C=C5)C=C4)cc2)n1
REMARK SMILES IDX 21 1 20 2 19 3 17 4 18 5 16 6 10 7 11 8 12 9 15 10 14 11
REMARK SMILES IDX 13 12 8 13 7 14 9 16 6 17 5 18 1 19 2 20 3 21 91 22 4 23
REMARK SMILES IDX 22 24 23 25 24 26 25 27 26 28 27 29 28 30 29 31 90 32 30 33
REMARK SMILES IDX 89 34 31 35 32 36 33 37 83 38 34 39 88 40 82 41 84 42 35 43
REMARK SMILES IDX 87 44 81 45 80 46 36 48 68 49 48 50 67 51 49 52 52 53 66 54
REMARK SMILES IDX 85 55 50 56 51 57 65 59 86 60 53 61 37 62 38 63 46 64 39 65
REMARK SMILES IDX 40 66 44 67 47 68 41 69 42 70 45 71 43 72 69 73 70 74 78 75
REMARK SMILES IDX 71 76 72 77 76 78 79 79 73 80 74 81 77 82 75 83 54 84 55 85
REMARK SMILES IDX 63 86 56 87 57 88 61 89 64 90 58 91 59 92 62 93 60 94
REMARK H PARENT 7 15 84 47 52 58
REMARK Flexibility Score: inf
ROOT
ATOM      1  C   UNL     1      -1.815   2.973   3.268  1.00  0.00     0.202 C 
ENDROOT
BRANCH   1   2
ATOM      2  C   UNL     1      -0.767   3.973   3.771  1.00  0.00     0.261 C 
BRANCH   2   3
ATOM      3  O   UNL     1      -0.211   4.754   2.709  1.00  0.00    -0.463 OA
BRANCH   3   4
ATOM      4  C   UNL     1       1.077   4.431   2.390  1.00  0.00     0.310 C 
ATOM      5  O   UNL     1       1.776   3.665   3.032  1.00  0.00    -0.252 OA
BRANCH   4   6
ATOM      6  C   UNL     1       1.467   5.116   1.095  1.00  0.00     0.115 C 
ATOM      7  C   UNL     1       2.775   4.651   0.410  1.00  0.00     0.096 C 
ATOM      8  C   UNL     1       3.604   5.961   0.405  1.00  0.00     0.002 C 
ATOM      9  C   UNL     1       3.970   6.433   1.830  1.00  0.00     0.005 C 
ATOM     10  C   UNL     1       2.519   6.979   0.034  1.00  0.00     0.009 C 
ATOM     11  C   UNL     1       1.660   6.644   1.256  1.00  0.00     0.004 C 
ATOM     12  C   UNL     1       2.641   6.944   2.395  1.00  0.00     0.005 C 
BRANCH   7  13
ATOM     13  C   UNL     1       3.511   3.423   0.937  1.00  0.00     0.224 C 
ATOM     14  N   UNL     1       2.967   2.188   0.772  1.00  0.00    -0.350 N 
ATOM     15  H   UNL     1       3.458   1.460   1.216  1.00  0.00     0.163 HD
ATOM     16  O   UNL     1       4.617   3.498   1.474  1.00  0.00    -0.275 OA
BRANCH  14  17
ATOM     17  C   UNL     1       1.785   1.765   0.051  1.00  0.00     0.174 C 
BRANCH  17  18
ATOM     18  C   UNL     1       2.144   0.679  -0.916  1.00  0.00     0.082 A 
ATOM     19  C   UNL     1       4.335  -0.594  -3.318  1.00  0.00     0.173 C 
ATOM     20  N   UNL     1       3.246  -0.355  -2.402  1.00  0.00    -0.275 N 
ATOM     21  C   UNL     1       2.255  -1.222  -2.052  1.00  0.00     0.108 A 
ATOM     22  N   UNL     1       3.170   0.827  -1.768  1.00  0.00    -0.176 NA
ATOM     23  C   UNL     1       1.519  -0.582  -1.082  1.00  0.00     0.047 A 
ENDBRANCH  17  18
ENDBRANCH  14  17
ENDBRANCH   7  13
ENDBRANCH   4   6
ENDBRANCH   3   4
ENDBRANCH   2   3
ENDBRANCH   1   2
BRANCH   1  24
ATOM     24  O   UNL     1      -1.501   2.136   2.159  1.00  0.00    -0.374 OA
BRANCH  24  25
ATOM     25  C   UNL     1      -1.456   2.708   0.855  1.00  0.00     0.202 C 
BRANCH  25  26
ATOM     26  C   UNL     1      -2.737   3.201   0.179  1.00  0.00     0.261 C 
BRANCH  26  27
ATOM     27  O   UNL     1      -3.363   4.279   0.880  1.00  0.00    -0.460 OA
BRANCH  27  28
ATOM     28  C   UNL     1      -4.487   3.932   1.546  1.00  0.00     0.338 C 
ATOM     29  O   UNL     1      -5.021   2.833   1.597  1.00  0.00    -0.246 OA
BRANCH  28  30
ATOM     30  C   UNL     1      -4.889   5.057   2.397  1.00  0.00     0.060 A 
ATOM     31  C   UNL     1      -5.001   4.839   3.778  1.00  0.00     0.016 A 
ATOM     32  C   UNL     1      -5.197   6.293   1.831  1.00  0.00     0.016 A 
ATOM     33  C   UNL     1      -5.465   5.857   4.602  1.00  0.00     0.010 A 
ATOM     34  C   UNL     1      -5.679   7.305   2.655  1.00  0.00     0.010 A 
ATOM     35  C   UNL     1      -5.848   7.076   4.033  1.00  0.00    -0.014 A 
BRANCH  35  36
ATOM     36  C   UNL     1      -6.620   8.054   4.824  1.00  0.00     0.031 A 
ATOM     37  C   UNL     1      -8.107   8.094   4.628  1.00  0.00     0.074 A 
ATOM     38  C   UNL     1      -6.003   8.900   5.663  1.00  0.00     0.049 A 
ATOM     39  N   UNL     1      -8.977   8.974   5.045  1.00  0.00    -0.248 NA
ATOM     40  C   UNL     1      -8.689   6.994   3.839  1.00  0.00     0.031 C 
ATOM     41  C   UNL     1      -4.572   8.904   5.961  1.00  0.00     0.029 A 
ATOM     42  N   UNL     1      -6.506   9.946   6.393  1.00  0.00    -0.354 N 
ATOM     43  C   UNL     1     -10.204   8.542   4.559  1.00  0.00     0.074 A 
ATOM     44  C   UNL     1      -9.966   7.343   3.789  1.00  0.00     0.031 C 
ATOM     45  C   UNL     1      -4.304   9.932   6.784  1.00  0.00     0.029 A 
ATOM     46  C   UNL     1      -5.535  10.680   7.029  1.00  0.00     0.049 A 
ATOM     47  H   UNL     1      -7.467  10.150   6.456  1.00  0.00     0.167 HD
ATOM     48  C   UNL     1     -11.422   9.099   4.753  1.00  0.00     0.037 A 
ATOM     49  C   UNL     1      -5.635  11.850   7.688  1.00  0.00     0.037 A 
ATOM     50  C   UNL     1     -11.636  10.298   5.516  1.00  0.00     0.049 A 
ATOM     51  C   UNL     1      -6.991  12.500   7.813  1.00  0.00     0.074 A 
ATOM     52  C   UNL     1     -12.822  10.964   5.764  1.00  0.00     0.029 A 
ATOM     53  N   UNL     1     -10.631  11.011   6.154  1.00  0.00    -0.354 N 
ATOM     54  N   UNL     1      -8.151  12.095   7.353  1.00  0.00    -0.248 NA
ATOM     55  C   UNL     1      -7.054  13.770   8.549  1.00  0.00     0.031 C 
ATOM     56  C   UNL     1     -12.528  12.106   6.515  1.00  0.00     0.029 A 
ATOM     57  C   UNL     1     -11.169  12.117   6.788  1.00  0.00     0.049 A 
ATOM     58  H   UNL     1      -9.677  10.767   6.155  1.00  0.00     0.167 HD
ATOM     59  C   UNL     1      -9.083  13.033   7.780  1.00  0.00     0.074 A 
ATOM     60  C   UNL     1      -8.354  14.027   8.539  1.00  0.00     0.031 C 
ATOM     61  C   UNL     1     -10.421  13.070   7.568  1.00  0.00     0.037 A 
BRANCH  48  62
ATOM     62  C   UNL     1     -12.604   8.428   4.119  1.00  0.00     0.064 A 
ATOM     63  C   UNL     1     -13.077   7.189   4.576  1.00  0.00     0.173 A 
ATOM     64  C   UNL     1     -13.298   9.048   3.069  1.00  0.00     0.173 A 
ATOM     65  F   UNL     1     -12.438   6.545   5.565  1.00  0.00    -0.203 F 
ATOM     66  C   UNL     1     -14.188   6.586   3.993  1.00  0.00     0.198 A 
ATOM     67  C   UNL     1     -14.428   8.457   2.510  1.00  0.00     0.198 A 
ATOM     68  F   UNL     1     -12.887  10.233   2.593  1.00  0.00    -0.203 F 
ATOM     69  F   UNL     1     -14.594   5.381   4.417  1.00  0.00    -0.200 F 
ATOM     70  C   UNL     1     -14.868   7.225   2.968  1.00  0.00     0.200 A 
ATOM     71  F   UNL     1     -15.091   9.082   1.527  1.00  0.00    -0.200 F 
ATOM     72  F   UNL     1     -15.946   6.650   2.416  1.00  0.00    -0.200 F 
ENDBRANCH  48  62
BRANCH  49  73
ATOM     73  C   UNL     1      -4.422  12.504   8.245  1.00  0.00     0.064 A 
ATOM     74  C   UNL     1      -4.258  12.668   9.628  1.00  0.00     0.173 A 
ATOM     75  C   UNL     1      -3.418  13.014   7.407  1.00  0.00     0.173 A 
ATOM     76  F   UNL     1      -5.198  12.216  10.471  1.00  0.00    -0.203 F 
ATOM     77  C   UNL     1      -3.159  13.350  10.148  1.00  0.00     0.198 A 
ATOM     78  C   UNL     1      -2.302  13.664   7.930  1.00  0.00     0.198 A 
ATOM     79  F   UNL     1      -3.521  12.881   6.076  1.00  0.00    -0.203 F 
ATOM     80  F   UNL     1      -3.063  13.551  11.469  1.00  0.00    -0.200 F 
ATOM     81  C   UNL     1      -2.180  13.844   9.299  1.00  0.00     0.200 A 
ATOM     82  F   UNL     1      -1.352  14.126   7.106  1.00  0.00    -0.200 F 
ATOM     83  F   UNL     1      -1.127  14.504   9.799  1.00  0.00    -0.200 F 
ENDBRANCH  49  73
BRANCH  61  84
ATOM     84  C   UNL     1     -11.200  14.173   8.224  1.00  0.00     0.064 A 
ATOM     85  C   UNL     1     -11.130  15.499   7.774  1.00  0.00     0.173 A 
ATOM     86  C   UNL     1     -12.089  13.877   9.269  1.00  0.00     0.173 A 
ATOM     87  F   UNL     1     -10.286  15.834   6.787  1.00  0.00    -0.203 F 
ATOM     88  C   UNL     1     -11.911  16.492   8.359  1.00  0.00     0.198 A 
ATOM     89  C   UNL     1     -12.892  14.865   9.829  1.00  0.00     0.198 A 
ATOM     90  F   UNL     1     -12.199  12.621   9.728  1.00  0.00    -0.203 F 
ATOM     91  F   UNL     1     -11.802  17.760   7.941  1.00  0.00    -0.200 F 
ATOM     92  C   UNL     1     -12.799  16.173   9.377  1.00  0.00     0.200 A 
ATOM     93  F   UNL     1     -13.762  14.551  10.798  1.00  0.00    -0.200 F 
ATOM     94  F   UNL     1     -13.564  17.127   9.924  1.00  0.00    -0.200 F 
ENDBRANCH  61  84
ENDBRANCH  35  36
ENDBRANCH  28  30
ENDBRANCH  27  28
ENDBRANCH  26  27
ENDBRANCH  25  26
ENDBRANCH  24  25
ENDBRANCH   1  24
TORSDOF 17
