REMARK SMILES Cc1ccc(C2=NN(C(=O)CCC(=O)OCCOCCOC(=O)c3ccc(-c4c5nc(c(-c6c(F)c(F)c(F)c(F)c6F)c6ccc([nH]6)c(-c6c(F)c(F)c(F)c(F)c6F)c6nc(c(-c7c(F)c(F)c(F)c(F)c7F)c7ccc4[nH]7)C=C6)C=C5)cc3)[C@H](C[C@H]3C=c4cccc(C)c4=NC3=O)C2)cc1
REMARK SMILES IDX 16 1 15 2 13 3 14 4 12 5 11 6 9 7 10 8 8 9 6 10 7 11 101 12
REMARK SMILES IDX 87 13 5 14 1 15 2 16 3 17 103 18 4 19 102 20 88 21 89 22
REMARK SMILES IDX 90 23 99 24 91 25 98 26 100 27 92 28 97 29 93 30 95 31 94 32
REMARK SMILES IDX 96 33 17 34 18 35 19 36 20 37 21 38 22 39 23 40 24 41 25 42
REMARK SMILES IDX 86 43 26 44 85 45 27 46 28 47 29 48 79 49 30 50 84 51 78 52
REMARK SMILES IDX 80 53 31 54 83 55 77 56 76 57 32 59 64 60 44 61 63 62 45 63
REMARK SMILES IDX 48 64 62 65 81 66 46 67 47 68 61 70 82 71 49 72 33 73 34 74
REMARK SMILES IDX 42 75 35 76 36 77 40 78 43 79 37 80 38 81 41 82 39 83 65 84
REMARK SMILES IDX 66 85 74 86 67 87 68 88 72 89 75 90 69 91 70 92 73 93 71 94
REMARK SMILES IDX 50 95 51 96 59 97 52 98 53 99 57 100 60 101 54 102 55 103
REMARK SMILES IDX 58 104 56 105
REMARK H PARENT 80 58 48 69
REMARK Flexibility Score: inf
ROOT
ATOM      1  C   UNL     1      -7.813   2.499  -0.836  1.00  0.00     0.261 C 
ENDROOT
BRANCH   1   2
ATOM      2  O   UNL     1      -7.606   1.645   0.270  1.00  0.00    -0.463 OA
BRANCH   2   3
ATOM      3  C   UNL     1      -8.599   1.674   1.169  1.00  0.00     0.306 C 
ATOM      4  O   UNL     1      -9.568   2.440   1.139  1.00  0.00    -0.252 OA
BRANCH   3   5
ATOM      5  C   UNL     1      -8.367   0.668   2.244  1.00  0.00     0.132 C 
BRANCH   5   6
ATOM      6  C   UNL     1      -7.638  -0.597   1.819  1.00  0.00     0.114 C 
BRANCH   6   7
ATOM      7  C   UNL     1      -6.087  -0.646   1.629  1.00  0.00     0.243 C 
ATOM      8  O   UNL     1      -5.484  -0.853   2.698  1.00  0.00    -0.273 OA
BRANCH   7   9
ATOM      9  N   UNL     1      -5.362  -0.676   0.387  1.00  0.00    -0.230 N 
ATOM     10  C   UNL     1      -3.231  -0.903  -0.234  1.00  0.00     0.070 C 
ATOM     11  N   UNL     1      -4.089  -1.395   0.587  1.00  0.00    -0.174 NA
ATOM     12  C   UNL     1      -3.854   0.079  -1.174  1.00  0.00     0.086 C 
ATOM     13  C   UNL     1      -5.454   0.013  -1.322  1.00  0.00     0.118 C 
BRANCH  10  14
ATOM     14  C   UNL     1      -1.688  -0.989  -0.223  1.00  0.00    -0.002 A 
ATOM     15  C   UNL     1       2.649  -0.407   0.098  1.00  0.00     0.044 C 
ATOM     16  C   UNL     1       1.167  -0.643  -0.010  1.00  0.00    -0.051 A 
ATOM     17  C   UNL     1       0.533  -1.850   0.339  1.00  0.00     0.004 A 
ATOM     18  C   UNL     1       0.379   0.362  -0.535  1.00  0.00     0.004 A 
ATOM     19  C   UNL     1      -0.887  -2.014   0.268  1.00  0.00     0.010 A 
ATOM     20  C   UNL     1      -0.995   0.158  -0.673  1.00  0.00     0.010 A 
ENDBRANCH  10  14
BRANCH  13  21
ATOM     21  C   UNL     1      -6.603  -0.812  -2.849  1.00  0.00     0.045 C 
BRANCH  21  22
ATOM     22  C   UNL     1      -7.123  -2.713  -2.940  1.00  0.00     0.106 C 
ATOM     23  C   UNL     1      -6.829  -3.789  -1.716  1.00  0.00    -0.003 C 
ATOM     24  C   UNL     1      -8.593  -3.024  -3.396  1.00  0.00     0.253 C 
ATOM     25  C   UNL     1      -7.795  -4.273  -0.920  1.00  0.00    -0.003 A 
ATOM     26  N   UNL     1      -9.373  -4.013  -2.771  1.00  0.00    -0.212 NA
ATOM     27  O   UNL     1      -9.057  -2.360  -4.325  1.00  0.00    -0.272 OA
ATOM     28  C   UNL     1      -7.746  -4.434   0.537  1.00  0.00     0.010 A 
ATOM     29  C   UNL     1      -9.037  -4.559  -1.645  1.00  0.00     0.077 A 
ATOM     30  C   UNL     1      -8.733  -5.079   1.176  1.00  0.00     0.001 A 
ATOM     31  C   UNL     1      -9.791  -5.679  -0.942  1.00  0.00    -0.025 A 
ATOM     32  C   UNL     1      -9.650  -5.866   0.389  1.00  0.00     0.005 A 
ATOM     33  C   UNL     1     -10.392  -6.732  -1.805  1.00  0.00     0.047 C 
ENDBRANCH  21  22
ENDBRANCH  13  21
ENDBRANCH   7   9
ENDBRANCH   6   7
ENDBRANCH   5   6
ENDBRANCH   3   5
ENDBRANCH   2   3
ENDBRANCH   1   2
BRANCH   1  34
ATOM     34  C   UNL     1      -8.171   1.746  -2.082  1.00  0.00     0.202 C 
BRANCH  34  35
ATOM     35  O   UNL     1      -9.019   0.631  -1.951  1.00  0.00    -0.374 OA
BRANCH  35  36
ATOM     36  C   UNL     1      -8.697  -0.703  -1.464  1.00  0.00     0.202 C 
BRANCH  36  37
ATOM     37  C   UNL     1      -7.157  -1.400  -0.953  1.00  0.00     0.261 C 
BRANCH  37  38
ATOM     38  O   UNL     1      -5.480  -1.881  -1.771  1.00  0.00    -0.460 OA
BRANCH  38  39
ATOM     39  C   UNL     1      -4.436  -1.408  -3.061  1.00  0.00     0.338 C 
ATOM     40  O   UNL     1      -3.657  -2.284  -3.432  1.00  0.00    -0.246 OA
BRANCH  39  41
ATOM     41  C   UNL     1      -4.217   0.308  -3.759  1.00  0.00     0.060 A 
ATOM     42  C   UNL     1      -3.069   1.121  -3.474  1.00  0.00     0.016 A 
ATOM     43  C   UNL     1      -5.238   1.185  -4.143  1.00  0.00     0.016 A 
ATOM     44  C   UNL     1      -3.194   2.458  -2.849  1.00  0.00     0.010 A 
ATOM     45  C   UNL     1      -5.348   2.527  -3.624  1.00  0.00     0.010 A 
ATOM     46  C   UNL     1      -4.425   3.100  -2.734  1.00  0.00    -0.014 A 
BRANCH  46  47
ATOM     47  C   UNL     1      -4.902   4.209  -1.746  1.00  0.00     0.031 A 
ATOM     48  C   UNL     1      -5.717   5.400  -2.298  1.00  0.00     0.074 A 
ATOM     49  C   UNL     1      -4.978   4.103  -0.355  1.00  0.00     0.049 A 
ATOM     50  N   UNL     1      -6.270   6.328  -1.573  1.00  0.00    -0.248 NA
ATOM     51  C   UNL     1      -5.961   5.656  -3.717  1.00  0.00     0.031 C 
ATOM     52  C   UNL     1      -6.105   4.680   0.443  1.00  0.00     0.029 A 
ATOM     53  N   UNL     1      -4.350   3.327   0.653  1.00  0.00    -0.354 N 
ATOM     54  C   UNL     1      -7.171   7.045  -2.331  1.00  0.00     0.074 A 
ATOM     55  C   UNL     1      -6.829   6.680  -3.683  1.00  0.00     0.031 C 
ATOM     56  C   UNL     1      -6.066   4.303   1.723  1.00  0.00     0.029 A 
ATOM     57  C   UNL     1      -4.779   3.720   1.968  1.00  0.00     0.049 A 
ATOM     58  H   UNL     1      -3.701   2.609   0.474  1.00  0.00     0.167 HD
ATOM     59  C   UNL     1      -8.145   7.802  -1.726  1.00  0.00     0.037 A 
ATOM     60  C   UNL     1      -4.017   4.112   3.051  1.00  0.00     0.037 A 
ATOM     61  C   UNL     1      -7.995   7.833  -0.263  1.00  0.00     0.049 A 
ATOM     62  C   UNL     1      -4.132   5.595   3.276  1.00  0.00     0.074 A 
ATOM     63  C   UNL     1      -8.716   7.365   0.823  1.00  0.00     0.029 A 
ATOM     64  N   UNL     1      -6.815   8.330   0.263  1.00  0.00    -0.354 N 
ATOM     65  N   UNL     1      -5.179   6.321   3.023  1.00  0.00    -0.248 NA
ATOM     66  C   UNL     1      -2.932   6.373   3.578  1.00  0.00     0.031 C 
ATOM     67  C   UNL     1      -7.911   7.544   1.997  1.00  0.00     0.029 A 
ATOM     68  C   UNL     1      -6.740   8.190   1.637  1.00  0.00     0.049 A 
ATOM     69  H   UNL     1      -6.105   8.739  -0.282  1.00  0.00     0.167 HD
ATOM     70  C   UNL     1      -4.745   7.603   2.842  1.00  0.00     0.074 A 
ATOM     71  C   UNL     1      -3.334   7.585   3.196  1.00  0.00     0.031 C 
ATOM     72  C   UNL     1      -5.508   8.596   2.305  1.00  0.00     0.037 A 
BRANCH  59  73
ATOM     73  C   UNL     1      -9.310   8.522  -2.410  1.00  0.00     0.064 A 
ATOM     74  C   UNL     1     -10.080   9.484  -1.705  1.00  0.00     0.173 A 
ATOM     75  C   UNL     1      -9.762   8.279  -3.723  1.00  0.00     0.173 A 
ATOM     76  F   UNL     1      -9.786   9.816  -0.440  1.00  0.00    -0.203 F 
ATOM     77  C   UNL     1     -11.182  10.145  -2.272  1.00  0.00     0.198 A 
ATOM     78  C   UNL     1     -10.828   8.981  -4.307  1.00  0.00     0.198 A 
ATOM     79  F   UNL     1      -9.232   7.314  -4.482  1.00  0.00    -0.203 F 
ATOM     80  F   UNL     1     -11.891  11.015  -1.538  1.00  0.00    -0.200 F 
ATOM     81  C   UNL     1     -11.544   9.906  -3.580  1.00  0.00     0.200 A 
ATOM     82  F   UNL     1     -11.165   8.733  -5.582  1.00  0.00    -0.200 F 
ATOM     83  F   UNL     1     -12.583  10.549  -4.132  1.00  0.00    -0.200 F 
ENDBRANCH  59  73
BRANCH  60  84
ATOM     84  C   UNL     1      -2.706   3.451   3.380  1.00  0.00     0.064 A 
ATOM     85  C   UNL     1      -2.842   2.229   4.052  1.00  0.00     0.173 A 
ATOM     86  C   UNL     1      -1.790   3.537   2.337  1.00  0.00     0.173 A 
ATOM     87  F   UNL     1      -3.449   2.162   5.243  1.00  0.00    -0.203 F 
ATOM     88  C   UNL     1      -2.635   1.085   3.336  1.00  0.00     0.198 A 
ATOM     89  C   UNL     1      -1.724   2.436   1.540  1.00  0.00     0.198 A 
ATOM     90  F   UNL     1      -1.479   4.723   1.793  1.00  0.00    -0.203 F 
ATOM     91  F   UNL     1      -3.107  -0.089   3.768  1.00  0.00    -0.200 F 
ATOM     92  C   UNL     1      -2.358   1.288   2.005  1.00  0.00     0.200 A 
ATOM     93  F   UNL     1      -1.583   2.663   0.223  1.00  0.00    -0.200 F 
ATOM     94  F   UNL     1      -3.336   0.869   1.210  1.00  0.00    -0.200 F 
ENDBRANCH  60  84
BRANCH  72  95
ATOM     95  C   UNL     1      -5.001  10.014   2.322  1.00  0.00     0.064 A 
ATOM     96  C   UNL     1      -4.188  10.487   3.374  1.00  0.00     0.173 A 
ATOM     97  C   UNL     1      -5.340  10.967   1.347  1.00  0.00     0.173 A 
ATOM     98  F   UNL     1      -3.953   9.739   4.463  1.00  0.00    -0.203 F 
ATOM     99  C   UNL     1      -3.591  11.741   3.343  1.00  0.00     0.198 A 
ATOM    100  C   UNL     1      -4.814  12.258   1.368  1.00  0.00     0.198 A 
ATOM    101  F   UNL     1      -6.173  10.688   0.337  1.00  0.00    -0.203 F 
ATOM    102  F   UNL     1      -2.707  12.076   4.293  1.00  0.00    -0.200 F 
ATOM    103  C   UNL     1      -3.904  12.629   2.337  1.00  0.00     0.200 A 
ATOM    104  F   UNL     1      -5.185  13.136   0.426  1.00  0.00    -0.200 F 
ATOM    105  F   UNL     1      -3.344  13.844   2.312  1.00  0.00    -0.200 F 
ENDBRANCH  72  95
ENDBRANCH  46  47
ENDBRANCH  39  41
ENDBRANCH  38  39
ENDBRANCH  37  38
ENDBRANCH  36  37
ENDBRANCH  35  36
ENDBRANCH  34  35
ENDBRANCH   1  34
TORSDOF 20
