REMARK SMILES O=C(OCCOCCOC(=O)[C@H]1Cc2[nH]cnc2CN1C(=O)c1ccncc1Cl)c1ccc(-c2c3nc(c(-c4c(F)c(F)c(F)c(F)c4F)c4ccc([nH]4)c(-c4c(F)c(F)c(F)c(F)c4F)c4nc(c(-c5c(F)c(F)c(F)c(F)c5F)c5ccc2[nH]5)C=C4)C=C3)cc1
REMARK SMILES IDX 6 1 5 2 4 3 3 4 2 5 1 6 30 7 31 8 92 9 32 10 91 11 33 12
REMARK SMILES IDX 34 13 35 14 85 15 36 16 90 17 84 18 86 19 37 20 89 21 83 22
REMARK SMILES IDX 82 23 38 25 70 26 50 27 69 28 51 29 54 30 68 31 87 32 52 33
REMARK SMILES IDX 53 34 67 36 88 37 55 38 39 39 40 40 48 41 41 42 42 43 46 44
REMARK SMILES IDX 49 45 43 46 44 47 47 48 45 49 71 50 72 51 80 52 73 53 74 54
REMARK SMILES IDX 78 55 81 56 75 57 76 58 79 59 77 60 56 61 57 62 65 63 58 64
REMARK SMILES IDX 59 65 63 66 66 67 60 68 61 69 64 70 62 71 7 72 8 73 9 74
REMARK SMILES IDX 10 75 11 76 12 77 13 78 20 79 14 80 19 81 15 82 18 83 16 84
REMARK SMILES IDX 17 86 21 87 22 88 23 89 24 90 28 91 25 92 27 93 29 94 26 95
REMARK H PARENT 86 24 54 35 15 85
REMARK Flexibility Score: inf
ROOT
ATOM      1  O   UNL     1       3.880  -0.653  -0.864  1.00  0.00    -0.374 OA
ENDROOT
BRANCH   1   2
ATOM      2  C   UNL     1       3.913  -1.242   0.443  1.00  0.00     0.202 C 
BRANCH   2   3
ATOM      3  C   UNL     1       3.943  -0.241   1.595  1.00  0.00     0.261 C 
BRANCH   3   4
ATOM      4  O   UNL     1       2.657   0.296   1.932  1.00  0.00    -0.460 OA
BRANCH   4   5
ATOM      5  C   UNL     1       1.754   0.372   0.929  1.00  0.00     0.338 C 
ATOM      6  O   UNL     1       0.840  -0.420   0.769  1.00  0.00    -0.246 OA
BRANCH   5   7
ATOM      7  C   UNL     1       1.813   1.698   0.295  1.00  0.00     0.060 A 
ATOM      8  C   UNL     1       3.021   2.380   0.102  1.00  0.00     0.016 A 
ATOM      9  C   UNL     1       0.585   2.319   0.072  1.00  0.00     0.016 A 
ATOM     10  C   UNL     1       3.000   3.745  -0.047  1.00  0.00     0.010 A 
ATOM     11  C   UNL     1       0.560   3.680  -0.122  1.00  0.00     0.010 A 
ATOM     12  C   UNL     1       1.764   4.385  -0.070  1.00  0.00    -0.014 A 
BRANCH  12  13
ATOM     13  C   UNL     1       1.766   5.831  -0.086  1.00  0.00     0.031 A 
ATOM     14  C   UNL     1       2.306   6.411  -1.339  1.00  0.00     0.074 A 
ATOM     15  C   UNL     1       1.223   6.527   0.929  1.00  0.00     0.049 A 
ATOM     16  N   UNL     1       3.313   7.209  -1.480  1.00  0.00    -0.248 NA
ATOM     17  C   UNL     1       1.746   5.921  -2.610  1.00  0.00     0.031 C 
ATOM     18  C   UNL     1       0.469   6.010   2.076  1.00  0.00     0.029 A 
ATOM     19  N   UNL     1       1.126   7.871   1.088  1.00  0.00    -0.354 N 
ATOM     20  C   UNL     1       3.394   7.474  -2.844  1.00  0.00     0.074 A 
ATOM     21  C   UNL     1       2.523   6.535  -3.501  1.00  0.00     0.031 C 
ATOM     22  C   UNL     1      -0.214   7.024   2.653  1.00  0.00     0.029 A 
ATOM     23  C   UNL     1       0.158   8.266   2.002  1.00  0.00     0.049 A 
ATOM     24  H   UNL     1       1.692   8.511   0.598  1.00  0.00     0.167 HD
ATOM     25  C   UNL     1       3.976   8.613  -3.303  1.00  0.00     0.037 A 
ATOM     26  C   UNL     1      -0.357   9.515   2.117  1.00  0.00     0.037 A 
ATOM     27  C   UNL     1       4.854   9.186  -2.317  1.00  0.00     0.049 A 
ATOM     28  C   UNL     1       0.590  10.447   1.449  1.00  0.00     0.074 A 
ATOM     29  C   UNL     1       6.002   8.757  -1.681  1.00  0.00     0.029 A 
ATOM     30  N   UNL     1       4.386  10.241  -1.573  1.00  0.00    -0.354 N 
ATOM     31  N   UNL     1       1.784  10.712   1.905  1.00  0.00    -0.248 NA
ATOM     32  C   UNL     1       0.394  10.704   0.028  1.00  0.00     0.031 C 
ATOM     33  C   UNL     1       5.893   9.250  -0.349  1.00  0.00     0.029 A 
ATOM     34  C   UNL     1       4.722  10.004  -0.266  1.00  0.00     0.049 A 
ATOM     35  H   UNL     1       3.897  11.024  -1.917  1.00  0.00     0.167 HD
ATOM     36  C   UNL     1       2.592  10.751   0.777  1.00  0.00     0.074 A 
ATOM     37  C   UNL     1       1.669  10.815  -0.354  1.00  0.00     0.031 C 
ATOM     38  C   UNL     1       3.916  10.429   0.852  1.00  0.00     0.037 A 
BRANCH  25  39
ATOM     39  C   UNL     1       3.449   9.407  -4.470  1.00  0.00     0.064 A 
ATOM     40  C   UNL     1       4.196  10.502  -4.945  1.00  0.00     0.173 A 
ATOM     41  C   UNL     1       2.112   9.337  -4.924  1.00  0.00     0.173 A 
ATOM     42  F   UNL     1       5.470  10.677  -4.563  1.00  0.00    -0.203 F 
ATOM     43  C   UNL     1       3.620  11.495  -5.742  1.00  0.00     0.198 A 
ATOM     44  C   UNL     1       1.558  10.300  -5.762  1.00  0.00     0.198 A 
ATOM     45  F   UNL     1       1.256   8.407  -4.486  1.00  0.00    -0.203 F 
ATOM     46  F   UNL     1       4.329  12.587  -6.058  1.00  0.00    -0.200 F 
ATOM     47  C   UNL     1       2.300  11.398  -6.143  1.00  0.00     0.200 A 
ATOM     48  F   UNL     1       0.271  10.196  -6.123  1.00  0.00    -0.200 F 
ATOM     49  F   UNL     1       1.727  12.380  -6.848  1.00  0.00    -0.200 F 
ENDBRANCH  25  39
BRANCH  26  50
ATOM     50  C   UNL     1      -1.758   9.890   2.431  1.00  0.00     0.064 A 
ATOM     51  C   UNL     1      -2.088  11.203   2.800  1.00  0.00     0.173 A 
ATOM     52  C   UNL     1      -2.837   9.039   2.117  1.00  0.00     0.173 A 
ATOM     53  F   UNL     1      -1.119  12.091   3.068  1.00  0.00    -0.203 F 
ATOM     54  C   UNL     1      -3.416  11.644   2.834  1.00  0.00     0.198 A 
ATOM     55  C   UNL     1      -4.161   9.477   2.160  1.00  0.00     0.198 A 
ATOM     56  F   UNL     1      -2.628   7.793   1.669  1.00  0.00    -0.203 F 
ATOM     57  F   UNL     1      -3.688  12.923   3.131  1.00  0.00    -0.200 F 
ATOM     58  C   UNL     1      -4.450  10.784   2.505  1.00  0.00     0.200 A 
ATOM     59  F   UNL     1      -5.149   8.644   1.802  1.00  0.00    -0.200 F 
ATOM     60  F   UNL     1      -5.716  11.222   2.479  1.00  0.00    -0.200 F 
ENDBRANCH  26  50
BRANCH  38  61
ATOM     61  C   UNL     1       4.524  10.276   2.218  1.00  0.00     0.064 A 
ATOM     62  C   UNL     1       4.139   9.290   3.143  1.00  0.00     0.173 A 
ATOM     63  C   UNL     1       5.639  11.060   2.538  1.00  0.00     0.173 A 
ATOM     64  F   UNL     1       3.151   8.431   2.865  1.00  0.00    -0.203 F 
ATOM     65  C   UNL     1       4.814   9.131   4.353  1.00  0.00     0.198 A 
ATOM     66  C   UNL     1       6.335  10.874   3.728  1.00  0.00     0.198 A 
ATOM     67  F   UNL     1       6.087  11.976   1.665  1.00  0.00    -0.203 F 
ATOM     68  F   UNL     1       4.420   8.190   5.224  1.00  0.00    -0.200 F 
ATOM     69  C   UNL     1       5.916   9.918   4.640  1.00  0.00     0.200 A 
ATOM     70  F   UNL     1       7.431  11.602   3.978  1.00  0.00    -0.200 F 
ATOM     71  F   UNL     1       6.593   9.738   5.783  1.00  0.00    -0.200 F 
ENDBRANCH  38  61
ENDBRANCH  12  13
ENDBRANCH   5   7
ENDBRANCH   4   5
ENDBRANCH   3   4
ENDBRANCH   2   3
ENDBRANCH   1   2
BRANCH   1  72
ATOM     72  C   UNL     1       2.857  -1.157  -1.741  1.00  0.00     0.202 C 
BRANCH  72  73
ATOM     73  C   UNL     1       2.957  -2.627  -2.178  1.00  0.00     0.261 C 
BRANCH  73  74
ATOM     74  O   UNL     1       3.469  -3.439  -1.119  1.00  0.00    -0.462 OA
BRANCH  74  75
ATOM     75  C   UNL     1       4.752  -3.889  -1.271  1.00  0.00     0.329 C 
ATOM     76  O   UNL     1       5.319  -4.011  -2.335  1.00  0.00    -0.250 OA
BRANCH  75  77
ATOM     77  C   UNL     1       5.285  -4.310   0.108  1.00  0.00     0.201 C 
ATOM     78  C   UNL     1       4.954  -5.835   0.124  1.00  0.00     0.093 C 
ATOM     79  N   UNL     1       6.682  -4.010   0.631  1.00  0.00    -0.318 N 
ATOM     80  C   UNL     1       5.447  -6.428   1.376  1.00  0.00     0.042 A 
ATOM     81  C   UNL     1       6.938  -4.492   2.021  1.00  0.00     0.179 C 
ATOM     82  N   UNL     1       5.165  -7.649   1.906  1.00  0.00    -0.348 N 
ATOM     83  C   UNL     1       6.345  -5.838   2.228  1.00  0.00     0.081 A 
ATOM     84  C   UNL     1       5.892  -7.747   3.062  1.00  0.00     0.197 A 
ATOM     85  H   UNL     1       4.559  -8.328   1.531  1.00  0.00     0.167 HD
ATOM     86  N   UNL     1       6.599  -6.660   3.292  1.00  0.00    -0.240 NA
BRANCH  79  87
ATOM     87  C   UNL     1       7.593  -3.009   0.249  1.00  0.00     0.256 C 
ATOM     88  O   UNL     1       8.581  -2.722   0.928  1.00  0.00    -0.269 OA
BRANCH  87  89
ATOM     89  C   UNL     1       7.479  -2.253  -1.002  1.00  0.00     0.061 A 
ATOM     90  C   UNL     1       7.781  -2.895  -2.202  1.00  0.00     0.035 A 
ATOM     91  C   UNL     1       7.278  -0.872  -0.998  1.00  0.00     0.072 A 
ATOM     92  C   UNL     1       7.696  -2.161  -3.373  1.00  0.00     0.112 A 
ATOM     93  C   UNL     1       7.197  -0.231  -2.225  1.00  0.00     0.132 A 
ATOM     94  Cl  UNL     1       7.197   0.081   0.434  1.00  0.00    -0.082 Cl
ATOM     95  N   UNL     1       7.380  -0.848  -3.415  1.00  0.00    -0.263 NA
ENDBRANCH  87  89
ENDBRANCH  79  87
ENDBRANCH  75  77
ENDBRANCH  74  75
ENDBRANCH  73  74
ENDBRANCH  72  73
ENDBRANCH   1  72
TORSDOF 16
