REMARK SMILES O=C(OCCOCCOC(=O)c1cc(NC(=O)c2cc([N+](=O)[O-])ccc2N2CCCC2)ccc1Cl)c1ccc(-c2c3nc(c(-c4c(F)c(F)c(F)c(F)c4F)c4ccc([nH]4)c(-c4c(F)c(F)c(F)c(F)c4F)c4nc(c(-c5c(F)c(F)c(F)c(F)c5F)c5ccc2[nH]5)C=C4)C=C3)cc1
REMARK SMILES IDX 7 1 6 2 5 3 4 4 3 5 2 6 1 7 36 8 37 9 98 10 38 11 97 12
REMARK SMILES IDX 39 13 40 14 41 15 91 16 42 17 96 18 90 19 92 20 43 21 95 22
REMARK SMILES IDX 89 23 88 24 44 26 76 27 56 28 75 29 57 30 60 31 74 32 93 33
REMARK SMILES IDX 58 34 59 35 73 37 94 38 61 39 45 40 46 41 54 42 47 43 48 44
REMARK SMILES IDX 52 45 55 46 49 47 50 48 53 49 51 50 77 51 78 52 86 53 79 54
REMARK SMILES IDX 80 55 84 56 87 57 81 58 82 59 85 60 83 61 62 62 63 63 71 64
REMARK SMILES IDX 64 65 65 66 69 67 72 68 66 69 67 70 70 71 68 72 8 73 9 74
REMARK SMILES IDX 10 75 11 76 12 77 13 78 34 79 14 80 33 81 35 82 32 83 15 84
REMARK SMILES IDX 16 85 17 87 18 88 19 89 26 90 20 91 25 92 24 93 27 94 28 95
REMARK SMILES IDX 31 96 29 97 30 98 21 99 22 100 23 101
REMARK H PARENT 92 25 60 36 15 86
REMARK Flexibility Score: inf
ROOT
ATOM      1  C   UNL     1       2.410   0.027   2.872  1.00  0.00     0.202 C 
ENDROOT
BRANCH   1   2
ATOM      2  O   UNL     1       3.579   0.046   2.050  1.00  0.00    -0.374 OA
BRANCH   2   3
ATOM      3  C   UNL     1       3.586   1.065   1.059  1.00  0.00     0.202 C 
BRANCH   3   4
ATOM      4  C   UNL     1       3.070   0.591  -0.305  1.00  0.00     0.261 C 
BRANCH   4   5
ATOM      5  O   UNL     1       1.740   0.051  -0.179  1.00  0.00    -0.460 OA
BRANCH   5   6
ATOM      6  C   UNL     1       1.358  -1.188  -0.577  1.00  0.00     0.338 C 
ATOM      7  O   UNL     1       0.179  -1.426  -0.816  1.00  0.00    -0.246 OA
BRANCH   6   8
ATOM      8  C   UNL     1       2.357  -2.283  -0.708  1.00  0.00     0.060 A 
ATOM      9  C   UNL     1       3.493  -2.347   0.095  1.00  0.00     0.016 A 
ATOM     10  C   UNL     1       2.110  -3.336  -1.595  1.00  0.00     0.016 A 
ATOM     11  C   UNL     1       4.431  -3.347  -0.045  1.00  0.00     0.010 A 
ATOM     12  C   UNL     1       2.987  -4.425  -1.650  1.00  0.00     0.010 A 
ATOM     13  C   UNL     1       4.147  -4.434  -0.862  1.00  0.00    -0.014 A 
BRANCH  13  14
ATOM     14  C   UNL     1       5.062  -5.587  -0.808  1.00  0.00     0.031 A 
ATOM     15  C   UNL     1       5.863  -5.945  -2.013  1.00  0.00     0.074 A 
ATOM     16  C   UNL     1       5.208  -6.242   0.361  1.00  0.00     0.049 A 
ATOM     17  N   UNL     1       6.591  -7.005  -2.230  1.00  0.00    -0.248 NA
ATOM     18  C   UNL     1       5.836  -4.986  -3.128  1.00  0.00     0.031 C 
ATOM     19  C   UNL     1       4.539  -5.887   1.619  1.00  0.00     0.029 A 
ATOM     20  N   UNL     1       5.984  -7.317   0.699  1.00  0.00    -0.354 N 
ATOM     21  C   UNL     1       7.065  -6.870  -3.526  1.00  0.00     0.074 A 
ATOM     22  C   UNL     1       6.556  -5.619  -4.043  1.00  0.00     0.031 C 
ATOM     23  C   UNL     1       4.973  -6.695   2.596  1.00  0.00     0.029 A 
ATOM     24  C   UNL     1       5.856  -7.693   2.014  1.00  0.00     0.049 A 
ATOM     25  H   UNL     1       6.576  -7.777   0.060  1.00  0.00     0.167 HD
ATOM     26  C   UNL     1       7.838  -7.741  -4.214  1.00  0.00     0.037 A 
ATOM     27  C   UNL     1       6.356  -8.762   2.659  1.00  0.00     0.037 A 
ATOM     28  C   UNL     1       8.341  -8.964  -3.648  1.00  0.00     0.049 A 
ATOM     29  C   UNL     1       7.173  -9.734   1.857  1.00  0.00     0.074 A 
ATOM     30  C   UNL     1       9.076  -9.966  -4.252  1.00  0.00     0.029 A 
ATOM     31  N   UNL     1       8.166  -9.338  -2.319  1.00  0.00    -0.354 N 
ATOM     32  N   UNL     1       7.528  -9.668   0.596  1.00  0.00    -0.248 NA
ATOM     33  C   UNL     1       7.632 -10.941   2.551  1.00  0.00     0.031 C 
ATOM     34  C   UNL     1       9.320 -10.960  -3.297  1.00  0.00     0.029 A 
ATOM     35  C   UNL     1       8.774 -10.558  -2.086  1.00  0.00     0.049 A 
ATOM     36  H   UNL     1       7.681  -8.811  -1.644  1.00  0.00     0.167 HD
ATOM     37  C   UNL     1       8.255 -10.818   0.343  1.00  0.00     0.074 A 
ATOM     38  C   UNL     1       8.314 -11.553   1.593  1.00  0.00     0.031 C 
ATOM     39  C   UNL     1       8.814 -11.242  -0.818  1.00  0.00     0.037 A 
BRANCH  26  40
ATOM     40  C   UNL     1       8.102  -7.430  -5.656  1.00  0.00     0.064 A 
ATOM     41  C   UNL     1       8.966  -6.399  -6.052  1.00  0.00     0.173 A 
ATOM     42  C   UNL     1       7.450  -8.161  -6.661  1.00  0.00     0.173 A 
ATOM     43  F   UNL     1       9.591  -5.651  -5.131  1.00  0.00    -0.203 F 
ATOM     44  C   UNL     1       9.146  -6.093  -7.400  1.00  0.00     0.198 A 
ATOM     45  C   UNL     1       7.651  -7.870  -8.007  1.00  0.00     0.198 A 
ATOM     46  F   UNL     1       6.606  -9.152  -6.337  1.00  0.00    -0.203 F 
ATOM     47  F   UNL     1       9.930  -5.066  -7.755  1.00  0.00    -0.200 F 
ATOM     48  C   UNL     1       8.491  -6.831  -8.376  1.00  0.00     0.200 A 
ATOM     49  F   UNL     1       7.018  -8.584  -8.948  1.00  0.00    -0.200 F 
ATOM     50  F   UNL     1       8.657  -6.529  -9.671  1.00  0.00    -0.200 F 
ENDBRANCH  26  40
BRANCH  27  51
ATOM     51  C   UNL     1       6.039  -8.994   4.094  1.00  0.00     0.064 A 
ATOM     52  C   UNL     1       7.042  -8.968   5.072  1.00  0.00     0.173 A 
ATOM     53  C   UNL     1       4.724  -9.243   4.521  1.00  0.00     0.173 A 
ATOM     54  F   UNL     1       8.317  -8.757   4.717  1.00  0.00    -0.203 F 
ATOM     55  C   UNL     1       6.745  -9.195   6.416  1.00  0.00     0.198 A 
ATOM     56  C   UNL     1       4.423  -9.435   5.867  1.00  0.00     0.198 A 
ATOM     57  F   UNL     1       3.722  -9.280   3.629  1.00  0.00    -0.203 F 
ATOM     58  F   UNL     1       7.730  -9.210   7.324  1.00  0.00    -0.200 F 
ATOM     59  C   UNL     1       5.435  -9.420   6.813  1.00  0.00     0.200 A 
ATOM     60  F   UNL     1       3.153  -9.634   6.247  1.00  0.00    -0.200 F 
ATOM     61  F   UNL     1       5.150  -9.631   8.106  1.00  0.00    -0.200 F 
ENDBRANCH  27  51
BRANCH  39  62
ATOM     62  C   UNL     1       9.559 -12.539  -0.764  1.00  0.00     0.064 A 
ATOM     63  C   UNL     1       8.884 -13.766  -0.702  1.00  0.00     0.173 A 
ATOM     64  C   UNL     1      10.960 -12.550  -0.814  1.00  0.00     0.173 A 
ATOM     65  F   UNL     1       7.545 -13.799  -0.632  1.00  0.00    -0.203 F 
ATOM     66  C   UNL     1       9.591 -14.963  -0.674  1.00  0.00     0.198 A 
ATOM     67  C   UNL     1      11.661 -13.749  -0.812  1.00  0.00     0.198 A 
ATOM     68  F   UNL     1      11.643 -11.397  -0.876  1.00  0.00    -0.203 F 
ATOM     69  F   UNL     1       8.932 -16.125  -0.573  1.00  0.00    -0.200 F 
ATOM     70  C   UNL     1      10.978 -14.954  -0.737  1.00  0.00     0.200 A 
ATOM     71  F   UNL     1      12.999 -13.741  -0.882  1.00  0.00    -0.200 F 
ATOM     72  F   UNL     1      11.656 -16.109  -0.717  1.00  0.00    -0.200 F 
ENDBRANCH  39  62
ENDBRANCH  13  14
ENDBRANCH   6   8
ENDBRANCH   5   6
ENDBRANCH   4   5
ENDBRANCH   3   4
ENDBRANCH   2   3
ENDBRANCH   1   2
BRANCH   1  73
ATOM     73  C   UNL     1       2.825   0.351   4.302  1.00  0.00     0.261 C 
BRANCH  73  74
ATOM     74  O   UNL     1       3.463   1.641   4.312  1.00  0.00    -0.460 OA
BRANCH  74  75
ATOM     75  C   UNL     1       4.819   1.649   4.301  1.00  0.00     0.339 C 
ATOM     76  O   UNL     1       5.570   0.689   4.344  1.00  0.00    -0.246 OA
BRANCH  75  77
ATOM     77  C   UNL     1       5.285   3.028   4.056  1.00  0.00     0.080 A 
ATOM     78  C   UNL     1       6.285   3.212   3.070  1.00  0.00     0.043 A 
ATOM     79  C   UNL     1       4.765   4.127   4.752  1.00  0.00     0.055 A 
ATOM     80  C   UNL     1       6.729   4.496   2.760  1.00  0.00     0.042 A 
ATOM     81  C   UNL     1       5.221   5.406   4.446  1.00  0.00     0.023 A 
ATOM     82  Cl  UNL     1       3.610   4.000   6.032  1.00  0.00    -0.083 Cl
ATOM     83  C   UNL     1       6.199   5.584   3.468  1.00  0.00     0.028 A 
BRANCH  80  84
ATOM     84  N   UNL     1       7.702   4.821   1.805  1.00  0.00    -0.322 N 
ATOM     85  C   UNL     1       8.265   4.178   0.736  1.00  0.00     0.258 C 
ATOM     86  H   UNL     1       8.067   5.726   1.934  1.00  0.00     0.170 HD
ATOM     87  O   UNL     1       9.252   4.683   0.197  1.00  0.00    -0.269 OA
BRANCH  85  88
ATOM     88  C   UNL     1       7.732   2.949   0.129  1.00  0.00     0.070 A 
ATOM     89  C   UNL     1       8.615   1.853   0.123  1.00  0.00     0.101 A 
ATOM     90  C   UNL     1       6.522   2.929  -0.601  1.00  0.00     0.050 A 
ATOM     91  C   UNL     1       8.282   0.705  -0.596  1.00  0.00     0.270 A 
ATOM     92  C   UNL     1       6.232   1.756  -1.323  1.00  0.00     0.034 A 
ATOM     93  C   UNL     1       7.090   0.648  -1.321  1.00  0.00     0.088 A 
BRANCH  90  94
ATOM     94  N   UNL     1       5.646   3.981  -0.686  1.00  0.00    -0.371 N 
ATOM     95  C   UNL     1       5.934   5.218  -1.390  1.00  0.00     0.116 C 
ATOM     96  C   UNL     1       4.410   4.066   0.072  1.00  0.00     0.116 C 
ATOM     97  C   UNL     1       5.214   6.259  -0.539  1.00  0.00     0.023 C 
ATOM     98  C   UNL     1       3.988   5.528  -0.011  1.00  0.00     0.023 C 
ENDBRANCH  90  94
BRANCH  91  99
ATOM     99  N   UNL     1       9.207  -0.433  -0.628  1.00  0.00     0.062 N 
ATOM    100  O   UNL     1      10.370  -0.240  -0.251  1.00  0.00    -0.258 OA
ATOM    101  O   UNL     1       8.761  -1.518  -1.029  1.00  0.00    -0.258 OA
ENDBRANCH  91  99
ENDBRANCH  85  88
ENDBRANCH  80  84
ENDBRANCH  75  77
ENDBRANCH  74  75
ENDBRANCH  73  74
ENDBRANCH   1  73
TORSDOF 18
