REMARK SMILES Cc1c(C)c2c(c(C)c1O)CC[C@@](C)(C(=O)OCCOCCOC(=O)c1ccc(-c3c4nc(c(-c5c(F)c(F)c(F)c(F)c5F)c5ccc([nH]5)c(-c5c(F)c(F)c(F)c(F)c5F)c5nc(c(-c6c(F)c(F)c(F)c(F)c6F)c6ccc3[nH]6)C=C5)C=C4)cc1)O2
REMARK SMILES IDX 21 1 20 2 19 3 18 4 17 5 15 6 16 7 13 8 1 9 2 10 3 11 9 12
REMARK SMILES IDX 4 13 5 14 7 15 6 16 89 17 8 18 11 19 12 20 14 21 10 22 22 24
REMARK SMILES IDX 23 25 24 26 25 27 26 28 27 29 88 30 28 31 87 32 29 33 30 34
REMARK SMILES IDX 31 35 81 36 32 37 86 38 80 39 82 40 33 41 85 42 79 43 78 44
REMARK SMILES IDX 34 46 66 47 46 48 65 49 47 50 50 51 64 52 83 53 48 54 49 55
REMARK SMILES IDX 63 57 84 58 51 59 35 60 36 61 44 62 37 63 38 64 42 65 45 66
REMARK SMILES IDX 39 67 40 68 43 69 41 70 67 71 68 72 76 73 69 74 70 75 74 76
REMARK SMILES IDX 77 77 71 78 72 79 75 80 73 81 52 82 53 83 61 84 54 85 55 86
REMARK SMILES IDX 59 87 62 88 56 89 57 90 60 91 58 92
REMARK H PARENT 10 23 82 45 50 56
REMARK Flexibility Score: inf
ROOT
ATOM      1  C   UNL     1      -0.281  -8.094  -0.205  1.00  0.00     0.202 C 
ENDROOT
BRANCH   1   2
ATOM      2  O   UNL     1       0.705  -9.072  -0.535  1.00  0.00    -0.374 OA
BRANCH   2   3
ATOM      3  C   UNL     1       1.338  -9.759   0.541  1.00  0.00     0.202 C 
BRANCH   3   4
ATOM      4  C   UNL     1       2.432  -9.003   1.298  1.00  0.00     0.261 C 
BRANCH   4   5
ATOM      5  O   UNL     1       1.916  -7.864   2.012  1.00  0.00    -0.460 OA
BRANCH   5   6
ATOM      6  C   UNL     1       2.295  -6.654   1.506  1.00  0.00     0.350 C 
ATOM      7  O   UNL     1       3.071  -6.525   0.563  1.00  0.00    -0.247 OA
BRANCH   6   8
ATOM      8  C   UNL     1       1.685  -5.471   2.276  1.00  0.00     0.203 C 
ATOM      9  C   UNL     1       0.847   0.171   0.051  1.00  0.00     0.049 C 
ATOM     10  C   UNL     1       0.526  -0.999   0.948  1.00  0.00    -0.002 A 
ATOM     11  C   UNL     1       1.068  -2.266   0.638  1.00  0.00    -0.002 A 
ATOM     12  C   UNL     1      -0.286  -0.881   2.091  1.00  0.00     0.122 A 
ATOM     13  C   UNL     1       1.889  -2.471  -0.616  1.00  0.00     0.049 C 
ATOM     14  C   UNL     1       0.870  -3.338   1.527  1.00  0.00     0.127 A 
ATOM     15  C   UNL     1      -0.546  -1.976   2.940  1.00  0.00    -0.002 A 
ATOM     16  C   UNL     1       0.021  -3.231   2.637  1.00  0.00     0.001 A 
ATOM     17  O   UNL     1       1.570  -4.476   1.244  1.00  0.00    -0.475 OA
ATOM     18  C   UNL     1      -1.420  -1.815   4.159  1.00  0.00     0.049 C 
ATOM     19  C   UNL     1      -0.250  -4.444   3.495  1.00  0.00     0.044 C 
ATOM     20  C   UNL     1       0.302  -5.726   2.874  1.00  0.00     0.065 C 
ATOM     21  C   UNL     1       2.730  -5.060   3.321  1.00  0.00     0.069 C 
BRANCH  12  22
ATOM     22  O   UNL     1      -0.867   0.311   2.434  1.00  0.00    -0.507 OA
ATOM     23  H   UNL     1      -0.727   1.071   1.904  1.00  0.00     0.293 HD
ENDBRANCH  12  22
ENDBRANCH   6   8
ENDBRANCH   5   6
ENDBRANCH   4   5
ENDBRANCH   3   4
ENDBRANCH   2   3
ENDBRANCH   1   2
BRANCH   1  24
ATOM     24  C   UNL     1      -1.646  -8.628   0.247  1.00  0.00     0.261 C 
BRANCH  24  25
ATOM     25  O   UNL     1      -1.566  -9.313   1.514  1.00  0.00    -0.460 OA
BRANCH  25  26
ATOM     26  C   UNL     1      -1.865 -10.632   1.464  1.00  0.00     0.338 C 
ATOM     27  O   UNL     1      -2.290 -11.264   0.506  1.00  0.00    -0.246 OA
BRANCH  26  28
ATOM     28  C   UNL     1      -1.435 -11.300   2.705  1.00  0.00     0.060 A 
ATOM     29  C   UNL     1      -0.547 -12.376   2.582  1.00  0.00     0.016 A 
ATOM     30  C   UNL     1      -1.957 -10.950   3.952  1.00  0.00     0.016 A 
ATOM     31  C   UNL     1      -0.219 -13.142   3.697  1.00  0.00     0.010 A 
ATOM     32  C   UNL     1      -1.637 -11.729   5.071  1.00  0.00     0.010 A 
ATOM     33  C   UNL     1      -0.799 -12.852   4.939  1.00  0.00    -0.014 A 
BRANCH  33  34
ATOM     34  C   UNL     1      -0.655 -13.833   6.043  1.00  0.00     0.031 A 
ATOM     35  C   UNL     1      -1.743 -14.850   6.254  1.00  0.00     0.074 A 
ATOM     36  C   UNL     1       0.459 -13.871   6.793  1.00  0.00     0.049 A 
ATOM     37  N   UNL     1      -1.810 -15.826   7.124  1.00  0.00    -0.248 NA
ATOM     38  C   UNL     1      -2.909 -14.760   5.360  1.00  0.00     0.031 C 
ATOM     39  C   UNL     1       1.604 -12.976   6.647  1.00  0.00     0.029 A 
ATOM     40  N   UNL     1       0.813 -14.709   7.822  1.00  0.00    -0.354 N 
ATOM     41  C   UNL     1      -3.012 -16.472   6.872  1.00  0.00     0.074 A 
ATOM     42  C   UNL     1      -3.665 -15.756   5.797  1.00  0.00     0.031 C 
ATOM     43  C   UNL     1       2.541 -13.319   7.548  1.00  0.00     0.029 A 
ATOM     44  C   UNL     1       2.051 -14.439   8.350  1.00  0.00     0.049 A 
ATOM     45  H   UNL     1       0.234 -15.435   8.149  1.00  0.00     0.167 HD
ATOM     46  C   UNL     1      -3.518 -17.576   7.470  1.00  0.00     0.037 A 
ATOM     47  C   UNL     1       2.708 -15.028   9.369  1.00  0.00     0.037 A 
ATOM     48  C   UNL     1      -2.874 -18.288   8.540  1.00  0.00     0.049 A 
ATOM     49  C   UNL     1       2.076 -16.191  10.088  1.00  0.00     0.074 A 
ATOM     50  C   UNL     1      -3.310 -19.418   9.208  1.00  0.00     0.029 A 
ATOM     51  N   UNL     1      -1.657 -17.933   9.101  1.00  0.00    -0.354 N 
ATOM     52  N   UNL     1       0.945 -16.803   9.835  1.00  0.00    -0.248 NA
ATOM     53  C   UNL     1       2.810 -16.742  11.237  1.00  0.00     0.031 C 
ATOM     54  C   UNL     1      -2.378 -19.721  10.206  1.00  0.00     0.029 A 
ATOM     55  C   UNL     1      -1.340 -18.807  10.128  1.00  0.00     0.049 A 
ATOM     56  H   UNL     1      -1.101 -17.174   8.813  1.00  0.00     0.167 HD
ATOM     57  C   UNL     1       0.841 -17.820  10.775  1.00  0.00     0.074 A 
ATOM     58  C   UNL     1       2.030 -17.752  11.599  1.00  0.00     0.031 C 
ATOM     59  C   UNL     1      -0.151 -18.729  10.938  1.00  0.00     0.037 A 
BRANCH  46  60
ATOM     60  C   UNL     1      -4.843 -18.083   6.984  1.00  0.00     0.064 A 
ATOM     61  C   UNL     1      -4.965 -18.744   5.753  1.00  0.00     0.173 A 
ATOM     62  C   UNL     1      -5.990 -17.959   7.782  1.00  0.00     0.173 A 
ATOM     63  F   UNL     1      -3.900 -18.877   4.949  1.00  0.00    -0.203 F 
ATOM     64  C   UNL     1      -6.192 -19.249   5.332  1.00  0.00     0.198 A 
ATOM     65  C   UNL     1      -7.210 -18.486   7.368  1.00  0.00     0.198 A 
ATOM     66  F   UNL     1      -5.923 -17.338   8.969  1.00  0.00    -0.203 F 
ATOM     67  F   UNL     1      -6.294 -19.849   4.137  1.00  0.00    -0.200 F 
ATOM     68  C   UNL     1      -7.311 -19.127   6.143  1.00  0.00     0.200 A 
ATOM     69  F   UNL     1      -8.287 -18.378   8.158  1.00  0.00    -0.200 F 
ATOM     70  F   UNL     1      -8.489 -19.625   5.741  1.00  0.00    -0.200 F 
ENDBRANCH  46  60
BRANCH  47  71
ATOM     71  C   UNL     1       4.050 -14.529   9.765  1.00  0.00     0.064 A 
ATOM     72  C   UNL     1       5.201 -15.293   9.533  1.00  0.00     0.173 A 
ATOM     73  C   UNL     1       4.210 -13.277  10.378  1.00  0.00     0.173 A 
ATOM     74  F   UNL     1       5.096 -16.508   8.974  1.00  0.00    -0.203 F 
ATOM     75  C   UNL     1       6.462 -14.827   9.901  1.00  0.00     0.198 A 
ATOM     76  C   UNL     1       5.473 -12.801  10.724  1.00  0.00     0.198 A 
ATOM     77  F   UNL     1       3.139 -12.509  10.626  1.00  0.00    -0.203 F 
ATOM     78  F   UNL     1       7.543 -15.590   9.696  1.00  0.00    -0.200 F 
ATOM     79  C   UNL     1       6.597 -13.578  10.489  1.00  0.00     0.200 A 
ATOM     80  F   UNL     1       5.600 -11.590  11.283  1.00  0.00    -0.200 F 
ATOM     81  F   UNL     1       7.810 -13.125  10.834  1.00  0.00    -0.200 F 
ENDBRANCH  47  71
BRANCH  59  82
ATOM     82  C   UNL     1      -0.003 -19.738  12.039  1.00  0.00     0.064 A 
ATOM     83  C   UNL     1      -0.198 -19.386  13.381  1.00  0.00     0.173 A 
ATOM     84  C   UNL     1       0.240 -21.087  11.740  1.00  0.00     0.173 A 
ATOM     85  F   UNL     1      -0.422 -18.107  13.718  1.00  0.00    -0.203 F 
ATOM     86  C   UNL     1      -0.149 -20.348  14.387  1.00  0.00     0.198 A 
ATOM     87  C   UNL     1       0.263 -22.050  12.744  1.00  0.00     0.198 A 
ATOM     88  F   UNL     1       0.424 -21.476  10.469  1.00  0.00    -0.203 F 
ATOM     89  F   UNL     1      -0.316 -19.986  15.666  1.00  0.00    -0.200 F 
ATOM     90  C   UNL     1       0.070 -21.680  14.067  1.00  0.00     0.200 A 
ATOM     91  F   UNL     1       0.460 -23.339  12.432  1.00  0.00    -0.200 F 
ATOM     92  F   UNL     1       0.095 -22.608  15.034  1.00  0.00    -0.200 F 
ENDBRANCH  59  82
ENDBRANCH  33  34
ENDBRANCH  26  28
ENDBRANCH  25  26
ENDBRANCH  24  25
ENDBRANCH   1  24
TORSDOF 15
