REMARK SMILES CC1=C(CC(=O)OCCOCCOC(=O)c2ccc(-c3c4nc(c(-c5c(F)c(F)c(F)c(F)c5F)c5ccc([nH]5)c(-c5c(F)c(F)c(F)c(F)c5F)c5nc(c(-c6c(F)c(F)c(F)c(F)c6F)c6ccc3[nH]6)C=C5)C=C4)cc2)c2cc(F)ccc2/C1=C\c1cccc(OCc2ccccc2)c1
REMARK SMILES IDX 8 1 7 2 5 3 6 4 4 5 3 6 1 7 2 8 86 9 79 10 85 11 87 12 80 13
REMARK SMILES IDX 84 14 81 15 83 16 82 17 88 18 89 19 101 20 90 21 92 22 91 23
REMARK SMILES IDX 93 24 94 25 95 26 96 27 100 28 97 29 99 30 98 31 9 32 10 33
REMARK SMILES IDX 11 34 12 35 13 36 14 37 15 38 16 39 17 40 78 41 18 42 77 43
REMARK SMILES IDX 19 44 20 45 21 46 71 47 22 48 76 49 70 50 72 51 23 52 75 53
REMARK SMILES IDX 69 54 68 55 24 57 56 58 36 59 55 60 37 61 40 62 54 63 73 64
REMARK SMILES IDX 38 65 39 66 53 68 74 69 41 70 25 71 26 72 34 73 27 74 28 75
REMARK SMILES IDX 32 76 35 77 29 78 30 79 33 80 31 81 57 82 58 83 66 84 59 85
REMARK SMILES IDX 60 86 64 87 67 88 61 89 62 90 65 91 63 92 42 93 43 94 51 95
REMARK SMILES IDX 44 96 45 97 49 98 52 99 46 100 47 101 50 102 48 103
REMARK H PARENT 72 56 40 67
REMARK Flexibility Score: inf
ROOT
ATOM      1  C   UNL     1       3.679  -3.761   2.518  1.00  0.00     0.261 C 
ENDROOT
BRANCH   1   2
ATOM      2  O   UNL     1       2.505  -2.962   2.267  1.00  0.00    -0.463 OA
BRANCH   2   3
ATOM      3  C   UNL     1       1.596  -3.517   1.418  1.00  0.00     0.310 C 
ATOM      4  O   UNL     1       1.750  -4.596   0.853  1.00  0.00    -0.252 OA
BRANCH   3   5
ATOM      5  C   UNL     1       0.316  -2.711   1.213  1.00  0.00     0.159 C 
BRANCH   5   6
ATOM      6  C   UNL     1       0.138  -1.408   1.926  1.00  0.00    -0.025 C 
ATOM      7  C   UNL     1       1.114   0.206   0.212  1.00  0.00     0.045 C 
ATOM      8  C   UNL     1       0.482  -0.164   1.515  1.00  0.00    -0.039 C 
ATOM      9  C   UNL     1       0.053   0.828   2.516  1.00  0.00    -0.014 C 
ATOM     10  C   UNL     1      -0.609  -1.263   3.192  1.00  0.00    -0.011 A 
ATOM     11  C   UNL     1      -0.625   0.086   3.591  1.00  0.00    -0.010 A 
ATOM     12  C   UNL     1       0.214   2.158   2.394  1.00  0.00     0.017 C 
ATOM     13  C   UNL     1      -1.257  -2.224   3.956  1.00  0.00     0.048 A 
ATOM     14  C   UNL     1      -1.209   0.470   4.793  1.00  0.00     0.012 A 
ATOM     15  C   UNL     1      -1.840  -1.830   5.160  1.00  0.00     0.123 A 
ATOM     16  C   UNL     1      -1.805  -0.505   5.592  1.00  0.00     0.040 A 
ATOM     17  F   UNL     1      -2.400  -2.757   5.949  1.00  0.00    -0.207 F 
BRANCH  12  18
ATOM     18  C   UNL     1      -0.324   3.187   3.287  1.00  0.00    -0.021 A 
ATOM     19  C   UNL     1       0.364   3.596   4.430  1.00  0.00     0.008 A 
ATOM     20  C   UNL     1      -1.565   3.764   2.979  1.00  0.00     0.054 A 
ATOM     21  C   UNL     1      -0.199   4.560   5.267  1.00  0.00     0.004 A 
ATOM     22  C   UNL     1      -2.100   4.778   3.770  1.00  0.00     0.120 A 
ATOM     23  C   UNL     1      -1.421   5.151   4.933  1.00  0.00     0.046 A 
BRANCH  22  24
ATOM     24  O   UNL     1      -3.248   5.478   3.517  1.00  0.00    -0.489 OA
BRANCH  24  25
ATOM     25  C   UNL     1      -3.921   5.283   2.265  1.00  0.00     0.265 C 
BRANCH  25  26
ATOM     26  C   UNL     1      -3.195   5.901   1.088  1.00  0.00    -0.011 A 
ATOM     27  C   UNL     1      -2.996   7.286   1.021  1.00  0.00     0.007 A 
ATOM     28  C   UNL     1      -2.691   5.097   0.053  1.00  0.00     0.007 A 
ATOM     29  C   UNL     1      -2.283   7.849  -0.040  1.00  0.00     0.000 A 
ATOM     30  C   UNL     1      -1.956   5.657  -0.992  1.00  0.00     0.000 A 
ATOM     31  C   UNL     1      -1.751   7.033  -1.038  1.00  0.00     0.000 A 
ENDBRANCH  25  26
ENDBRANCH  24  25
ENDBRANCH  22  24
ENDBRANCH  12  18
ENDBRANCH   5   6
ENDBRANCH   3   5
ENDBRANCH   2   3
ENDBRANCH   1   2
BRANCH   1  32
ATOM     32  C   UNL     1       3.881  -4.150   3.990  1.00  0.00     0.202 C 
BRANCH  32  33
ATOM     33  O   UNL     1       2.810  -4.791   4.674  1.00  0.00    -0.374 OA
BRANCH  33  34
ATOM     34  C   UNL     1       1.614  -4.048   4.887  1.00  0.00     0.202 C 
BRANCH  34  35
ATOM     35  C   UNL     1       1.672  -2.845   5.835  1.00  0.00     0.261 C 
BRANCH  35  36
ATOM     36  O   UNL     1       2.664  -1.877   5.485  1.00  0.00    -0.460 OA
BRANCH  36  37
ATOM     37  C   UNL     1       3.614  -1.688   6.428  1.00  0.00     0.338 C 
ATOM     38  O   UNL     1       3.698  -2.210   7.530  1.00  0.00    -0.246 OA
BRANCH  37  39
ATOM     39  C   UNL     1       4.676  -0.849   5.865  1.00  0.00     0.060 A 
ATOM     40  C   UNL     1       4.405   0.445   5.419  1.00  0.00     0.016 A 
ATOM     41  C   UNL     1       5.972  -1.374   5.830  1.00  0.00     0.016 A 
ATOM     42  C   UNL     1       5.457   1.233   4.956  1.00  0.00     0.010 A 
ATOM     43  C   UNL     1       7.020  -0.585   5.370  1.00  0.00     0.010 A 
ATOM     44  C   UNL     1       6.771   0.729   4.949  1.00  0.00    -0.014 A 
BRANCH  44  45
ATOM     45  C   UNL     1       7.910   1.610   4.614  1.00  0.00     0.031 A 
ATOM     46  C   UNL     1       8.659   1.446   3.330  1.00  0.00     0.074 A 
ATOM     47  C   UNL     1       8.290   2.528   5.520  1.00  0.00     0.049 A 
ATOM     48  N   UNL     1       9.681   2.129   2.882  1.00  0.00    -0.248 NA
ATOM     49  C   UNL     1       8.213   0.367   2.438  1.00  0.00     0.031 C 
ATOM     50  C   UNL     1       7.648   2.735   6.819  1.00  0.00     0.029 A 
ATOM     51  N   UNL     1       9.301   3.452   5.494  1.00  0.00    -0.354 N 
ATOM     52  C   UNL     1       9.995   1.573   1.651  1.00  0.00     0.074 A 
ATOM     53  C   UNL     1       9.088   0.462   1.446  1.00  0.00     0.031 C 
ATOM     54  C   UNL     1       8.262   3.744   7.454  1.00  0.00     0.029 A 
ATOM     55  C   UNL     1       9.362   4.226   6.625  1.00  0.00     0.049 A 
ATOM     56  H   UNL     1       9.923   3.550   4.737  1.00  0.00     0.167 HD
ATOM     57  C   UNL     1      10.941   1.972   0.768  1.00  0.00     0.037 A 
ATOM     58  C   UNL     1      10.214   5.213   6.958  1.00  0.00     0.037 A 
ATOM     59  C   UNL     1      11.846   3.071   1.000  1.00  0.00     0.049 A 
ATOM     60  C   UNL     1      11.287   5.606   5.982  1.00  0.00     0.074 A 
ATOM     61  C   UNL     1      12.816   3.581   0.156  1.00  0.00     0.029 A 
ATOM     62  N   UNL     1      11.902   3.818   2.170  1.00  0.00    -0.354 N 
ATOM     63  N   UNL     1      11.531   5.125   4.787  1.00  0.00    -0.248 NA
ATOM     64  C   UNL     1      12.199   6.679   6.398  1.00  0.00     0.031 C 
ATOM     65  C   UNL     1      13.499   4.594   0.837  1.00  0.00     0.029 A 
ATOM     66  C   UNL     1      12.915   4.761   2.083  1.00  0.00     0.049 A 
ATOM     67  H   UNL     1      11.309   3.696   2.946  1.00  0.00     0.167 HD
ATOM     68  C   UNL     1      12.614   5.842   4.301  1.00  0.00     0.074 A 
ATOM     69  C   UNL     1      12.965   6.808   5.323  1.00  0.00     0.031 C 
ATOM     70  C   UNL     1      13.260   5.708   3.116  1.00  0.00     0.037 A 
BRANCH  57  71
ATOM     71  C   UNL     1      11.050   1.218  -0.526  1.00  0.00     0.064 A 
ATOM     72  C   UNL     1      10.043   1.286  -1.502  1.00  0.00     0.173 A 
ATOM     73  C   UNL     1      12.191   0.455  -0.818  1.00  0.00     0.173 A 
ATOM     74  F   UNL     1       8.926   1.994  -1.272  1.00  0.00    -0.203 F 
ATOM     75  C   UNL     1      10.161   0.597  -2.706  1.00  0.00     0.198 A 
ATOM     76  C   UNL     1      12.320  -0.206  -2.037  1.00  0.00     0.198 A 
ATOM     77  F   UNL     1      13.188   0.360   0.074  1.00  0.00    -0.203 F 
ATOM     78  F   UNL     1       9.163   0.639  -3.600  1.00  0.00    -0.200 F 
ATOM     79  C   UNL     1      11.303  -0.141  -2.977  1.00  0.00     0.200 A 
ATOM     80  F   UNL     1      13.432  -0.907  -2.303  1.00  0.00    -0.200 F 
ATOM     81  F   UNL     1      11.419  -0.796  -4.140  1.00  0.00    -0.200 F 
ENDBRANCH  57  71
BRANCH  58  82
ATOM     82  C   UNL     1      10.039   5.914   8.255  1.00  0.00     0.064 A 
ATOM     83  C   UNL     1       9.560   7.229   8.297  1.00  0.00     0.173 A 
ATOM     84  C   UNL     1      10.275   5.264   9.476  1.00  0.00     0.173 A 
ATOM     85  F   UNL     1       9.335   7.896   7.156  1.00  0.00    -0.203 F 
ATOM     86  C   UNL     1       9.320   7.868   9.511  1.00  0.00     0.198 A 
ATOM     87  C   UNL     1      10.008   5.894  10.689  1.00  0.00     0.198 A 
ATOM     88  F   UNL     1      10.725   4.000   9.488  1.00  0.00    -0.203 F 
ATOM     89  F   UNL     1       8.878   9.133   9.524  1.00  0.00    -0.200 F 
ATOM     90  C   UNL     1       9.532   7.196  10.706  1.00  0.00     0.200 A 
ATOM     91  F   UNL     1      10.194   5.233  11.840  1.00  0.00    -0.200 F 
ATOM     92  F   UNL     1       9.275   7.802  11.873  1.00  0.00    -0.200 F 
ENDBRANCH  58  82
BRANCH  70  93
ATOM     93  C   UNL     1      14.419   6.628   2.853  1.00  0.00     0.064 A 
ATOM     94  C   UNL     1      15.635   6.488   3.539  1.00  0.00     0.173 A 
ATOM     95  C   UNL     1      14.337   7.614   1.858  1.00  0.00     0.173 A 
ATOM     96  F   UNL     1      15.761   5.571   4.510  1.00  0.00    -0.203 F 
ATOM     97  C   UNL     1      16.720   7.310   3.248  1.00  0.00     0.198 A 
ATOM     98  C   UNL     1      15.435   8.411   1.546  1.00  0.00     0.198 A 
ATOM     99  F   UNL     1      13.200   7.785   1.167  1.00  0.00    -0.203 F 
ATOM    100  F   UNL     1      17.859   7.184   3.943  1.00  0.00    -0.200 F 
ATOM    101  C   UNL     1      16.623   8.262   2.244  1.00  0.00     0.200 A 
ATOM    102  F   UNL     1      15.345   9.318   0.564  1.00  0.00    -0.200 F 
ATOM    103  F   UNL     1      17.675   9.040   1.952  1.00  0.00    -0.200 F 
ENDBRANCH  70  93
ENDBRANCH  44  45
ENDBRANCH  37  39
ENDBRANCH  36  37
ENDBRANCH  35  36
ENDBRANCH  34  35
ENDBRANCH  33  34
ENDBRANCH  32  33
ENDBRANCH   1  32
TORSDOF 19
