REMARK SMILES COc1ccc(-c2nc(SCC(=O)OCCOCCOC(=O)c3ccc(-c4c5nc(c(-c6c(F)c(F)c(F)c(F)c6F)c6ccc([nH]6)c(-c6c(F)c(F)c(F)c(F)c6F)c6nc(c(-c7c(F)c(F)c(F)c(F)c7F)c7ccc4[nH]7)C=C6)C=C5)cc3)cc(-c3ccncc3)n2)cc1
REMARK SMILES IDX 16 1 15 2 14 3 12 4 13 5 11 6 10 7 9 8 7 9 8 10 94 11 87 12
REMARK SMILES IDX 86 13 6 14 3 15 4 16 96 17 5 18 95 19 2 20 1 21 88 22 89 23
REMARK SMILES IDX 93 24 90 25 92 26 91 27 17 28 18 29 19 30 20 31 21 32 22 33
REMARK SMILES IDX 23 34 24 35 85 36 25 37 84 38 26 39 27 40 28 41 78 42 29 43
REMARK SMILES IDX 83 44 77 45 79 46 30 47 82 48 76 49 75 50 31 52 63 53 43 54
REMARK SMILES IDX 62 55 44 56 47 57 61 58 80 59 45 60 46 61 60 63 81 64 48 65
REMARK SMILES IDX 32 66 33 67 41 68 34 69 35 70 39 71 42 72 36 73 37 74 40 75
REMARK SMILES IDX 38 76 64 77 65 78 73 79 66 80 67 81 71 82 74 83 68 84 69 85
REMARK SMILES IDX 72 86 70 87 49 88 50 89 58 90 51 91 52 92 56 93 59 94 53 95
REMARK SMILES IDX 54 96 57 97 55 98
REMARK H PARENT 79 51 47 62
REMARK Flexibility Score: inf
ROOT
ATOM      1  C   UNL     1       5.403   1.668 -10.951  1.00  0.00     0.202 C 
ENDROOT
BRANCH   1   2
ATOM      2  C   UNL     1       4.161   1.814 -11.842  1.00  0.00     0.261 C 
BRANCH   2   3
ATOM      3  O   UNL     1       2.977   1.233 -11.248  1.00  0.00    -0.463 OA
BRANCH   3   4
ATOM      4  C   UNL     1       2.312   0.322 -12.010  1.00  0.00     0.316 C 
ATOM      5  O   UNL     1       2.602   0.069 -13.177  1.00  0.00    -0.251 OA
BRANCH   4   6
ATOM      6  C   UNL     1       1.182  -0.424 -11.324  1.00  0.00     0.199 C 
BRANCH   6   7
ATOM      7  S   UNL     1       0.842  -0.009  -9.593  1.00  0.00    -0.094 SA
BRANCH   7   8
ATOM      8  C   UNL     1       1.478  -1.335  -8.577  1.00  0.00     0.101 A 
ATOM      9  C   UNL     1       1.781  -1.917  -6.365  1.00  0.00     0.161 A 
ATOM     10  N   UNL     1       1.187  -1.133  -7.277  1.00  0.00    -0.222 NA
ATOM     11  N   UNL     1       2.660  -2.888  -6.652  1.00  0.00    -0.228 NA
ATOM     12  C   UNL     1       2.894  -3.123  -7.956  1.00  0.00     0.076 A 
ATOM     13  C   UNL     1       2.292  -2.381  -8.971  1.00  0.00     0.064 A 
BRANCH   9  14
ATOM     14  C   UNL     1       1.484  -1.645  -4.957  1.00  0.00     0.019 A 
ATOM     15  C   UNL     1       0.888  -1.120  -2.241  1.00  0.00     0.118 A 
ATOM     16  C   UNL     1      -0.122  -1.490  -3.128  1.00  0.00     0.047 A 
ATOM     17  C   UNL     1       2.200  -1.020  -2.702  1.00  0.00     0.047 A 
ATOM     18  C   UNL     1       0.168  -1.730  -4.475  1.00  0.00     0.016 A 
ATOM     19  C   UNL     1       2.494  -1.288  -4.048  1.00  0.00     0.016 A 
BRANCH  15  20
ATOM     20  O   UNL     1       0.490  -0.943  -0.946  1.00  0.00    -0.497 OA
ATOM     21  C   UNL     1       1.208   0.041  -0.210  1.00  0.00     0.278 C 
ENDBRANCH  15  20
ENDBRANCH   9  14
BRANCH  12  22
ATOM     22  C   UNL     1       3.954  -4.110  -8.219  1.00  0.00     0.003 A 
ATOM     23  C   UNL     1       5.301  -3.728  -8.270  1.00  0.00     0.030 A 
ATOM     24  C   UNL     1       3.675  -5.466  -8.385  1.00  0.00     0.030 A 
ATOM     25  C   UNL     1       6.280  -4.661  -8.566  1.00  0.00     0.111 A 
ATOM     26  C   UNL     1       4.725  -6.339  -8.646  1.00  0.00     0.111 A 
ATOM     27  N   UNL     1       6.016  -5.961  -8.768  1.00  0.00    -0.265 NA
ENDBRANCH  12  22
ENDBRANCH   7   8
ENDBRANCH   6   7
ENDBRANCH   4   6
ENDBRANCH   3   4
ENDBRANCH   2   3
ENDBRANCH   1   2
BRANCH   1  28
ATOM     28  O   UNL     1       5.846   0.336 -10.688  1.00  0.00    -0.374 OA
BRANCH  28  29
ATOM     29  C   UNL     1       4.986  -0.489  -9.916  1.00  0.00     0.202 C 
BRANCH  29  30
ATOM     30  C   UNL     1       4.935  -0.220  -8.412  1.00  0.00     0.261 C 
BRANCH  30  31
ATOM     31  O   UNL     1       4.802   1.148  -8.080  1.00  0.00    -0.460 OA
BRANCH  31  32
ATOM     32  C   UNL     1       5.801   1.587  -7.295  1.00  0.00     0.338 C 
ATOM     33  O   UNL     1       6.711   0.952  -6.777  1.00  0.00    -0.246 OA
BRANCH  32  34
ATOM     34  C   UNL     1       5.732   3.035  -7.269  1.00  0.00     0.060 A 
ATOM     35  C   UNL     1       6.859   3.724  -7.718  1.00  0.00     0.016 A 
ATOM     36  C   UNL     1       4.604   3.685  -6.762  1.00  0.00     0.016 A 
ATOM     37  C   UNL     1       6.896   5.096  -7.578  1.00  0.00     0.010 A 
ATOM     38  C   UNL     1       4.639   5.064  -6.629  1.00  0.00     0.010 A 
ATOM     39  C   UNL     1       5.808   5.755  -6.987  1.00  0.00    -0.014 A 
BRANCH  39  40
ATOM     40  C   UNL     1       5.999   7.152  -6.579  1.00  0.00     0.031 A 
ATOM     41  C   UNL     1       6.410   7.425  -5.165  1.00  0.00     0.074 A 
ATOM     42  C   UNL     1       5.902   8.119  -7.501  1.00  0.00     0.049 A 
ATOM     43  N   UNL     1       6.766   8.552  -4.611  1.00  0.00    -0.248 NA
ATOM     44  C   UNL     1       6.428   6.270  -4.251  1.00  0.00     0.031 C 
ATOM     45  C   UNL     1       5.533   7.911  -8.901  1.00  0.00     0.029 A 
ATOM     46  N   UNL     1       6.134   9.461  -7.403  1.00  0.00    -0.354 N 
ATOM     47  C   UNL     1       7.055   8.242  -3.290  1.00  0.00     0.074 A 
ATOM     48  C   UNL     1       6.792   6.832  -3.110  1.00  0.00     0.031 C 
ATOM     49  C   UNL     1       5.585   9.089  -9.542  1.00  0.00     0.029 A 
ATOM     50  C   UNL     1       5.976  10.126  -8.591  1.00  0.00     0.049 A 
ATOM     51  H   UNL     1       6.389   9.906  -6.563  1.00  0.00     0.167 HD
ATOM     52  C   UNL     1       7.516   9.067  -2.322  1.00  0.00     0.037 A 
ATOM     53  C   UNL     1       6.143  11.431  -8.865  1.00  0.00     0.037 A 
ATOM     54  C   UNL     1       7.760  10.467  -2.533  1.00  0.00     0.049 A 
ATOM     55  C   UNL     1       6.619  12.334  -7.761  1.00  0.00     0.074 A 
ATOM     56  C   UNL     1       8.226  11.412  -1.638  1.00  0.00     0.029 A 
ATOM     57  N   UNL     1       7.545  11.125  -3.739  1.00  0.00    -0.354 N 
ATOM     58  N   UNL     1       6.924  12.035  -6.520  1.00  0.00    -0.248 NA
ATOM     59  C   UNL     1       6.787  13.751  -8.099  1.00  0.00     0.031 C 
ATOM     60  C   UNL     1       8.250  12.650  -2.291  1.00  0.00     0.029 A 
ATOM     61  C   UNL     1       7.848  12.469  -3.607  1.00  0.00     0.049 A 
ATOM     62  H   UNL     1       7.224  10.697  -4.565  1.00  0.00     0.167 HD
ATOM     63  C   UNL     1       7.342  13.219  -5.932  1.00  0.00     0.074 A 
ATOM     64  C   UNL     1       7.266  14.238  -6.962  1.00  0.00     0.031 C 
ATOM     65  C   UNL     1       7.755  13.449  -4.660  1.00  0.00     0.037 A 
BRANCH  52  66
ATOM     66  C   UNL     1       7.739   8.471  -0.964  1.00  0.00     0.064 A 
ATOM     67  C   UNL     1       8.777   7.558  -0.717  1.00  0.00     0.173 A 
ATOM     68  C   UNL     1       6.887   8.796   0.102  1.00  0.00     0.173 A 
ATOM     69  F   UNL     1       9.606   7.194  -1.708  1.00  0.00    -0.203 F 
ATOM     70  C   UNL     1       8.930   6.966   0.535  1.00  0.00     0.198 A 
ATOM     71  C   UNL     1       7.061   8.224   1.360  1.00  0.00     0.198 A 
ATOM     72  F   UNL     1       5.876   9.658  -0.080  1.00  0.00    -0.203 F 
ATOM     73  F   UNL     1       9.889   6.049   0.729  1.00  0.00    -0.200 F 
ATOM     74  C   UNL     1       8.075   7.303   1.573  1.00  0.00     0.200 A 
ATOM     75  F   UNL     1       6.236   8.553   2.363  1.00  0.00    -0.200 F 
ATOM     76  F   UNL     1       8.218   6.727   2.775  1.00  0.00    -0.200 F 
ENDBRANCH  52  66
BRANCH  53  77
ATOM     77  C   UNL     1       5.897  11.928 -10.240  1.00  0.00     0.064 A 
ATOM     78  C   UNL     1       6.955  12.342 -11.059  1.00  0.00     0.173 A 
ATOM     79  C   UNL     1       4.602  11.959 -10.778  1.00  0.00     0.173 A 
ATOM     80  F   UNL     1       8.209  12.339 -10.586  1.00  0.00    -0.203 F 
ATOM     81  C   UNL     1       6.726  12.781 -12.362  1.00  0.00     0.198 A 
ATOM     82  C   UNL     1       4.376  12.374 -12.088  1.00  0.00     0.198 A 
ATOM     83  F   UNL     1       3.557  11.562 -10.037  1.00  0.00    -0.203 F 
ATOM     84  F   UNL     1       7.752  13.198 -13.116  1.00  0.00    -0.200 F 
ATOM     85  C   UNL     1       5.438  12.789 -12.878  1.00  0.00     0.200 A 
ATOM     86  F   UNL     1       3.133  12.364 -12.588  1.00  0.00    -0.200 F 
ATOM     87  F   UNL     1       5.220  13.199 -14.135  1.00  0.00    -0.200 F 
ENDBRANCH  53  77
BRANCH  65  88
ATOM     88  C   UNL     1       8.174  14.851  -4.332  1.00  0.00     0.064 A 
ATOM     89  C   UNL     1       7.237  15.886  -4.205  1.00  0.00     0.173 A 
ATOM     90  C   UNL     1       9.527  15.151  -4.112  1.00  0.00     0.173 A 
ATOM     91  F   UNL     1       5.935  15.649  -4.420  1.00  0.00    -0.203 F 
ATOM     92  C   UNL     1       7.645  17.181  -3.899  1.00  0.00     0.198 A 
ATOM     93  C   UNL     1       9.926  16.440  -3.777  1.00  0.00     0.198 A 
ATOM     94  F   UNL     1      10.458  14.191  -4.215  1.00  0.00    -0.203 F 
ATOM     95  F   UNL     1       6.740  18.167  -3.835  1.00  0.00    -0.200 F 
ATOM     96  C   UNL     1       8.987  17.455  -3.680  1.00  0.00     0.200 A 
ATOM     97  F   UNL     1      11.221  16.701  -3.552  1.00  0.00    -0.200 F 
ATOM     98  F   UNL     1       9.376  18.703  -3.383  1.00  0.00    -0.200 F 
ENDBRANCH  65  88
ENDBRANCH  39  40
ENDBRANCH  32  34
ENDBRANCH  31  32
ENDBRANCH  30  31
ENDBRANCH  29  30
ENDBRANCH  28  29
ENDBRANCH   1  28
TORSDOF 19
