REMARK SMILES CSCc1ccc(C(=O)N[C@H]2C=C[C@@H](C(=O)OCCOCCOC(=O)c3ccc(-c4c5nc(c(-c6c(F)c(F)c(F)c(F)c6F)c6ccc([nH]6)c(-c6c(F)c(F)c(F)c(F)c6F)c6nc(c(-c7c(F)c(F)c(F)c(F)c7F)c7ccc4[nH]7)C=C6)C=C5)cc3)C2)o1
REMARK SMILES IDX 19 1 18 2 17 3 15 4 16 5 14 6 11 7 12 8 89 9 13 10 10 11
REMARK SMILES IDX 8 12 9 13 7 15 4 16 5 17 90 18 6 19 3 20 2 21 1 22 20 23
REMARK SMILES IDX 21 24 22 25 23 26 24 27 25 28 26 29 27 30 88 31 28 32 87 33
REMARK SMILES IDX 29 34 30 35 31 36 81 37 32 38 86 39 80 40 82 41 33 42 85 43
REMARK SMILES IDX 79 44 78 45 34 47 66 48 46 49 65 50 47 51 50 52 64 53 83 54
REMARK SMILES IDX 48 55 49 56 63 58 84 59 51 60 35 61 36 62 44 63 37 64 38 65
REMARK SMILES IDX 42 66 45 67 39 68 40 69 43 70 41 71 67 72 68 73 76 74 69 75
REMARK SMILES IDX 70 76 74 77 77 78 71 79 72 80 75 81 73 82 52 83 53 84 61 85
REMARK SMILES IDX 54 86 55 87 59 88 62 89 56 90 57 91 60 92 58 93
REMARK H PARENT 10 14 82 46 50 57
REMARK Flexibility Score: inf
ROOT
ATOM      1  C   UNL     1      -5.788   1.371  -3.554  1.00  0.00     0.202 C 
ENDROOT
BRANCH   1   2
ATOM      2  C   UNL     1      -4.742   0.389  -4.083  1.00  0.00     0.261 C 
BRANCH   2   3
ATOM      3  O   UNL     1      -3.744   1.117  -4.814  1.00  0.00    -0.463 OA
BRANCH   3   4
ATOM      4  C   UNL     1      -3.330   0.595  -5.999  1.00  0.00     0.312 C 
ATOM      5  O   UNL     1      -3.626  -0.520  -6.409  1.00  0.00    -0.252 OA
BRANCH   4   6
ATOM      6  C   UNL     1      -2.479   1.600  -6.786  1.00  0.00     0.124 C 
ATOM      7  C   UNL     1      -0.472   2.944  -6.310  1.00  0.00     0.106 C 
ATOM      8  C   UNL     1      -0.120   1.669  -6.981  1.00  0.00    -0.006 C 
ATOM      9  C   UNL     1      -1.968   2.832  -6.003  1.00  0.00     0.048 C 
ATOM     10  C   UNL     1      -1.211   0.950  -7.269  1.00  0.00    -0.014 C 
BRANCH   7  11
ATOM     11  N   UNL     1       0.382   3.273  -5.188  1.00  0.00    -0.343 N 
ATOM     12  C   UNL     1       0.890   2.624  -4.088  1.00  0.00     0.287 C 
ATOM     13  O   UNL     1       1.628   3.316  -3.379  1.00  0.00    -0.266 OA
ATOM     14  H   UNL     1       0.676   4.211  -5.221  1.00  0.00     0.164 HD
BRANCH  12  15
ATOM     15  C   UNL     1       0.608   1.237  -3.781  1.00  0.00     0.191 A 
ATOM     16  C   UNL     1       1.057  -0.709  -2.813  1.00  0.00     0.114 A 
ATOM     17  C   UNL     1      -0.160  -0.863  -3.434  1.00  0.00     0.047 A 
ATOM     18  O   UNL     1       1.538   0.550  -3.032  1.00  0.00    -0.455 OA
ATOM     19  C   UNL     1      -0.459   0.394  -3.996  1.00  0.00     0.056 A 
BRANCH  16  20
ATOM     20  C   UNL     1       1.861  -1.598  -1.945  1.00  0.00     0.144 C 
BRANCH  20  21
ATOM     21  S   UNL     1       1.139  -1.707  -0.269  1.00  0.00    -0.157 SA
ATOM     22  C   UNL     1       1.318   0.027   0.228  1.00  0.00     0.085 C 
ENDBRANCH  20  21
ENDBRANCH  16  20
ENDBRANCH  12  15
ENDBRANCH   7  11
ENDBRANCH   4   6
ENDBRANCH   3   4
ENDBRANCH   2   3
ENDBRANCH   1   2
BRANCH   1  23
ATOM     23  O   UNL     1      -6.583   2.022  -4.547  1.00  0.00    -0.374 OA
BRANCH  23  24
ATOM     24  C   UNL     1      -5.954   2.995  -5.379  1.00  0.00     0.202 C 
BRANCH  24  25
ATOM     25  C   UNL     1      -5.710   4.381  -4.768  1.00  0.00     0.261 C 
BRANCH  25  26
ATOM     26  O   UNL     1      -4.926   4.350  -3.564  1.00  0.00    -0.460 OA
BRANCH  26  27
ATOM     27  C   UNL     1      -5.630   4.621  -2.439  1.00  0.00     0.338 C 
ATOM     28  O   UNL     1      -6.819   4.917  -2.363  1.00  0.00    -0.246 OA
BRANCH  27  29
ATOM     29  C   UNL     1      -4.817   4.394  -1.234  1.00  0.00     0.060 A 
ATOM     30  C   UNL     1      -5.358   3.570  -0.239  1.00  0.00     0.016 A 
ATOM     31  C   UNL     1      -3.612   5.067  -1.018  1.00  0.00     0.016 A 
ATOM     32  C   UNL     1      -4.726   3.460   0.997  1.00  0.00     0.010 A 
ATOM     33  C   UNL     1      -2.980   4.958   0.227  1.00  0.00     0.010 A 
ATOM     34  C   UNL     1      -3.554   4.185   1.252  1.00  0.00    -0.014 A 
BRANCH  34  35
ATOM     35  C   UNL     1      -3.018   4.235   2.635  1.00  0.00     0.031 A 
ATOM     36  C   UNL     1      -3.330   5.422   3.505  1.00  0.00     0.074 A 
ATOM     37  C   UNL     1      -2.300   3.211   3.129  1.00  0.00     0.049 A 
ATOM     38  N   UNL     1      -2.966   5.669   4.738  1.00  0.00    -0.248 NA
ATOM     39  C   UNL     1      -4.170   6.470   2.905  1.00  0.00     0.031 C 
ATOM     40  C   UNL     1      -1.969   1.987   2.403  1.00  0.00     0.029 A 
ATOM     41  N   UNL     1      -1.723   3.040   4.362  1.00  0.00    -0.354 N 
ATOM     42  C   UNL     1      -3.530   6.897   5.060  1.00  0.00     0.074 A 
ATOM     43  C   UNL     1      -4.235   7.361   3.884  1.00  0.00     0.031 C 
ATOM     44  C   UNL     1      -1.240   1.191   3.204  1.00  0.00     0.029 A 
ATOM     45  C   UNL     1      -1.026   1.865   4.484  1.00  0.00     0.049 A 
ATOM     46  H   UNL     1      -1.802   3.699   5.090  1.00  0.00     0.167 HD
ATOM     47  C   UNL     1      -3.474   7.571   6.234  1.00  0.00     0.037 A 
ATOM     48  C   UNL     1      -0.283   1.395   5.505  1.00  0.00     0.037 A 
ATOM     49  C   UNL     1      -2.775   7.111   7.405  1.00  0.00     0.049 A 
ATOM     50  C   UNL     1      -0.176   2.199   6.775  1.00  0.00     0.074 A 
ATOM     51  C   UNL     1      -2.678   7.714   8.647  1.00  0.00     0.029 A 
ATOM     52  N   UNL     1      -2.046   5.933   7.476  1.00  0.00    -0.354 N 
ATOM     53  N   UNL     1      -0.735   3.345   7.080  1.00  0.00    -0.248 NA
ATOM     54  C   UNL     1       0.661   1.638   7.845  1.00  0.00     0.031 C 
ATOM     55  C   UNL     1      -1.852   6.925   9.454  1.00  0.00     0.029 A 
ATOM     56  C   UNL     1      -1.475   5.805   8.732  1.00  0.00     0.049 A 
ATOM     57  H   UNL     1      -1.949   5.284   6.742  1.00  0.00     0.167 HD
ATOM     58  C   UNL     1      -0.342   3.627   8.382  1.00  0.00     0.074 A 
ATOM     59  C   UNL     1       0.494   2.527   8.814  1.00  0.00     0.031 C 
ATOM     60  C   UNL     1      -0.650   4.701   9.151  1.00  0.00     0.037 A 
BRANCH  47  61
ATOM     61  C   UNL     1      -4.174   8.897   6.305  1.00  0.00     0.064 A 
ATOM     62  C   UNL     1      -5.573   8.990   6.344  1.00  0.00     0.173 A 
ATOM     63  C   UNL     1      -3.434  10.087   6.372  1.00  0.00     0.173 A 
ATOM     64  F   UNL     1      -6.325   7.882   6.271  1.00  0.00    -0.203 F 
ATOM     65  C   UNL     1      -6.206  10.228   6.425  1.00  0.00     0.198 A 
ATOM     66  C   UNL     1      -4.070  11.322   6.478  1.00  0.00     0.198 A 
ATOM     67  F   UNL     1      -2.093  10.053   6.342  1.00  0.00    -0.203 F 
ATOM     68  F   UNL     1      -7.544  10.296   6.419  1.00  0.00    -0.200 F 
ATOM     69  C   UNL     1      -5.454  11.392   6.498  1.00  0.00     0.200 A 
ATOM     70  F   UNL     1      -3.342  12.444   6.561  1.00  0.00    -0.200 F 
ATOM     71  F   UNL     1      -6.065  12.582   6.582  1.00  0.00    -0.200 F 
ENDBRANCH  47  61
BRANCH  48  72
ATOM     72  C   UNL     1       0.429   0.099   5.364  1.00  0.00     0.064 A 
ATOM     73  C   UNL     1       0.042  -1.025   6.105  1.00  0.00     0.173 A 
ATOM     74  C   UNL     1       1.523  -0.035   4.496  1.00  0.00     0.173 A 
ATOM     75  F   UNL     1      -0.980  -0.938   6.969  1.00  0.00    -0.203 F 
ATOM     76  C   UNL     1       0.733  -2.231   5.996  1.00  0.00     0.198 A 
ATOM     77  C   UNL     1       2.197  -1.248   4.368  1.00  0.00     0.198 A 
ATOM     78  F   UNL     1       1.935   1.013   3.767  1.00  0.00    -0.203 F 
ATOM     79  F   UNL     1       0.373  -3.276   6.753  1.00  0.00    -0.200 F 
ATOM     80  C   UNL     1       1.806  -2.342   5.124  1.00  0.00     0.200 A 
ATOM     81  F   UNL     1       3.230  -1.351   3.521  1.00  0.00    -0.200 F 
ATOM     82  F   UNL     1       2.472  -3.501   5.024  1.00  0.00    -0.200 F 
ENDBRANCH  48  72
BRANCH  60  83
ATOM     83  C   UNL     1      -0.111   4.724  10.553  1.00  0.00     0.064 A 
ATOM     84  C   UNL     1       1.247   4.958  10.815  1.00  0.00     0.173 A 
ATOM     85  C   UNL     1      -0.972   4.551  11.647  1.00  0.00     0.173 A 
ATOM     86  F   UNL     1       2.113   5.116   9.803  1.00  0.00    -0.203 F 
ATOM     87  C   UNL     1       1.727   4.995  12.122  1.00  0.00     0.198 A 
ATOM     88  C   UNL     1      -0.493   4.616  12.953  1.00  0.00     0.198 A 
ATOM     89  F   UNL     1      -2.280   4.332  11.451  1.00  0.00    -0.203 F 
ATOM     90  F   UNL     1       3.035   5.176  12.348  1.00  0.00    -0.200 F 
ATOM     91  C   UNL     1       0.856   4.831  13.189  1.00  0.00     0.200 A 
ATOM     92  F   UNL     1      -1.338   4.471  13.983  1.00  0.00    -0.200 F 
ATOM     93  F   UNL     1       1.319   4.873  14.446  1.00  0.00    -0.200 F 
ENDBRANCH  60  83
ENDBRANCH  34  35
ENDBRANCH  27  29
ENDBRANCH  26  27
ENDBRANCH  25  26
ENDBRANCH  24  25
ENDBRANCH  23  24
ENDBRANCH   1  23
TORSDOF 18
