REMARK SMILES O=C(OCCOCCOC(=O)C1(Cc2cccc(Cl)c2)CCCC1)c1ccc(-c2c3nc(c(-c4c(F)c(F)c(F)c(F)c4F)c4ccc([nH]4)c(-c4c(F)c(F)c(F)c(F)c4F)c4nc(c(-c5c(F)c(F)c(F)c(F)c5F)c5ccc2[nH]5)C=C4)C=C3)cc1
REMARK SMILES IDX 6 1 5 2 4 3 3 4 2 5 1 6 25 7 26 8 87 9 27 10 86 11 28 12
REMARK SMILES IDX 29 13 30 14 80 15 31 16 85 17 79 18 81 19 32 20 84 21 78 22
REMARK SMILES IDX 77 23 33 25 65 26 45 27 64 28 46 29 49 30 63 31 82 32 47 33
REMARK SMILES IDX 48 34 62 36 83 37 50 38 34 39 35 40 43 41 36 42 37 43 41 44
REMARK SMILES IDX 44 45 38 46 39 47 42 48 40 49 66 50 67 51 75 52 68 53 69 54
REMARK SMILES IDX 73 55 76 56 70 57 71 58 74 59 72 60 51 61 52 62 60 63 53 64
REMARK SMILES IDX 54 65 58 66 61 67 55 68 56 69 59 70 57 71 7 72 8 73 9 74
REMARK SMILES IDX 10 75 11 76 12 77 21 78 24 79 22 80 23 81 13 82 14 83 15 84
REMARK SMILES IDX 20 85 16 86 18 87 17 88 19 89
REMARK H PARENT 81 24 49 35
REMARK Flexibility Score: inf
ROOT
ATOM      1  O   UNL     1       3.611   0.501  -1.205  1.00  0.00    -0.374 OA
ENDROOT
BRANCH   1   2
ATOM      2  C   UNL     1       4.169  -0.797  -0.987  1.00  0.00     0.202 C 
BRANCH   2   3
ATOM      3  C   UNL     1       4.084  -1.340   0.443  1.00  0.00     0.261 C 
BRANCH   3   4
ATOM      4  O   UNL     1       2.732  -1.295   0.921  1.00  0.00    -0.460 OA
BRANCH   4   5
ATOM      5  C   UNL     1       2.099  -0.203   1.416  1.00  0.00     0.338 C 
ATOM      6  O   UNL     1       0.874  -0.206   1.506  1.00  0.00    -0.246 OA
BRANCH   5   7
ATOM      7  C   UNL     1       2.847   0.970   1.949  1.00  0.00     0.060 A 
ATOM      8  C   UNL     1       4.052   1.446   1.434  1.00  0.00     0.016 A 
ATOM      9  C   UNL     1       2.273   1.652   3.032  1.00  0.00     0.016 A 
ATOM     10  C   UNL     1       4.736   2.478   2.023  1.00  0.00     0.010 A 
ATOM     11  C   UNL     1       2.936   2.730   3.619  1.00  0.00     0.010 A 
ATOM     12  C   UNL     1       4.190   3.109   3.129  1.00  0.00    -0.014 A 
BRANCH  12  13
ATOM     13  C   UNL     1       5.105   3.996   3.846  1.00  0.00     0.031 A 
ATOM     14  C   UNL     1       5.769   3.443   5.066  1.00  0.00     0.074 A 
ATOM     15  C   UNL     1       5.502   5.132   3.250  1.00  0.00     0.049 A 
ATOM     16  N   UNL     1       6.617   4.010   5.875  1.00  0.00    -0.248 NA
ATOM     17  C   UNL     1       5.453   2.043   5.408  1.00  0.00     0.031 C 
ATOM     18  C   UNL     1       5.040   5.602   1.938  1.00  0.00     0.029 A 
ATOM     19  N   UNL     1       6.426   6.060   3.630  1.00  0.00    -0.354 N 
ATOM     20  C   UNL     1       6.886   3.061   6.851  1.00  0.00     0.074 A 
ATOM     21  C   UNL     1       6.132   1.875   6.530  1.00  0.00     0.031 C 
ATOM     22  C   UNL     1       5.709   6.718   1.613  1.00  0.00     0.029 A 
ATOM     23  C   UNL     1       6.568   7.085   2.729  1.00  0.00     0.049 A 
ATOM     24  H   UNL     1       6.940   6.000   4.467  1.00  0.00     0.167 HD
ATOM     25  C   UNL     1       7.686   3.201   7.931  1.00  0.00     0.037 A 
ATOM     26  C   UNL     1       7.287   8.214   2.841  1.00  0.00     0.037 A 
ATOM     27  C   UNL     1       8.426   4.406   8.187  1.00  0.00     0.049 A 
ATOM     28  C   UNL     1       8.075   8.394   4.110  1.00  0.00     0.074 A 
ATOM     29  C   UNL     1       9.210   4.732   9.274  1.00  0.00     0.029 A 
ATOM     30  N   UNL     1       8.465   5.491   7.316  1.00  0.00    -0.354 N 
ATOM     31  N   UNL     1       8.241   7.555   5.107  1.00  0.00    -0.248 NA
ATOM     32  C   UNL     1       8.760   9.677   4.281  1.00  0.00     0.031 C 
ATOM     33  C   UNL     1       9.675   6.039   9.087  1.00  0.00     0.029 A 
ATOM     34  C   UNL     1       9.245   6.499   7.849  1.00  0.00     0.049 A 
ATOM     35  H   UNL     1       8.005   5.534   6.446  1.00  0.00     0.167 HD
ATOM     36  C   UNL     1       9.073   8.193   6.013  1.00  0.00     0.074 A 
ATOM     37  C   UNL     1       9.388   9.486   5.433  1.00  0.00     0.031 C 
ATOM     38  C   UNL     1       9.538   7.761   7.212  1.00  0.00     0.037 A 
BRANCH  25  39
ATOM     39  C   UNL     1       7.680   2.085   8.934  1.00  0.00     0.064 A 
ATOM     40  C   UNL     1       8.236   0.824   8.668  1.00  0.00     0.173 A 
ATOM     41  C   UNL     1       7.033   2.267  10.166  1.00  0.00     0.173 A 
ATOM     42  F   UNL     1       8.830   0.582   7.490  1.00  0.00    -0.203 F 
ATOM     43  C   UNL     1       8.111  -0.221   9.583  1.00  0.00     0.198 A 
ATOM     44  C   UNL     1       6.939   1.230  11.091  1.00  0.00     0.198 A 
ATOM     45  F   UNL     1       6.468   3.446  10.466  1.00  0.00    -0.203 F 
ATOM     46  F   UNL     1       8.581  -1.438   9.275  1.00  0.00    -0.200 F 
ATOM     47  C   UNL     1       7.467  -0.016  10.794  1.00  0.00     0.200 A 
ATOM     48  F   UNL     1       6.316   1.433  12.260  1.00  0.00    -0.200 F 
ATOM     49  F   UNL     1       7.337  -1.025  11.666  1.00  0.00    -0.200 F 
ENDBRANCH  25  39
BRANCH  26  50
ATOM     50  C   UNL     1       7.236   9.256   1.782  1.00  0.00     0.064 A 
ATOM     51  C   UNL     1       8.384   9.633   1.073  1.00  0.00     0.173 A 
ATOM     52  C   UNL     1       6.035   9.915   1.465  1.00  0.00     0.173 A 
ATOM     53  F   UNL     1       9.560   9.047   1.344  1.00  0.00    -0.203 F 
ATOM     54  C   UNL     1       8.340  10.642   0.111  1.00  0.00     0.198 A 
ATOM     55  C   UNL     1       5.986  10.898   0.479  1.00  0.00     0.198 A 
ATOM     56  F   UNL     1       4.902   9.598   2.109  1.00  0.00    -0.203 F 
ATOM     57  F   UNL     1       9.466  11.019  -0.512  1.00  0.00    -0.200 F 
ATOM     58  C   UNL     1       7.141  11.270  -0.189  1.00  0.00     0.200 A 
ATOM     59  F   UNL     1       4.820  11.488   0.183  1.00  0.00    -0.200 F 
ATOM     60  F   UNL     1       7.101  12.240  -1.112  1.00  0.00    -0.200 F 
ENDBRANCH  26  50
BRANCH  38  61
ATOM     61  C   UNL     1      10.490   8.671   7.926  1.00  0.00     0.064 A 
ATOM     62  C   UNL     1      10.069   9.873   8.512  1.00  0.00     0.173 A 
ATOM     63  C   UNL     1      11.838   8.306   8.054  1.00  0.00     0.173 A 
ATOM     64  F   UNL     1       8.791  10.268   8.402  1.00  0.00    -0.203 F 
ATOM     65  C   UNL     1      10.975  10.696   9.170  1.00  0.00     0.198 A 
ATOM     66  C   UNL     1      12.732   9.112   8.748  1.00  0.00     0.198 A 
ATOM     67  F   UNL     1      12.283   7.159   7.518  1.00  0.00    -0.203 F 
ATOM     68  F   UNL     1      10.568  11.871   9.669  1.00  0.00    -0.200 F 
ATOM     69  C   UNL     1      12.303  10.311   9.296  1.00  0.00     0.200 A 
ATOM     70  F   UNL     1      14.008   8.728   8.886  1.00  0.00    -0.200 F 
ATOM     71  F   UNL     1      13.172  11.102   9.939  1.00  0.00    -0.200 F 
ENDBRANCH  38  61
ENDBRANCH  12  13
ENDBRANCH   5   7
ENDBRANCH   4   5
ENDBRANCH   3   4
ENDBRANCH   2   3
ENDBRANCH   1   2
BRANCH   1  72
ATOM     72  C   UNL     1       2.235   0.529  -1.597  1.00  0.00     0.202 C 
BRANCH  72  73
ATOM     73  C   UNL     1       2.067   0.835  -3.084  1.00  0.00     0.261 C 
BRANCH  73  74
ATOM     74  O   UNL     1       2.772  -0.146  -3.866  1.00  0.00    -0.463 OA
BRANCH  74  75
ATOM     75  C   UNL     1       4.087   0.173  -4.060  1.00  0.00     0.312 C 
ATOM     76  O   UNL     1       4.542   1.262  -3.761  1.00  0.00    -0.252 OA
BRANCH  75  77
ATOM     77  C   UNL     1       4.904  -1.006  -4.622  1.00  0.00     0.072 C 
ATOM     78  C   UNL     1       4.657  -2.292  -3.793  1.00  0.00     0.019 C 
ATOM     79  C   UNL     1       4.359  -1.429  -5.997  1.00  0.00     0.019 C 
ATOM     80  C   UNL     1       4.913  -3.456  -4.726  1.00  0.00     0.001 C 
ATOM     81  C   UNL     1       4.476  -2.955  -6.089  1.00  0.00     0.001 C 
BRANCH  77  82
ATOM     82  C   UNL     1       6.437  -0.689  -4.594  1.00  0.00     0.054 C 
BRANCH  82  83
ATOM     83  C   UNL     1       6.917   0.538  -5.347  1.00  0.00    -0.045 A 
ATOM     84  C   UNL     1       7.006   1.785  -4.704  1.00  0.00     0.004 A 
ATOM     85  C   UNL     1       7.243   0.469  -6.704  1.00  0.00     0.024 A 
ATOM     86  C   UNL     1       7.259   2.954  -5.422  1.00  0.00     0.002 A 
ATOM     87  C   UNL     1       7.547   1.635  -7.411  1.00  0.00     0.041 A 
ATOM     88  C   UNL     1       7.520   2.880  -6.785  1.00  0.00     0.020 A 
ATOM     89  Cl  UNL     1       7.938   1.535  -9.084  1.00  0.00    -0.084 Cl
ENDBRANCH  82  83
ENDBRANCH  77  82
ENDBRANCH  75  77
ENDBRANCH  74  75
ENDBRANCH  73  74
ENDBRANCH  72  73
ENDBRANCH   1  72
TORSDOF 16
