REMARK SMILES COc1cc(/C=N/[NH+]=C2\NC(=O)[C@@H](CC(=O)OCCOCCOC(=O)c3ccc(-c4c5nc(c(-c6c(F)c(F)c(F)c(F)c6F)c6ccc([nH]6)c(-c6c(F)c(F)c(F)c(F)c6F)c6nc(c(-c7c(F)c(F)c(F)c(F)c7F)c7ccc4[nH]7)C=C6)C=C5)cc3)S2)cc(I)c1OC
REMARK SMILES IDX 19 1 18 2 17 3 15 4 16 5 14 6 13 7 8 8 9 9 10 11 89 12 11 13
REMARK SMILES IDX 12 15 7 16 6 17 5 18 3 19 4 20 93 21 91 22 90 23 92 24 2 25
REMARK SMILES IDX 1 26 94 27 95 28 20 29 21 30 22 31 23 32 24 33 25 34 26 35
REMARK SMILES IDX 27 36 88 37 28 38 87 39 29 40 30 41 31 42 81 43 32 44 86 45
REMARK SMILES IDX 80 46 82 47 33 48 85 49 79 50 78 51 34 53 66 54 46 55 65 56
REMARK SMILES IDX 47 57 50 58 64 59 83 60 48 61 49 62 63 64 84 65 51 66 35 67
REMARK SMILES IDX 36 68 44 69 37 70 38 71 42 72 45 73 39 74 40 75 43 76 41 77
REMARK SMILES IDX 67 78 68 79 76 80 69 81 70 82 74 83 77 84 71 85 72 86 75 87
REMARK SMILES IDX 73 88 52 89 53 90 61 91 54 92 55 93 59 94 62 95 56 96 57 97
REMARK SMILES IDX 60 98 58 99
REMARK H PARENT 8 10 10 14 82 52 50 63
REMARK Flexibility Score: inf
ROOT
ATOM      1  C   UNL     1       9.033  -2.051 -10.976  1.00  0.00     0.202 C 
ENDROOT
BRANCH   1   2
ATOM      2  C   UNL     1       9.464  -0.835 -10.152  1.00  0.00     0.261 C 
BRANCH   2   3
ATOM      3  O   UNL     1       9.121  -0.993  -8.759  1.00  0.00    -0.463 OA
BRANCH   3   4
ATOM      4  C   UNL     1       8.320  -0.034  -8.222  1.00  0.00     0.307 C 
ATOM      5  O   UNL     1       7.906   0.955  -8.811  1.00  0.00    -0.252 OA
BRANCH   4   6
ATOM      6  C   UNL     1       8.071  -0.276  -6.753  1.00  0.00     0.150 C 
BRANCH   6   7
ATOM      7  C   UNL     1       7.602  -1.695  -6.455  1.00  0.00     0.184 C 
ATOM      8  N   UNL     1       6.092  -2.269  -2.948  1.00  0.00    -0.142 N 
ATOM      9  C   UNL     1       6.434  -2.072  -4.176  1.00  0.00     0.337 C 
ATOM     10  H   UNL     1       6.729  -2.543  -2.249  1.00  0.00     0.343 HD
ATOM     11  N   UNL     1       5.579  -1.809  -5.189  1.00  0.00    -0.202 N 
ATOM     12  S   UNL     1       8.067  -2.176  -4.745  1.00  0.00    -0.020 SA
ATOM     13  C   UNL     1       6.083  -1.739  -6.449  1.00  0.00     0.322 C 
ATOM     14  H   UNL     1       4.619  -1.671  -5.018  1.00  0.00     0.316 HD
ATOM     15  O   UNL     1       5.384  -1.713  -7.453  1.00  0.00    -0.246 OA
BRANCH   8  16
ATOM     16  N   UNL     1       4.730  -2.057  -2.705  1.00  0.00    -0.093 NA
ATOM     17  C   UNL     1       4.078  -3.166  -2.554  1.00  0.00     0.166 C 
BRANCH  17  18
ATOM     18  C   UNL     1       2.641  -3.147  -2.247  1.00  0.00     0.002 A 
ATOM     19  C   UNL     1       0.755  -2.172  -1.118  1.00  0.00     0.162 A 
ATOM     20  C   UNL     1       2.125  -2.182  -1.392  1.00  0.00     0.060 A 
ATOM     21  C   UNL     1      -0.125  -3.117  -1.718  1.00  0.00     0.174 A 
ATOM     22  C   UNL     1       0.421  -4.074  -2.594  1.00  0.00     0.060 A 
ATOM     23  C   UNL     1       1.809  -4.095  -2.834  1.00  0.00     0.028 A 
ATOM     24  I   UNL     1      -0.616  -5.511  -3.739  1.00  0.00    -0.040 I 
BRANCH  19  25
ATOM     25  O   UNL     1       0.191  -1.300  -0.212  1.00  0.00    -0.493 OA
ATOM     26  C   UNL     1       0.821  -0.033  -0.067  1.00  0.00     0.278 C 
ENDBRANCH  19  25
BRANCH  21  27
ATOM     27  O   UNL     1      -1.428  -2.878  -1.375  1.00  0.00    -0.492 OA
ATOM     28  C   UNL     1      -2.450  -3.839  -1.532  1.00  0.00     0.278 C 
ENDBRANCH  21  27
ENDBRANCH  17  18
ENDBRANCH   8  16
ENDBRANCH   6   7
ENDBRANCH   4   6
ENDBRANCH   3   4
ENDBRANCH   2   3
ENDBRANCH   1   2
BRANCH   1  29
ATOM     29  O   UNL     1       7.634  -2.165 -11.235  1.00  0.00    -0.374 OA
BRANCH  29  30
ATOM     30  C   UNL     1       6.809  -2.586 -10.150  1.00  0.00     0.202 C 
BRANCH  30  31
ATOM     31  C   UNL     1       6.759  -4.099  -9.906  1.00  0.00     0.261 C 
BRANCH  31  32
ATOM     32  O   UNL     1       8.045  -4.623  -9.520  1.00  0.00    -0.460 OA
BRANCH  32  33
ATOM     33  C   UNL     1       8.625  -5.424 -10.445  1.00  0.00     0.338 C 
ATOM     34  O   UNL     1       8.136  -5.821 -11.495  1.00  0.00    -0.246 OA
BRANCH  33  35
ATOM     35  C   UNL     1      10.042  -5.665 -10.112  1.00  0.00     0.060 A 
ATOM     36  C   UNL     1      10.983  -5.451 -11.128  1.00  0.00     0.016 A 
ATOM     37  C   UNL     1      10.439  -6.182  -8.877  1.00  0.00     0.016 A 
ATOM     38  C   UNL     1      12.313  -5.818 -10.938  1.00  0.00     0.010 A 
ATOM     39  C   UNL     1      11.776  -6.556  -8.689  1.00  0.00     0.010 A 
ATOM     40  C   UNL     1      12.708  -6.417  -9.734  1.00  0.00    -0.014 A 
BRANCH  40  41
ATOM     41  C   UNL     1      14.044  -7.057  -9.653  1.00  0.00     0.031 A 
ATOM     42  C   UNL     1      14.153  -8.541  -9.882  1.00  0.00     0.074 A 
ATOM     43  C   UNL     1      15.152  -6.326  -9.438  1.00  0.00     0.049 A 
ATOM     44  N   UNL     1      15.211  -9.311  -9.868  1.00  0.00    -0.248 NA
ATOM     45  C   UNL     1      12.896  -9.252 -10.168  1.00  0.00     0.031 C 
ATOM     46  C   UNL     1      15.184  -4.879  -9.245  1.00  0.00     0.029 A 
ATOM     47  N   UNL     1      16.468  -6.709  -9.349  1.00  0.00    -0.354 N 
ATOM     48  C   UNL     1      14.749 -10.592 -10.142  1.00  0.00     0.074 A 
ATOM     49  C   UNL     1      13.312 -10.504 -10.285  1.00  0.00     0.031 C 
ATOM     50  C   UNL     1      16.458  -4.493  -9.056  1.00  0.00     0.029 A 
ATOM     51  C   UNL     1      17.326  -5.670  -9.090  1.00  0.00     0.049 A 
ATOM     52  H   UNL     1      16.767  -7.640  -9.461  1.00  0.00     0.167 HD
ATOM     53  C   UNL     1      15.459 -11.738 -10.275  1.00  0.00     0.037 A 
ATOM     54  C   UNL     1      18.659  -5.673  -8.891  1.00  0.00     0.037 A 
ATOM     55  C   UNL     1      16.888 -11.828 -10.136  1.00  0.00     0.049 A 
ATOM     56  C   UNL     1      19.418  -6.972  -8.981  1.00  0.00     0.074 A 
ATOM     57  C   UNL     1      17.700 -12.943 -10.256  1.00  0.00     0.029 A 
ATOM     58  N   UNL     1      17.720 -10.758  -9.843  1.00  0.00    -0.354 N 
ATOM     59  N   UNL     1      18.976  -8.174  -9.258  1.00  0.00    -0.248 NA
ATOM     60  C   UNL     1      20.867  -6.911  -8.737  1.00  0.00     0.031 C 
ATOM     61  C   UNL     1      19.018 -12.554  -9.995  1.00  0.00     0.029 A 
ATOM     62  C   UNL     1      19.034 -11.189  -9.760  1.00  0.00     0.049 A 
ATOM     63  H   UNL     1      17.421  -9.829  -9.714  1.00  0.00     0.167 HD
ATOM     64  C   UNL     1      20.090  -9.004  -9.254  1.00  0.00     0.074 A 
ATOM     65  C   UNL     1      21.233  -8.166  -8.956  1.00  0.00     0.031 C 
ATOM     66  C   UNL     1      20.161 -10.339  -9.479  1.00  0.00     0.037 A 
BRANCH  53  67
ATOM     67  C   UNL     1      14.694 -12.994 -10.568  1.00  0.00     0.064 A 
ATOM     68  C   UNL     1      14.122 -13.230 -11.827  1.00  0.00     0.173 A 
ATOM     69  C   UNL     1      14.556 -13.988  -9.587  1.00  0.00     0.173 A 
ATOM     70  F   UNL     1      14.213 -12.305 -12.794  1.00  0.00    -0.203 F 
ATOM     71  C   UNL     1      13.421 -14.406 -12.086  1.00  0.00     0.198 A 
ATOM     72  C   UNL     1      13.877 -15.172  -9.857  1.00  0.00     0.198 A 
ATOM     73  F   UNL     1      15.087 -13.811  -8.367  1.00  0.00    -0.203 F 
ATOM     74  F   UNL     1      12.846 -14.592 -13.282  1.00  0.00    -0.200 F 
ATOM     75  C   UNL     1      13.305 -15.378 -11.104  1.00  0.00     0.200 A 
ATOM     76  F   UNL     1      13.774 -16.115  -8.910  1.00  0.00    -0.200 F 
ATOM     77  F   UNL     1      12.635 -16.511 -11.356  1.00  0.00    -0.200 F 
ENDBRANCH  53  67
BRANCH  54  78
ATOM     78  C   UNL     1      19.368  -4.404  -8.582  1.00  0.00     0.064 A 
ATOM     79  C   UNL     1      20.260  -3.832  -9.499  1.00  0.00     0.173 A 
ATOM     80  C   UNL     1      19.187  -3.753  -7.354  1.00  0.00     0.173 A 
ATOM     81  F   UNL     1      20.487  -4.432 -10.677  1.00  0.00    -0.203 F 
ATOM     82  C   UNL     1      20.959  -2.666  -9.191  1.00  0.00     0.198 A 
ATOM     83  C   UNL     1      19.865  -2.573  -7.058  1.00  0.00     0.198 A 
ATOM     84  F   UNL     1      18.347  -4.262  -6.441  1.00  0.00    -0.203 F 
ATOM     85  F   UNL     1      21.841  -2.165 -10.067  1.00  0.00    -0.200 F 
ATOM     86  C   UNL     1      20.757  -2.034  -7.973  1.00  0.00     0.200 A 
ATOM     87  F   UNL     1      19.660  -1.961  -5.883  1.00  0.00    -0.200 F 
ATOM     88  F   UNL     1      21.428  -0.913  -7.678  1.00  0.00    -0.200 F 
ENDBRANCH  54  78
BRANCH  66  89
ATOM     89  C   UNL     1      21.522 -10.971  -9.456  1.00  0.00     0.064 A 
ATOM     90  C   UNL     1      22.224 -11.168  -8.258  1.00  0.00     0.173 A 
ATOM     91  C   UNL     1      22.112 -11.423 -10.647  1.00  0.00     0.173 A 
ATOM     92  F   UNL     1      21.709 -10.741  -7.096  1.00  0.00    -0.203 F 
ATOM     93  C   UNL     1      23.479 -11.772  -8.256  1.00  0.00     0.198 A 
ATOM     94  C   UNL     1      23.354 -12.052 -10.637  1.00  0.00     0.198 A 
ATOM     95  F   UNL     1      21.478 -11.266 -11.818  1.00  0.00    -0.203 F 
ATOM     96  F   UNL     1      24.152 -11.909  -7.106  1.00  0.00    -0.200 F 
ATOM     97  C   UNL     1      24.040 -12.219  -9.444  1.00  0.00     0.200 A 
ATOM     98  F   UNL     1      23.889 -12.494 -11.784  1.00  0.00    -0.200 F 
ATOM     99  F   UNL     1      25.245 -12.805  -9.439  1.00  0.00    -0.200 F 
ENDBRANCH  66  89
ENDBRANCH  40  41
ENDBRANCH  33  35
ENDBRANCH  32  33
ENDBRANCH  31  32
ENDBRANCH  30  31
ENDBRANCH  29  30
ENDBRANCH   1  29
TORSDOF 19
