REMARK SMILES C#CCN(CC(=O)OCCOCCOC(=O)c1ccc(-c2c3nc(c(-c4c(F)c(F)c(F)c(F)c4F)c4ccc([nH]4)c(-c4c(F)c(F)c(F)c(F)c4F)c4nc(c(-c5c(F)c(F)c(F)c(F)c5F)c5ccc2[nH]5)C=C4)C=C3)cc1)S(=O)(=O)c1ccc(C(C)(C)C)cc1
REMARK SMILES IDX 10 1 9 2 8 3 6 4 7 5 5 6 4 7 3 8 2 9 1 10 80 11 81 12 82 13
REMARK SMILES IDX 83 14 84 15 92 16 85 17 91 18 86 19 87 20 88 21 89 22 90 23
REMARK SMILES IDX 11 24 12 25 13 26 14 27 15 28 16 29 17 30 18 31 79 32 19 33
REMARK SMILES IDX 78 34 20 35 21 36 22 37 72 38 23 39 77 40 71 41 73 42 24 43
REMARK SMILES IDX 76 44 70 45 69 46 25 48 57 49 37 50 56 51 38 52 41 53 55 54
REMARK SMILES IDX 74 55 39 56 40 57 54 59 75 60 42 61 26 62 27 63 35 64 28 65
REMARK SMILES IDX 29 66 33 67 36 68 30 69 31 70 34 71 32 72 58 73 59 74 67 75
REMARK SMILES IDX 60 76 61 77 65 78 68 79 62 80 63 81 66 82 64 83 43 84 44 85
REMARK SMILES IDX 52 86 45 87 46 88 50 89 53 90 47 91 48 92 51 93 49 94
REMARK H PARENT 73 47 41 58
REMARK Flexibility Score: inf
ROOT
ATOM      1  C   UNL     1      -5.162  -0.831  -3.712  1.00  0.00     0.202 C 
ENDROOT
BRANCH   1   2
ATOM      2  C   UNL     1      -5.525  -0.153  -2.386  1.00  0.00     0.261 C 
BRANCH   2   3
ATOM      3  O   UNL     1      -4.502  -0.405  -1.409  1.00  0.00    -0.462 OA
BRANCH   3   4
ATOM      4  C   UNL     1      -4.923  -0.678  -0.145  1.00  0.00     0.321 C 
ATOM      5  O   UNL     1      -6.059  -0.473   0.266  1.00  0.00    -0.251 OA
BRANCH   4   6
ATOM      6  C   UNL     1      -3.857  -1.367   0.691  1.00  0.00     0.226 C 
BRANCH   6   7
ATOM      7  N   UNL     1      -2.489  -1.466   0.091  1.00  0.00    -0.175 NA
BRANCH   7   8
ATOM      8  C   UNL     1      -1.885  -0.078  -0.013  1.00  0.00     0.192 C 
BRANCH   8   9
ATOM      9  C   UNL     1      -0.365  -0.078  -0.013  1.00  0.00    -0.090 C 
ATOM     10  C   UNL     1       0.939  -0.078  -0.013  1.00  0.00     0.005 C 
ENDBRANCH   8   9
ENDBRANCH   7   8
BRANCH   7  11
ATOM     11  S   UNL     1      -1.445  -2.615   0.820  1.00  0.00     0.244 S 
ATOM     12  O   UNL     1      -0.353  -2.881  -0.097  1.00  0.00    -0.207 OA
ATOM     13  O   UNL     1      -1.200  -2.155   2.171  1.00  0.00    -0.207 OA
BRANCH  11  14
ATOM     14  C   UNL     1      -2.319  -4.158   0.957  1.00  0.00     0.082 A 
ATOM     15  C   UNL     1      -2.991  -4.434   2.146  1.00  0.00     0.022 A 
ATOM     16  C   UNL     1      -2.070  -5.182   0.040  1.00  0.00     0.022 A 
ATOM     17  C   UNL     1      -3.391  -5.739   2.426  1.00  0.00     0.005 A 
ATOM     18  C   UNL     1      -2.464  -6.492   0.334  1.00  0.00     0.005 A 
ATOM     19  C   UNL     1      -3.098  -6.804   1.550  1.00  0.00    -0.043 A 
BRANCH  19  20
ATOM     20  C   UNL     1      -3.395  -8.248   1.991  1.00  0.00    -0.013 C 
ATOM     21  C   UNL     1      -2.617  -8.546   3.295  1.00  0.00     0.016 C 
ATOM     22  C   UNL     1      -4.906  -8.414   2.248  1.00  0.00     0.016 C 
ATOM     23  C   UNL     1      -2.975  -9.322   0.964  1.00  0.00     0.016 C 
ENDBRANCH  19  20
ENDBRANCH  11  14
ENDBRANCH   7  11
ENDBRANCH   6   7
ENDBRANCH   4   6
ENDBRANCH   3   4
ENDBRANCH   2   3
ENDBRANCH   1   2
BRANCH   1  24
ATOM     24  O   UNL     1      -5.168  -2.260  -3.703  1.00  0.00    -0.374 OA
BRANCH  24  25
ATOM     25  C   UNL     1      -4.206  -2.931  -2.889  1.00  0.00     0.202 C 
BRANCH  25  26
ATOM     26  C   UNL     1      -2.746  -2.875  -3.354  1.00  0.00     0.261 C 
BRANCH  26  27
ATOM     27  O   UNL     1      -2.229  -1.537  -3.452  1.00  0.00    -0.460 OA
BRANCH  27  28
ATOM     28  C   UNL     1      -1.750  -1.212  -4.676  1.00  0.00     0.338 C 
ATOM     29  O   UNL     1      -1.684  -1.922  -5.666  1.00  0.00    -0.246 OA
BRANCH  28  30
ATOM     30  C   UNL     1      -1.414   0.219  -4.735  1.00  0.00     0.060 A 
ATOM     31  C   UNL     1      -2.129   1.016  -5.637  1.00  0.00     0.016 A 
ATOM     32  C   UNL     1      -0.315   0.733  -4.045  1.00  0.00     0.016 A 
ATOM     33  C   UNL     1      -1.713   2.321  -5.895  1.00  0.00     0.010 A 
ATOM     34  C   UNL     1       0.104   2.042  -4.309  1.00  0.00     0.010 A 
ATOM     35  C   UNL     1      -0.568   2.828  -5.265  1.00  0.00    -0.014 A 
BRANCH  35  36
ATOM     36  C   UNL     1       0.008   4.118  -5.722  1.00  0.00     0.031 A 
ATOM     37  C   UNL     1       1.167   4.103  -6.682  1.00  0.00     0.074 A 
ATOM     38  C   UNL     1      -0.521   5.288  -5.324  1.00  0.00     0.049 A 
ATOM     39  N   UNL     1       1.849   5.105  -7.179  1.00  0.00    -0.248 NA
ATOM     40  C   UNL     1       1.614   2.781  -7.150  1.00  0.00     0.031 C 
ATOM     41  C   UNL     1      -1.679   5.435  -4.445  1.00  0.00     0.029 A 
ATOM     42  N   UNL     1      -0.147   6.578  -5.608  1.00  0.00    -0.354 N 
ATOM     43  C   UNL     1       2.803   4.536  -8.014  1.00  0.00     0.074 A 
ATOM     44  C   UNL     1       2.631   3.101  -7.937  1.00  0.00     0.031 C 
ATOM     45  C   UNL     1      -1.917   6.744  -4.253  1.00  0.00     0.029 A 
ATOM     46  C   UNL     1      -0.908   7.525  -4.967  1.00  0.00     0.049 A 
ATOM     47  H   UNL     1       0.596   6.803  -6.214  1.00  0.00     0.167 HD
ATOM     48  C   UNL     1       3.730   5.155  -8.783  1.00  0.00     0.037 A 
ATOM     49  C   UNL     1      -0.787   8.867  -4.944  1.00  0.00     0.037 A 
ATOM     50  C   UNL     1       3.904   6.582  -8.857  1.00  0.00     0.049 A 
ATOM     51  C   UNL     1       0.312   9.525  -5.739  1.00  0.00     0.074 A 
ATOM     52  C   UNL     1       4.827   7.303  -9.594  1.00  0.00     0.029 A 
ATOM     53  N   UNL     1       3.134   7.505  -8.167  1.00  0.00    -0.354 N 
ATOM     54  N   UNL     1       1.207   8.980  -6.526  1.00  0.00    -0.248 NA
ATOM     55  C   UNL     1       0.415  10.989  -5.641  1.00  0.00     0.031 C 
ATOM     56  C   UNL     1       4.642   8.662  -9.319  1.00  0.00     0.029 A 
ATOM     57  C   UNL     1       3.571   8.789  -8.450  1.00  0.00     0.049 A 
ATOM     58  H   UNL     1       2.388   7.282  -7.565  1.00  0.00     0.167 HD
ATOM     59  C   UNL     1       1.950  10.032  -7.047  1.00  0.00     0.074 A 
ATOM     60  C   UNL     1       1.400  11.249  -6.490  1.00  0.00     0.031 C 
ATOM     61  C   UNL     1       2.993   9.993  -7.912  1.00  0.00     0.037 A 
BRANCH  48  62
ATOM     62  C   UNL     1       4.647   4.290  -9.597  1.00  0.00     0.064 A 
ATOM     63  C   UNL     1       4.195   3.617 -10.742  1.00  0.00     0.173 A 
ATOM     64  C   UNL     1       6.003   4.172  -9.257  1.00  0.00     0.173 A 
ATOM     65  F   UNL     1       2.905   3.689 -11.102  1.00  0.00    -0.203 F 
ATOM     66  C   UNL     1       5.064   2.842 -11.506  1.00  0.00     0.198 A 
ATOM     67  C   UNL     1       6.874   3.418 -10.038  1.00  0.00     0.198 A 
ATOM     68  F   UNL     1       6.486   4.801  -8.175  1.00  0.00    -0.203 F 
ATOM     69  F   UNL     1       4.603   2.179 -12.576  1.00  0.00    -0.200 F 
ATOM     70  C   UNL     1       6.403   2.750 -11.158  1.00  0.00     0.200 A 
ATOM     71  F   UNL     1       8.171   3.340  -9.708  1.00  0.00    -0.200 F 
ATOM     72  F   UNL     1       7.241   2.013 -11.901  1.00  0.00    -0.200 F 
ENDBRANCH  48  62
BRANCH  49  73
ATOM     73  C   UNL     1      -1.721   9.687  -4.129  1.00  0.00     0.064 A 
ATOM     74  C   UNL     1      -2.639  10.556  -4.736  1.00  0.00     0.173 A 
ATOM     75  C   UNL     1      -1.690   9.647  -2.727  1.00  0.00     0.173 A 
ATOM     76  F   UNL     1      -2.688  10.649  -6.073  1.00  0.00    -0.203 F 
ATOM     77  C   UNL     1      -3.472  11.370  -3.972  1.00  0.00     0.198 A 
ATOM     78  C   UNL     1      -2.544  10.440  -1.965  1.00  0.00     0.198 A 
ATOM     79  F   UNL     1      -0.829   8.835  -2.097  1.00  0.00    -0.203 F 
ATOM     80  F   UNL     1      -4.302  12.231  -4.578  1.00  0.00    -0.200 F 
ATOM     81  C   UNL     1      -3.428  11.309  -2.587  1.00  0.00     0.200 A 
ATOM     82  F   UNL     1      -2.505  10.370  -0.627  1.00  0.00    -0.200 F 
ATOM     83  F   UNL     1      -4.228  12.094  -1.853  1.00  0.00    -0.200 F 
ENDBRANCH  49  73
BRANCH  61  84
ATOM     84  C   UNL     1       3.570  11.302  -8.364  1.00  0.00     0.064 A 
ATOM     85  C   UNL     1       4.362  12.093  -7.520  1.00  0.00     0.173 A 
ATOM     86  C   UNL     1       3.370  11.743  -9.682  1.00  0.00     0.173 A 
ATOM     87  F   UNL     1       4.570  11.722  -6.248  1.00  0.00    -0.203 F 
ATOM     88  C   UNL     1       4.917  13.287  -7.973  1.00  0.00     0.198 A 
ATOM     89  C   UNL     1       3.949  12.923 -10.139  1.00  0.00     0.198 A 
ATOM     90  F   UNL     1       2.626  11.019 -10.531  1.00  0.00    -0.203 F 
ATOM     91  F   UNL     1       5.638  14.047  -7.137  1.00  0.00    -0.200 F 
ATOM     92  C   UNL     1       4.717  13.697  -9.283  1.00  0.00     0.200 A 
ATOM     93  F   UNL     1       3.765  13.310 -11.409  1.00  0.00    -0.200 F 
ATOM     94  F   UNL     1       5.261  14.841  -9.719  1.00  0.00    -0.200 F 
ENDBRANCH  61  84
ENDBRANCH  35  36
ENDBRANCH  28  30
ENDBRANCH  27  28
ENDBRANCH  26  27
ENDBRANCH  25  26
ENDBRANCH  24  25
ENDBRANCH   1  24
TORSDOF 20
