REMARK SMILES O=C(CSc1ccc(NC(=O)c2cccc3ccccc23)cc1)OCCOCCOC(=O)c1ccc(-c2c3nc(c(-c4c(F)c(F)c(F)c(F)c4F)c4ccc([nH]4)c(-c4c(F)c(F)c(F)c(F)c4F)c4nc(c(-c5c(F)c(F)c(F)c(F)c5F)c5ccc2[nH]5)C=C4)C=C3)cc1
REMARK SMILES IDX 26 1 25 2 24 3 2 4 1 5 3 6 4 7 5 8 6 9 23 10 7 11 22 12 8 13
REMARK SMILES IDX 9 14 10 15 11 17 12 18 13 19 21 20 14 21 16 22 20 23 15 24
REMARK SMILES IDX 17 25 19 26 18 27 27 28 28 29 29 30 30 31 31 32 32 33 33 34
REMARK SMILES IDX 34 35 95 36 35 37 94 38 36 39 37 40 38 41 88 42 39 43 93 44
REMARK SMILES IDX 87 45 89 46 40 47 92 48 86 49 85 50 41 52 73 53 53 54 72 55
REMARK SMILES IDX 54 56 57 57 71 58 90 59 55 60 56 61 70 63 91 64 58 65 42 66
REMARK SMILES IDX 43 67 51 68 44 69 45 70 49 71 52 72 46 73 47 74 50 75 48 76
REMARK SMILES IDX 74 77 75 78 83 79 76 80 77 81 81 82 84 83 78 84 79 85 82 86
REMARK SMILES IDX 80 87 59 88 60 89 68 90 61 91 62 92 66 93 69 94 63 95 64 96
REMARK SMILES IDX 67 97 65 98
REMARK H PARENT 9 16 89 51 57 62
REMARK Flexibility Score: inf
ROOT
ATOM      1  C   UNL     1       4.838   0.974   0.576  1.00  0.00     0.202 C 
ENDROOT
BRANCH   1   2
ATOM      2  C   UNL     1       4.379   0.074  -0.568  1.00  0.00     0.261 C 
BRANCH   2   3
ATOM      3  O   UNL     1       2.962  -0.117  -0.616  1.00  0.00    -0.463 OA
BRANCH   3   4
ATOM      4  C   UNL     1       2.273  -0.850   0.283  1.00  0.00     0.316 C 
ATOM      5  O   UNL     1       1.077  -0.593   0.457  1.00  0.00    -0.251 OA
BRANCH   4   6
ATOM      6  C   UNL     1       2.924  -1.956   1.085  1.00  0.00     0.197 C 
BRANCH   6   7
ATOM      7  S   UNL     1       3.952  -3.147   0.185  1.00  0.00    -0.114 SA
BRANCH   7   8
ATOM      8  C   UNL     1       2.789  -3.949  -0.887  1.00  0.00     0.008 A 
ATOM      9  C   UNL     1       1.580  -3.383  -1.274  1.00  0.00     0.017 A 
ATOM     10  C   UNL     1       3.130  -5.195  -1.414  1.00  0.00     0.017 A 
ATOM     11  C   UNL     1       0.749  -3.996  -2.189  1.00  0.00     0.027 A 
ATOM     12  C   UNL     1       2.327  -5.784  -2.396  1.00  0.00     0.027 A 
ATOM     13  C   UNL     1       1.187  -5.117  -2.856  1.00  0.00     0.041 A 
BRANCH  13  14
ATOM     14  N   UNL     1       0.606  -5.538  -4.050  1.00  0.00    -0.322 N 
ATOM     15  C   UNL     1      -0.199  -4.881  -4.955  1.00  0.00     0.256 C 
ATOM     16  H   UNL     1       0.806  -6.471  -4.290  1.00  0.00     0.170 HD
ATOM     17  O   UNL     1      -0.580  -5.516  -5.942  1.00  0.00    -0.269 OA
BRANCH  15  18
ATOM     18  C   UNL     1      -0.686  -3.476  -4.831  1.00  0.00     0.048 A 
ATOM     19  C   UNL     1      -2.090  -3.383  -4.805  1.00  0.00     0.014 A 
ATOM     20  C   UNL     1       0.115  -2.287  -4.839  1.00  0.00    -0.006 A 
ATOM     21  C   UNL     1      -2.724  -2.149  -4.857  1.00  0.00     0.001 A 
ATOM     22  C   UNL     1      -0.564  -1.039  -4.932  1.00  0.00    -0.018 A 
ATOM     23  C   UNL     1       1.529  -2.222  -4.713  1.00  0.00     0.009 A 
ATOM     24  C   UNL     1      -1.964  -0.991  -4.966  1.00  0.00     0.009 A 
ATOM     25  C   UNL     1       0.147   0.172  -4.957  1.00  0.00     0.009 A 
ATOM     26  C   UNL     1       2.210  -1.000  -4.611  1.00  0.00     0.001 A 
ATOM     27  C   UNL     1       1.523   0.196  -4.762  1.00  0.00     0.001 A 
ENDBRANCH  15  18
ENDBRANCH  13  14
ENDBRANCH   7   8
ENDBRANCH   6   7
ENDBRANCH   4   6
ENDBRANCH   3   4
ENDBRANCH   2   3
ENDBRANCH   1   2
BRANCH   1  28
ATOM     28  O   UNL     1       4.341   0.677   1.878  1.00  0.00    -0.374 OA
BRANCH  28  29
ATOM     29  C   UNL     1       3.088   1.276   2.240  1.00  0.00     0.202 C 
BRANCH  29  30
ATOM     30  C   UNL     1       3.135   2.703   2.780  1.00  0.00     0.261 C 
BRANCH  30  31
ATOM     31  O   UNL     1       3.395   3.633   1.719  1.00  0.00    -0.460 OA
BRANCH  31  32
ATOM     32  C   UNL     1       4.690   4.006   1.591  1.00  0.00     0.338 C 
ATOM     33  O   UNL     1       5.619   3.730   2.321  1.00  0.00    -0.246 OA
BRANCH  32  34
ATOM     34  C   UNL     1       4.854   4.632   0.265  1.00  0.00     0.060 A 
ATOM     35  C   UNL     1       5.961   4.252  -0.511  1.00  0.00     0.016 A 
ATOM     36  C   UNL     1       3.943   5.580  -0.199  1.00  0.00     0.016 A 
ATOM     37  C   UNL     1       6.202   4.877  -1.729  1.00  0.00     0.010 A 
ATOM     38  C   UNL     1       4.189   6.213  -1.411  1.00  0.00     0.010 A 
ATOM     39  C   UNL     1       5.345   5.898  -2.150  1.00  0.00    -0.014 A 
BRANCH  39  40
ATOM     40  C   UNL     1       5.742   6.812  -3.237  1.00  0.00     0.031 A 
ATOM     41  C   UNL     1       6.283   8.156  -2.852  1.00  0.00     0.074 A 
ATOM     42  C   UNL     1       5.548   6.479  -4.521  1.00  0.00     0.049 A 
ATOM     43  N   UNL     1       6.494   9.213  -3.589  1.00  0.00    -0.248 NA
ATOM     44  C   UNL     1       6.599   8.338  -1.425  1.00  0.00     0.031 C 
ATOM     45  C   UNL     1       5.060   5.186  -4.992  1.00  0.00     0.029 A 
ATOM     46  N   UNL     1       5.695   7.229  -5.658  1.00  0.00    -0.354 N 
ATOM     47  C   UNL     1       6.932  10.195  -2.712  1.00  0.00     0.074 A 
ATOM     48  C   UNL     1       6.933   9.618  -1.387  1.00  0.00     0.031 C 
ATOM     49  C   UNL     1       4.904   5.245  -6.325  1.00  0.00     0.029 A 
ATOM     50  C   UNL     1       5.235   6.594  -6.783  1.00  0.00     0.049 A 
ATOM     51  H   UNL     1       6.090   8.130  -5.667  1.00  0.00     0.167 HD
ATOM     52  C   UNL     1       7.296  11.468  -2.996  1.00  0.00     0.037 A 
ATOM     53  C   UNL     1       5.054   7.072  -8.028  1.00  0.00     0.037 A 
ATOM     54  C   UNL     1       7.278  12.018  -4.325  1.00  0.00     0.049 A 
ATOM     55  C   UNL     1       5.416   8.504  -8.320  1.00  0.00     0.074 A 
ATOM     56  C   UNL     1       7.663  13.277  -4.744  1.00  0.00     0.029 A 
ATOM     57  N   UNL     1       6.832  11.337  -5.451  1.00  0.00    -0.354 N 
ATOM     58  N   UNL     1       5.861   9.429  -7.502  1.00  0.00    -0.248 NA
ATOM     59  C   UNL     1       5.256   8.960  -9.707  1.00  0.00     0.031 C 
ATOM     60  C   UNL     1       7.383  13.382  -6.110  1.00  0.00     0.029 A 
ATOM     61  C   UNL     1       6.899  12.162  -6.560  1.00  0.00     0.049 A 
ATOM     62  H   UNL     1       6.514  10.405  -5.458  1.00  0.00     0.167 HD
ATOM     63  C   UNL     1       6.066  10.563  -8.276  1.00  0.00     0.074 A 
ATOM     64  C   UNL     1       5.694  10.209  -9.632  1.00  0.00     0.031 C 
ATOM     65  C   UNL     1       6.529  11.783  -7.903  1.00  0.00     0.037 A 
BRANCH  52  66
ATOM     66  C   UNL     1       7.681  12.349  -1.842  1.00  0.00     0.064 A 
ATOM     67  C   UNL     1       8.829  12.111  -1.069  1.00  0.00     0.173 A 
ATOM     68  C   UNL     1       6.874  13.442  -1.489  1.00  0.00     0.173 A 
ATOM     69  F   UNL     1       9.629  11.071  -1.350  1.00  0.00    -0.203 F 
ATOM     70  C   UNL     1       9.124  12.900   0.041  1.00  0.00     0.198 A 
ATOM     71  C   UNL     1       7.195  14.253  -0.404  1.00  0.00     0.198 A 
ATOM     72  F   UNL     1       5.766  13.721  -2.193  1.00  0.00    -0.203 F 
ATOM     73  F   UNL     1      10.182  12.603   0.809  1.00  0.00    -0.200 F 
ATOM     74  C   UNL     1       8.310  13.973   0.369  1.00  0.00     0.200 A 
ATOM     75  F   UNL     1       6.414  15.298  -0.097  1.00  0.00    -0.200 F 
ATOM     76  F   UNL     1       8.593  14.728   1.440  1.00  0.00    -0.200 F 
ENDBRANCH  52  66
BRANCH  53  77
ATOM     77  C   UNL     1       4.489   6.180  -9.071  1.00  0.00     0.064 A 
ATOM     78  C   UNL     1       5.287   5.695 -10.115  1.00  0.00     0.173 A 
ATOM     79  C   UNL     1       3.155   5.747  -9.013  1.00  0.00     0.173 A 
ATOM     80  F   UNL     1       6.564   6.093 -10.221  1.00  0.00    -0.203 F 
ATOM     81  C   UNL     1       4.773   4.813 -11.063  1.00  0.00     0.198 A 
ATOM     82  C   UNL     1       2.650   4.845  -9.945  1.00  0.00     0.198 A 
ATOM     83  F   UNL     1       2.353   6.176  -8.028  1.00  0.00    -0.203 F 
ATOM     84  F   UNL     1       5.551   4.383 -12.065  1.00  0.00    -0.200 F 
ATOM     85  C   UNL     1       3.458   4.381 -10.972  1.00  0.00     0.200 A 
ATOM     86  F   UNL     1       1.385   4.415  -9.841  1.00  0.00    -0.200 F 
ATOM     87  F   UNL     1       2.971   3.516 -11.872  1.00  0.00    -0.200 F 
ENDBRANCH  53  77
BRANCH  65  88
ATOM     88  C   UNL     1       6.717  12.815  -8.978  1.00  0.00     0.064 A 
ATOM     89  C   UNL     1       5.631  13.449  -9.597  1.00  0.00     0.173 A 
ATOM     90  C   UNL     1       8.010  13.228  -9.335  1.00  0.00     0.173 A 
ATOM     91  F   UNL     1       4.375  13.082  -9.301  1.00  0.00    -0.203 F 
ATOM     92  C   UNL     1       5.834  14.449 -10.546  1.00  0.00     0.198 A 
ATOM     93  C   UNL     1       8.209  14.251 -10.257  1.00  0.00     0.198 A 
ATOM     94  F   UNL     1       9.084  12.658  -8.766  1.00  0.00    -0.203 F 
ATOM     95  F   UNL     1       4.782  15.016 -11.153  1.00  0.00    -0.200 F 
ATOM     96  C   UNL     1       7.120  14.857 -10.866  1.00  0.00     0.200 A 
ATOM     97  F   UNL     1       9.452  14.655 -10.550  1.00  0.00    -0.200 F 
ATOM     98  F   UNL     1       7.312  15.833 -11.763  1.00  0.00    -0.200 F 
ENDBRANCH  65  88
ENDBRANCH  39  40
ENDBRANCH  32  34
ENDBRANCH  31  32
ENDBRANCH  30  31
ENDBRANCH  29  30
ENDBRANCH  28  29
ENDBRANCH   1  28
TORSDOF 18
