REMARK SMILES CCC[C@@](C)(C/C=C/c1ccccc1)C(=O)OCCOCCOC(=O)c1ccc(-c2c3nc(c(-c4c(F)c(F)c(F)c(F)c4F)c4ccc([nH]4)c(-c4c(F)c(F)c(F)c(F)c4F)c4nc(c(-c5c(F)c(F)c(F)c(F)c5F)c5ccc2[nH]5)C=C4)C=C3)cc1
REMARK SMILES IDX 19 1 18 2 17 3 15 4 16 5 4 6 5 7 3 8 2 9 1 10 6 11 7 12 8 13
REMARK SMILES IDX 9 14 10 15 14 16 11 17 13 18 12 19 20 20 21 21 22 22 23 23
REMARK SMILES IDX 24 24 25 25 26 26 27 27 88 28 28 29 87 30 29 31 30 32 31 33
REMARK SMILES IDX 81 34 32 35 86 36 80 37 82 38 33 39 85 40 79 41 78 42 34 44
REMARK SMILES IDX 66 45 46 46 65 47 47 48 50 49 64 50 83 51 48 52 49 53 63 55
REMARK SMILES IDX 84 56 51 57 35 58 36 59 44 60 37 61 38 62 42 63 45 64 39 65
REMARK SMILES IDX 40 66 43 67 41 68 67 69 68 70 76 71 69 72 70 73 74 74 77 75
REMARK SMILES IDX 71 76 72 77 75 78 73 79 52 80 53 81 61 82 54 83 55 84 59 85
REMARK SMILES IDX 62 86 56 87 57 88 60 89 58 90
REMARK H PARENT 82 43 50 54
REMARK Flexibility Score: inf
ROOT
ATOM      1  C   UNL     1       1.946   3.416  -1.923  1.00  0.00     0.202 C 
ENDROOT
BRANCH   1   2
ATOM      2  C   UNL     1       0.685   3.673  -1.086  1.00  0.00     0.261 C 
BRANCH   2   3
ATOM      3  O   UNL     1       0.803   3.308   0.302  1.00  0.00    -0.463 OA
BRANCH   3   4
ATOM      4  C   UNL     1      -0.039   2.324   0.714  1.00  0.00     0.312 C 
ATOM      5  O   UNL     1      -0.872   1.797  -0.018  1.00  0.00    -0.252 OA
BRANCH   4   6
ATOM      6  C   UNL     1       0.114   1.929   2.192  1.00  0.00     0.069 C 
ATOM      7  C   UNL     1      -1.341   1.839   2.726  1.00  0.00     0.024 C 
BRANCH   6   8
ATOM      8  C   UNL     1       0.827   0.553   2.330  1.00  0.00     0.018 C 
BRANCH   8   9
ATOM      9  C   UNL     1       0.221  -0.692   1.664  1.00  0.00    -0.002 C 
ATOM     10  C   UNL     1       0.713  -0.938   0.243  1.00  0.00     0.004 C 
ENDBRANCH   8   9
ENDBRANCH   6   8
BRANCH   6  11
ATOM     11  C   UNL     1       0.817   3.018   3.088  1.00  0.00     0.046 C 
BRANCH  11  12
ATOM     12  C   UNL     1       2.318   2.952   3.276  1.00  0.00    -0.025 C 
ATOM     13  C   UNL     1       3.115   4.030   3.369  1.00  0.00     0.004 C 
BRANCH  13  14
ATOM     14  C   UNL     1       4.588   4.015   3.501  1.00  0.00    -0.026 A 
ATOM     15  C   UNL     1       5.252   5.238   3.680  1.00  0.00     0.008 A 
ATOM     16  C   UNL     1       5.368   2.861   3.334  1.00  0.00     0.008 A 
ATOM     17  C   UNL     1       6.647   5.314   3.632  1.00  0.00     0.001 A 
ATOM     18  C   UNL     1       6.765   2.937   3.279  1.00  0.00     0.001 A 
ATOM     19  C   UNL     1       7.402   4.167   3.412  1.00  0.00     0.000 A 
ENDBRANCH  13  14
ENDBRANCH  11  12
ENDBRANCH   6  11
ENDBRANCH   4   6
ENDBRANCH   3   4
ENDBRANCH   2   3
ENDBRANCH   1   2
BRANCH   1  20
ATOM     20  O   UNL     1       2.721   2.268  -1.594  1.00  0.00    -0.374 OA
BRANCH  20  21
ATOM     21  C   UNL     1       3.474   2.319  -0.376  1.00  0.00     0.202 C 
BRANCH  21  22
ATOM     22  C   UNL     1       4.360   3.553  -0.182  1.00  0.00     0.261 C 
BRANCH  22  23
ATOM     23  O   UNL     1       3.554   4.722   0.051  1.00  0.00    -0.460 OA
BRANCH  23  24
ATOM     24  C   UNL     1       4.240   5.882  -0.045  1.00  0.00     0.338 C 
ATOM     25  O   UNL     1       5.447   6.036  -0.082  1.00  0.00    -0.246 OA
BRANCH  24  26
ATOM     26  C   UNL     1       3.285   6.964  -0.331  1.00  0.00     0.060 A 
ATOM     27  C   UNL     1       3.017   7.258  -1.673  1.00  0.00     0.016 A 
ATOM     28  C   UNL     1       2.759   7.753   0.692  1.00  0.00     0.016 A 
ATOM     29  C   UNL     1       2.249   8.375  -1.999  1.00  0.00     0.010 A 
ATOM     30  C   UNL     1       1.985   8.873   0.361  1.00  0.00     0.010 A 
ATOM     31  C   UNL     1       1.754   9.208  -0.986  1.00  0.00    -0.014 A 
BRANCH  31  32
ATOM     32  C   UNL     1       1.098  10.489  -1.351  1.00  0.00     0.031 A 
ATOM     33  C   UNL     1       1.895  11.764  -1.324  1.00  0.00     0.074 A 
ATOM     34  C   UNL     1      -0.187  10.509  -1.746  1.00  0.00     0.049 A 
ATOM     35  N   UNL     1       1.523  12.982  -1.626  1.00  0.00    -0.248 NA
ATOM     36  C   UNL     1       3.299  11.651  -0.902  1.00  0.00     0.031 C 
ATOM     37  C   UNL     1      -1.057   9.338  -1.843  1.00  0.00     0.029 A 
ATOM     38  N   UNL     1      -0.984  11.555  -2.141  1.00  0.00    -0.354 N 
ATOM     39  C   UNL     1       2.645  13.778  -1.438  1.00  0.00     0.074 A 
ATOM     40  C   UNL     1       3.703  12.912  -0.964  1.00  0.00     0.031 C 
ATOM     41  C   UNL     1      -2.270   9.732  -2.265  1.00  0.00     0.029 A 
ATOM     42  C   UNL     1      -2.269  11.182  -2.446  1.00  0.00     0.049 A 
ATOM     43  H   UNL     1      -0.663  12.484  -2.200  1.00  0.00     0.167 HD
ATOM     44  C   UNL     1       2.783  15.109  -1.651  1.00  0.00     0.037 A 
ATOM     45  C   UNL     1      -3.327  11.930  -2.816  1.00  0.00     0.037 A 
ATOM     46  C   UNL     1       1.732  15.974  -2.119  1.00  0.00     0.049 A 
ATOM     47  C   UNL     1      -3.165  13.418  -2.980  1.00  0.00     0.074 A 
ATOM     48  C   UNL     1       1.787  17.330  -2.393  1.00  0.00     0.029 A 
ATOM     49  N   UNL     1       0.431  15.567  -2.373  1.00  0.00    -0.354 N 
ATOM     50  N   UNL     1      -2.090  14.154  -2.836  1.00  0.00    -0.248 NA
ATOM     51  C   UNL     1      -4.365  14.178  -3.361  1.00  0.00     0.031 C 
ATOM     52  C   UNL     1       0.507  17.753  -2.768  1.00  0.00     0.029 A 
ATOM     53  C   UNL     1      -0.334  16.652  -2.771  1.00  0.00     0.049 A 
ATOM     54  H   UNL     1       0.101  14.644  -2.285  1.00  0.00     0.167 HD
ATOM     55  C   UNL     1      -2.477  15.457  -3.123  1.00  0.00     0.074 A 
ATOM     56  C   UNL     1      -3.883  15.409  -3.467  1.00  0.00     0.031 C 
ATOM     57  C   UNL     1      -1.734  16.590  -3.103  1.00  0.00     0.037 A 
BRANCH  44  58
ATOM     58  C   UNL     1       4.122  15.720  -1.361  1.00  0.00     0.064 A 
ATOM     59  C   UNL     1       5.222  15.512  -2.208  1.00  0.00     0.173 A 
ATOM     60  C   UNL     1       4.297  16.554  -0.247  1.00  0.00     0.173 A 
ATOM     61  F   UNL     1       5.108  14.714  -3.279  1.00  0.00    -0.203 F 
ATOM     62  C   UNL     1       6.454  16.103  -1.937  1.00  0.00     0.198 A 
ATOM     63  C   UNL     1       5.524  17.160   0.007  1.00  0.00     0.198 A 
ATOM     64  F   UNL     1       3.276  16.787   0.590  1.00  0.00    -0.203 F 
ATOM     65  F   UNL     1       7.501  15.862  -2.738  1.00  0.00    -0.200 F 
ATOM     66  C   UNL     1       6.603  16.930  -0.834  1.00  0.00     0.200 A 
ATOM     67  F   UNL     1       5.664  17.968   1.068  1.00  0.00    -0.200 F 
ATOM     68  F   UNL     1       7.787  17.502  -0.578  1.00  0.00    -0.200 F 
ENDBRANCH  44  58
BRANCH  45  69
ATOM     69  C   UNL     1      -4.643  11.281  -3.048  1.00  0.00     0.064 A 
ATOM     70  C   UNL     1      -5.185  11.181  -4.336  1.00  0.00     0.173 A 
ATOM     71  C   UNL     1      -5.388  10.756  -1.982  1.00  0.00     0.173 A 
ATOM     72  F   UNL     1      -4.522  11.694  -5.383  1.00  0.00    -0.203 F 
ATOM     73  C   UNL     1      -6.429  10.589  -4.548  1.00  0.00     0.198 A 
ATOM     74  C   UNL     1      -6.620  10.142  -2.199  1.00  0.00     0.198 A 
ATOM     75  F   UNL     1      -4.915  10.832  -0.730  1.00  0.00    -0.203 F 
ATOM     76  F   UNL     1      -6.942  10.541  -5.785  1.00  0.00    -0.200 F 
ATOM     77  C   UNL     1      -7.142  10.065  -3.481  1.00  0.00     0.200 A 
ATOM     78  F   UNL     1      -7.301   9.630  -1.165  1.00  0.00    -0.200 F 
ATOM     79  F   UNL     1      -8.336   9.492  -3.686  1.00  0.00    -0.200 F 
ENDBRANCH  45  69
BRANCH  57  80
ATOM     80  C   UNL     1      -2.424  17.871  -3.471  1.00  0.00     0.064 A 
ATOM     81  C   UNL     1      -3.326  18.493  -2.596  1.00  0.00     0.173 A 
ATOM     82  C   UNL     1      -2.153  18.502  -4.694  1.00  0.00     0.173 A 
ATOM     83  F   UNL     1      -3.630  17.921  -1.421  1.00  0.00    -0.203 F 
ATOM     84  C   UNL     1      -3.947  19.691  -2.941  1.00  0.00     0.198 A 
ATOM     85  C   UNL     1      -2.756  19.712  -5.026  1.00  0.00     0.198 A 
ATOM     86  F   UNL     1      -1.293  17.949  -5.564  1.00  0.00    -0.203 F 
ATOM     87  F   UNL     1      -4.836  20.247  -2.107  1.00  0.00    -0.200 F 
ATOM     88  C   UNL     1      -3.657  20.302  -4.152  1.00  0.00     0.200 A 
ATOM     89  F   UNL     1      -2.467  20.306  -6.192  1.00  0.00    -0.200 F 
ATOM     90  F   UNL     1      -4.252  21.457  -4.481  1.00  0.00    -0.200 F 
ENDBRANCH  57  80
ENDBRANCH  31  32
ENDBRANCH  24  26
ENDBRANCH  23  24
ENDBRANCH  22  23
ENDBRANCH  21  22
ENDBRANCH  20  21
ENDBRANCH   1  20
TORSDOF 19
