REMARK SMILES Cc1ccc(C(=O)Nc2ccc(C(=O)OCCOCCOC(=O)c3ccc(-c4c5nc(c(-c6c(F)c(F)c(F)c(F)c6F)c6ccc([nH]6)c(-c6c(F)c(F)c(F)c(F)c6F)c6nc(c(-c7c(F)c(F)c(F)c(F)c7F)c7ccc4[nH]7)C=C6)C=C5)cc3)c(Cl)c2)cc1C
REMARK SMILES IDX 18 1 17 2 16 3 15 4 13 5 14 6 12 7 9 8 10 9 89 10 11 11
REMARK SMILES IDX 87 12 88 13 8 14 6 15 7 16 5 18 1 19 2 20 3 21 91 22 4 23
REMARK SMILES IDX 90 24 92 25 19 26 20 27 21 28 22 29 23 30 24 31 25 32 86 33
REMARK SMILES IDX 26 34 85 35 27 36 28 37 29 38 79 39 30 40 84 41 78 42 80 43
REMARK SMILES IDX 31 44 83 45 77 46 76 47 32 49 64 50 44 51 63 52 45 53 48 54
REMARK SMILES IDX 62 55 81 56 46 57 47 58 61 60 82 61 49 62 33 63 34 64 42 65
REMARK SMILES IDX 35 66 36 67 40 68 43 69 37 70 38 71 41 72 39 73 65 74 66 75
REMARK SMILES IDX 74 76 67 77 68 78 72 79 75 80 69 81 70 82 73 83 71 84 50 85
REMARK SMILES IDX 51 86 59 87 52 88 53 89 57 90 60 91 54 92 55 93 58 94 56 95
REMARK H PARENT 8 17 80 48 48 59
REMARK Flexibility Score: inf
ROOT
ATOM      1  O   UNL     1      -3.065   7.033   0.314  1.00  0.00    -0.374 OA
ENDROOT
BRANCH   1   2
ATOM      2  C   UNL     1      -4.362   7.493   0.697  1.00  0.00     0.202 C 
BRANCH   2   3
ATOM      3  C   UNL     1      -5.518   6.920  -0.127  1.00  0.00     0.261 C 
BRANCH   3   4
ATOM      4  O   UNL     1      -5.615   5.500   0.076  1.00  0.00    -0.460 OA
BRANCH   4   5
ATOM      5  C   UNL     1      -5.648   4.740  -1.042  1.00  0.00     0.339 C 
ATOM      6  O   UNL     1      -5.707   5.136  -2.197  1.00  0.00    -0.246 OA
BRANCH   5   7
ATOM      7  C   UNL     1      -5.381   3.328  -0.700  1.00  0.00     0.078 A 
ATOM      8  C   UNL     1      -4.633   0.685  -0.122  1.00  0.00     0.043 A 
ATOM      9  C   UNL     1      -4.028   1.364  -1.179  1.00  0.00     0.027 A 
ATOM     10  C   UNL     1      -5.669   1.300   0.589  1.00  0.00     0.047 A 
ATOM     11  C   UNL     1      -4.400   2.679  -1.467  1.00  0.00     0.019 A 
ATOM     12  C   UNL     1      -6.029   2.629   0.322  1.00  0.00     0.057 A 
ATOM     13  Cl  UNL     1      -7.283   3.315   1.292  1.00  0.00    -0.083 Cl
BRANCH   8  14
ATOM     14  N   UNL     1      -4.256  -0.608   0.267  1.00  0.00    -0.322 N 
ATOM     15  C   UNL     1      -3.045  -1.265   0.215  1.00  0.00     0.255 C 
ATOM     16  O   UNL     1      -3.048  -2.495   0.299  1.00  0.00    -0.269 OA
ATOM     17  H   UNL     1      -4.990  -1.144   0.647  1.00  0.00     0.170 HD
BRANCH  15  18
ATOM     18  C   UNL     1      -1.732  -0.548   0.201  1.00  0.00     0.040 A 
ATOM     19  C   UNL     1       2.136   1.406   0.122  1.00  0.00     0.044 C 
ATOM     20  C   UNL     1       0.819   0.682   0.172  1.00  0.00    -0.048 A 
ATOM     21  C   UNL     1      -0.323   1.395   0.562  1.00  0.00     0.004 A 
ATOM     22  C   UNL     1       0.700  -0.690  -0.112  1.00  0.00    -0.047 A 
ATOM     23  C   UNL     1      -1.573   0.774   0.620  1.00  0.00     0.014 A 
ATOM     24  C   UNL     1      -0.580  -1.280  -0.126  1.00  0.00     0.017 A 
ATOM     25  C   UNL     1       1.888  -1.588  -0.329  1.00  0.00     0.044 C 
ENDBRANCH  15  18
ENDBRANCH   8  14
ENDBRANCH   5   7
ENDBRANCH   4   5
ENDBRANCH   3   4
ENDBRANCH   2   3
ENDBRANCH   1   2
BRANCH   1  26
ATOM     26  C   UNL     1      -2.658   5.763   0.829  1.00  0.00     0.202 C 
BRANCH  26  27
ATOM     27  C   UNL     1      -2.112   5.782   2.262  1.00  0.00     0.261 C 
BRANCH  27  28
ATOM     28  O   UNL     1      -3.146   6.066   3.224  1.00  0.00    -0.460 OA
BRANCH  28  29
ATOM     29  C   UNL     1      -3.040   7.268   3.838  1.00  0.00     0.338 C 
ATOM     30  O   UNL     1      -2.129   8.076   3.734  1.00  0.00    -0.246 OA
BRANCH  29  31
ATOM     31  C   UNL     1      -4.287   7.581   4.561  1.00  0.00     0.060 A 
ATOM     32  C   UNL     1      -4.877   8.828   4.319  1.00  0.00     0.016 A 
ATOM     33  C   UNL     1      -4.835   6.712   5.508  1.00  0.00     0.016 A 
ATOM     34  C   UNL     1      -5.987   9.232   5.058  1.00  0.00     0.010 A 
ATOM     35  C   UNL     1      -5.947   7.122   6.254  1.00  0.00     0.010 A 
ATOM     36  C   UNL     1      -6.506   8.397   6.056  1.00  0.00    -0.014 A 
BRANCH  36  37
ATOM     37  C   UNL     1      -7.551   8.921   6.970  1.00  0.00     0.031 A 
ATOM     38  C   UNL     1      -7.154   9.422   8.331  1.00  0.00     0.074 A 
ATOM     39  C   UNL     1      -8.835   8.988   6.577  1.00  0.00     0.049 A 
ATOM     40  N   UNL     1      -7.899   9.930   9.281  1.00  0.00    -0.248 NA
ATOM     41  C   UNL     1      -5.725   9.338   8.668  1.00  0.00     0.031 C 
ATOM     42  C   UNL     1      -9.341   8.560   5.275  1.00  0.00     0.029 A 
ATOM     43  N   UNL     1      -9.948   9.444   7.239  1.00  0.00    -0.354 N 
ATOM     44  C   UNL     1      -7.031  10.226  10.324  1.00  0.00     0.074 A 
ATOM     45  C   UNL     1      -5.710   9.808   9.906  1.00  0.00     0.031 C 
ATOM     46  C   UNL     1     -10.668   8.769   5.234  1.00  0.00     0.029 A 
ATOM     47  C   UNL     1     -11.107   9.323   6.514  1.00  0.00     0.049 A 
ATOM     48  H   UNL     1      -9.917   9.822   8.148  1.00  0.00     0.167 HD
ATOM     49  C   UNL     1      -7.309  10.803  11.518  1.00  0.00     0.037 A 
ATOM     50  C   UNL     1     -12.378   9.614   6.852  1.00  0.00     0.037 A 
ATOM     51  C   UNL     1      -8.623  11.220  11.934  1.00  0.00     0.049 A 
ATOM     52  C   UNL     1     -12.669  10.203   8.207  1.00  0.00     0.074 A 
ATOM     53  C   UNL     1      -9.001  11.838  13.113  1.00  0.00     0.029 A 
ATOM     54  N   UNL     1      -9.778  11.051  11.184  1.00  0.00    -0.354 N 
ATOM     55  N   UNL     1     -11.838  10.512   9.173  1.00  0.00    -0.248 NA
ATOM     56  C   UNL     1     -14.077  10.488   8.517  1.00  0.00     0.031 C 
ATOM     57  C   UNL     1     -10.391  11.998  13.099  1.00  0.00     0.029 A 
ATOM     58  C   UNL     1     -10.873  11.528  11.888  1.00  0.00     0.049 A 
ATOM     59  H   UNL     1      -9.815  10.651  10.285  1.00  0.00     0.167 HD
ATOM     60  C   UNL     1     -12.615  11.051  10.190  1.00  0.00     0.074 A 
ATOM     61  C   UNL     1     -13.984  11.041   9.717  1.00  0.00     0.031 C 
ATOM     62  C   UNL     1     -12.231  11.512  11.406  1.00  0.00     0.037 A 
BRANCH  49  63
ATOM     63  C   UNL     1      -6.168  11.000  12.473  1.00  0.00     0.064 A 
ATOM     64  C   UNL     1      -5.174  11.964  12.245  1.00  0.00     0.173 A 
ATOM     65  C   UNL     1      -6.085  10.237  13.646  1.00  0.00     0.173 A 
ATOM     66  F   UNL     1      -5.200  12.711  11.131  1.00  0.00    -0.203 F 
ATOM     67  C   UNL     1      -4.124  12.137  13.144  1.00  0.00     0.198 A 
ATOM     68  C   UNL     1      -5.050  10.432  14.557  1.00  0.00     0.198 A 
ATOM     69  F   UNL     1      -7.012   9.305  13.914  1.00  0.00    -0.203 F 
ATOM     70  F   UNL     1      -3.161  13.031  12.883  1.00  0.00    -0.200 F 
ATOM     71  C   UNL     1      -4.067  11.376  14.302  1.00  0.00     0.200 A 
ATOM     72  F   UNL     1      -5.002   9.703  15.681  1.00  0.00    -0.200 F 
ATOM     73  F   UNL     1      -3.060  11.547  15.169  1.00  0.00    -0.200 F 
ENDBRANCH  49  63
BRANCH  50  74
ATOM     74  C   UNL     1     -13.478   9.350   5.888  1.00  0.00     0.064 A 
ATOM     75  C   UNL     1     -14.182  10.402   5.287  1.00  0.00     0.173 A 
ATOM     76  C   UNL     1     -13.859   8.040   5.563  1.00  0.00     0.173 A 
ATOM     77  F   UNL     1     -13.873  11.672   5.588  1.00  0.00    -0.203 F 
ATOM     78  C   UNL     1     -15.235  10.154   4.409  1.00  0.00     0.198 A 
ATOM     79  C   UNL     1     -14.894   7.793   4.664  1.00  0.00     0.198 A 
ATOM     80  F   UNL     1     -13.219   6.998   6.115  1.00  0.00    -0.203 F 
ATOM     81  F   UNL     1     -15.922  11.178   3.884  1.00  0.00    -0.200 F 
ATOM     82  C   UNL     1     -15.586   8.850   4.094  1.00  0.00     0.200 A 
ATOM     83  F   UNL     1     -15.223   6.532   4.355  1.00  0.00    -0.200 F 
ATOM     84  F   UNL     1     -16.598   8.612   3.248  1.00  0.00    -0.200 F 
ENDBRANCH  50  74
BRANCH  62  85
ATOM     85  C   UNL     1     -13.301  12.071  12.300  1.00  0.00     0.064 A 
ATOM     86  C   UNL     1     -14.252  11.245  12.916  1.00  0.00     0.173 A 
ATOM     87  C   UNL     1     -13.359  13.449  12.563  1.00  0.00     0.173 A 
ATOM     88  F   UNL     1     -14.249   9.923  12.685  1.00  0.00    -0.203 F 
ATOM     89  C   UNL     1     -15.240  11.780  13.740  1.00  0.00     0.198 A 
ATOM     90  C   UNL     1     -14.329  13.976  13.411  1.00  0.00     0.198 A 
ATOM     91  F   UNL     1     -12.469  14.283  12.005  1.00  0.00    -0.203 F 
ATOM     92  F   UNL     1     -16.169  10.977  14.276  1.00  0.00    -0.200 F 
ATOM     93  C   UNL     1     -15.274  13.143  13.991  1.00  0.00     0.200 A 
ATOM     94  F   UNL     1     -14.352  15.292  13.664  1.00  0.00    -0.200 F 
ATOM     95  F   UNL     1     -16.223  13.656  14.786  1.00  0.00    -0.200 F 
ENDBRANCH  62  85
ENDBRANCH  36  37
ENDBRANCH  29  31
ENDBRANCH  28  29
ENDBRANCH  27  28
ENDBRANCH  26  27
ENDBRANCH   1  26
TORSDOF 16
