REMARK SMILES CC[C@](C)(NC(=O)NC[C@@H](C)[NH+](C)C)C(=O)OCCOCCOC(=O)c1ccc(-c2c3nc(c(-c4c(F)c(F)c(F)c(F)c4F)c4ccc([nH]4)c(-c4c(F)c(F)c(F)c(F)c4F)c4nc(c(-c5c(F)c(F)c(F)c(F)c5F)c5ccc2[nH]5)C=C4)C=C3)cc1
REMARK SMILES IDX 19 1 18 2 17 3 15 4 16 5 3 6 4 7 2 8 1 9 5 10 6 11 7 13 8 14
REMARK SMILES IDX 9 16 10 17 11 18 12 19 13 20 14 21 20 23 21 24 22 25 23 26
REMARK SMILES IDX 24 27 25 28 26 29 27 30 88 31 28 32 87 33 29 34 30 35 31 36
REMARK SMILES IDX 81 37 32 38 86 39 80 40 82 41 33 42 85 43 79 44 78 45 34 47
REMARK SMILES IDX 66 48 46 49 65 50 47 51 50 52 64 53 83 54 48 55 49 56 63 58
REMARK SMILES IDX 84 59 51 60 35 61 36 62 44 63 37 64 38 65 42 66 45 67 39 68
REMARK SMILES IDX 40 69 43 70 41 71 67 72 68 73 76 74 69 75 70 76 74 77 77 78
REMARK SMILES IDX 71 79 72 80 75 81 73 82 52 83 53 84 61 85 54 86 55 87 59 88
REMARK SMILES IDX 62 89 56 90 57 91 60 92 58 93
REMARK H PARENT 5 12 8 15 12 22 82 46 50 57
REMARK Flexibility Score: inf
ROOT
ATOM      1  C   UNL     1       5.207  -3.008  -0.901  1.00  0.00     0.202 C 
ENDROOT
BRANCH   1   2
ATOM      2  C   UNL     1       4.523  -1.728  -0.408  1.00  0.00     0.261 C 
BRANCH   2   3
ATOM      3  O   UNL     1       3.240  -2.096   0.120  1.00  0.00    -0.462 OA
BRANCH   3   4
ATOM      4  C   UNL     1       2.374  -1.126   0.503  1.00  0.00     0.331 C 
ATOM      5  O   UNL     1       2.626   0.069   0.434  1.00  0.00    -0.249 OA
BRANCH   4   6
ATOM      6  C   UNL     1       1.007  -1.753   0.933  1.00  0.00     0.136 C 
ATOM      7  C   UNL     1       0.079  -1.399  -0.255  1.00  0.00     0.047 C 
BRANCH   6   8
ATOM      8  C   UNL     1       0.398  -1.192   2.245  1.00  0.00     0.037 C 
ATOM      9  C   UNL     1       0.200   0.314   2.335  1.00  0.00     0.007 C 
ENDBRANCH   6   8
BRANCH   6  10
ATOM     10  N   UNL     1       1.021  -3.255   1.028  1.00  0.00    -0.322 N 
ATOM     11  C   UNL     1       1.478  -4.164   1.905  1.00  0.00     0.315 C 
ATOM     12  H   UNL     1       0.585  -3.677   0.253  1.00  0.00     0.166 HD
ATOM     13  O   UNL     1       1.012  -5.303   1.839  1.00  0.00    -0.249 OA
ATOM     14  N   UNL     1       2.408  -3.914   2.844  1.00  0.00    -0.332 N 
ATOM     15  H   UNL     1       2.406  -4.524   3.616  1.00  0.00     0.165 HD
BRANCH  14  16
ATOM     16  C   UNL     1       3.409  -2.874   2.873  1.00  0.00     0.182 C 
BRANCH  16  17
ATOM     17  C   UNL     1       4.293  -2.746   4.134  1.00  0.00     0.200 C 
ATOM     18  C   UNL     1       5.438  -3.761   4.024  1.00  0.00     0.077 C 
BRANCH  17  19
ATOM     19  N   UNL     1       4.742  -1.346   4.372  1.00  0.00    -0.336 N 
ATOM     20  C   UNL     1       5.776  -1.222   5.397  1.00  0.00     0.332 C 
ATOM     21  C   UNL     1       5.135  -0.578   3.192  1.00  0.00     0.332 C 
ATOM     22  H   UNL     1       3.878  -0.924   4.711  1.00  0.00     0.347 HD
ENDBRANCH  17  19
ENDBRANCH  16  17
ENDBRANCH  14  16
ENDBRANCH   6  10
ENDBRANCH   4   6
ENDBRANCH   3   4
ENDBRANCH   2   3
ENDBRANCH   1   2
BRANCH   1  23
ATOM     23  O   UNL     1       4.609  -3.569  -2.071  1.00  0.00    -0.374 OA
BRANCH  23  24
ATOM     24  C   UNL     1       3.339  -4.200  -1.910  1.00  0.00     0.202 C 
BRANCH  24  25
ATOM     25  C   UNL     1       3.363  -5.650  -1.416  1.00  0.00     0.261 C 
BRANCH  25  26
ATOM     26  O   UNL     1       3.835  -5.828  -0.066  1.00  0.00    -0.460 OA
BRANCH  26  27
ATOM     27  C   UNL     1       5.074  -6.350   0.038  1.00  0.00     0.338 C 
ATOM     28  O   UNL     1       5.878  -6.515  -0.883  1.00  0.00    -0.246 OA
BRANCH  27  29
ATOM     29  C   UNL     1       5.428  -6.702   1.429  1.00  0.00     0.060 A 
ATOM     30  C   UNL     1       6.741  -6.450   1.845  1.00  0.00     0.016 A 
ATOM     31  C   UNL     1       4.559  -7.415   2.264  1.00  0.00     0.016 A 
ATOM     32  C   UNL     1       7.206  -6.956   3.060  1.00  0.00     0.010 A 
ATOM     33  C   UNL     1       5.032  -7.930   3.485  1.00  0.00     0.010 A 
ATOM     34  C   UNL     1       6.371  -7.738   3.872  1.00  0.00    -0.014 A 
BRANCH  34  35
ATOM     35  C   UNL     1       6.974  -8.452   5.032  1.00  0.00     0.031 A 
ATOM     36  C   UNL     1       7.436  -9.875   4.866  1.00  0.00     0.074 A 
ATOM     37  C   UNL     1       7.204  -7.822   6.199  1.00  0.00     0.049 A 
ATOM     38  N   UNL     1       8.118 -10.629   5.692  1.00  0.00    -0.248 NA
ATOM     39  C   UNL     1       7.086 -10.534   3.599  1.00  0.00     0.031 C 
ATOM     40  C   UNL     1       6.810  -6.451   6.502  1.00  0.00     0.029 A 
ATOM     41  N   UNL     1       7.834  -8.249   7.343  1.00  0.00    -0.354 N 
ATOM     42  C   UNL     1       8.309 -11.836   5.033  1.00  0.00     0.074 A 
ATOM     43  C   UNL     1       7.618 -11.736   3.764  1.00  0.00     0.031 C 
ATOM     44  C   UNL     1       7.213  -6.141   7.745  1.00  0.00     0.029 A 
ATOM     45  C   UNL     1       7.883  -7.299   8.334  1.00  0.00     0.049 A 
ATOM     46  H   UNL     1       8.216  -9.151   7.442  1.00  0.00     0.167 HD
ATOM     47  C   UNL     1       9.014 -12.922   5.435  1.00  0.00     0.037 A 
ATOM     48  C   UNL     1       8.406  -7.355   9.575  1.00  0.00     0.037 A 
ATOM     49  C   UNL     1       9.674 -13.047   6.709  1.00  0.00     0.049 A 
ATOM     50  C   UNL     1       9.127  -8.600  10.025  1.00  0.00     0.074 A 
ATOM     51  C   UNL     1      10.405 -14.114   7.202  1.00  0.00     0.029 A 
ATOM     52  N   UNL     1       9.669 -12.077   7.700  1.00  0.00    -0.354 N 
ATOM     53  N   UNL     1       9.358  -9.710   9.366  1.00  0.00    -0.248 NA
ATOM     54  C   UNL     1       9.679  -8.590  11.388  1.00  0.00     0.031 C 
ATOM     55  C   UNL     1      10.801 -13.811   8.510  1.00  0.00     0.029 A 
ATOM     56  C   UNL     1      10.366 -12.531   8.811  1.00  0.00     0.049 A 
ATOM     57  H   UNL     1       9.236 -11.197   7.627  1.00  0.00     0.167 HD
ATOM     58  C   UNL     1      10.101 -10.515  10.221  1.00  0.00     0.074 A 
ATOM     59  C   UNL     1      10.306  -9.757  11.436  1.00  0.00     0.031 C 
ATOM     60  C   UNL     1      10.568 -11.772  10.019  1.00  0.00     0.037 A 
BRANCH  47  61
ATOM     61  C   UNL     1       9.106 -14.073   4.476  1.00  0.00     0.064 A 
ATOM     62  C   UNL     1       9.880 -13.988   3.308  1.00  0.00     0.173 A 
ATOM     63  C   UNL     1       8.451 -15.284   4.742  1.00  0.00     0.173 A 
ATOM     64  F   UNL     1      10.518 -12.848   3.002  1.00  0.00    -0.203 F 
ATOM     65  C   UNL     1       9.974 -15.065   2.431  1.00  0.00     0.198 A 
ATOM     66  C   UNL     1       8.570 -16.369   3.877  1.00  0.00     0.198 A 
ATOM     67  F   UNL     1       7.704 -15.420   5.848  1.00  0.00    -0.203 F 
ATOM     68  F   UNL     1      10.684 -14.946   1.300  1.00  0.00    -0.200 F 
ATOM     69  C   UNL     1       9.326 -16.256   2.719  1.00  0.00     0.200 A 
ATOM     70  F   UNL     1       7.955 -17.524   4.164  1.00  0.00    -0.200 F 
ATOM     71  F   UNL     1       9.424 -17.295   1.878  1.00  0.00    -0.200 F 
ENDBRANCH  47  61
BRANCH  48  72
ATOM     72  C   UNL     1       8.271  -6.194  10.496  1.00  0.00     0.064 A 
ATOM     73  C   UNL     1       9.388  -5.455  10.910  1.00  0.00     0.173 A 
ATOM     74  C   UNL     1       7.021  -5.833  11.022  1.00  0.00     0.173 A 
ATOM     75  F   UNL     1      10.609  -5.777  10.456  1.00  0.00    -0.203 F 
ATOM     76  C   UNL     1       9.266  -4.422  11.837  1.00  0.00     0.198 A 
ATOM     77  C   UNL     1       6.895  -4.779  11.924  1.00  0.00     0.198 A 
ATOM     78  F   UNL     1       5.920  -6.507  10.659  1.00  0.00    -0.203 F 
ATOM     79  F   UNL     1      10.359  -3.774  12.263  1.00  0.00    -0.200 F 
ATOM     80  C   UNL     1       8.019  -4.082  12.341  1.00  0.00     0.200 A 
ATOM     81  F   UNL     1       5.687  -4.447  12.399  1.00  0.00    -0.200 F 
ATOM     82  F   UNL     1       7.902  -3.093  13.236  1.00  0.00    -0.200 F 
ENDBRANCH  48  72
BRANCH  60  83
ATOM     83  C   UNL     1      11.373 -12.396  11.125  1.00  0.00     0.064 A 
ATOM     84  C   UNL     1      10.788 -12.773  12.344  1.00  0.00     0.173 A 
ATOM     85  C   UNL     1      12.747 -12.634  10.960  1.00  0.00     0.173 A 
ATOM     86  F   UNL     1       9.481 -12.556  12.561  1.00  0.00    -0.203 F 
ATOM     87  C   UNL     1      11.553 -13.325  13.368  1.00  0.00     0.198 A 
ATOM     88  C   UNL     1      13.502 -13.219  11.973  1.00  0.00     0.198 A 
ATOM     89  F   UNL     1      13.358 -12.303   9.813  1.00  0.00    -0.203 F 
ATOM     90  F   UNL     1      10.983 -13.617  14.546  1.00  0.00    -0.200 F 
ATOM     91  C   UNL     1      12.908 -13.553  13.181  1.00  0.00     0.200 A 
ATOM     92  F   UNL     1      14.809 -13.451  11.784  1.00  0.00    -0.200 F 
ATOM     93  F   UNL     1      13.643 -14.084  14.167  1.00  0.00    -0.200 F 
ENDBRANCH  60  83
ENDBRANCH  34  35
ENDBRANCH  27  29
ENDBRANCH  26  27
ENDBRANCH  25  26
ENDBRANCH  24  25
ENDBRANCH  23  24
ENDBRANCH   1  23
TORSDOF 19
