REMARK SMILES C=CCCC[C@@]1(C(=O)OCCOCCOC(=O)c2ccc(-c3c4nc(c(-c5c(F)c(F)c(F)c(F)c5F)c5ccc([nH]5)c(-c5c(F)c(F)c(F)c(F)c5F)c5nc(c(-c6c(F)c(F)c(F)c(F)c6F)c6ccc3[nH]6)C=C5)C=C4)cc2)CCCN(C(=O)OC(C)(C)C)C1
REMARK SMILES IDX 11 1 10 2 9 3 7 4 8 5 6 6 81 7 92 8 82 9 84 10 83 11 5 12
REMARK SMILES IDX 4 13 3 14 2 15 1 16 85 17 86 18 87 19 88 20 89 21 90 22
REMARK SMILES IDX 91 23 12 24 13 25 14 26 15 27 16 28 17 29 18 30 19 31 80 32
REMARK SMILES IDX 20 33 79 34 21 35 22 36 23 37 73 38 24 39 78 40 72 41 74 42
REMARK SMILES IDX 25 43 77 44 71 45 70 46 26 48 58 49 38 50 57 51 39 52 42 53
REMARK SMILES IDX 56 54 75 55 40 56 41 57 55 59 76 60 43 61 27 62 28 63 36 64
REMARK SMILES IDX 29 65 30 66 34 67 37 68 31 69 32 70 35 71 33 72 59 73 60 74
REMARK SMILES IDX 68 75 61 76 62 77 66 78 69 79 63 80 64 81 67 82 65 83 44 84
REMARK SMILES IDX 45 85 53 86 46 87 47 88 51 89 54 90 48 91 49 92 52 93 50 94
REMARK H PARENT 74 47 42 58
REMARK Flexibility Score: inf
ROOT
ATOM      1  C   UNL     1       0.076   4.388   1.749  1.00  0.00     0.202 C 
ENDROOT
BRANCH   1   2
ATOM      2  C   UNL     1       0.250   3.034   1.045  1.00  0.00     0.261 C 
BRANCH   2   3
ATOM      3  O   UNL     1      -0.116   3.085  -0.349  1.00  0.00    -0.463 OA
BRANCH   3   4
ATOM      4  C   UNL     1      -1.403   2.723  -0.594  1.00  0.00     0.313 C 
ATOM      5  O   UNL     1      -2.149   2.344   0.302  1.00  0.00    -0.252 OA
BRANCH   4   6
ATOM      6  C   UNL     1      -1.855   2.897  -2.074  1.00  0.00     0.086 C 
ATOM      7  C   UNL     1      -3.224   3.656  -2.084  1.00  0.00     0.022 C 
ATOM      8  C   UNL     1      -2.132   1.488  -2.622  1.00  0.00     0.141 C 
ATOM      9  C   UNL     1      -4.381   2.912  -1.400  1.00  0.00     0.023 C 
ATOM     10  N   UNL     1      -3.143   0.804  -1.828  1.00  0.00    -0.307 N 
ATOM     11  C   UNL     1      -4.461   1.433  -1.793  1.00  0.00     0.123 C 
BRANCH   6  12
ATOM     12  C   UNL     1      -0.854   3.750  -2.937  1.00  0.00     0.021 C 
BRANCH  12  13
ATOM     13  C   UNL     1      -0.054   3.086  -4.077  1.00  0.00     0.005 C 
BRANCH  13  14
ATOM     14  C   UNL     1      -0.794   2.734  -5.380  1.00  0.00     0.027 C 
BRANCH  14  15
ATOM     15  C   UNL     1      -1.586   3.847  -6.007  1.00  0.00    -0.035 C 
ATOM     16  C   UNL     1      -1.641   4.061  -7.329  1.00  0.00     0.004 C 
ENDBRANCH  14  15
ENDBRANCH  13  14
ENDBRANCH  12  13
ENDBRANCH   6  12
BRANCH  10  17
ATOM     17  C   UNL     1      -2.737  -0.232  -1.004  1.00  0.00     0.410 C 
ATOM     18  O   UNL     1      -1.591  -0.675  -1.017  1.00  0.00    -0.224 OA
BRANCH  17  19
ATOM     19  O   UNL     1      -3.719  -0.674  -0.181  1.00  0.00    -0.444 OA
BRANCH  19  20
ATOM     20  C   UNL     1      -3.422  -1.682   0.818  1.00  0.00     0.106 C 
ATOM     21  C   UNL     1      -2.959  -2.992   0.167  1.00  0.00     0.056 C 
ATOM     22  C   UNL     1      -2.412  -1.168   1.854  1.00  0.00     0.056 C 
ATOM     23  C   UNL     1      -4.760  -1.935   1.528  1.00  0.00     0.056 C 
ENDBRANCH  19  20
ENDBRANCH  17  19
ENDBRANCH  10  17
ENDBRANCH   4   6
ENDBRANCH   3   4
ENDBRANCH   2   3
ENDBRANCH   1   2
BRANCH   1  24
ATOM     24  O   UNL     1      -1.259   4.866   1.917  1.00  0.00    -0.374 OA
BRANCH  24  25
ATOM     25  C   UNL     1      -1.836   5.548   0.803  1.00  0.00     0.202 C 
BRANCH  25  26
ATOM     26  C   UNL     1      -1.549   7.048   0.722  1.00  0.00     0.261 C 
BRANCH  26  27
ATOM     27  O   UNL     1      -0.156   7.271   0.443  1.00  0.00    -0.460 OA
BRANCH  27  28
ATOM     28  C   UNL     1       0.563   7.710   1.499  1.00  0.00     0.338 C 
ATOM     29  O   UNL     1       0.138   8.097   2.579  1.00  0.00    -0.246 OA
BRANCH  28  30
ATOM     30  C   UNL     1       1.998   7.485   1.249  1.00  0.00     0.060 A 
ATOM     31  C   UNL     1       2.740   6.899   2.283  1.00  0.00     0.016 A 
ATOM     32  C   UNL     1       2.618   7.865   0.055  1.00  0.00     0.016 A 
ATOM     33  C   UNL     1       4.117   6.757   2.159  1.00  0.00     0.010 A 
ATOM     34  C   UNL     1       4.004   7.731  -0.065  1.00  0.00     0.010 A 
ATOM     35  C   UNL     1       4.761   7.220   1.004  1.00  0.00    -0.014 A 
BRANCH  35  36
ATOM     36  C   UNL     1       6.236   7.346   1.007  1.00  0.00     0.031 A 
ATOM     37  C   UNL     1       6.838   8.682   1.339  1.00  0.00     0.074 A 
ATOM     38  C   UNL     1       7.020   6.283   0.765  1.00  0.00     0.049 A 
ATOM     39  N   UNL     1       8.096   9.039   1.391  1.00  0.00    -0.248 NA
ATOM     40  C   UNL     1       5.893   9.766   1.656  1.00  0.00     0.031 C 
ATOM     41  C   UNL     1       6.546   4.933   0.474  1.00  0.00     0.029 A 
ATOM     42  N   UNL     1       8.387   6.180   0.723  1.00  0.00    -0.354 N 
ATOM     43  C   UNL     1       8.091  10.383   1.739  1.00  0.00     0.074 A 
ATOM     44  C   UNL     1       6.708  10.789   1.858  1.00  0.00     0.031 C 
ATOM     45  C   UNL     1       7.608   4.134   0.270  1.00  0.00     0.029 A 
ATOM     46  C   UNL     1       8.832   4.925   0.391  1.00  0.00     0.049 A 
ATOM     47  H   UNL     1       8.992   6.933   0.913  1.00  0.00     0.167 HD
ATOM     48  C   UNL     1       9.148  11.202   1.949  1.00  0.00     0.037 A 
ATOM     49  C   UNL     1      10.086   4.476   0.189  1.00  0.00     0.037 A 
ATOM     50  C   UNL     1      10.521  10.792   1.834  1.00  0.00     0.049 A 
ATOM     51  C   UNL     1      11.243   5.424   0.370  1.00  0.00     0.074 A 
ATOM     52  C   UNL     1      11.667  11.538   2.046  1.00  0.00     0.029 A 
ATOM     53  N   UNL     1      10.933   9.518   1.468  1.00  0.00    -0.354 N 
ATOM     54  N   UNL     1      11.234   6.686   0.723  1.00  0.00    -0.248 NA
ATOM     55  C   UNL     1      12.588   4.881   0.129  1.00  0.00     0.031 C 
ATOM     56  C   UNL     1      12.772  10.729   1.761  1.00  0.00     0.029 A 
ATOM     57  C   UNL     1      12.316   9.465   1.422  1.00  0.00     0.049 A 
ATOM     58  H   UNL     1      10.332   8.765   1.269  1.00  0.00     0.167 HD
ATOM     59  C   UNL     1      12.564   7.082   0.772  1.00  0.00     0.074 A 
ATOM     60  C   UNL     1      13.356   5.920   0.424  1.00  0.00     0.031 C 
ATOM     61  C   UNL     1      13.085   8.296   1.079  1.00  0.00     0.037 A 
BRANCH  48  62
ATOM     62  C   UNL     1       8.858  12.632   2.299  1.00  0.00     0.064 A 
ATOM     63  C   UNL     1       8.346  12.996   3.554  1.00  0.00     0.173 A 
ATOM     64  C   UNL     1       9.121  13.654   1.375  1.00  0.00     0.173 A 
ATOM     65  F   UNL     1       8.062  12.054   4.465  1.00  0.00    -0.203 F 
ATOM     66  C   UNL     1       8.089  14.329   3.862  1.00  0.00     0.198 A 
ATOM     67  C   UNL     1       8.888  14.988   1.696  1.00  0.00     0.198 A 
ATOM     68  F   UNL     1       9.610  13.359   0.161  1.00  0.00    -0.203 F 
ATOM     69  F   UNL     1       7.559  14.650   5.051  1.00  0.00    -0.200 F 
ATOM     70  C   UNL     1       8.366  15.324   2.937  1.00  0.00     0.200 A 
ATOM     71  F   UNL     1       9.165  15.949   0.804  1.00  0.00    -0.200 F 
ATOM     72  F   UNL     1       8.124  16.608   3.237  1.00  0.00    -0.200 F 
ENDBRANCH  48  62
BRANCH  49  73
ATOM     73  C   UNL     1      10.311   3.066  -0.220  1.00  0.00     0.064 A 
ATOM     74  C   UNL     1      10.922   2.149   0.645  1.00  0.00     0.173 A 
ATOM     75  C   UNL     1       9.929   2.610  -1.490  1.00  0.00     0.173 A 
ATOM     76  F   UNL     1      11.329   2.544   1.861  1.00  0.00    -0.203 F 
ATOM     77  C   UNL     1      11.157   0.833   0.250  1.00  0.00     0.198 A 
ATOM     78  C   UNL     1      10.140   1.288  -1.875  1.00  0.00     0.198 A 
ATOM     79  F   UNL     1       9.343   3.449  -2.357  1.00  0.00    -0.203 F 
ATOM     80  F   UNL     1      11.784  -0.012   1.080  1.00  0.00    -0.200 F 
ATOM     81  C   UNL     1      10.761   0.402  -1.007  1.00  0.00     0.200 A 
ATOM     82  F   UNL     1       9.746   0.874  -3.087  1.00  0.00    -0.200 F 
ATOM     83  F   UNL     1      10.984  -0.864  -1.386  1.00  0.00    -0.200 F 
ENDBRANCH  49  73
BRANCH  61  84
ATOM     84  C   UNL     1      14.580   8.423   1.083  1.00  0.00     0.064 A 
ATOM     85  C   UNL     1      15.321   8.436  -0.108  1.00  0.00     0.173 A 
ATOM     86  C   UNL     1      15.275   8.582   2.292  1.00  0.00     0.173 A 
ATOM     87  F   UNL     1      14.704   8.275  -1.288  1.00  0.00    -0.203 F 
ATOM     88  C   UNL     1      16.705   8.581  -0.087  1.00  0.00     0.198 A 
ATOM     89  C   UNL     1      16.655   8.755   2.307  1.00  0.00     0.198 A 
ATOM     90  F   UNL     1      14.611   8.584   3.458  1.00  0.00    -0.203 F 
ATOM     91  F   UNL     1      17.398   8.547  -1.233  1.00  0.00    -0.200 F 
ATOM     92  C   UNL     1      17.370   8.748   1.119  1.00  0.00     0.200 A 
ATOM     93  F   UNL     1      17.295   8.930   3.472  1.00  0.00    -0.200 F 
ATOM     94  F   UNL     1      18.702   8.895   1.137  1.00  0.00    -0.200 F 
ENDBRANCH  61  84
ENDBRANCH  35  36
ENDBRANCH  28  30
ENDBRANCH  27  28
ENDBRANCH  26  27
ENDBRANCH  25  26
ENDBRANCH  24  25
ENDBRANCH   1  24
TORSDOF 21
