REMARK SMILES C[C@](NC(=O)N1CCC[NH2+]CC1)(C(=O)OCCOCCOC(=O)c1ccc(-c2c3nc(c(-c4c(F)c(F)c(F)c(F)c4F)c4ccc([nH]4)c(-c4c(F)c(F)c(F)c(F)c4F)c4nc(c(-c5c(F)c(F)c(F)c(F)c5F)c5ccc2[nH]5)C=C4)C=C3)cc1)C(F)(F)F
REMARK SMILES IDX 16 1 15 2 13 3 14 4 2 5 1 6 87 7 88 8 89 9 90 10 3 11 4 12
REMARK SMILES IDX 5 14 6 15 7 16 8 17 12 19 11 20 10 21 9 24 17 26 18 27 19 28
REMARK SMILES IDX 20 29 21 30 22 31 23 32 24 33 25 34 86 35 26 36 85 37 27 38
REMARK SMILES IDX 28 39 29 40 79 41 30 42 84 43 78 44 80 45 31 46 83 47 77 48
REMARK SMILES IDX 76 49 32 51 64 52 44 53 63 54 45 55 48 56 62 57 81 58 46 59
REMARK SMILES IDX 47 60 61 62 82 63 49 64 33 65 34 66 42 67 35 68 36 69 40 70
REMARK SMILES IDX 43 71 37 72 38 73 41 74 39 75 65 76 66 77 74 78 67 79 68 80
REMARK SMILES IDX 72 81 75 82 69 83 70 84 73 85 71 86 50 87 51 88 59 89 52 90
REMARK SMILES IDX 53 91 57 92 60 93 54 94 55 95 58 96 56 97
REMARK H PARENT 3 13 10 22 10 23 80 50 48 61
REMARK Flexibility Score: 80.00
ROOT
ATOM      1  C   UNL     1      -3.047   1.019   1.543  1.00  0.00     0.261 C 
ENDROOT
BRANCH   1   2
ATOM      2  O   UNL     1      -1.619   0.968   1.397  1.00  0.00    -0.461 OA
BRANCH   2   3
ATOM      3  C   UNL     1      -0.949   0.493   2.483  1.00  0.00     0.341 C 
ATOM      4  O   UNL     1      -1.495   0.221   3.547  1.00  0.00    -0.249 OA
BRANCH   3   5
ATOM      5  C   UNL     1       0.571   0.462   2.291  1.00  0.00     0.232 C 
ATOM      6  C   UNL     1       1.133   1.460   3.301  1.00  0.00     0.058 C 
BRANCH   5   7
ATOM      7  C   UNL     1       0.971  -0.956   2.759  1.00  0.00     0.422 C 
ATOM      8  F   UNL     1       0.451  -1.903   1.938  1.00  0.00    -0.168 F 
ATOM      9  F   UNL     1       2.322  -1.102   2.690  1.00  0.00    -0.168 F 
ATOM     10  F   UNL     1       0.617  -1.256   4.022  1.00  0.00    -0.168 F 
ENDBRANCH   5   7
BRANCH   5  11
ATOM     11  N   UNL     1       1.024   0.608   0.845  1.00  0.00    -0.315 N 
ATOM     12  C   UNL     1       1.059   1.527  -0.131  1.00  0.00     0.318 C 
ATOM     13  H   UNL     1       1.415  -0.238   0.526  1.00  0.00     0.166 HD
ATOM     14  O   UNL     1       0.907   1.074  -1.270  1.00  0.00    -0.249 OA
BRANCH  12  15
ATOM     15  N   UNL     1       1.213   2.858   0.095  1.00  0.00    -0.319 N 
BRANCH  15  16
ATOM     16  C   UNL     1       2.137   3.424   1.072  1.00  0.00     0.127 C 
BRANCH  16  17
ATOM     17  C   UNL     1       3.483   3.888   0.519  1.00  0.00     0.083 CG0
ATOM     18  G   UNL     1       3.511   5.202  -0.255  1.00  0.00     0.000 G0
ENDBRANCH  16  17
ENDBRANCH  15  16
BRANCH  15  19
ATOM     19  C   UNL     1       0.621   3.773  -0.890  1.00  0.00     0.182 C 
BRANCH  19  20
ATOM     20  C   UNL     1       1.603   4.672  -1.660  1.00  0.00     0.282 C 
BRANCH  20  21
ATOM     21  N   UNL     1       2.256   5.675  -0.815  1.00  0.00    -0.345 N 
ATOM     22  H   UNL     1       2.440   6.505  -1.377  1.00  0.00     0.346 HD
ATOM     23  H   UNL     1       1.628   5.878  -0.037  1.00  0.00     0.346 HD
BRANCH  21  24
ATOM     24  C   UNL     1       3.511   5.202  -0.255  1.00  0.00     0.262 CG0
ATOM     25  G   UNL     1       3.483   3.888   0.519  1.00  0.00     0.000 G0
ENDBRANCH  21  24
ENDBRANCH  20  21
ENDBRANCH  19  20
ENDBRANCH  15  19
ENDBRANCH  12  15
ENDBRANCH   5  11
ENDBRANCH   3   5
ENDBRANCH   2   3
ENDBRANCH   1   2
BRANCH   1  26
ATOM     26  C   UNL     1      -3.753  -0.094   0.767  1.00  0.00     0.202 C 
BRANCH  26  27
ATOM     27  O   UNL     1      -3.302  -1.423   1.008  1.00  0.00    -0.374 OA
BRANCH  27  28
ATOM     28  C   UNL     1      -2.121  -1.844   0.319  1.00  0.00     0.202 C 
BRANCH  28  29
ATOM     29  C   UNL     1      -2.265  -2.170  -1.171  1.00  0.00     0.261 C 
BRANCH  29  30
ATOM     30  O   UNL     1      -2.508  -0.985  -1.952  1.00  0.00    -0.460 OA
BRANCH  30  31
ATOM     31  C   UNL     1      -3.719  -0.922  -2.548  1.00  0.00     0.338 C 
ATOM     32  O   UNL     1      -4.585  -1.790  -2.570  1.00  0.00    -0.246 OA
BRANCH  31  33
ATOM     33  C   UNL     1      -3.967   0.451  -3.018  1.00  0.00     0.060 A 
ATOM     34  C   UNL     1      -5.125   1.096  -2.562  1.00  0.00     0.016 A 
ATOM     35  C   UNL     1      -3.110   1.086  -3.919  1.00  0.00     0.016 A 
ATOM     36  C   UNL     1      -5.446   2.370  -3.025  1.00  0.00     0.010 A 
ATOM     37  C   UNL     1      -3.444   2.357  -4.398  1.00  0.00     0.010 A 
ATOM     38  C   UNL     1      -4.623   2.995  -3.970  1.00  0.00    -0.014 A 
BRANCH  38  39
ATOM     39  C   UNL     1      -5.040   4.278  -4.581  1.00  0.00     0.031 A 
ATOM     40  C   UNL     1      -5.706   4.268  -5.927  1.00  0.00     0.074 A 
ATOM     41  C   UNL     1      -4.818   5.439  -3.940  1.00  0.00     0.049 A 
ATOM     42  N   UNL     1      -6.067   5.275  -6.681  1.00  0.00    -0.248 NA
ATOM     43  C   UNL     1      -6.007   2.947  -6.502  1.00  0.00     0.031 C 
ATOM     44  C   UNL     1      -4.216   5.568  -2.614  1.00  0.00     0.029 A 
ATOM     45  N   UNL     1      -5.054   6.734  -4.331  1.00  0.00    -0.354 N 
ATOM     46  C   UNL     1      -6.624   4.712  -7.821  1.00  0.00     0.074 A 
ATOM     47  C   UNL     1      -6.545   3.275  -7.669  1.00  0.00     0.031 C 
ATOM     48  C   UNL     1      -4.102   6.873  -2.313  1.00  0.00     0.029 A 
ATOM     49  C   UNL     1      -4.585   7.668  -3.440  1.00  0.00     0.049 A 
ATOM     50  H   UNL     1      -5.515   6.970  -5.168  1.00  0.00     0.167 HD
ATOM     51  C   UNL     1      -7.152   5.342  -8.896  1.00  0.00     0.037 A 
ATOM     52  C   UNL     1      -4.515   9.010  -3.545  1.00  0.00     0.037 A 
ATOM     53  C   UNL     1      -7.239   6.772  -9.036  1.00  0.00     0.049 A 
ATOM     54  C   UNL     1      -5.040   9.680  -4.790  1.00  0.00     0.074 A 
ATOM     55  C   UNL     1      -7.811   7.504 -10.062  1.00  0.00     0.029 A 
ATOM     56  N   UNL     1      -6.726   7.686  -8.129  1.00  0.00    -0.354 N 
ATOM     57  N   UNL     1      -5.612   9.144  -5.841  1.00  0.00    -0.248 NA
ATOM     58  C   UNL     1      -4.904  11.142  -4.866  1.00  0.00     0.031 C 
ATOM     59  C   UNL     1      -7.591   8.860  -9.805  1.00  0.00     0.029 A 
ATOM     60  C   UNL     1      -6.928   8.975  -8.594  1.00  0.00     0.049 A 
ATOM     61  H   UNL     1      -6.283   7.453  -7.281  1.00  0.00     0.167 HD
ATOM     62  C   UNL     1      -5.918  10.199  -6.691  1.00  0.00     0.074 A 
ATOM     63  C   UNL     1      -5.491  11.410  -6.024  1.00  0.00     0.031 C 
ATOM     64  C   UNL     1      -6.496  10.169  -7.916  1.00  0.00     0.037 A 
BRANCH  51  65
ATOM     65  C   UNL     1      -7.661   4.501 -10.028  1.00  0.00     0.064 A 
ATOM     66  C   UNL     1      -8.870   3.797  -9.939  1.00  0.00     0.173 A 
ATOM     67  C   UNL     1      -6.971   4.474 -11.250  1.00  0.00     0.173 A 
ATOM     68  F   UNL     1      -9.561   3.785  -8.789  1.00  0.00    -0.203 F 
ATOM     69  C   UNL     1      -9.367   3.091 -11.031  1.00  0.00     0.198 A 
ATOM     70  C   UNL     1      -7.483   3.787 -12.346  1.00  0.00     0.198 A 
ATOM     71  F   UNL     1      -5.812   5.136 -11.386  1.00  0.00    -0.203 F 
ATOM     72  F   UNL     1     -10.515   2.408 -10.920  1.00  0.00    -0.200 F 
ATOM     73  C   UNL     1      -8.679   3.095 -12.236  1.00  0.00     0.200 A 
ATOM     74  F   UNL     1      -6.823   3.803 -13.513  1.00  0.00    -0.200 F 
ATOM     75  F   UNL     1      -9.171   2.433 -13.293  1.00  0.00    -0.200 F 
ENDBRANCH  51  65
BRANCH  52  76
ATOM     76  C   UNL     1      -3.877   9.814  -2.469  1.00  0.00     0.064 A 
ATOM     77  C   UNL     1      -4.619  10.724  -1.703  1.00  0.00     0.173 A 
ATOM     78  C   UNL     1      -2.499   9.723  -2.218  1.00  0.00     0.173 A 
ATOM     79  F   UNL     1      -5.934  10.867  -1.923  1.00  0.00    -0.203 F 
ATOM     80  C   UNL     1      -4.003  11.531  -0.748  1.00  0.00     0.198 A 
ATOM     81  C   UNL     1      -1.890  10.506  -1.240  1.00  0.00     0.198 A 
ATOM     82  F   UNL     1      -1.742   8.868  -2.923  1.00  0.00    -0.203 F 
ATOM     83  F   UNL     1      -4.725  12.434  -0.071  1.00  0.00    -0.200 F 
ATOM     84  C   UNL     1      -2.640  11.418  -0.515  1.00  0.00     0.200 A 
ATOM     85  F   UNL     1      -0.577  10.383  -1.008  1.00  0.00    -0.200 F 
ATOM     86  F   UNL     1      -2.049  12.196   0.402  1.00  0.00    -0.200 F 
ENDBRANCH  52  76
BRANCH  64  87
ATOM     87  C   UNL     1      -6.713  11.482  -8.610  1.00  0.00     0.064 A 
ATOM     88  C   UNL     1      -5.642  12.207  -9.154  1.00  0.00     0.173 A 
ATOM     89  C   UNL     1      -8.007  11.997  -8.776  1.00  0.00     0.173 A 
ATOM     90  F   UNL     1      -4.384  11.765  -9.007  1.00  0.00    -0.203 F 
ATOM     91  C   UNL     1      -5.858  13.409  -9.822  1.00  0.00     0.198 A 
ATOM     92  C   UNL     1      -8.222  13.184  -9.470  1.00  0.00     0.198 A 
ATOM     93  F   UNL     1      -9.066  11.339  -8.280  1.00  0.00    -0.203 F 
ATOM     94  F   UNL     1      -4.817  14.107 -10.296  1.00  0.00    -0.200 F 
ATOM     95  C   UNL     1      -7.148  13.892  -9.987  1.00  0.00     0.200 A 
ATOM     96  F   UNL     1      -9.470  13.642  -9.642  1.00  0.00    -0.200 F 
ATOM     97  F   UNL     1      -7.355  15.044 -10.639  1.00  0.00    -0.200 F 
ENDBRANCH  64  87
ENDBRANCH  38  39
ENDBRANCH  31  33
ENDBRANCH  30  31
ENDBRANCH  29  30
ENDBRANCH  28  29
ENDBRANCH  27  28
ENDBRANCH  26  27
ENDBRANCH   1  26
TORSDOF 17
