REMARK SMILES COc1cc(OC(F)(F)F)cc2c1O[C@@H](C(F)(F)F)C(C(=O)OCCOCCOC(=O)c1ccc(-c3c4nc(c(-c5c(F)c(F)c(F)c(F)c5F)c5ccc([nH]5)c(-c5c(F)c(F)c(F)c(F)c5F)c5nc(c(-c6c(F)c(F)c(F)c(F)c6F)c6ccc3[nH]6)C=C5)C=C4)cc1)=C2
REMARK SMILES IDX 26 1 25 2 24 3 23 4 21 5 22 6 20 7 3 8 4 9 13 10 5 11 12 12
REMARK SMILES IDX 14 13 11 14 95 15 15 16 2 17 1 18 6 19 7 20 8 21 9 22 10 23
REMARK SMILES IDX 16 24 17 25 18 26 19 27 27 28 28 29 29 30 30 31 31 32 32 33
REMARK SMILES IDX 33 34 94 35 34 36 93 37 35 38 36 39 37 40 87 41 38 42 92 43
REMARK SMILES IDX 86 44 88 45 39 46 91 47 85 48 84 49 40 51 72 52 52 53 71 54
REMARK SMILES IDX 53 55 56 56 70 57 89 58 54 59 55 60 69 62 90 63 57 64 41 65
REMARK SMILES IDX 42 66 50 67 43 68 44 69 48 70 51 71 45 72 46 73 49 74 47 75
REMARK SMILES IDX 73 76 74 77 82 78 75 79 76 80 80 81 83 82 77 83 78 84 81 85
REMARK SMILES IDX 79 86 58 87 59 88 67 89 60 90 61 91 65 92 68 93 62 94 63 95
REMARK SMILES IDX 66 96 64 97
REMARK H PARENT 88 50 56 61
REMARK Flexibility Score: inf
ROOT
ATOM      1  O   UNL     1       8.527   3.500   0.193  1.00  0.00    -0.374 OA
ENDROOT
BRANCH   1   2
ATOM      2  C   UNL     1       8.893   4.244  -0.966  1.00  0.00     0.202 C 
BRANCH   2   3
ATOM      3  C   UNL     1       8.335   3.758  -2.306  1.00  0.00     0.261 C 
BRANCH   3   4
ATOM      4  O   UNL     1       6.899   3.708  -2.296  1.00  0.00    -0.460 OA
BRANCH   4   5
ATOM      5  C   UNL     1       6.377   2.472  -2.471  1.00  0.00     0.338 C 
ATOM      6  O   UNL     1       6.988   1.462  -2.785  1.00  0.00    -0.246 OA
BRANCH   5   7
ATOM      7  C   UNL     1       4.950   2.451  -2.119  1.00  0.00     0.087 C 
ATOM      8  C   UNL     1       0.886   1.579  -1.782  1.00  0.00     0.165 A 
ATOM      9  C   UNL     1      -0.064   2.497  -2.236  1.00  0.00     0.097 A 
ATOM     10  C   UNL     1       2.247   1.876  -1.884  1.00  0.00     0.170 A 
ATOM     11  C   UNL     1       0.338   3.728  -2.759  1.00  0.00     0.134 A 
ATOM     12  C   UNL     1       2.666   3.103  -2.424  1.00  0.00     0.025 A 
ATOM     13  O   UNL     1       3.156   0.903  -1.551  1.00  0.00    -0.471 OA
ATOM     14  C   UNL     1       1.704   4.033  -2.834  1.00  0.00     0.059 A 
ATOM     15  C   UNL     1       4.093   3.321  -2.679  1.00  0.00     0.027 C 
ATOM     16  C   UNL     1       4.448   1.412  -1.144  1.00  0.00     0.316 C 
BRANCH   8  17
ATOM     17  O   UNL     1       0.394   0.375  -1.350  1.00  0.00    -0.493 OA
ATOM     18  C   UNL     1       0.793   0.048  -0.020  1.00  0.00     0.278 C 
ENDBRANCH   8  17
BRANCH  11  19
ATOM     19  O   UNL     1      -0.490   4.704  -3.241  1.00  0.00    -0.406 OA
BRANCH  19  20
ATOM     20  C   UNL     1      -1.849   4.357  -3.467  1.00  0.00     0.573 C 
ATOM     21  F   UNL     1      -1.952   3.285  -4.280  1.00  0.00    -0.132 F 
ATOM     22  F   UNL     1      -2.483   4.106  -2.302  1.00  0.00    -0.132 F 
ATOM     23  F   UNL     1      -2.467   5.399  -4.064  1.00  0.00    -0.132 F 
ENDBRANCH  19  20
ENDBRANCH  11  19
BRANCH  16  24
ATOM     24  C   UNL     1       5.355   0.223  -0.787  1.00  0.00     0.430 C 
ATOM     25  F   UNL     1       6.520   0.644  -0.243  1.00  0.00    -0.167 F 
ATOM     26  F   UNL     1       4.754  -0.540   0.167  1.00  0.00    -0.167 F 
ATOM     27  F   UNL     1       5.620  -0.586  -1.830  1.00  0.00    -0.167 F 
ENDBRANCH  16  24
ENDBRANCH   5   7
ENDBRANCH   4   5
ENDBRANCH   3   4
ENDBRANCH   2   3
ENDBRANCH   1   2
BRANCH   1  28
ATOM     28  C   UNL     1       7.215   3.681   0.723  1.00  0.00     0.202 C 
BRANCH  28  29
ATOM     29  C   UNL     1       6.924   4.999   1.450  1.00  0.00     0.261 C 
BRANCH  29  30
ATOM     30  O   UNL     1       6.926   6.128   0.558  1.00  0.00    -0.460 OA
BRANCH  30  31
ATOM     31  C   UNL     1       7.933   7.010   0.756  1.00  0.00     0.338 C 
ATOM     32  O   UNL     1       8.791   6.979   1.629  1.00  0.00    -0.246 OA
BRANCH  31  33
ATOM     33  C   UNL     1       7.982   7.966  -0.361  1.00  0.00     0.060 A 
ATOM     34  C   UNL     1       9.185   8.086  -1.072  1.00  0.00     0.016 A 
ATOM     35  C   UNL     1       6.892   8.783  -0.661  1.00  0.00     0.016 A 
ATOM     36  C   UNL     1       9.314   9.055  -2.064  1.00  0.00     0.010 A 
ATOM     37  C   UNL     1       7.027   9.761  -1.649  1.00  0.00     0.010 A 
ATOM     38  C   UNL     1       8.247   9.921  -2.331  1.00  0.00    -0.014 A 
BRANCH  38  39
ATOM     39  C   UNL     1       8.440  11.089  -3.220  1.00  0.00     0.031 A 
ATOM     40  C   UNL     1       8.667  12.439  -2.604  1.00  0.00     0.074 A 
ATOM     41  C   UNL     1       8.391  10.951  -4.555  1.00  0.00     0.049 A 
ATOM     42  N   UNL     1       8.741  13.614  -3.174  1.00  0.00    -0.248 NA
ATOM     43  C   UNL     1       8.820  12.466  -1.141  1.00  0.00     0.031 C 
ATOM     44  C   UNL     1       8.212   9.687  -5.265  1.00  0.00     0.029 A 
ATOM     45  N   UNL     1       8.462  11.893  -5.549  1.00  0.00    -0.354 N 
ATOM     46  C   UNL     1       8.937  14.521  -2.142  1.00  0.00     0.074 A 
ATOM     47  C   UNL     1       8.939  13.764  -0.907  1.00  0.00     0.031 C 
ATOM     48  C   UNL     1       8.157   9.935  -6.584  1.00  0.00     0.029 A 
ATOM     49  C   UNL     1       8.259  11.377  -6.804  1.00  0.00     0.049 A 
ATOM     50  H   UNL     1       8.641  12.846  -5.379  1.00  0.00     0.167 HD
ATOM     51  C   UNL     1       9.104  15.863  -2.219  1.00  0.00     0.037 A 
ATOM     52  C   UNL     1       8.135  12.004  -7.989  1.00  0.00     0.037 A 
ATOM     53  C   UNL     1       9.092  16.607  -3.450  1.00  0.00     0.049 A 
ATOM     54  C   UNL     1       8.260  13.503  -8.049  1.00  0.00     0.074 A 
ATOM     55  C   UNL     1       9.269  17.966  -3.642  1.00  0.00     0.029 A 
ATOM     56  N   UNL     1       8.879  16.051  -4.705  1.00  0.00    -0.354 N 
ATOM     57  N   UNL     1       8.463  14.356  -7.073  1.00  0.00    -0.248 NA
ATOM     58  C   UNL     1       8.141  14.127  -9.374  1.00  0.00     0.031 C 
ATOM     59  C   UNL     1       9.111  18.239  -5.005  1.00  0.00     0.029 A 
ATOM     60  C   UNL     1       8.894  17.043  -5.672  1.00  0.00     0.049 A 
ATOM     61  H   UNL     1       8.738  15.093  -4.881  1.00  0.00     0.167 HD
ATOM     62  C   UNL     1       8.522  15.611  -7.666  1.00  0.00     0.074 A 
ATOM     63  C   UNL     1       8.342  15.406  -9.089  1.00  0.00     0.031 C 
ATOM     64  C   UNL     1       8.713  16.822  -7.085  1.00  0.00     0.037 A 
BRANCH  51  65
ATOM     65  C   UNL     1       9.276  16.608  -0.926  1.00  0.00     0.064 A 
ATOM     66  C   UNL     1      10.434  16.474  -0.143  1.00  0.00     0.173 A 
ATOM     67  C   UNL     1       8.267  17.464  -0.461  1.00  0.00     0.173 A 
ATOM     68  F   UNL     1      11.422  15.656  -0.534  1.00  0.00    -0.203 F 
ATOM     69  C   UNL     1      10.556  17.138   1.075  1.00  0.00     0.198 A 
ATOM     70  C   UNL     1       8.407  18.152   0.742  1.00  0.00     0.198 A 
ATOM     71  F   UNL     1       7.141  17.631  -1.171  1.00  0.00    -0.203 F 
ATOM     72  F   UNL     1      11.643  16.945   1.835  1.00  0.00    -0.200 F 
ATOM     73  C   UNL     1       9.545  17.980   1.514  1.00  0.00     0.200 A 
ATOM     74  F   UNL     1       7.433  18.973   1.159  1.00  0.00    -0.200 F 
ATOM     75  F   UNL     1       9.663  18.615   2.688  1.00  0.00    -0.200 F 
ENDBRANCH  51  65
BRANCH  52  76
ATOM     76  C   UNL     1       7.861  11.206  -9.211  1.00  0.00     0.064 A 
ATOM     77  C   UNL     1       8.836  11.041 -10.203  1.00  0.00     0.173 A 
ATOM     78  C   UNL     1       6.623  10.573  -9.400  1.00  0.00     0.173 A 
ATOM     79  F   UNL     1      10.027  11.646 -10.077  1.00  0.00    -0.203 F 
ATOM     80  C   UNL     1       8.583  10.277 -11.341  1.00  0.00     0.198 A 
ATOM     81  C   UNL     1       6.379   9.789 -10.525  1.00  0.00     0.198 A 
ATOM     82  F   UNL     1       5.657  10.699  -8.478  1.00  0.00    -0.203 F 
ATOM     83  F   UNL     1       9.522  10.160 -12.289  1.00  0.00    -0.200 F 
ATOM     84  C   UNL     1       7.358   9.645 -11.496  1.00  0.00     0.200 A 
ATOM     85  F   UNL     1       5.200   9.167 -10.664  1.00  0.00    -0.200 F 
ATOM     86  F   UNL     1       7.120   8.899 -12.584  1.00  0.00    -0.200 F 
ENDBRANCH  52  76
BRANCH  64  87
ATOM     87  C   UNL     1       8.773  18.019  -7.990  1.00  0.00     0.064 A 
ATOM     88  C   UNL     1       7.628  18.527  -8.620  1.00  0.00     0.173 A 
ATOM     89  C   UNL     1       9.987  18.695  -8.190  1.00  0.00     0.173 A 
ATOM     90  F   UNL     1       6.447  17.909  -8.473  1.00  0.00    -0.203 F 
ATOM     91  C   UNL     1       7.700  19.654  -9.435  1.00  0.00     0.198 A 
ATOM     92  C   UNL     1      10.050  19.839  -8.981  1.00  0.00     0.198 A 
ATOM     93  F   UNL     1      11.111  18.254  -7.605  1.00  0.00    -0.203 F 
ATOM     94  F   UNL     1       6.602  20.096 -10.063  1.00  0.00    -0.200 F 
ATOM     95  C   UNL     1       8.908  20.313  -9.608  1.00  0.00     0.200 A 
ATOM     96  F   UNL     1      11.216  20.482  -9.135  1.00  0.00    -0.200 F 
ATOM     97  F   UNL     1       8.974  21.403 -10.385  1.00  0.00    -0.200 F 
ENDBRANCH  64  87
ENDBRANCH  38  39
ENDBRANCH  31  33
ENDBRANCH  30  31
ENDBRANCH  29  30
ENDBRANCH  28  29
ENDBRANCH   1  28
TORSDOF 18
