REMARK SMILES Cc1c(NC(=O)c2ccccc2NC(=O)[C@@H]2CCCO2)cccc1C(=O)OCCOCCOC(=O)c1ccc(-c2c3nc(c(-c4c(F)c(F)c(F)c(F)c4F)c4ccc([nH]4)c(-c4c(F)c(F)c(F)c(F)c4F)c4nc(c(-c5c(F)c(F)c(F)c(F)c5F)c5ccc2[nH]5)C=C4)C=C3)cc1
REMARK SMILES IDX 29 1 28 2 27 3 25 4 26 5 24 6 1 7 2 8 3 9 21 10 23 11 22 12
REMARK SMILES IDX 4 13 5 14 6 16 7 17 8 18 12 19 9 20 11 21 10 22 13 23 14 24
REMARK SMILES IDX 15 26 16 27 17 28 20 29 18 30 19 31 30 32 31 33 32 34 33 35
REMARK SMILES IDX 34 36 35 37 36 38 37 39 98 40 38 41 97 42 39 43 40 44 41 45
REMARK SMILES IDX 91 46 42 47 96 48 90 49 92 50 43 51 95 52 89 53 88 54 44 56
REMARK SMILES IDX 76 57 56 58 75 59 57 60 60 61 74 62 93 63 58 64 59 65 73 67
REMARK SMILES IDX 94 68 61 69 45 70 46 71 54 72 47 73 48 74 52 75 55 76 49 77
REMARK SMILES IDX 50 78 53 79 51 80 77 81 78 82 86 83 79 84 80 85 84 86 87 87
REMARK SMILES IDX 81 88 82 89 85 90 83 91 62 92 63 93 71 94 64 95 65 96 69 97
REMARK SMILES IDX 72 98 66 99 67 100 70 101 68 102
REMARK H PARENT 4 15 13 25 92 55 60 66
REMARK Flexibility Score: inf
ROOT
ATOM      1  C   UNL     1       2.181   2.443  -2.409  1.00  0.00     0.202 C 
ENDROOT
BRANCH   1   2
ATOM      2  C   UNL     1       2.686   2.411  -1.015  1.00  0.00     0.261 C 
BRANCH   2   3
ATOM      3  O   UNL     1       1.866   1.557  -0.213  1.00  0.00    -0.460 OA
BRANCH   3   4
ATOM      4  C   UNL     1       0.626   1.857   0.208  1.00  0.00     0.338 C 
ATOM      5  O   UNL     1       0.123   2.950   0.330  1.00  0.00    -0.246 OA
BRANCH   4   6
ATOM      6  C   UNL     1      -0.047   0.552   0.476  1.00  0.00     0.065 A 
ATOM      7  C   UNL     1       2.055  -1.006   0.196  1.00  0.00     0.047 C 
ATOM      8  C   UNL     1       0.587  -0.719   0.483  1.00  0.00    -0.013 A 
ATOM      9  C   UNL     1      -0.239  -1.863   0.625  1.00  0.00     0.045 A 
ATOM     10  C   UNL     1      -1.625  -1.749   0.777  1.00  0.00     0.026 A 
ATOM     11  C   UNL     1      -1.446   0.645   0.625  1.00  0.00     0.016 A 
ATOM     12  C   UNL     1      -2.229  -0.497   0.769  1.00  0.00     0.003 A 
BRANCH   9  13
ATOM     13  N   UNL     1       0.395  -3.110   0.500  1.00  0.00    -0.322 N 
ATOM     14  C   UNL     1       0.087  -4.222  -0.238  1.00  0.00     0.257 C 
ATOM     15  H   UNL     1       1.210  -3.202   1.044  1.00  0.00     0.170 HD
ATOM     16  O   UNL     1       0.859  -5.180  -0.197  1.00  0.00    -0.269 OA
BRANCH  14  17
ATOM     17  C   UNL     1      -1.119  -4.310  -1.090  1.00  0.00     0.063 A 
ATOM     18  C   UNL     1      -1.815  -5.521  -0.929  1.00  0.00     0.016 A 
ATOM     19  C   UNL     1      -1.582  -3.318  -1.988  1.00  0.00     0.054 A 
ATOM     20  C   UNL     1      -3.027  -5.726  -1.569  1.00  0.00     0.001 A 
ATOM     21  C   UNL     1      -2.860  -3.507  -2.519  1.00  0.00     0.027 A 
ATOM     22  C   UNL     1      -3.568  -4.701  -2.327  1.00  0.00     0.002 A 
BRANCH  19  23
ATOM     23  N   UNL     1      -0.756  -2.211  -2.305  1.00  0.00    -0.323 N 
ATOM     24  C   UNL     1      -0.825  -1.124  -3.134  1.00  0.00     0.253 C 
ATOM     25  H   UNL     1       0.087  -2.229  -1.797  1.00  0.00     0.170 HD
ATOM     26  O   UNL     1       0.093  -0.301  -3.036  1.00  0.00    -0.272 OA
BRANCH  24  27
ATOM     27  C   UNL     1      -1.937  -0.947  -4.171  1.00  0.00     0.207 C 
ATOM     28  C   UNL     1      -1.808  -1.998  -5.265  1.00  0.00     0.044 C 
ATOM     29  O   UNL     1      -1.917   0.315  -4.868  1.00  0.00    -0.368 OA
ATOM     30  C   UNL     1      -2.571  -1.369  -6.396  1.00  0.00     0.032 C 
ATOM     31  C   UNL     1      -2.162   0.079  -6.263  1.00  0.00     0.161 C 
ENDBRANCH  24  27
ENDBRANCH  19  23
ENDBRANCH  14  17
ENDBRANCH   9  13
ENDBRANCH   4   6
ENDBRANCH   3   4
ENDBRANCH   2   3
ENDBRANCH   1   2
BRANCH   1  32
ATOM     32  O   UNL     1       1.028   3.259  -2.330  1.00  0.00    -0.374 OA
BRANCH  32  33
ATOM     33  C   UNL     1       0.331   3.415  -3.544  1.00  0.00     0.202 C 
BRANCH  33  34
ATOM     34  C   UNL     1       1.211   4.081  -4.607  1.00  0.00     0.261 C 
BRANCH  34  35
ATOM     35  O   UNL     1       1.640   5.382  -4.129  1.00  0.00    -0.460 OA
BRANCH  35  36
ATOM     36  C   UNL     1       2.923   5.478  -3.671  1.00  0.00     0.338 C 
ATOM     37  O   UNL     1       3.914   5.077  -4.259  1.00  0.00    -0.246 OA
BRANCH  36  38
ATOM     38  C   UNL     1       2.927   5.889  -2.230  1.00  0.00     0.060 A 
ATOM     39  C   UNL     1       4.103   5.772  -1.456  1.00  0.00     0.016 A 
ATOM     40  C   UNL     1       1.701   6.046  -1.593  1.00  0.00     0.016 A 
ATOM     41  C   UNL     1       4.026   5.639  -0.056  1.00  0.00     0.010 A 
ATOM     42  C   UNL     1       1.622   5.795  -0.240  1.00  0.00     0.010 A 
ATOM     43  C   UNL     1       2.770   5.551   0.539  1.00  0.00    -0.014 A 
BRANCH  43  44
ATOM     44  C   UNL     1       2.465   5.090   1.903  1.00  0.00     0.031 A 
ATOM     45  C   UNL     1       1.673   6.007   2.758  1.00  0.00     0.074 A 
ATOM     46  C   UNL     1       2.583   3.780   2.255  1.00  0.00     0.049 A 
ATOM     47  N   UNL     1       1.364   5.751   3.978  1.00  0.00    -0.248 NA
ATOM     48  C   UNL     1       1.183   7.319   2.333  1.00  0.00     0.031 C 
ATOM     49  C   UNL     1       1.813   3.038   3.264  1.00  0.00     0.029 A 
ATOM     50  N   UNL     1       3.419   2.778   1.737  1.00  0.00    -0.354 N 
ATOM     51  C   UNL     1       0.391   6.637   4.367  1.00  0.00     0.074 A 
ATOM     52  C   UNL     1       0.414   7.670   3.369  1.00  0.00     0.031 C 
ATOM     53  C   UNL     1       2.392   1.845   3.499  1.00  0.00     0.029 A 
ATOM     54  C   UNL     1       3.625   1.812   2.736  1.00  0.00     0.049 A 
ATOM     55  H   UNL     1       3.797   2.756   0.828  1.00  0.00     0.167 HD
ATOM     56  C   UNL     1      -0.378   6.294   5.437  1.00  0.00     0.037 A 
ATOM     57  C   UNL     1       4.878   1.535   3.181  1.00  0.00     0.037 A 
ATOM     58  C   UNL     1       0.183   5.101   6.093  1.00  0.00     0.049 A 
ATOM     59  C   UNL     1       4.946   1.988   4.607  1.00  0.00     0.074 A 
ATOM     60  C   UNL     1      -0.207   3.777   6.179  1.00  0.00     0.029 A 
ATOM     61  N   UNL     1       1.517   5.140   6.511  1.00  0.00    -0.354 N 
ATOM     62  N   UNL     1       4.153   2.918   5.071  1.00  0.00    -0.248 NA
ATOM     63  C   UNL     1       5.749   1.356   5.644  1.00  0.00     0.031 C 
ATOM     64  C   UNL     1       0.943   3.012   6.554  1.00  0.00     0.029 A 
ATOM     65  C   UNL     1       2.018   3.872   6.737  1.00  0.00     0.049 A 
ATOM     66  H   UNL     1       2.036   5.968   6.628  1.00  0.00     0.167 HD
ATOM     67  C   UNL     1       4.219   2.922   6.425  1.00  0.00     0.074 A 
ATOM     68  C   UNL     1       5.274   1.974   6.742  1.00  0.00     0.031 C 
ATOM     69  C   UNL     1       3.393   3.681   7.197  1.00  0.00     0.037 A 
BRANCH  56  70
ATOM     70  C   UNL     1      -1.697   6.929   5.832  1.00  0.00     0.064 A 
ATOM     71  C   UNL     1      -2.346   6.520   7.019  1.00  0.00     0.173 A 
ATOM     72  C   UNL     1      -2.421   7.876   5.072  1.00  0.00     0.173 A 
ATOM     73  F   UNL     1      -1.796   5.606   7.830  1.00  0.00    -0.203 F 
ATOM     74  C   UNL     1      -3.593   7.024   7.411  1.00  0.00     0.198 A 
ATOM     75  C   UNL     1      -3.643   8.415   5.491  1.00  0.00     0.198 A 
ATOM     76  F   UNL     1      -2.018   8.286   3.867  1.00  0.00    -0.203 F 
ATOM     77  F   UNL     1      -4.175   6.564   8.528  1.00  0.00    -0.200 F 
ATOM     78  C   UNL     1      -4.234   7.984   6.657  1.00  0.00     0.200 A 
ATOM     79  F   UNL     1      -4.251   9.343   4.736  1.00  0.00    -0.200 F 
ATOM     80  F   UNL     1      -5.419   8.478   7.039  1.00  0.00    -0.200 F 
ENDBRANCH  56  70
BRANCH  57  81
ATOM     81  C   UNL     1       5.877   1.618   2.074  1.00  0.00     0.064 A 
ATOM     82  C   UNL     1       5.800   0.593   1.101  1.00  0.00     0.173 A 
ATOM     83  C   UNL     1       6.429   2.841   1.663  1.00  0.00     0.173 A 
ATOM     84  F   UNL     1       5.259  -0.594   1.424  1.00  0.00    -0.203 F 
ATOM     85  C   UNL     1       6.099   0.831  -0.241  1.00  0.00     0.198 A 
ATOM     86  C   UNL     1       6.729   3.074   0.313  1.00  0.00     0.198 A 
ATOM     87  F   UNL     1       6.524   3.863   2.525  1.00  0.00    -0.203 F 
ATOM     88  F   UNL     1       5.840  -0.110  -1.162  1.00  0.00    -0.200 F 
ATOM     89  C   UNL     1       6.522   2.087  -0.640  1.00  0.00     0.200 A 
ATOM     90  F   UNL     1       7.109   4.297  -0.086  1.00  0.00    -0.200 F 
ATOM     91  F   UNL     1       6.649   2.367  -1.946  1.00  0.00    -0.200 F 
ENDBRANCH  57  81
BRANCH  69  92
ATOM     92  C   UNL     1       3.856   4.261   8.501  1.00  0.00     0.064 A 
ATOM     93  C   UNL     1       5.218   4.418   8.822  1.00  0.00     0.173 A 
ATOM     94  C   UNL     1       2.943   4.862   9.393  1.00  0.00     0.173 A 
ATOM     95  F   UNL     1       6.192   4.035   7.983  1.00  0.00    -0.203 F 
ATOM     96  C   UNL     1       5.631   5.032   9.999  1.00  0.00     0.198 A 
ATOM     97  C   UNL     1       3.365   5.548  10.527  1.00  0.00     0.198 A 
ATOM     98  F   UNL     1       1.621   4.839   9.173  1.00  0.00    -0.203 F 
ATOM     99  F   UNL     1       6.938   5.090  10.289  1.00  0.00    -0.200 F 
ATOM    100  C   UNL     1       4.706   5.606  10.846  1.00  0.00     0.200 A 
ATOM    101  F   UNL     1       2.463   6.173  11.296  1.00  0.00    -0.200 F 
ATOM    102  F   UNL     1       5.108   6.235  11.957  1.00  0.00    -0.200 F 
ENDBRANCH  69  92
ENDBRANCH  43  44
ENDBRANCH  36  38
ENDBRANCH  35  36
ENDBRANCH  34  35
ENDBRANCH  33  34
ENDBRANCH  32  33
ENDBRANCH   1  32
TORSDOF 18
