REMARK SMILES C=CC[N@H+](CC(=O)OCCOCCOC(=O)c1ccc(-c2c3nc(c(-c4c(F)c(F)c(F)c(F)c4F)c4ccc([nH]4)c(-c4c(F)c(F)c(F)c(F)c4F)c4nc(c(-c5c(F)c(F)c(F)c(F)c5F)c5ccc2[nH]5)C=C4)C=C3)cc1)[C@@H]1CCCOC1
REMARK SMILES IDX 10 1 9 2 8 3 6 4 7 5 5 6 4 7 3 9 2 10 1 11 80 12 81 13 85 14
REMARK SMILES IDX 82 15 84 16 83 17 11 18 12 19 13 20 14 21 15 22 16 23 17 24
REMARK SMILES IDX 18 25 79 26 19 27 78 28 20 29 21 30 22 31 72 32 23 33 77 34
REMARK SMILES IDX 71 35 73 36 24 37 76 38 70 39 69 40 25 42 57 43 37 44 56 45
REMARK SMILES IDX 38 46 41 47 55 48 74 49 39 50 40 51 54 53 75 54 42 55 26 56
REMARK SMILES IDX 27 57 35 58 28 59 29 60 33 61 36 62 30 63 31 64 34 65 32 66
REMARK SMILES IDX 58 67 59 68 67 69 60 70 61 71 65 72 68 73 62 74 63 75 66 76
REMARK SMILES IDX 64 77 43 78 44 79 52 80 45 81 46 82 50 83 53 84 47 85 48 86
REMARK SMILES IDX 51 87 49 88
REMARK H PARENT 4 8 73 41 41 52
REMARK Flexibility Score: inf
ROOT
ATOM      1  C   UNL     1      -4.546   2.346   0.986  1.00  0.00     0.202 C 
ENDROOT
BRANCH   1   2
ATOM      2  C   UNL     1      -4.738   0.881   0.575  1.00  0.00     0.261 C 
BRANCH   2   3
ATOM      3  O   UNL     1      -3.655   0.391  -0.244  1.00  0.00    -0.459 OA
BRANCH   3   4
ATOM      4  C   UNL     1      -4.005  -0.413  -1.291  1.00  0.00     0.361 C 
ATOM      5  O   UNL     1      -5.163  -0.720  -1.560  1.00  0.00    -0.245 OA
BRANCH   4   6
ATOM      6  C   UNL     1      -2.820  -0.946  -2.117  1.00  0.00     0.387 C 
BRANCH   6   7
ATOM      7  N   UNL     1      -1.525  -0.326  -1.798  1.00  0.00    -0.318 N 
ATOM      8  H   UNL     1      -1.662   0.655  -1.552  1.00  0.00     0.349 HD
BRANCH   7   9
ATOM      9  C   UNL     1      -0.972  -0.724  -0.511  1.00  0.00     0.291 C 
BRANCH   9  10
ATOM     10  C   UNL     1       0.345  -1.441  -0.505  1.00  0.00     0.025 C 
ATOM     11  C   UNL     1       1.351  -1.104   0.317  1.00  0.00     0.010 C 
ENDBRANCH   9  10
ENDBRANCH   7   9
BRANCH   7  12
ATOM     12  C   UNL     1      -0.721   0.245  -2.898  1.00  0.00     0.211 C 
ATOM     13  C   UNL     1       0.604   0.896  -2.440  1.00  0.00     0.070 C 
ATOM     14  C   UNL     1      -1.560   1.242  -3.757  1.00  0.00     0.225 C 
ATOM     15  C   UNL     1       1.233   1.817  -3.475  1.00  0.00     0.035 C 
ATOM     16  O   UNL     1      -0.828   2.123  -4.607  1.00  0.00    -0.375 OA
ATOM     17  C   UNL     1       0.209   2.824  -3.935  1.00  0.00     0.160 C 
ENDBRANCH   7  12
ENDBRANCH   6   7
ENDBRANCH   4   6
ENDBRANCH   3   4
ENDBRANCH   2   3
ENDBRANCH   1   2
BRANCH   1  18
ATOM     18  O   UNL     1      -4.746   3.318  -0.045  1.00  0.00    -0.374 OA
BRANCH  18  19
ATOM     19  C   UNL     1      -3.870   3.256  -1.169  1.00  0.00     0.202 C 
BRANCH  19  20
ATOM     20  C   UNL     1      -2.450   3.764  -0.912  1.00  0.00     0.261 C 
BRANCH  20  21
ATOM     21  O   UNL     1      -1.839   3.116   0.208  1.00  0.00    -0.460 OA
BRANCH  21  22
ATOM     22  C   UNL     1      -0.936   3.878   0.856  1.00  0.00     0.338 C 
ATOM     23  O   UNL     1      -0.443   4.936   0.490  1.00  0.00    -0.246 OA
BRANCH  22  24
ATOM     24  C   UNL     1      -0.667   3.283   2.168  1.00  0.00     0.060 A 
ATOM     25  C   UNL     1      -1.465   3.654   3.255  1.00  0.00     0.016 A 
ATOM     26  C   UNL     1       0.446   2.459   2.338  1.00  0.00     0.016 A 
ATOM     27  C   UNL     1      -1.112   3.237   4.537  1.00  0.00     0.010 A 
ATOM     28  C   UNL     1       0.782   2.022   3.620  1.00  0.00     0.010 A 
ATOM     29  C   UNL     1       0.031   2.446   4.731  1.00  0.00    -0.014 A 
BRANCH  29  30
ATOM     30  C   UNL     1       0.515   2.191   6.110  1.00  0.00     0.031 A 
ATOM     31  C   UNL     1       1.678   2.986   6.637  1.00  0.00     0.074 A 
ATOM     32  C   UNL     1      -0.109   1.293   6.892  1.00  0.00     0.049 A 
ATOM     33  N   UNL     1       2.235   2.961   7.821  1.00  0.00    -0.248 NA
ATOM     34  C   UNL     1       2.303   3.935   5.701  1.00  0.00     0.031 C 
ATOM     35  C   UNL     1      -1.248   0.472   6.486  1.00  0.00     0.029 A 
ATOM     36  N   UNL     1       0.122   0.928   8.194  1.00  0.00    -0.354 N 
ATOM     37  C   UNL     1       3.271   3.885   7.771  1.00  0.00     0.074 A 
ATOM     38  C   UNL     1       3.295   4.424   6.430  1.00  0.00     0.031 C 
ATOM     39  C   UNL     1      -1.627  -0.293   7.524  1.00  0.00     0.029 A 
ATOM     40  C   UNL     1      -0.745  -0.030   8.659  1.00  0.00     0.049 A 
ATOM     41  H   UNL     1       0.841   1.317   8.744  1.00  0.00     0.167 HD
ATOM     42  C   UNL     1       4.115   4.261   8.762  1.00  0.00     0.037 A 
ATOM     43  C   UNL     1      -0.815  -0.625   9.865  1.00  0.00     0.037 A 
ATOM     44  C   UNL     1       4.077   3.726  10.097  1.00  0.00     0.049 A 
ATOM     45  C   UNL     1       0.148  -0.203  10.944  1.00  0.00     0.074 A 
ATOM     46  C   UNL     1       4.870   4.052  11.183  1.00  0.00     0.029 A 
ATOM     47  N   UNL     1       3.194   2.746  10.526  1.00  0.00    -0.354 N 
ATOM     48  N   UNL     1       1.097   0.700  10.898  1.00  0.00    -0.248 NA
ATOM     49  C   UNL     1       0.024  -0.877  12.244  1.00  0.00     0.031 C 
ATOM     50  C   UNL     1       4.494   3.239  12.257  1.00  0.00     0.029 A 
ATOM     51  C   UNL     1       3.436   2.440  11.854  1.00  0.00     0.049 A 
ATOM     52  H   UNL     1       2.498   2.329   9.968  1.00  0.00     0.167 HD
ATOM     53  C   UNL     1       1.669   0.720  12.163  1.00  0.00     0.074 A 
ATOM     54  C   UNL     1       0.947  -0.250  12.961  1.00  0.00     0.031 C 
ATOM     55  C   UNL     1       2.700   1.470  12.625  1.00  0.00     0.037 A 
BRANCH  42  56
ATOM     56  C   UNL     1       5.157   5.289   8.430  1.00  0.00     0.064 A 
ATOM     57  C   UNL     1       4.822   6.633   8.204  1.00  0.00     0.173 A 
ATOM     58  C   UNL     1       6.512   4.931   8.356  1.00  0.00     0.173 A 
ATOM     59  F   UNL     1       3.540   7.026   8.249  1.00  0.00    -0.203 F 
ATOM     60  C   UNL     1       5.801   7.574   7.890  1.00  0.00     0.198 A 
ATOM     61  C   UNL     1       7.491   5.879   8.068  1.00  0.00     0.198 A 
ATOM     62  F   UNL     1       6.888   3.660   8.566  1.00  0.00    -0.203 F 
ATOM     63  F   UNL     1       5.451   8.841   7.630  1.00  0.00    -0.200 F 
ATOM     64  C   UNL     1       7.134   7.197   7.827  1.00  0.00     0.200 A 
ATOM     65  F   UNL     1       8.780   5.516   8.019  1.00  0.00    -0.200 F 
ATOM     66  F   UNL     1       8.075   8.103   7.527  1.00  0.00    -0.200 F 
ENDBRANCH  42  56
BRANCH  43  67
ATOM     67  C   UNL     1      -1.845  -1.665  10.120  1.00  0.00     0.064 A 
ATOM     68  C   UNL     1      -2.917  -1.428  10.991  1.00  0.00     0.173 A 
ATOM     69  C   UNL     1      -1.782  -2.918   9.492  1.00  0.00     0.173 A 
ATOM     70  F   UNL     1      -3.011  -0.254  11.632  1.00  0.00    -0.203 F 
ATOM     71  C   UNL     1      -3.878  -2.408  11.235  1.00  0.00     0.198 A 
ATOM     72  C   UNL     1      -2.758  -3.887   9.715  1.00  0.00     0.198 A 
ATOM     73  F   UNL     1      -0.777  -3.196   8.648  1.00  0.00    -0.203 F 
ATOM     74  F   UNL     1      -4.872  -2.168  12.102  1.00  0.00    -0.200 F 
ATOM     75  C   UNL     1      -3.802  -3.634  10.591  1.00  0.00     0.200 A 
ATOM     76  F   UNL     1      -2.687  -5.065   9.080  1.00  0.00    -0.200 F 
ATOM     77  F   UNL     1      -4.731  -4.572  10.819  1.00  0.00    -0.200 F 
ENDBRANCH  43  67
BRANCH  55  78
ATOM     78  C   UNL     1       3.091   1.285  14.062  1.00  0.00     0.064 A 
ATOM     79  C   UNL     1       3.769   0.136  14.494  1.00  0.00     0.173 A 
ATOM     80  C   UNL     1       2.822   2.286  15.006  1.00  0.00     0.173 A 
ATOM     81  F   UNL     1       4.036  -0.856  13.630  1.00  0.00    -0.203 F 
ATOM     82  C   UNL     1       4.141  -0.015  15.827  1.00  0.00     0.198 A 
ATOM     83  C   UNL     1       3.220   2.144  16.332  1.00  0.00     0.198 A 
ATOM     84  F   UNL     1       2.183   3.408  14.640  1.00  0.00    -0.203 F 
ATOM     85  F   UNL     1       4.748  -1.141  16.228  1.00  0.00    -0.200 F 
ATOM     86  C   UNL     1       3.873   0.992  16.743  1.00  0.00     0.200 A 
ATOM     87  F   UNL     1       2.972   3.123  17.213  1.00  0.00    -0.200 F 
ATOM     88  F   UNL     1       4.237   0.847  18.024  1.00  0.00    -0.200 F 
ENDBRANCH  55  78
ENDBRANCH  29  30
ENDBRANCH  22  24
ENDBRANCH  21  22
ENDBRANCH  20  21
ENDBRANCH  19  20
ENDBRANCH  18  19
ENDBRANCH   1  18
TORSDOF 18
