REMARK SMILES O=C(OCCOCCOC(=O)c1ccc([S@@](=O)[C@H]2CCOC3(CCCC3)C2)cc1)c1ccc(-c2c3nc(c(-c4c(F)c(F)c(F)c(F)c4F)c4ccc([nH]4)c(-c4c(F)c(F)c(F)c(F)c4F)c4nc(c(-c5c(F)c(F)c(F)c(F)c5F)c5ccc2[nH]5)C=C4)C=C3)cc1
REMARK SMILES IDX 6 1 5 2 4 3 3 4 2 5 1 6 30 7 31 8 92 9 32 10 91 11 33 12
REMARK SMILES IDX 34 13 35 14 85 15 36 16 90 17 84 18 86 19 37 20 89 21 83 22
REMARK SMILES IDX 82 23 38 25 70 26 50 27 69 28 51 29 54 30 68 31 87 32 52 33
REMARK SMILES IDX 53 34 67 36 88 37 55 38 39 39 40 40 48 41 41 42 42 43 46 44
REMARK SMILES IDX 49 45 43 46 44 47 47 48 45 49 71 50 72 51 80 52 73 53 74 54
REMARK SMILES IDX 78 55 81 56 75 57 76 58 79 59 77 60 56 61 57 62 65 63 58 64
REMARK SMILES IDX 59 65 63 66 66 67 60 68 61 69 64 70 62 71 7 72 8 73 9 74
REMARK SMILES IDX 10 75 11 76 12 77 13 78 29 79 14 80 28 81 15 82 16 83 17 84
REMARK SMILES IDX 18 85 19 86 27 87 20 88 22 89 21 90 23 91 26 92 24 93 25 94
REMARK H PARENT 86 24 54 35
REMARK Flexibility Score: inf
ROOT
ATOM      1  O   UNL     1       5.755  -6.773  15.053  1.00  0.00    -0.374 OA
ENDROOT
BRANCH   1   2
ATOM      2  C   UNL     1       4.890  -5.638  15.119  1.00  0.00     0.202 C 
BRANCH   2   3
ATOM      3  C   UNL     1       3.846  -5.695  16.236  1.00  0.00     0.261 C 
BRANCH   3   4
ATOM      4  O   UNL     1       4.491  -5.801  17.515  1.00  0.00    -0.460 OA
BRANCH   4   5
ATOM      5  C   UNL     1       4.571  -6.882  18.323  1.00  0.00     0.338 C 
ATOM      6  O   UNL     1       5.098  -6.755  19.427  1.00  0.00    -0.246 OA
BRANCH   5   7
ATOM      7  C   UNL     1       4.056  -8.235  17.952  1.00  0.00     0.060 A 
ATOM      8  C   UNL     1       3.979  -8.733  16.649  1.00  0.00     0.016 A 
ATOM      9  C   UNL     1       3.730  -9.101  19.009  1.00  0.00     0.016 A 
ATOM     10  C   UNL     1       3.541 -10.023  16.389  1.00  0.00     0.010 A 
ATOM     11  C   UNL     1       3.332 -10.417  18.761  1.00  0.00     0.010 A 
ATOM     12  C   UNL     1       3.229 -10.876  17.444  1.00  0.00    -0.014 A 
BRANCH  12  13
ATOM     13  C   UNL     1       2.742 -12.227  17.126  1.00  0.00     0.031 A 
ATOM     14  C   UNL     1       1.280 -12.509  17.251  1.00  0.00     0.074 A 
ATOM     15  C   UNL     1       3.600 -13.138  16.634  1.00  0.00     0.049 A 
ATOM     16  N   UNL     1       0.635 -13.630  17.080  1.00  0.00    -0.248 NA
ATOM     17  C   UNL     1       0.423 -11.364  17.604  1.00  0.00     0.031 C 
ATOM     18  C   UNL     1       5.022 -12.898  16.375  1.00  0.00     0.029 A 
ATOM     19  N   UNL     1       3.403 -14.434  16.241  1.00  0.00    -0.354 N 
ATOM     20  C   UNL     1      -0.697 -13.336  17.333  1.00  0.00     0.074 A 
ATOM     21  C   UNL     1      -0.772 -11.931  17.666  1.00  0.00     0.031 C 
ATOM     22  C   UNL     1       5.566 -14.009  15.852  1.00  0.00     0.029 A 
ATOM     23  C   UNL     1       4.549 -15.053  15.806  1.00  0.00     0.049 A 
ATOM     24  H   UNL     1       2.526 -14.879  16.269  1.00  0.00     0.167 HD
ATOM     25  C   UNL     1      -1.753 -14.179  17.299  1.00  0.00     0.037 A 
ATOM     26  C   UNL     1       4.750 -16.336  15.452  1.00  0.00     0.037 A 
ATOM     27  C   UNL     1      -1.639 -15.573  16.965  1.00  0.00     0.049 A 
ATOM     28  C   UNL     1       3.573 -17.273  15.509  1.00  0.00     0.074 A 
ATOM     29  C   UNL     1      -2.620 -16.544  16.945  1.00  0.00     0.029 A 
ATOM     30  N   UNL     1      -0.451 -16.190  16.591  1.00  0.00    -0.354 N 
ATOM     31  N   UNL     1       2.322 -17.010  15.805  1.00  0.00    -0.248 NA
ATOM     32  C   UNL     1       3.835 -18.685  15.206  1.00  0.00     0.031 C 
ATOM     33  C   UNL     1      -2.017 -17.760  16.602  1.00  0.00     0.029 A 
ATOM     34  C   UNL     1      -0.669 -17.536  16.360  1.00  0.00     0.049 A 
ATOM     35  H   UNL     1       0.418 -15.736  16.503  1.00  0.00     0.167 HD
ATOM     36  C   UNL     1       1.644 -18.216  15.717  1.00  0.00     0.074 A 
ATOM     37  C   UNL     1       2.621 -19.209  15.314  1.00  0.00     0.031 C 
ATOM     38  C   UNL     1       0.337 -18.486  15.954  1.00  0.00     0.037 A 
BRANCH  25  39
ATOM     39  C   UNL     1      -3.084 -13.624  17.708  1.00  0.00     0.064 A 
ATOM     40  C   UNL     1      -3.800 -12.730  16.897  1.00  0.00     0.173 A 
ATOM     41  C   UNL     1      -3.635 -13.966  18.952  1.00  0.00     0.173 A 
ATOM     42  F   UNL     1      -3.302 -12.347  15.711  1.00  0.00    -0.203 F 
ATOM     43  C   UNL     1      -5.003 -12.176  17.331  1.00  0.00     0.198 A 
ATOM     44  C   UNL     1      -4.850 -13.431  19.371  1.00  0.00     0.198 A 
ATOM     45  F   UNL     1      -2.987 -14.810  19.769  1.00  0.00    -0.203 F 
ATOM     46  F   UNL     1      -5.639 -11.278  16.566  1.00  0.00    -0.200 F 
ATOM     47  C   UNL     1      -5.528 -12.529  18.565  1.00  0.00     0.200 A 
ATOM     48  F   UNL     1      -5.356 -13.774  20.564  1.00  0.00    -0.200 F 
ATOM     49  F   UNL     1      -6.679 -11.987  18.985  1.00  0.00    -0.200 F 
ENDBRANCH  25  39
BRANCH  26  50
ATOM     50  C   UNL     1       6.110 -16.809  15.077  1.00  0.00     0.064 A 
ATOM     51  C   UNL     1       6.392 -17.273  13.785  1.00  0.00     0.173 A 
ATOM     52  C   UNL     1       7.159 -16.816  16.011  1.00  0.00     0.173 A 
ATOM     53  F   UNL     1       5.421 -17.311  12.861  1.00  0.00    -0.203 F 
ATOM     54  C   UNL     1       7.663 -17.736  13.446  1.00  0.00     0.198 A 
ATOM     55  C   UNL     1       8.437 -17.249  15.663  1.00  0.00     0.198 A 
ATOM     56  F   UNL     1       6.947 -16.388  17.264  1.00  0.00    -0.203 F 
ATOM     57  F   UNL     1       7.893 -18.218  12.217  1.00  0.00    -0.200 F 
ATOM     58  C   UNL     1       8.686 -17.718  14.383  1.00  0.00     0.200 A 
ATOM     59  F   UNL     1       9.424 -17.215  16.568  1.00  0.00    -0.200 F 
ATOM     60  F   UNL     1       9.908 -18.160  14.055  1.00  0.00    -0.200 F 
ENDBRANCH  26  50
BRANCH  38  61
ATOM     61  C   UNL     1      -0.105 -19.905  15.764  1.00  0.00     0.064 A 
ATOM     62  C   UNL     1       0.222 -20.901  16.695  1.00  0.00     0.173 A 
ATOM     63  C   UNL     1      -0.913 -20.254  14.673  1.00  0.00     0.173 A 
ATOM     64  F   UNL     1       1.006 -20.615  17.744  1.00  0.00    -0.203 F 
ATOM     65  C   UNL     1      -0.235 -22.205  16.529  1.00  0.00     0.198 A 
ATOM     66  C   UNL     1      -1.390 -21.552  14.526  1.00  0.00     0.198 A 
ATOM     67  F   UNL     1      -1.254 -19.331  13.762  1.00  0.00    -0.203 F 
ATOM     68  F   UNL     1       0.118 -23.152  17.409  1.00  0.00    -0.200 F 
ATOM     69  C   UNL     1      -1.047 -22.527  15.452  1.00  0.00     0.200 A 
ATOM     70  F   UNL     1      -2.186 -21.858  13.493  1.00  0.00    -0.200 F 
ATOM     71  F   UNL     1      -1.497 -23.780  15.302  1.00  0.00    -0.200 F 
ENDBRANCH  38  61
ENDBRANCH  12  13
ENDBRANCH   5   7
ENDBRANCH   4   5
ENDBRANCH   3   4
ENDBRANCH   2   3
ENDBRANCH   1   2
BRANCH   1  72
ATOM     72  C   UNL     1       6.909  -6.725  15.904  1.00  0.00     0.202 C 
BRANCH  72  73
ATOM     73  C   UNL     1       8.140  -7.209  15.128  1.00  0.00     0.261 C 
BRANCH  73  74
ATOM     74  O   UNL     1       8.393  -6.278  14.065  1.00  0.00    -0.460 OA
BRANCH  74  75
ATOM     75  C   UNL     1       7.698  -6.532  12.930  1.00  0.00     0.338 C 
ATOM     76  O   UNL     1       7.227  -7.596  12.562  1.00  0.00    -0.246 OA
BRANCH  75  77
ATOM     77  C   UNL     1       7.363  -5.232  12.322  1.00  0.00     0.060 A 
ATOM     78  C   UNL     1       6.035  -5.017  11.943  1.00  0.00     0.017 A 
ATOM     79  C   UNL     1       8.307  -4.213  12.196  1.00  0.00     0.017 A 
ATOM     80  C   UNL     1       5.645  -3.774  11.454  1.00  0.00     0.018 A 
ATOM     81  C   UNL     1       7.928  -2.999  11.623  1.00  0.00     0.018 A 
ATOM     82  C   UNL     1       6.605  -2.788  11.210  1.00  0.00     0.039 A 
BRANCH  82  83
ATOM     83  S   UNL     1       6.145  -1.248  10.405  1.00  0.00     0.056 S 
ATOM     84  O   UNL     1       7.430  -0.504  10.181  1.00  0.00    -0.254 OA
BRANCH  83  85
ATOM     85  C   UNL     1       5.534  -1.780   8.758  1.00  0.00     0.089 C 
ATOM     86  C   UNL     1       5.686  -3.249   8.378  1.00  0.00     0.046 C 
ATOM     87  C   UNL     1       4.069  -1.363   8.635  1.00  0.00     0.053 C 
ATOM     88  C   UNL     1       5.074  -3.522   7.012  1.00  0.00     0.162 C 
ATOM     89  C   UNL     1       3.525  -1.675   7.237  1.00  0.00     0.069 C 
ATOM     90  O   UNL     1       3.723  -3.065   6.944  1.00  0.00    -0.375 OA
ATOM     91  C   UNL     1       2.002  -1.404   7.180  1.00  0.00     0.035 C 
ATOM     92  C   UNL     1       4.130  -0.772   6.138  1.00  0.00     0.035 C 
ATOM     93  C   UNL     1       1.819  -0.256   6.195  1.00  0.00     0.003 C 
ATOM     94  C   UNL     1       2.962  -0.444   5.220  1.00  0.00     0.003 C 
ENDBRANCH  83  85
ENDBRANCH  82  83
ENDBRANCH  75  77
ENDBRANCH  74  75
ENDBRANCH  73  74
ENDBRANCH  72  73
ENDBRANCH   1  72
TORSDOF 16
