REMARK SMILES Cn1c(=O)c(=O)n(C)c2cc(S(=O)(=O)N3CCC[C@H]3C(=O)OCCOCCOC(=O)c3ccc(-c4c5nc(c(-c6c(F)c(F)c(F)c(F)c6F)c6ccc([nH]6)c(-c6c(F)c(F)c(F)c(F)c6F)c6nc(c(-c7c(F)c(F)c(F)c(F)c7F)c7ccc4[nH]7)C=C6)C=C5)cc3)ccc21
REMARK SMILES IDX 25 1 24 2 23 3 22 4 20 5 21 6 19 7 15 8 16 9 17 10 18 11
REMARK SMILES IDX 12 12 13 13 14 14 11 15 1 16 2 17 3 18 96 19 4 20 5 21 9 22
REMARK SMILES IDX 95 23 6 24 7 25 10 26 94 27 8 28 26 29 27 30 28 31 29 32
REMARK SMILES IDX 30 33 31 34 32 35 93 36 33 37 92 38 34 39 35 40 36 41 86 42
REMARK SMILES IDX 37 43 91 44 85 45 87 46 38 47 90 48 84 49 83 50 39 52 71 53
REMARK SMILES IDX 51 54 70 55 52 56 55 57 69 58 88 59 53 60 54 61 68 63 89 64
REMARK SMILES IDX 56 65 40 66 41 67 49 68 42 69 43 70 47 71 50 72 44 73 45 74
REMARK SMILES IDX 48 75 46 76 72 77 73 78 81 79 74 80 75 81 79 82 82 83 76 84
REMARK SMILES IDX 77 85 80 86 78 87 57 88 58 89 66 90 59 91 60 92 64 93 67 94
REMARK SMILES IDX 61 95 62 96 65 97 63 98
REMARK H PARENT 87 51 55 62
REMARK Flexibility Score: inf
ROOT
ATOM      1  O   UNL     1       1.881  10.943   0.569  1.00  0.00    -0.374 OA
ENDROOT
BRANCH   1   2
ATOM      2  C   UNL     1       0.759  10.733   1.423  1.00  0.00     0.202 C 
BRANCH   2   3
ATOM      3  C   UNL     1      -0.438   9.991   0.820  1.00  0.00     0.261 C 
BRANCH   3   4
ATOM      4  O   UNL     1      -0.158   8.586   0.689  1.00  0.00    -0.462 OA
BRANCH   4   5
ATOM      5  C   UNL     1      -0.022   8.121  -0.588  1.00  0.00     0.324 C 
ATOM      6  O   UNL     1      -0.246   8.782  -1.593  1.00  0.00    -0.250 OA
BRANCH   5   7
ATOM      7  C   UNL     1       0.470   6.672  -0.576  1.00  0.00     0.183 C 
ATOM      8  N   UNL     1       1.119   6.352  -1.865  1.00  0.00    -0.184 NA
ATOM      9  C   UNL     1       2.572   6.334  -1.744  1.00  0.00     0.103 C 
ATOM     10  C   UNL     1       2.819   5.958  -0.295  1.00  0.00     0.019 C 
ATOM     11  C   UNL     1       1.564   6.380   0.470  1.00  0.00     0.034 C 
BRANCH   8  12
ATOM     12  S   UNL     1       0.298   5.533  -3.064  1.00  0.00     0.243 S 
ATOM     13  O   UNL     1       1.084   5.622  -4.276  1.00  0.00    -0.207 OA
ATOM     14  O   UNL     1      -1.093   5.918  -3.010  1.00  0.00    -0.207 OA
BRANCH  12  15
ATOM     15  C   UNL     1       0.330   3.815  -2.583  1.00  0.00     0.084 A 
ATOM     16  C   UNL     1       0.750  -0.663  -0.169  1.00  0.00     0.154 C 
ATOM     17  N   UNL     1       0.352  -0.274  -1.515  1.00  0.00    -0.305 N 
ATOM     18  C   UNL     1       0.011  -1.279  -2.414  1.00  0.00     0.316 A 
ATOM     19  C   UNL     1       0.335   1.093  -1.889  1.00  0.00     0.068 A 
ATOM     20  O   UNL     1       0.036  -2.474  -2.132  1.00  0.00    -0.263 OA
ATOM     21  C   UNL     1      -0.421  -0.860  -3.827  1.00  0.00     0.316 A 
ATOM     22  C   UNL     1      -0.001   1.481  -3.200  1.00  0.00     0.069 A 
ATOM     23  C   UNL     1       0.647   2.078  -0.947  1.00  0.00     0.030 A 
ATOM     24  O   UNL     1      -0.783  -1.735  -4.610  1.00  0.00    -0.263 OA
ATOM     25  N   UNL     1      -0.381   0.496  -4.151  1.00  0.00    -0.305 N 
ATOM     26  C   UNL     1       0.024   2.848  -3.543  1.00  0.00     0.050 A 
ATOM     27  C   UNL     1       0.624   3.422  -1.287  1.00  0.00     0.024 A 
ATOM     28  C   UNL     1      -0.786   0.888  -5.492  1.00  0.00     0.154 C 
ENDBRANCH  12  15
ENDBRANCH   8  12
ENDBRANCH   5   7
ENDBRANCH   4   5
ENDBRANCH   3   4
ENDBRANCH   2   3
ENDBRANCH   1   2
BRANCH   1  29
ATOM     29  C   UNL     1       2.766   9.851   0.335  1.00  0.00     0.202 C 
BRANCH  29  30
ATOM     30  C   UNL     1       3.717   9.481   1.483  1.00  0.00     0.261 C 
BRANCH  30  31
ATOM     31  O   UNL     1       3.014   8.951   2.624  1.00  0.00    -0.460 OA
BRANCH  31  32
ATOM     32  C   UNL     1       3.102   9.706   3.747  1.00  0.00     0.338 C 
ATOM     33  O   UNL     1       3.784  10.701   3.918  1.00  0.00    -0.246 OA
BRANCH  32  34
ATOM     34  C   UNL     1       2.081   9.274   4.722  1.00  0.00     0.060 A 
ATOM     35  C   UNL     1       2.037   7.973   5.228  1.00  0.00     0.016 A 
ATOM     36  C   UNL     1       1.190  10.248   5.189  1.00  0.00     0.016 A 
ATOM     37  C   UNL     1       1.127   7.665   6.248  1.00  0.00     0.010 A 
ATOM     38  C   UNL     1       0.279   9.938   6.196  1.00  0.00     0.010 A 
ATOM     39  C   UNL     1       0.264   8.654   6.758  1.00  0.00    -0.014 A 
BRANCH  39  40
ATOM     40  C   UNL     1      -0.522   8.426   7.996  1.00  0.00     0.031 A 
ATOM     41  C   UNL     1      -2.003   8.212   7.965  1.00  0.00     0.074 A 
ATOM     42  C   UNL     1       0.120   8.510   9.176  1.00  0.00     0.049 A 
ATOM     43  N   UNL     1      -2.829   8.029   8.965  1.00  0.00    -0.248 NA
ATOM     44  C   UNL     1      -2.643   8.210   6.644  1.00  0.00     0.031 C 
ATOM     45  C   UNL     1       1.553   8.763   9.332  1.00  0.00     0.029 A 
ATOM     46  N   UNL     1      -0.344   8.409  10.463  1.00  0.00    -0.354 N 
ATOM     47  C   UNL     1      -4.085   7.869   8.397  1.00  0.00     0.074 A 
ATOM     48  C   UNL     1      -3.918   8.024   6.965  1.00  0.00     0.031 C 
ATOM     49  C   UNL     1       1.854   8.784  10.638  1.00  0.00     0.029 A 
ATOM     50  C   UNL     1       0.634   8.575  11.411  1.00  0.00     0.049 A 
ATOM     51  H   UNL     1      -1.287   8.235  10.684  1.00  0.00     0.167 HD
ATOM     52  C   UNL     1      -5.261   7.602   9.016  1.00  0.00     0.037 A 
ATOM     53  C   UNL     1       0.558   8.562  12.755  1.00  0.00     0.037 A 
ATOM     54  C   UNL     1      -5.427   7.487  10.444  1.00  0.00     0.049 A 
ATOM     55  C   UNL     1      -0.766   8.317  13.418  1.00  0.00     0.074 A 
ATOM     56  C   UNL     1      -6.577   7.197  11.160  1.00  0.00     0.029 A 
ATOM     57  N   UNL     1      -4.417   7.675  11.379  1.00  0.00    -0.354 N 
ATOM     58  N   UNL     1      -1.936   8.101  12.869  1.00  0.00    -0.248 NA
ATOM     59  C   UNL     1      -0.778   8.305  14.887  1.00  0.00     0.031 C 
ATOM     60  C   UNL     1      -6.275   7.259  12.525  1.00  0.00     0.029 A 
ATOM     61  C   UNL     1      -4.923   7.530  12.663  1.00  0.00     0.049 A 
ATOM     62  H   UNL     1      -3.479   7.882  11.162  1.00  0.00     0.167 HD
ATOM     63  C   UNL     1      -2.819   7.902  13.921  1.00  0.00     0.074 A 
ATOM     64  C   UNL     1      -2.046   8.012  15.141  1.00  0.00     0.031 C 
ATOM     65  C   UNL     1      -4.150   7.648  13.875  1.00  0.00     0.037 A 
BRANCH  52  66
ATOM     66  C   UNL     1      -6.473   7.409   8.148  1.00  0.00     0.064 A 
ATOM     67  C   UNL     1      -6.616   6.269   7.341  1.00  0.00     0.173 A 
ATOM     68  C   UNL     1      -7.526   8.335   8.166  1.00  0.00     0.173 A 
ATOM     69  F   UNL     1      -5.634   5.357   7.282  1.00  0.00    -0.203 F 
ATOM     70  C   UNL     1      -7.758   6.076   6.569  1.00  0.00     0.198 A 
ATOM     71  C   UNL     1      -8.679   8.124   7.413  1.00  0.00     0.198 A 
ATOM     72  F   UNL     1      -7.445   9.438   8.925  1.00  0.00    -0.203 F 
ATOM     73  F   UNL     1      -7.853   4.999   5.776  1.00  0.00    -0.200 F 
ATOM     74  C   UNL     1      -8.792   6.999   6.611  1.00  0.00     0.200 A 
ATOM     75  F   UNL     1      -9.683   9.011   7.465  1.00  0.00    -0.200 F 
ATOM     76  F   UNL     1      -9.894   6.806   5.874  1.00  0.00    -0.200 F 
ENDBRANCH  52  66
BRANCH  53  77
ATOM     77  C   UNL     1       1.800   8.734  13.550  1.00  0.00     0.064 A 
ATOM     78  C   UNL     1       2.378   7.641  14.208  1.00  0.00     0.173 A 
ATOM     79  C   UNL     1       2.462   9.967  13.617  1.00  0.00     0.173 A 
ATOM     80  F   UNL     1       1.770   6.446  14.183  1.00  0.00    -0.203 F 
ATOM     81  C   UNL     1       3.577   7.775  14.905  1.00  0.00     0.198 A 
ATOM     82  C   UNL     1       3.673  10.095  14.294  1.00  0.00     0.198 A 
ATOM     83  F   UNL     1       1.950  11.040  12.995  1.00  0.00    -0.203 F 
ATOM     84  F   UNL     1       4.100   6.719  15.541  1.00  0.00    -0.200 F 
ATOM     85  C   UNL     1       4.228   8.999  14.938  1.00  0.00     0.200 A 
ATOM     86  F   UNL     1       4.309  11.274  14.309  1.00  0.00    -0.200 F 
ATOM     87  F   UNL     1       5.393   9.122  15.590  1.00  0.00    -0.200 F 
ENDBRANCH  53  77
BRANCH  65  88
ATOM     88  C   UNL     1      -4.858   7.445  15.184  1.00  0.00     0.064 A 
ATOM     89  C   UNL     1      -5.095   8.508  16.068  1.00  0.00     0.173 A 
ATOM     90  C   UNL     1      -5.337   6.175  15.543  1.00  0.00     0.173 A 
ATOM     91  F   UNL     1      -4.644   9.738  15.780  1.00  0.00    -0.203 F 
ATOM     92  C   UNL     1      -5.763   8.303  17.273  1.00  0.00     0.198 A 
ATOM     93  C   UNL     1      -6.030   5.979  16.735  1.00  0.00     0.198 A 
ATOM     94  F   UNL     1      -5.142   5.124  14.732  1.00  0.00    -0.203 F 
ATOM     95  F   UNL     1      -5.935   9.324  18.124  1.00  0.00    -0.200 F 
ATOM     96  C   UNL     1      -6.236   7.041  17.602  1.00  0.00     0.200 A 
ATOM     97  F   UNL     1      -6.498   4.762  17.045  1.00  0.00    -0.200 F 
ATOM     98  F   UNL     1      -6.883   6.848  18.759  1.00  0.00    -0.200 F 
ENDBRANCH  65  88
ENDBRANCH  39  40
ENDBRANCH  32  34
ENDBRANCH  31  32
ENDBRANCH  30  31
ENDBRANCH  29  30
ENDBRANCH   1  29
TORSDOF 16
