REMARK SMILES O=C(CCC(=O)OCCOCCOC(=O)c1ccc(-c2c3nc(c(-c4c(F)c(F)c(F)c(F)c4F)c4ccc([nH]4)c(-c4c(F)c(F)c(F)c(F)c4F)c4nc(c(-c5c(F)c(F)c(F)c(F)c5F)c5ccc2[nH]5)C=C4)C=C3)cc1)Nc1cccc2c1C(=O)c1ccccc1C2=O
REMARK SMILES IDX 9 1 8 2 7 3 5 4 6 5 4 6 3 7 2 8 1 9 79 10 80 12 81 13 85 14
REMARK SMILES IDX 82 15 84 16 86 17 83 18 94 19 87 20 88 21 93 22 95 23 89 24
REMARK SMILES IDX 92 25 90 26 91 27 10 28 11 29 12 30 13 31 14 32 15 33 16 34
REMARK SMILES IDX 17 35 78 36 18 37 77 38 19 39 20 40 21 41 71 42 22 43 76 44
REMARK SMILES IDX 70 45 72 46 23 47 75 48 69 49 68 50 24 52 56 53 36 54 55 55
REMARK SMILES IDX 37 56 40 57 54 58 73 59 38 60 39 61 53 63 74 64 41 65 25 66
REMARK SMILES IDX 26 67 34 68 27 69 28 70 32 71 35 72 29 73 30 74 33 75 31 76
REMARK SMILES IDX 57 77 58 78 66 79 59 80 60 81 64 82 67 83 61 84 62 85 65 86
REMARK SMILES IDX 63 87 42 88 43 89 51 90 44 91 45 92 49 93 52 94 46 95 47 96
REMARK SMILES IDX 50 97 48 98
REMARK H PARENT 79 11 72 51 40 62
REMARK Flexibility Score: inf
ROOT
ATOM      1  C   UNL     1       6.137   0.488  -1.909  1.00  0.00     0.202 C 
ENDROOT
BRANCH   1   2
ATOM      2  C   UNL     1       5.413  -0.833  -2.188  1.00  0.00     0.261 C 
BRANCH   2   3
ATOM      3  O   UNL     1       4.214  -0.957  -1.384  1.00  0.00    -0.463 OA
BRANCH   3   4
ATOM      4  C   UNL     1       4.093  -2.102  -0.661  1.00  0.00     0.306 C 
ATOM      5  O   UNL     1       4.875  -3.042  -0.709  1.00  0.00    -0.252 OA
BRANCH   4   6
ATOM      6  C   UNL     1       2.809  -2.164   0.145  1.00  0.00     0.132 C 
BRANCH   6   7
ATOM      7  C   UNL     1       2.253  -0.830   0.636  1.00  0.00     0.112 C 
BRANCH   7   8
ATOM      8  C   UNL     1       1.071  -0.243  -0.131  1.00  0.00     0.224 C 
ATOM      9  O   UNL     1       0.265   0.490   0.437  1.00  0.00    -0.275 OA
ATOM     10  N   UNL     1       1.106  -0.461  -1.491  1.00  0.00    -0.325 N 
ATOM     11  H   UNL     1       1.590  -1.258  -1.806  1.00  0.00     0.169 HD
BRANCH  10  12
ATOM     12  C   UNL     1       0.502   0.366  -2.478  1.00  0.00     0.053 A 
ATOM     13  C   UNL     1       1.196   0.272  -3.687  1.00  0.00     0.027 A 
ATOM     14  C   UNL     1      -0.098   1.590  -2.154  1.00  0.00     0.057 A 
ATOM     15  C   UNL     1       1.700   1.441  -4.233  1.00  0.00     0.003 A 
ATOM     16  C   UNL     1       0.651   2.712  -2.453  1.00  0.00     0.036 A 
ATOM     17  C   UNL     1      -1.527   1.788  -2.630  1.00  0.00     0.196 C 
ATOM     18  C   UNL     1       1.489   2.651  -3.569  1.00  0.00     0.013 A 
ATOM     19  C   UNL     1       0.093   4.017  -2.084  1.00  0.00     0.194 C 
ATOM     20  O   UNL     1      -2.286   0.835  -2.760  1.00  0.00    -0.288 OA
ATOM     21  C   UNL     1      -1.972   3.163  -3.057  1.00  0.00     0.034 A 
ATOM     22  C   UNL     1      -1.210   4.277  -2.697  1.00  0.00     0.034 A 
ATOM     23  O   UNL     1       0.708   4.834  -1.421  1.00  0.00    -0.289 OA
ATOM     24  C   UNL     1      -3.074   3.353  -3.891  1.00  0.00     0.013 A 
ATOM     25  C   UNL     1      -1.550   5.574  -3.088  1.00  0.00     0.013 A 
ATOM     26  C   UNL     1      -3.396   4.645  -4.336  1.00  0.00     0.001 A 
ATOM     27  C   UNL     1      -2.648   5.753  -3.922  1.00  0.00     0.001 A 
ENDBRANCH  10  12
ENDBRANCH   7   8
ENDBRANCH   6   7
ENDBRANCH   4   6
ENDBRANCH   3   4
ENDBRANCH   2   3
ENDBRANCH   1   2
BRANCH   1  28
ATOM     28  O   UNL     1       6.864   0.484  -0.679  1.00  0.00    -0.374 OA
BRANCH  28  29
ATOM     29  C   UNL     1       6.108   0.832   0.479  1.00  0.00     0.202 C 
BRANCH  29  30
ATOM     30  C   UNL     1       6.060   2.338   0.760  1.00  0.00     0.261 C 
BRANCH  30  31
ATOM     31  O   UNL     1       5.343   3.049  -0.269  1.00  0.00    -0.460 OA
BRANCH  31  32
ATOM     32  C   UNL     1       6.091   3.872  -1.044  1.00  0.00     0.338 C 
ATOM     33  O   UNL     1       7.285   4.107  -0.937  1.00  0.00    -0.246 OA
BRANCH  32  34
ATOM     34  C   UNL     1       5.281   4.385  -2.168  1.00  0.00     0.060 A 
ATOM     35  C   UNL     1       5.822   4.347  -3.462  1.00  0.00     0.016 A 
ATOM     36  C   UNL     1       4.023   4.941  -1.963  1.00  0.00     0.016 A 
ATOM     37  C   UNL     1       5.098   4.843  -4.557  1.00  0.00     0.010 A 
ATOM     38  C   UNL     1       3.317   5.451  -3.058  1.00  0.00     0.010 A 
ATOM     39  C   UNL     1       3.826   5.392  -4.373  1.00  0.00    -0.014 A 
BRANCH  39  40
ATOM     40  C   UNL     1       2.979   5.907  -5.496  1.00  0.00     0.031 A 
ATOM     41  C   UNL     1       2.508   7.336  -5.470  1.00  0.00     0.074 A 
ATOM     42  C   UNL     1       2.486   5.090  -6.452  1.00  0.00     0.049 A 
ATOM     43  N   UNL     1       1.603   7.926  -6.211  1.00  0.00    -0.248 NA
ATOM     44  C   UNL     1       3.131   8.210  -4.466  1.00  0.00     0.031 C 
ATOM     45  C   UNL     1       2.821   3.680  -6.631  1.00  0.00     0.029 A 
ATOM     46  N   UNL     1       1.512   5.314  -7.403  1.00  0.00    -0.354 N 
ATOM     47  C   UNL     1       1.565   9.242  -5.776  1.00  0.00     0.074 A 
ATOM     48  C   UNL     1       2.462   9.339  -4.643  1.00  0.00     0.031 C 
ATOM     49  C   UNL     1       1.978   3.133  -7.524  1.00  0.00     0.029 A 
ATOM     50  C   UNL     1       1.063   4.162  -8.007  1.00  0.00     0.049 A 
ATOM     51  H   UNL     1       1.172   6.210  -7.628  1.00  0.00     0.167 HD
ATOM     52  C   UNL     1       0.897  10.293  -6.305  1.00  0.00     0.037 A 
ATOM     53  C   UNL     1       0.017   3.942  -8.827  1.00  0.00     0.037 A 
ATOM     54  C   UNL     1       0.042  10.230  -7.458  1.00  0.00     0.049 A 
ATOM     55  C   UNL     1      -0.797   5.096  -9.338  1.00  0.00     0.074 A 
ATOM     56  C   UNL     1      -0.536  11.270  -8.165  1.00  0.00     0.029 A 
ATOM     57  N   UNL     1      -0.368   9.056  -8.067  1.00  0.00    -0.354 N 
ATOM     58  N   UNL     1      -0.723   6.361  -9.015  1.00  0.00    -0.248 NA
ATOM     59  C   UNL     1      -1.807   4.797 -10.367  1.00  0.00     0.031 C 
ATOM     60  C   UNL     1      -1.324  10.722  -9.185  1.00  0.00     0.029 A 
ATOM     61  C   UNL     1      -1.217   9.344  -9.123  1.00  0.00     0.049 A 
ATOM     62  H   UNL     1      -0.096   8.151  -7.790  1.00  0.00     0.167 HD
ATOM     63  C   UNL     1      -1.619   7.018  -9.847  1.00  0.00     0.074 A 
ATOM     64  C   UNL     1      -2.262   6.008 -10.659  1.00  0.00     0.031 C 
ATOM     65  C   UNL     1      -1.849   8.348  -9.948  1.00  0.00     0.037 A 
BRANCH  52  66
ATOM     66  C   UNL     1       1.126  11.626  -5.664  1.00  0.00     0.064 A 
ATOM     67  C   UNL     1       2.342  12.306  -5.832  1.00  0.00     0.173 A 
ATOM     68  C   UNL     1       0.133  12.227  -4.881  1.00  0.00     0.173 A 
ATOM     69  F   UNL     1       3.324  11.760  -6.566  1.00  0.00    -0.203 F 
ATOM     70  C   UNL     1       2.570  13.526  -5.205  1.00  0.00     0.198 A 
ATOM     71  C   UNL     1       0.357  13.459  -4.274  1.00  0.00     0.198 A 
ATOM     72  F   UNL     1      -1.046  11.615  -4.696  1.00  0.00    -0.203 F 
ATOM     73  F   UNL     1       3.758  14.132  -5.336  1.00  0.00    -0.200 F 
ATOM     74  C   UNL     1       1.577  14.102  -4.429  1.00  0.00     0.200 A 
ATOM     75  F   UNL     1      -0.604  14.021  -3.527  1.00  0.00    -0.200 F 
ATOM     76  F   UNL     1       1.800  15.275  -3.820  1.00  0.00    -0.200 F 
ENDBRANCH  52  66
BRANCH  53  77
ATOM     77  C   UNL     1      -0.339   2.557  -9.222  1.00  0.00     0.064 A 
ATOM     78  C   UNL     1       0.032   2.034 -10.467  1.00  0.00     0.173 A 
ATOM     79  C   UNL     1      -1.097   1.746  -8.365  1.00  0.00     0.173 A 
ATOM     80  F   UNL     1       0.735   2.787 -11.325  1.00  0.00    -0.203 F 
ATOM     81  C   UNL     1      -0.356   0.752 -10.849  1.00  0.00     0.198 A 
ATOM     82  C   UNL     1      -1.476   0.460  -8.745  1.00  0.00     0.198 A 
ATOM     83  F   UNL     1      -1.478   2.210  -7.166  1.00  0.00    -0.203 F 
ATOM     84  F   UNL     1      -0.017   0.284 -12.058  1.00  0.00    -0.200 F 
ATOM     85  C   UNL     1      -1.109  -0.034  -9.988  1.00  0.00     0.200 A 
ATOM     86  F   UNL     1      -2.203  -0.296  -7.912  1.00  0.00    -0.200 F 
ATOM     87  F   UNL     1      -1.489  -1.264 -10.361  1.00  0.00    -0.200 F 
ENDBRANCH  53  77
BRANCH  65  88
ATOM     88  C   UNL     1      -2.776   8.811 -11.028  1.00  0.00     0.064 A 
ATOM     89  C   UNL     1      -4.167   8.719 -10.897  1.00  0.00     0.173 A 
ATOM     90  C   UNL     1      -2.259   9.392 -12.196  1.00  0.00     0.173 A 
ATOM     91  F   UNL     1      -4.706   8.150  -9.808  1.00  0.00    -0.203 F 
ATOM     92  C   UNL     1      -5.010   9.186 -11.903  1.00  0.00     0.198 A 
ATOM     93  C   UNL     1      -3.104   9.874 -13.191  1.00  0.00     0.198 A 
ATOM     94  F   UNL     1      -0.932   9.497 -12.367  1.00  0.00    -0.203 F 
ATOM     95  F   UNL     1      -6.338   9.064 -11.773  1.00  0.00    -0.200 F 
ATOM     96  C   UNL     1      -4.478   9.769 -13.045  1.00  0.00     0.200 A 
ATOM     97  F   UNL     1      -2.588  10.438 -14.292  1.00  0.00    -0.200 F 
ATOM     98  F   UNL     1      -5.292  10.223 -14.008  1.00  0.00    -0.200 F 
ENDBRANCH  65  88
ENDBRANCH  39  40
ENDBRANCH  32  34
ENDBRANCH  31  32
ENDBRANCH  30  31
ENDBRANCH  29  30
ENDBRANCH  28  29
ENDBRANCH   1  28
TORSDOF 17
