REMARK SMILES Cc1ncc(CO)c([C@H]2[NH2+][C@@H](C(=O)OCCOCCOC(=O)c3ccc(-c4c5nc(c(-c6c(F)c(F)c(F)c(F)c6F)c6ccc([nH]6)c(-c6c(F)c(F)c(F)c(F)c6F)c6nc(c(-c7c(F)c(F)c(F)c(F)c7F)c7ccc4[nH]7)C=C6)C=C5)cc3)Cc3[nH]cnc32)c1O
REMARK SMILES IDX 16 1 15 2 14 3 12 4 13 5 11 6 9 7 10 8 91 9 87 12 90 13
REMARK SMILES IDX 86 14 88 15 89 16 8 18 1 19 2 20 3 21 92 22 4 23 5 24 93 25
REMARK SMILES IDX 6 27 7 28 17 30 18 31 19 32 20 33 21 34 22 35 23 36 24 37
REMARK SMILES IDX 85 38 25 39 84 40 26 41 27 42 28 43 78 44 29 45 83 46 77 47
REMARK SMILES IDX 79 48 30 49 82 50 76 51 75 52 31 54 63 55 43 56 62 57 44 58
REMARK SMILES IDX 47 59 61 60 80 61 45 62 46 63 60 65 81 66 48 67 32 68 33 69
REMARK SMILES IDX 41 70 34 71 35 72 39 73 42 74 36 75 37 76 40 77 38 78 64 79
REMARK SMILES IDX 65 80 73 81 66 82 67 83 71 84 74 85 68 86 69 87 72 88 70 89
REMARK SMILES IDX 49 90 50 91 58 92 51 93 52 94 56 95 59 96 53 97 54 98 57 99
REMARK SMILES IDX 55 100
REMARK H PARENT 10 10 10 11 88 17 93 26 7 29 79 53 47 64
REMARK Flexibility Score: inf
ROOT
ATOM      1  C   UNL     1      -4.624   2.528   4.418  1.00  0.00     0.202 C 
ENDROOT
BRANCH   1   2
ATOM      2  C   UNL     1      -4.541   3.868   3.688  1.00  0.00     0.261 C 
BRANCH   2   3
ATOM      3  O   UNL     1      -3.759   3.802   2.481  1.00  0.00    -0.459 OA
BRANCH   3   4
ATOM      4  C   UNL     1      -2.621   4.564   2.486  1.00  0.00     0.365 C 
ATOM      5  O   UNL     1      -2.224   5.221   3.438  1.00  0.00    -0.245 OA
BRANCH   4   6
ATOM      6  C   UNL     1      -1.892   4.435   1.145  1.00  0.00     0.300 C 
ATOM      7  C   UNL     1      -0.340   3.061  -0.170  1.00  0.00     0.270 C 
ATOM      8  N   UNL     1      -0.966   3.264   1.164  1.00  0.00    -0.323 N 
ATOM      9  C   UNL     1       0.411   4.301  -0.537  1.00  0.00     0.124 A 
ATOM     10  H   UNL     1      -0.234   3.428   1.855  1.00  0.00     0.347 HD
ATOM     11  H   UNL     1      -1.502   2.429   1.403  1.00  0.00     0.347 HD
ATOM     12  C   UNL     1      -0.053   5.538  -0.114  1.00  0.00     0.051 A 
ATOM     13  N   UNL     1       1.356   4.478  -1.515  1.00  0.00    -0.235 NA
ATOM     14  C   UNL     1      -1.166   5.775   0.844  1.00  0.00     0.133 C 
ATOM     15  N   UNL     1       0.661   6.474  -0.794  1.00  0.00    -0.348 N 
ATOM     16  C   UNL     1       1.502   5.785  -1.627  1.00  0.00     0.197 A 
ATOM     17  H   UNL     1       0.588   7.452  -0.705  1.00  0.00     0.167 HD
BRANCH   7  18
ATOM     18  C   UNL     1       0.286   1.681  -0.233  1.00  0.00     0.066 A 
ATOM     19  C   UNL     1      -1.256  -1.855  -0.226  1.00  0.00     0.071 C 
ATOM     20  C   UNL     1      -0.258  -0.732  -0.241  1.00  0.00     0.079 A 
ATOM     21  N   UNL     1       1.033  -1.080  -0.106  1.00  0.00    -0.257 NA
ATOM     22  C   UNL     1      -0.654   0.605  -0.339  1.00  0.00     0.146 A 
ATOM     23  C   UNL     1       1.930  -0.070  -0.033  1.00  0.00     0.118 A 
ATOM     24  C   UNL     1       1.634   1.307  -0.048  1.00  0.00     0.009 A 
BRANCH  22  25
ATOM     25  O   UNL     1      -2.010   0.805  -0.482  1.00  0.00    -0.505 OA
ATOM     26  H   UNL     1      -2.587   0.070  -0.548  1.00  0.00     0.293 HD
ENDBRANCH  22  25
BRANCH  24  27
ATOM     27  C   UNL     1       2.816   2.224   0.111  1.00  0.00     0.194 C 
BRANCH  27  28
ATOM     28  O   UNL     1       3.619   1.798   1.216  1.00  0.00    -0.392 OA
ATOM     29  H   UNL     1       3.089   1.820   2.028  1.00  0.00     0.211 HD
ENDBRANCH  27  28
ENDBRANCH  24  27
ENDBRANCH   7  18
ENDBRANCH   4   6
ENDBRANCH   3   4
ENDBRANCH   2   3
ENDBRANCH   1   2
BRANCH   1  30
ATOM     30  O   UNL     1      -3.427   1.982   4.968  1.00  0.00    -0.374 OA
BRANCH  30  31
ATOM     31  C   UNL     1      -2.368   1.584   4.107  1.00  0.00     0.202 C 
BRANCH  31  32
ATOM     32  C   UNL     1      -2.562   0.328   3.266  1.00  0.00     0.261 C 
BRANCH  32  33
ATOM     33  O   UNL     1      -3.690   0.418   2.408  1.00  0.00    -0.460 OA
BRANCH  33  34
ATOM     34  C   UNL     1      -4.772  -0.243   2.890  1.00  0.00     0.338 C 
ATOM     35  O   UNL     1      -4.952  -0.635   4.025  1.00  0.00    -0.246 OA
BRANCH  34  36
ATOM     36  C   UNL     1      -5.662  -0.581   1.775  1.00  0.00     0.060 A 
ATOM     37  C   UNL     1      -6.751  -1.391   2.100  1.00  0.00     0.016 A 
ATOM     38  C   UNL     1      -5.224  -0.411   0.456  1.00  0.00     0.016 A 
ATOM     39  C   UNL     1      -7.230  -2.242   1.136  1.00  0.00     0.010 A 
ATOM     40  C   UNL     1      -5.691  -1.272  -0.504  1.00  0.00     0.010 A 
ATOM     41  C   UNL     1      -6.616  -2.238  -0.121  1.00  0.00    -0.014 A 
BRANCH  41  42
ATOM     42  C   UNL     1      -7.064  -3.212  -1.087  1.00  0.00     0.031 A 
ATOM     43  C   UNL     1      -8.397  -2.868  -1.621  1.00  0.00     0.074 A 
ATOM     44  C   UNL     1      -6.294  -4.244  -1.478  1.00  0.00     0.049 A 
ATOM     45  N   UNL     1      -9.510  -3.483  -1.405  1.00  0.00    -0.248 NA
ATOM     46  C   UNL     1      -8.547  -1.561  -2.284  1.00  0.00     0.031 C 
ATOM     47  C   UNL     1      -4.882  -4.490  -1.175  1.00  0.00     0.029 A 
ATOM     48  N   UNL     1      -6.606  -5.261  -2.325  1.00  0.00    -0.354 N 
ATOM     49  C   UNL     1     -10.470  -2.751  -2.093  1.00  0.00     0.074 A 
ATOM     50  C   UNL     1      -9.872  -1.483  -2.406  1.00  0.00     0.031 C 
ATOM     51  C   UNL     1      -4.407  -5.447  -2.006  1.00  0.00     0.029 A 
ATOM     52  C   UNL     1      -5.506  -5.965  -2.802  1.00  0.00     0.049 A 
ATOM     53  H   UNL     1      -7.532  -5.480  -2.578  1.00  0.00     0.167 HD
ATOM     54  C   UNL     1     -11.558  -3.374  -2.616  1.00  0.00     0.037 A 
ATOM     55  C   UNL     1      -5.521  -6.836  -3.844  1.00  0.00     0.037 A 
ATOM     56  C   UNL     1     -11.777  -4.646  -1.972  1.00  0.00     0.049 A 
ATOM     57  C   UNL     1      -6.936  -7.248  -4.054  1.00  0.00     0.074 A 
ATOM     58  C   UNL     1     -12.053  -5.041  -0.678  1.00  0.00     0.029 A 
ATOM     59  N   UNL     1     -11.333  -5.769  -2.624  1.00  0.00    -0.354 N 
ATOM     60  N   UNL     1      -7.607  -7.977  -3.205  1.00  0.00    -0.248 NA
ATOM     61  C   UNL     1      -7.744  -6.442  -4.958  1.00  0.00     0.031 C 
ATOM     62  C   UNL     1     -11.335  -6.260  -0.499  1.00  0.00     0.029 A 
ATOM     63  C   UNL     1     -10.720  -6.583  -1.710  1.00  0.00     0.049 A 
ATOM     64  H   UNL     1     -11.436  -5.957  -3.585  1.00  0.00     0.167 HD
ATOM     65  C   UNL     1      -8.870  -7.401  -3.167  1.00  0.00     0.074 A 
ATOM     66  C   UNL     1      -8.916  -6.507  -4.321  1.00  0.00     0.031 C 
ATOM     67  C   UNL     1      -9.638  -7.481  -2.041  1.00  0.00     0.037 A 
BRANCH  54  68
ATOM     68  C   UNL     1     -12.128  -3.046  -3.977  1.00  0.00     0.064 A 
ATOM     69  C   UNL     1     -13.288  -3.724  -4.399  1.00  0.00     0.173 A 
ATOM     70  C   UNL     1     -11.433  -2.349  -4.992  1.00  0.00     0.173 A 
ATOM     71  F   UNL     1     -14.024  -4.427  -3.525  1.00  0.00    -0.203 F 
ATOM     72  C   UNL     1     -13.661  -3.782  -5.744  1.00  0.00     0.198 A 
ATOM     73  C   UNL     1     -11.839  -2.365  -6.324  1.00  0.00     0.198 A 
ATOM     74  F   UNL     1     -10.276  -1.716  -4.777  1.00  0.00    -0.203 F 
ATOM     75  F   UNL     1     -14.691  -4.554  -6.113  1.00  0.00    -0.200 F 
ATOM     76  C   UNL     1     -12.930  -3.111  -6.706  1.00  0.00     0.200 A 
ATOM     77  F   UNL     1     -11.105  -1.718  -7.241  1.00  0.00    -0.200 F 
ATOM     78  F   UNL     1     -13.245  -3.219  -8.003  1.00  0.00    -0.200 F 
ENDBRANCH  54  68
BRANCH  55  79
ATOM     79  C   UNL     1      -4.476  -7.038  -4.877  1.00  0.00     0.064 A 
ATOM     80  C   UNL     1      -4.480  -8.171  -5.708  1.00  0.00     0.173 A 
ATOM     81  C   UNL     1      -3.613  -5.991  -5.255  1.00  0.00     0.173 A 
ATOM     82  F   UNL     1      -5.316  -9.189  -5.456  1.00  0.00    -0.203 F 
ATOM     83  C   UNL     1      -3.678  -8.244  -6.854  1.00  0.00     0.198 A 
ATOM     84  C   UNL     1      -2.809  -6.067  -6.393  1.00  0.00     0.198 A 
ATOM     85  F   UNL     1      -3.606  -4.830  -4.583  1.00  0.00    -0.203 F 
ATOM     86  F   UNL     1      -3.751  -9.316  -7.655  1.00  0.00    -0.200 F 
ATOM     87  C   UNL     1      -2.849  -7.189  -7.199  1.00  0.00     0.200 A 
ATOM     88  F   UNL     1      -2.047  -5.020  -6.740  1.00  0.00    -0.200 F 
ATOM     89  F   UNL     1      -2.125  -7.234  -8.325  1.00  0.00    -0.200 F 
ENDBRANCH  55  79
BRANCH  67  90
ATOM     90  C   UNL     1      -9.202  -8.435  -0.964  1.00  0.00     0.064 A 
ATOM     91  C   UNL     1      -8.006  -8.313  -0.234  1.00  0.00     0.173 A 
ATOM     92  C   UNL     1     -10.107  -9.423  -0.557  1.00  0.00     0.173 A 
ATOM     93  F   UNL     1      -7.134  -7.331  -0.499  1.00  0.00    -0.203 F 
ATOM     94  C   UNL     1      -7.718  -9.170   0.828  1.00  0.00     0.198 A 
ATOM     95  C   UNL     1      -9.836 -10.251   0.527  1.00  0.00     0.198 A 
ATOM     96  F   UNL     1     -11.288  -9.549  -1.183  1.00  0.00    -0.203 F 
ATOM     97  F   UNL     1      -6.567  -9.041   1.504  1.00  0.00    -0.200 F 
ATOM     98  C   UNL     1      -8.638 -10.132   1.213  1.00  0.00     0.200 A 
ATOM     99  F   UNL     1     -10.751 -11.144   0.926  1.00  0.00    -0.200 F 
ATOM    100  F   UNL     1      -8.384 -10.926   2.262  1.00  0.00    -0.200 F 
ENDBRANCH  67  90
ENDBRANCH  41  42
ENDBRANCH  34  36
ENDBRANCH  33  34
ENDBRANCH  32  33
ENDBRANCH  31  32
ENDBRANCH  30  31
ENDBRANCH   1  30
TORSDOF 18
