REMARK SMILES CCCCCCNC(=O)Oc1cccc(-c2ccc([C@@H](C)C(=O)OCCOCCOC(=O)c3ccc(-c4c5nc(c(-c6c(F)c(F)c(F)c(F)c6F)c6ccc([nH]6)c(-c6c(F)c(F)c(F)c(F)c6F)c6nc(c(-c7c(F)c(F)c(F)c(F)c7F)c7ccc4[nH]7)C=C6)C=C5)cc3)cc2F)c1
REMARK SMILES IDX 22 1 23 2 20 3 21 4 19 5 16 6 17 7 97 8 18 9 96 10 98 11
REMARK SMILES IDX 15 12 11 13 12 14 99 15 13 16 14 17 10 18 8 19 7 20 9 22
REMARK SMILES IDX 6 23 5 24 4 25 3 26 2 27 1 28 24 29 25 30 26 31 27 32 28 33
REMARK SMILES IDX 29 34 30 35 31 36 32 37 33 38 34 39 95 40 35 41 94 42 36 43
REMARK SMILES IDX 37 44 38 45 88 46 39 47 93 48 87 49 89 50 40 51 92 52 86 53
REMARK SMILES IDX 85 54 41 56 73 57 53 58 72 59 54 60 57 61 71 62 90 63 55 64
REMARK SMILES IDX 56 65 70 67 91 68 58 69 42 70 43 71 51 72 44 73 45 74 49 75
REMARK SMILES IDX 52 76 46 77 47 78 50 79 48 80 74 81 75 82 83 83 76 84 77 85
REMARK SMILES IDX 81 86 84 87 78 88 79 89 82 90 80 91 59 92 60 93 68 94 61 95
REMARK SMILES IDX 62 96 66 97 69 98 63 99 64 100 67 101 65 102
REMARK H PARENT 7 21 89 55 57 66
REMARK Flexibility Score: inf
ROOT
ATOM      1  C   UNL     1      -4.238  13.567   6.372  1.00  0.00     0.313 C 
ATOM      2  O   UNL     1      -3.975  14.702   5.986  1.00  0.00    -0.252 OA
ENDROOT
BRANCH   1   3
ATOM      3  C   UNL     1      -5.269  12.700   5.666  1.00  0.00     0.126 C 
ATOM      4  C   UNL     1      -6.667  13.156   6.080  1.00  0.00     0.025 C 
BRANCH   3   5
ATOM      5  C   UNL     1      -5.118  11.184   5.754  1.00  0.00    -0.031 A 
ATOM      6  C   UNL     1      -5.055   8.325   5.791  1.00  0.00     0.018 A 
ATOM      7  C   UNL     1      -5.249   9.069   6.967  1.00  0.00     0.012 A 
ATOM      8  C   UNL     1      -4.849   9.048   4.609  1.00  0.00     0.131 A 
ATOM      9  C   UNL     1      -5.283  10.473   6.950  1.00  0.00     0.005 A 
ATOM     10  C   UNL     1      -4.878  10.445   4.585  1.00  0.00     0.044 A 
ATOM     11  F   UNL     1      -4.660   8.406   3.446  1.00  0.00    -0.206 F 
BRANCH   6  12
ATOM     12  C   UNL     1      -5.129   6.851   5.798  1.00  0.00    -0.012 A 
ATOM     13  C   UNL     1      -4.245   4.661   5.219  1.00  0.00     0.133 A 
ATOM     14  C   UNL     1      -5.364   4.032   5.759  1.00  0.00     0.047 A 
ATOM     15  C   UNL     1      -4.125   6.054   5.220  1.00  0.00     0.056 A 
ATOM     16  C   UNL     1      -6.367   4.805   6.335  1.00  0.00     0.004 A 
ATOM     17  C   UNL     1      -6.248   6.198   6.354  1.00  0.00     0.009 A 
BRANCH  13  18
ATOM     18  O   UNL     1      -3.314   3.831   4.570  1.00  0.00    -0.410 OA
BRANCH  18  19
ATOM     19  C   UNL     1      -1.979   3.930   4.926  1.00  0.00     0.412 C 
ATOM     20  N   UNL     1      -1.172   3.054   4.256  1.00  0.00    -0.321 N 
ATOM     21  H   UNL     1      -0.209   3.104   4.454  1.00  0.00     0.167 HD
ATOM     22  O   UNL     1      -1.513   4.699   5.767  1.00  0.00    -0.224 OA
BRANCH  20  23
ATOM     23  C   UNL     1      -1.582   2.058   3.284  1.00  0.00     0.119 C 
BRANCH  23  24
ATOM     24  C   UNL     1      -0.972   2.310   1.905  1.00  0.00     0.021 C 
BRANCH  24  25
ATOM     25  C   UNL     1       0.557   2.200   1.843  1.00  0.00     0.002 C 
BRANCH  25  26
ATOM     26  C   UNL     1       1.142   0.838   2.235  1.00  0.00    -0.000 C 
BRANCH  26  27
ATOM     27  C   UNL     1       0.668  -0.351   1.395  1.00  0.00    -0.003 C 
ATOM     28  C   UNL     1       1.059  -0.249  -0.071  1.00  0.00     0.004 C 
ENDBRANCH  26  27
ENDBRANCH  25  26
ENDBRANCH  24  25
ENDBRANCH  23  24
ENDBRANCH  20  23
ENDBRANCH  18  19
ENDBRANCH  13  18
ENDBRANCH   6  12
ENDBRANCH   3   5
ENDBRANCH   1   3
BRANCH   1  29
ATOM     29  O   UNL     1      -3.680  12.981   7.463  1.00  0.00    -0.463 OA
BRANCH  29  30
ATOM     30  C   UNL     1      -2.596  13.701   8.078  1.00  0.00     0.261 C 
BRANCH  30  31
ATOM     31  C   UNL     1      -1.295  12.897   8.018  1.00  0.00     0.202 C 
BRANCH  31  32
ATOM     32  O   UNL     1      -0.734  12.698   6.722  1.00  0.00    -0.374 OA
BRANCH  32  33
ATOM     33  C   UNL     1      -1.356  11.735   5.872  1.00  0.00     0.202 C 
BRANCH  33  34
ATOM     34  C   UNL     1      -1.076  10.258   6.177  1.00  0.00     0.261 C 
BRANCH  34  35
ATOM     35  O   UNL     1      -1.584   9.855   7.461  1.00  0.00    -0.460 OA
BRANCH  35  36
ATOM     36  C   UNL     1      -0.627   9.573   8.377  1.00  0.00     0.338 C 
ATOM     37  O   UNL     1       0.581   9.568   8.209  1.00  0.00    -0.246 OA
BRANCH  36  38
ATOM     38  C   UNL     1      -1.222   9.444   9.721  1.00  0.00     0.060 A 
ATOM     39  C   UNL     1      -0.632  10.192  10.748  1.00  0.00     0.016 A 
ATOM     40  C   UNL     1      -2.252   8.544  10.001  1.00  0.00     0.016 A 
ATOM     41  C   UNL     1      -1.016   9.988  12.069  1.00  0.00     0.010 A 
ATOM     42  C   UNL     1      -2.638   8.339  11.334  1.00  0.00     0.010 A 
ATOM     43  C   UNL     1      -1.986   9.024  12.376  1.00  0.00    -0.014 A 
BRANCH  43  44
ATOM     44  C   UNL     1      -2.166   8.627  13.796  1.00  0.00     0.031 A 
ATOM     45  C   UNL     1      -1.493   7.376  14.294  1.00  0.00     0.074 A 
ATOM     46  C   UNL     1      -2.839   9.415  14.654  1.00  0.00     0.049 A 
ATOM     47  N   UNL     1      -1.461   6.872  15.503  1.00  0.00    -0.248 NA
ATOM     48  C   UNL     1      -0.751   6.588  13.296  1.00  0.00     0.031 C 
ATOM     49  C   UNL     1      -3.497  10.672  14.305  1.00  0.00     0.029 A 
ATOM     50  N   UNL     1      -3.068   9.275  16.000  1.00  0.00    -0.354 N 
ATOM     51  C   UNL     1      -0.697   5.715  15.410  1.00  0.00     0.074 A 
ATOM     52  C   UNL     1      -0.318   5.568  14.021  1.00  0.00     0.031 C 
ATOM     53  C   UNL     1      -4.053  11.193  15.412  1.00  0.00     0.029 A 
ATOM     54  C   UNL     1      -3.810  10.296  16.541  1.00  0.00     0.049 A 
ATOM     55  H   UNL     1      -2.732   8.515  16.528  1.00  0.00     0.167 HD
ATOM     56  C   UNL     1      -0.330   4.861  16.395  1.00  0.00     0.037 A 
ATOM     57  C   UNL     1      -4.249  10.478  17.801  1.00  0.00     0.037 A 
ATOM     58  C   UNL     1      -0.701   5.007  17.778  1.00  0.00     0.049 A 
ATOM     59  C   UNL     1      -3.885   9.475  18.865  1.00  0.00     0.074 A 
ATOM     60  C   UNL     1      -0.367   4.200  18.852  1.00  0.00     0.029 A 
ATOM     61  N   UNL     1      -1.498   6.027  18.276  1.00  0.00    -0.354 N 
ATOM     62  N   UNL     1      -3.139   8.401  18.773  1.00  0.00    -0.248 NA
ATOM     63  C   UNL     1      -4.421   9.716  20.213  1.00  0.00     0.031 C 
ATOM     64  C   UNL     1      -1.002   4.705  19.992  1.00  0.00     0.029 A 
ATOM     65  C   UNL     1      -1.688   5.855  19.639  1.00  0.00     0.049 A 
ATOM     66  H   UNL     1      -1.873   6.763  17.742  1.00  0.00     0.167 HD
ATOM     67  C   UNL     1      -3.093   7.855  20.050  1.00  0.00     0.074 A 
ATOM     68  C   UNL     1      -3.873   8.727  20.904  1.00  0.00     0.031 C 
ATOM     69  C   UNL     1      -2.463   6.733  20.477  1.00  0.00     0.037 A 
BRANCH  56  70
ATOM     70  C   UNL     1       0.505   3.675  16.006  1.00  0.00     0.064 A 
ATOM     71  C   UNL     1       1.851   3.812  15.633  1.00  0.00     0.173 A 
ATOM     72  C   UNL     1      -0.039   2.383  16.038  1.00  0.00     0.173 A 
ATOM     73  F   UNL     1       2.415   5.028  15.575  1.00  0.00    -0.203 F 
ATOM     74  C   UNL     1       2.613   2.701  15.282  1.00  0.00     0.198 A 
ATOM     75  C   UNL     1       0.734   1.271  15.714  1.00  0.00     0.198 A 
ATOM     76  F   UNL     1      -1.319   2.196  16.393  1.00  0.00    -0.203 F 
ATOM     77  F   UNL     1       3.884   2.860  14.886  1.00  0.00    -0.200 F 
ATOM     78  C   UNL     1       2.057   1.431  15.329  1.00  0.00     0.200 A 
ATOM     79  F   UNL     1       0.199   0.044  15.772  1.00  0.00    -0.200 F 
ATOM     80  F   UNL     1       2.794   0.362  14.998  1.00  0.00    -0.200 F 
ENDBRANCH  56  70
BRANCH  57  81
ATOM     81  C   UNL     1      -5.087  11.661  18.133  1.00  0.00     0.064 A 
ATOM     82  C   UNL     1      -4.607  12.679  18.969  1.00  0.00     0.173 A 
ATOM     83  C   UNL     1      -6.396  11.782  17.643  1.00  0.00     0.173 A 
ATOM     84  F   UNL     1      -3.372  12.595  19.485  1.00  0.00    -0.203 F 
ATOM     85  C   UNL     1      -5.411  13.762  19.318  1.00  0.00     0.198 A 
ATOM     86  C   UNL     1      -7.189  12.880  17.970  1.00  0.00     0.198 A 
ATOM     87  F   UNL     1      -6.904  10.833  16.843  1.00  0.00    -0.203 F 
ATOM     88  F   UNL     1      -4.946  14.695  20.159  1.00  0.00    -0.200 F 
ATOM     89  C   UNL     1      -6.699  13.864  18.814  1.00  0.00     0.200 A 
ATOM     90  F   UNL     1      -8.428  12.979  17.472  1.00  0.00    -0.200 F 
ATOM     91  F   UNL     1      -7.472  14.906  19.150  1.00  0.00    -0.200 F 
ENDBRANCH  57  81
BRANCH  69  92
ATOM     92  C   UNL     1      -2.563   6.400  21.939  1.00  0.00     0.064 A 
ATOM     93  C   UNL     1      -3.760   5.943  22.509  1.00  0.00     0.173 A 
ATOM     94  C   UNL     1      -1.439   6.509  22.772  1.00  0.00     0.173 A 
ATOM     95  F   UNL     1      -4.867   5.834  21.759  1.00  0.00    -0.203 F 
ATOM     96  C   UNL     1      -3.836   5.636  23.866  1.00  0.00     0.198 A 
ATOM     97  C   UNL     1      -1.510   6.172  24.121  1.00  0.00     0.198 A 
ATOM     98  F   UNL     1      -0.267   6.933  22.275  1.00  0.00    -0.203 F 
ATOM     99  F   UNL     1      -5.003   5.251  24.399  1.00  0.00    -0.200 F 
ATOM    100  C   UNL     1      -2.710   5.744  24.668  1.00  0.00     0.200 A 
ATOM    101  F   UNL     1      -0.418   6.263  24.892  1.00  0.00    -0.200 F 
ATOM    102  F   UNL     1      -2.784   5.445  25.972  1.00  0.00    -0.200 F 
ENDBRANCH  69  92
ENDBRANCH  43  44
ENDBRANCH  36  38
ENDBRANCH  35  36
ENDBRANCH  34  35
ENDBRANCH  33  34
ENDBRANCH  32  33
ENDBRANCH  31  32
ENDBRANCH  30  31
ENDBRANCH  29  30
ENDBRANCH   1  29
TORSDOF 23
