REMARK SMILES COc1cccc([C@@H]2[NH2+][C@@](C)(C(=O)OCCOCCOC(=O)c3ccc(-c4c5nc(c(-c6c(F)c(F)c(F)c(F)c6F)c6ccc([nH]6)c(-c6c(F)c(F)c(F)c(F)c6F)c6nc(c(-c7c(F)c(F)c(F)c(F)c7F)c7ccc4[nH]7)C=C6)C=C5)cc3)[C@@H]3C(=O)N(C)C(=O)[C@@H]32)c1O
REMARK SMILES IDX 17 1 16 2 15 3 14 4 12 5 13 6 10 7 8 8 9 9 93 10 86 13 91 14
REMARK SMILES IDX 11 15 87 16 89 17 92 18 88 19 90 20 7 21 3 22 4 23 94 24
REMARK SMILES IDX 5 25 6 26 2 27 1 28 95 29 18 31 19 32 20 33 21 34 22 35
REMARK SMILES IDX 23 36 24 37 85 38 25 39 84 40 26 41 27 42 28 43 78 44 29 45
REMARK SMILES IDX 83 46 77 47 79 48 30 49 82 50 76 51 75 52 31 54 63 55 43 56
REMARK SMILES IDX 62 57 44 58 47 59 61 60 80 61 45 62 46 63 60 65 81 66 48 67
REMARK SMILES IDX 32 68 33 69 41 70 34 71 35 72 39 73 42 74 36 75 37 76 40 77
REMARK SMILES IDX 38 78 64 79 65 80 73 81 66 82 67 83 71 84 74 85 68 86 69 87
REMARK SMILES IDX 72 88 70 89 49 90 50 91 58 92 51 93 52 94 56 95 59 96 53 97
REMARK SMILES IDX 54 98 57 99 55 100
REMARK H PARENT 9 11 9 12 95 30 79 53 47 64
REMARK Flexibility Score: inf
ROOT
ATOM      1  O   UNL     1       6.875  -3.776   6.229  1.00  0.00    -0.374 OA
ENDROOT
BRANCH   1   2
ATOM      2  C   UNL     1       6.103  -3.523   7.401  1.00  0.00     0.202 C 
BRANCH   2   3
ATOM      3  C   UNL     1       5.274  -2.238   7.427  1.00  0.00     0.261 C 
BRANCH   3   4
ATOM      4  O   UNL     1       4.317  -2.181   6.356  1.00  0.00    -0.459 OA
BRANCH   4   5
ATOM      5  C   UNL     1       4.546  -1.201   5.440  1.00  0.00     0.368 C 
ATOM      6  O   UNL     1       5.430  -0.355   5.557  1.00  0.00    -0.245 OA
BRANCH   5   7
ATOM      7  C   UNL     1       3.558  -1.196   4.239  1.00  0.00     0.204 C 
ATOM      8  C   UNL     1       3.357  -3.077   2.697  1.00  0.00     0.232 C 
ATOM      9  N   UNL     1       2.908  -2.530   4.004  1.00  0.00    -0.325 N 
ATOM     10  C   UNL     1       4.582  -2.260   2.304  1.00  0.00     0.161 C 
ATOM     11  H   UNL     1       3.172  -3.173   4.750  1.00  0.00     0.347 HD
ATOM     12  H   UNL     1       1.894  -2.417   3.994  1.00  0.00     0.347 HD
ATOM     13  C   UNL     1       4.422  -0.922   3.007  1.00  0.00     0.170 C 
ATOM     14  C   UNL     1       4.704  -1.877   0.859  1.00  0.00     0.239 C 
ATOM     15  C   UNL     1       2.533  -0.139   4.666  1.00  0.00     0.093 C 
ATOM     16  C   UNL     1       3.940  -0.004   1.918  1.00  0.00     0.240 C 
ATOM     17  N   UNL     1       4.281  -0.584   0.722  1.00  0.00    -0.285 N 
ATOM     18  O   UNL     1       5.097  -2.623  -0.025  1.00  0.00    -0.274 OA
ATOM     19  O   UNL     1       3.437   1.096   2.078  1.00  0.00    -0.274 OA
ATOM     20  C   UNL     1       4.187   0.070  -0.558  1.00  0.00     0.156 C 
BRANCH   8  21
ATOM     21  C   UNL     1       2.285  -3.227   1.619  1.00  0.00     0.056 A 
ATOM     22  C   UNL     1       0.548  -2.329   0.133  1.00  0.00     0.161 A 
ATOM     23  C   UNL     1       0.553  -3.509  -0.604  1.00  0.00     0.050 A 
ATOM     24  C   UNL     1       1.382  -2.216   1.254  1.00  0.00     0.166 A 
ATOM     25  C   UNL     1       1.402  -4.553  -0.239  1.00  0.00     0.005 A 
ATOM     26  C   UNL     1       2.263  -4.410   0.854  1.00  0.00     0.014 A 
BRANCH  22  27
ATOM     27  O   UNL     1      -0.365  -1.378  -0.241  1.00  0.00    -0.493 OA
ATOM     28  C   UNL     1       0.167  -0.080  -0.507  1.00  0.00     0.278 C 
ENDBRANCH  22  27
BRANCH  24  29
ATOM     29  O   UNL     1       1.322  -1.109   2.041  1.00  0.00    -0.504 OA
ATOM     30  H   UNL     1       0.731  -0.414   1.827  1.00  0.00     0.293 HD
ENDBRANCH  24  29
ENDBRANCH   8  21
ENDBRANCH   5   7
ENDBRANCH   4   5
ENDBRANCH   3   4
ENDBRANCH   2   3
ENDBRANCH   1   2
BRANCH   1  31
ATOM     31  C   UNL     1       6.175  -4.218   5.067  1.00  0.00     0.202 C 
BRANCH  31  32
ATOM     32  C   UNL     1       5.690  -5.671   5.047  1.00  0.00     0.261 C 
BRANCH  32  33
ATOM     33  O   UNL     1       4.696  -5.921   6.055  1.00  0.00    -0.460 OA
BRANCH  33  34
ATOM     34  C   UNL     1       5.086  -6.773   7.027  1.00  0.00     0.338 C 
ATOM     35  O   UNL     1       6.122  -7.430   7.067  1.00  0.00    -0.246 OA
BRANCH  34  36
ATOM     36  C   UNL     1       4.176  -6.694   8.181  1.00  0.00     0.060 A 
ATOM     37  C   UNL     1       4.762  -6.500   9.438  1.00  0.00     0.016 A 
ATOM     38  C   UNL     1       2.799  -6.898   8.062  1.00  0.00     0.016 A 
ATOM     39  C   UNL     1       3.989  -6.595  10.589  1.00  0.00     0.010 A 
ATOM     40  C   UNL     1       2.023  -7.001   9.222  1.00  0.00     0.010 A 
ATOM     41  C   UNL     1       2.627  -6.904  10.489  1.00  0.00    -0.014 A 
BRANCH  41  42
ATOM     42  C   UNL     1       1.907  -7.320  11.717  1.00  0.00     0.031 A 
ATOM     43  C   UNL     1       1.759  -8.790  12.001  1.00  0.00     0.074 A 
ATOM     44  C   UNL     1       1.477  -6.409  12.607  1.00  0.00     0.049 A 
ATOM     45  N   UNL     1       1.218  -9.390  13.031  1.00  0.00    -0.248 NA
ATOM     46  C   UNL     1       2.301  -9.711  10.988  1.00  0.00     0.031 C 
ATOM     47  C   UNL     1       1.603  -4.961  12.459  1.00  0.00     0.029 A 
ATOM     48  N   UNL     1       0.853  -6.574  13.818  1.00  0.00    -0.354 N 
ATOM     49  C   UNL     1       1.364 -10.751  12.795  1.00  0.00     0.074 A 
ATOM     50  C   UNL     1       2.003 -10.893  11.505  1.00  0.00     0.031 C 
ATOM     51  C   UNL     1       1.068  -4.366  13.540  1.00  0.00     0.029 A 
ATOM     52  C   UNL     1       0.546  -5.391  14.442  1.00  0.00     0.049 A 
ATOM     53  H   UNL     1       0.646  -7.456  14.202  1.00  0.00     0.167 HD
ATOM     54  C   UNL     1       1.013 -11.790  13.589  1.00  0.00     0.037 A 
ATOM     55  C   UNL     1      -0.094  -5.167  15.606  1.00  0.00     0.037 A 
ATOM     56  C   UNL     1       0.370 -11.648  14.868  1.00  0.00     0.049 A 
ATOM     57  C   UNL     1      -0.531  -6.342  16.443  1.00  0.00     0.074 A 
ATOM     58  C   UNL     1      -0.048 -12.636  15.742  1.00  0.00     0.029 A 
ATOM     59  N   UNL     1       0.050 -10.432  15.456  1.00  0.00    -0.354 N 
ATOM     60  N   UNL     1      -0.378  -7.625  16.217  1.00  0.00    -0.248 NA
ATOM     61  C   UNL     1      -1.219  -6.035  17.705  1.00  0.00     0.031 C 
ATOM     62  C   UNL     1      -0.655 -12.019  16.841  1.00  0.00     0.029 A 
ATOM     63  C   UNL     1      -0.570 -10.646  16.676  1.00  0.00     0.049 A 
ATOM     64  H   UNL     1       0.236  -9.549  15.063  1.00  0.00     0.167 HD
ATOM     65  C   UNL     1      -0.919  -8.275  17.319  1.00  0.00     0.074 A 
ATOM     66  C   UNL     1      -1.391  -7.244  18.220  1.00  0.00     0.031 C 
ATOM     67  C   UNL     1      -1.018  -9.605  17.564  1.00  0.00     0.037 A 
BRANCH  54  68
ATOM     68  C   UNL     1       1.307 -13.173  13.087  1.00  0.00     0.064 A 
ATOM     69  C   UNL     1       2.619 -13.668  13.026  1.00  0.00     0.173 A 
ATOM     70  C   UNL     1       0.266 -14.023  12.685  1.00  0.00     0.173 A 
ATOM     71  F   UNL     1       3.652 -12.890  13.383  1.00  0.00    -0.203 F 
ATOM     72  C   UNL     1       2.879 -14.955  12.560  1.00  0.00     0.198 A 
ATOM     73  C   UNL     1       0.527 -15.318  12.245  1.00  0.00     0.198 A 
ATOM     74  F   UNL     1      -1.006 -13.599  12.724  1.00  0.00    -0.203 F 
ATOM     75  F   UNL     1       4.143 -15.390  12.469  1.00  0.00    -0.200 F 
ATOM     76  C   UNL     1       1.833 -15.780  12.177  1.00  0.00     0.200 A 
ATOM     77  F   UNL     1      -0.485 -16.119  11.884  1.00  0.00    -0.200 F 
ATOM     78  F   UNL     1       2.084 -17.020  11.734  1.00  0.00    -0.200 F 
ENDBRANCH  54  68
BRANCH  55  79
ATOM     79  C   UNL     1      -0.365  -3.775  16.051  1.00  0.00     0.064 A 
ATOM     80  C   UNL     1       0.263  -3.236  17.183  1.00  0.00     0.173 A 
ATOM     81  C   UNL     1      -1.286  -2.965  15.369  1.00  0.00     0.173 A 
ATOM     82  F   UNL     1       1.132  -3.979  17.883  1.00  0.00    -0.203 F 
ATOM     83  C   UNL     1      -0.039  -1.951  17.629  1.00  0.00     0.198 A 
ATOM     84  C   UNL     1      -1.564  -1.670  15.799  1.00  0.00     0.198 A 
ATOM     85  F   UNL     1      -1.915  -3.433  14.281  1.00  0.00    -0.203 F 
ATOM     86  F   UNL     1       0.535  -1.480  18.745  1.00  0.00    -0.200 F 
ATOM     87  C   UNL     1      -0.948  -1.167  16.935  1.00  0.00     0.200 A 
ATOM     88  F   UNL     1      -2.435  -0.913  15.118  1.00  0.00    -0.200 F 
ATOM     89  F   UNL     1      -1.239   0.068  17.366  1.00  0.00    -0.200 F 
ENDBRANCH  55  79
BRANCH  67  90
ATOM     90  C   UNL     1      -1.617 -10.018  18.878  1.00  0.00     0.064 A 
ATOM     91  C   UNL     1      -2.987  -9.872  19.143  1.00  0.00     0.173 A 
ATOM     92  C   UNL     1      -0.811 -10.591  19.874  1.00  0.00     0.173 A 
ATOM     93  F   UNL     1      -3.796  -9.318  18.229  1.00  0.00    -0.203 F 
ATOM     94  C   UNL     1      -3.521 -10.254  20.371  1.00  0.00     0.198 A 
ATOM     95  C   UNL     1      -1.355 -10.999  21.088  1.00  0.00     0.198 A 
ATOM     96  F   UNL     1       0.503 -10.760  19.666  1.00  0.00    -0.203 F 
ATOM     97  F   UNL     1      -4.822 -10.055  20.624  1.00  0.00    -0.200 F 
ATOM     98  C   UNL     1      -2.707 -10.822  21.340  1.00  0.00     0.200 A 
ATOM     99  F   UNL     1      -0.569 -11.560  22.018  1.00  0.00    -0.200 F 
ATOM    100  F   UNL     1      -3.224 -11.189  22.520  1.00  0.00    -0.200 F 
ENDBRANCH  67  90
ENDBRANCH  41  42
ENDBRANCH  34  36
ENDBRANCH  33  34
ENDBRANCH  32  33
ENDBRANCH  31  32
ENDBRANCH   1  31
TORSDOF 17
