REMARK SMILES C=CCN(CC(=O)OCCOCCOC(=O)c1ccc(-c2c3nc(c(-c4c(F)c(F)c(F)c(F)c4F)c4ccc([nH]4)c(-c4c(F)c(F)c(F)c(F)c4F)c4nc(c(-c5c(F)c(F)c(F)c(F)c5F)c5ccc2[nH]5)C=C4)C=C3)cc1)C(=O)CC1([NH2+]C)CCCCC1
REMARK SMILES IDX 9 1 8 2 6 3 7 4 5 5 4 6 3 7 2 8 1 9 80 10 81 11 82 12 83 13
REMARK SMILES IDX 86 14 90 15 87 16 89 17 88 18 84 19 85 20 10 23 11 24 12 25
REMARK SMILES IDX 13 26 14 27 15 28 16 29 17 30 18 31 79 32 19 33 78 34 20 35
REMARK SMILES IDX 21 36 22 37 72 38 23 39 77 40 71 41 73 42 24 43 76 44 70 45
REMARK SMILES IDX 69 46 25 48 57 49 37 50 56 51 38 52 41 53 55 54 74 55 39 56
REMARK SMILES IDX 40 57 54 59 75 60 42 61 26 62 27 63 35 64 28 65 29 66 33 67
REMARK SMILES IDX 36 68 30 69 31 70 34 71 32 72 58 73 59 74 67 75 60 76 61 77
REMARK SMILES IDX 65 78 68 79 62 80 63 81 66 82 64 83 43 84 44 85 52 86 45 87
REMARK SMILES IDX 46 88 50 89 53 90 47 91 48 92 51 93 49 94
REMARK H PARENT 84 21 84 22 73 47 41 58
REMARK Flexibility Score: inf
ROOT
ATOM      1  C   UNL     1      -6.080  -2.682   0.488  1.00  0.00     0.261 C 
ENDROOT
BRANCH   1   2
ATOM      2  O   UNL     1      -4.677  -2.314   0.505  1.00  0.00    -0.462 OA
BRANCH   2   3
ATOM      3  C   UNL     1      -4.013  -2.679   1.635  1.00  0.00     0.325 C 
ATOM      4  O   UNL     1      -4.542  -3.248   2.588  1.00  0.00    -0.250 OA
BRANCH   3   5
ATOM      5  C   UNL     1      -2.560  -2.204   1.718  1.00  0.00     0.242 C 
BRANCH   5   6
ATOM      6  N   UNL     1      -1.752  -1.818   0.558  1.00  0.00    -0.328 N 
BRANCH   6   7
ATOM      7  C   UNL     1      -1.400  -0.399   0.479  1.00  0.00     0.147 C 
BRANCH   7   8
ATOM      8  C   UNL     1       0.017  -0.223   0.961  1.00  0.00    -0.014 C 
ATOM      9  C   UNL     1       0.993   0.301   0.204  1.00  0.00     0.006 C 
ENDBRANCH   7   8
ENDBRANCH   6   7
BRANCH   6  10
ATOM     10  C   UNL     1      -1.126  -2.647  -0.367  1.00  0.00     0.229 C 
ATOM     11  O   UNL     1      -0.475  -2.139  -1.294  1.00  0.00    -0.275 OA
BRANCH  10  12
ATOM     12  C   UNL     1      -1.309  -4.162  -0.434  1.00  0.00     0.168 C 
BRANCH  12  13
ATOM     13  C   UNL     1      -0.803  -5.295   0.507  1.00  0.00     0.105 C 
ATOM     14  C   UNL     1      -1.605  -5.358   1.829  1.00  0.00     0.069 C 
ATOM     15  C   UNL     1      -1.097  -6.617  -0.300  1.00  0.00     0.069 C 
ATOM     16  C   UNL     1      -1.596  -6.684   2.586  1.00  0.00     0.006 C 
ATOM     17  C   UNL     1      -1.035  -7.915   0.500  1.00  0.00     0.006 C 
ATOM     18  C   UNL     1      -1.970  -7.852   1.694  1.00  0.00     0.000 C 
BRANCH  13  19
ATOM     19  N   UNL     1       0.646  -5.323   0.766  1.00  0.00    -0.343 N 
ATOM     20  C   UNL     1       1.265  -4.063   1.135  1.00  0.00     0.331 C 
ATOM     21  H   UNL     1       1.105  -5.657  -0.081  1.00  0.00     0.346 HD
ATOM     22  H   UNL     1       0.762  -5.928   1.579  1.00  0.00     0.346 HD
ENDBRANCH  13  19
ENDBRANCH  12  13
ENDBRANCH  10  12
ENDBRANCH   6  10
ENDBRANCH   5   6
ENDBRANCH   3   5
ENDBRANCH   2   3
ENDBRANCH   1   2
BRANCH   1  23
ATOM     23  C   UNL     1      -6.572  -3.106  -0.903  1.00  0.00     0.202 C 
BRANCH  23  24
ATOM     24  O   UNL     1      -6.130  -4.374  -1.395  1.00  0.00    -0.374 OA
BRANCH  24  25
ATOM     25  C   UNL     1      -4.727  -4.534  -1.558  1.00  0.00     0.202 C 
BRANCH  25  26
ATOM     26  C   UNL     1      -4.102  -3.928  -2.823  1.00  0.00     0.261 C 
BRANCH  26  27
ATOM     27  O   UNL     1      -4.450  -2.552  -3.002  1.00  0.00    -0.460 OA
BRANCH  27  28
ATOM     28  C   UNL     1      -5.282  -2.328  -4.047  1.00  0.00     0.338 C 
ATOM     29  O   UNL     1      -5.661  -3.120  -4.890  1.00  0.00    -0.246 OA
BRANCH  28  30
ATOM     30  C   UNL     1      -5.853  -0.980  -3.919  1.00  0.00     0.060 A 
ATOM     31  C   UNL     1      -7.249  -0.885  -3.876  1.00  0.00     0.016 A 
ATOM     32  C   UNL     1      -5.048   0.160  -3.878  1.00  0.00     0.016 A 
ATOM     33  C   UNL     1      -7.852   0.364  -3.835  1.00  0.00     0.010 A 
ATOM     34  C   UNL     1      -5.656   1.416  -3.849  1.00  0.00     0.010 A 
ATOM     35  C   UNL     1      -7.058   1.518  -3.862  1.00  0.00    -0.014 A 
BRANCH  35  36
ATOM     36  C   UNL     1      -7.720   2.823  -4.061  1.00  0.00     0.031 A 
ATOM     37  C   UNL     1      -7.814   3.372  -5.455  1.00  0.00     0.074 A 
ATOM     38  C   UNL     1      -8.280   3.459  -3.020  1.00  0.00     0.049 A 
ATOM     39  N   UNL     1      -8.395   4.463  -5.880  1.00  0.00    -0.248 NA
ATOM     40  C   UNL     1      -7.168   2.580  -6.516  1.00  0.00     0.031 C 
ATOM     41  C   UNL     1      -8.263   2.984  -1.637  1.00  0.00     0.029 A 
ATOM     42  N   UNL     1      -8.979   4.636  -2.965  1.00  0.00    -0.354 N 
ATOM     43  C   UNL     1      -8.192   4.484  -7.253  1.00  0.00     0.074 A 
ATOM     44  C   UNL     1      -7.402   3.321  -7.589  1.00  0.00     0.031 C 
ATOM     45  C   UNL     1      -8.923   3.865  -0.866  1.00  0.00     0.029 A 
ATOM     46  C   UNL     1      -9.388   4.971  -1.699  1.00  0.00     0.049 A 
ATOM     47  H   UNL     1      -9.169   5.188  -3.758  1.00  0.00     0.167 HD
ATOM     48  C   UNL     1      -8.640   5.392  -8.152  1.00  0.00     0.037 A 
ATOM     49  C   UNL     1     -10.056   6.059  -1.270  1.00  0.00     0.037 A 
ATOM     50  C   UNL     1      -9.416   6.549  -7.797  1.00  0.00     0.049 A 
ATOM     51  C   UNL     1     -10.490   7.085  -2.284  1.00  0.00     0.074 A 
ATOM     52  C   UNL     1      -9.932   7.532  -8.621  1.00  0.00     0.029 A 
ATOM     53  N   UNL     1      -9.781   6.880  -6.498  1.00  0.00    -0.354 N 
ATOM     54  N   UNL     1     -10.326   7.082  -3.586  1.00  0.00    -0.248 NA
ATOM     55  C   UNL     1     -11.207   8.260  -1.772  1.00  0.00     0.031 C 
ATOM     56  C   UNL     1     -10.566   8.484  -7.815  1.00  0.00     0.029 A 
ATOM     57  C   UNL     1     -10.492   8.067  -6.495  1.00  0.00     0.049 A 
ATOM     58  H   UNL     1      -9.566   6.348  -5.698  1.00  0.00     0.167 HD
ATOM     59  C   UNL     1     -10.935   8.238  -4.051  1.00  0.00     0.074 A 
ATOM     60  C   UNL     1     -11.490   8.909  -2.892  1.00  0.00     0.031 C 
ATOM     61  C   UNL     1     -11.029   8.708  -5.321  1.00  0.00     0.037 A 
BRANCH  48  62
ATOM     62  C   UNL     1      -8.276   5.179  -9.592  1.00  0.00     0.064 A 
ATOM     63  C   UNL     1      -8.846   4.145 -10.352  1.00  0.00     0.173 A 
ATOM     64  C   UNL     1      -7.359   6.029 -10.227  1.00  0.00     0.173 A 
ATOM     65  F   UNL     1      -9.715   3.293  -9.787  1.00  0.00    -0.203 F 
ATOM     66  C   UNL     1      -8.494   3.958 -11.686  1.00  0.00     0.198 A 
ATOM     67  C   UNL     1      -7.030   5.856 -11.569  1.00  0.00     0.198 A 
ATOM     68  F   UNL     1      -6.784   7.032  -9.547  1.00  0.00    -0.203 F 
ATOM     69  F   UNL     1      -9.017   2.937 -12.379  1.00  0.00    -0.200 F 
ATOM     70  C   UNL     1      -7.592   4.817 -12.296  1.00  0.00     0.200 A 
ATOM     71  F   UNL     1      -6.164   6.692 -12.159  1.00  0.00    -0.200 F 
ATOM     72  F   UNL     1      -7.258   4.639 -13.581  1.00  0.00    -0.200 F 
ENDBRANCH  48  62
BRANCH  49  73
ATOM     73  C   UNL     1     -10.350   6.229   0.177  1.00  0.00     0.064 A 
ATOM     74  C   UNL     1     -11.662   6.171   0.665  1.00  0.00     0.173 A 
ATOM     75  C   UNL     1      -9.320   6.453   1.104  1.00  0.00     0.173 A 
ATOM     76  F   UNL     1     -12.683   5.978  -0.183  1.00  0.00    -0.203 F 
ATOM     77  C   UNL     1     -11.935   6.348   2.021  1.00  0.00     0.198 A 
ATOM     78  C   UNL     1      -9.592   6.602   2.463  1.00  0.00     0.198 A 
ATOM     79  F   UNL     1      -8.046   6.515   0.691  1.00  0.00    -0.203 F 
ATOM     80  F   UNL     1     -13.203   6.330   2.454  1.00  0.00    -0.200 F 
ATOM     81  C   UNL     1     -10.900   6.557   2.919  1.00  0.00     0.200 A 
ATOM     82  F   UNL     1      -8.586   6.788   3.328  1.00  0.00    -0.200 F 
ATOM     83  F   UNL     1     -11.163   6.721   4.223  1.00  0.00    -0.200 F 
ENDBRANCH  49  73
BRANCH  61  84
ATOM     84  C   UNL     1     -11.772   9.996  -5.517  1.00  0.00     0.064 A 
ATOM     85  C   UNL     1     -11.228  11.225  -5.117  1.00  0.00     0.173 A 
ATOM     86  C   UNL     1     -13.024  10.004  -6.150  1.00  0.00     0.173 A 
ATOM     87  F   UNL     1     -10.040  11.266  -4.493  1.00  0.00    -0.203 F 
ATOM     88  C   UNL     1     -11.922  12.413  -5.321  1.00  0.00     0.198 A 
ATOM     89  C   UNL     1     -13.701  11.197  -6.380  1.00  0.00     0.198 A 
ATOM     90  F   UNL     1     -13.583   8.855  -6.559  1.00  0.00    -0.203 F 
ATOM     91  F   UNL     1     -11.406  13.571  -4.887  1.00  0.00    -0.200 F 
ATOM     92  C   UNL     1     -13.154  12.399  -5.959  1.00  0.00     0.200 A 
ATOM     93  F   UNL     1     -14.884  11.184  -7.010  1.00  0.00    -0.200 F 
ATOM     94  F   UNL     1     -13.818  13.546  -6.160  1.00  0.00    -0.200 F 
ENDBRANCH  61  84
ENDBRANCH  35  36
ENDBRANCH  28  30
ENDBRANCH  27  28
ENDBRANCH  26  27
ENDBRANCH  25  26
ENDBRANCH  24  25
ENDBRANCH  23  24
ENDBRANCH   1  23
TORSDOF 21
