REMARK SMILES O=C(OCCOCCOC(=O)[C@@H]1CN(C(=O)CCC(F)(F)F)C[C@H]1c1ccc2c(c1)OCO2)c1ccc(-c2c3nc(c(-c4c(F)c(F)c(F)c(F)c4F)c4ccc([nH]4)c(-c4c(F)c(F)c(F)c(F)c4F)c4nc(c(-c5c(F)c(F)c(F)c(F)c5F)c5ccc2[nH]5)C=C4)C=C3)cc1
REMARK SMILES IDX 7 1 6 2 5 3 4 4 3 5 2 6 1 7 34 8 35 9 96 10 36 11 95 12
REMARK SMILES IDX 37 13 38 14 39 15 89 16 40 17 94 18 88 19 90 20 41 21 93 22
REMARK SMILES IDX 87 23 86 24 42 26 74 27 54 28 73 29 55 30 58 31 72 32 91 33
REMARK SMILES IDX 56 34 57 35 71 37 92 38 59 39 43 40 44 41 52 42 45 43 46 44
REMARK SMILES IDX 50 45 53 46 47 47 48 48 51 49 49 50 75 51 76 52 84 53 77 54
REMARK SMILES IDX 78 55 82 56 85 57 79 58 80 59 83 60 81 61 60 62 61 63 69 64
REMARK SMILES IDX 62 65 63 66 67 67 70 68 64 69 65 70 68 71 66 72 8 73 9 74
REMARK SMILES IDX 10 75 11 76 12 77 13 78 24 79 14 80 23 81 25 82 26 83 30 84
REMARK SMILES IDX 27 85 29 86 28 87 31 88 33 89 32 90 15 91 16 92 17 93 18 94
REMARK SMILES IDX 19 95 20 96 21 97 22 98
REMARK H PARENT 90 25 58 36
REMARK Flexibility Score: inf
ROOT
ATOM      1  C   UNL     1       2.144   0.643  -2.371  1.00  0.00     0.202 C 
ENDROOT
BRANCH   1   2
ATOM      2  O   UNL     1       2.930   0.422  -1.207  1.00  0.00    -0.374 OA
BRANCH   2   3
ATOM      3  C   UNL     1       3.315  -0.930  -0.971  1.00  0.00     0.202 C 
BRANCH   3   4
ATOM      4  C   UNL     1       3.442  -1.246   0.521  1.00  0.00     0.261 C 
BRANCH   4   5
ATOM      5  O   UNL     1       2.244  -0.919   1.240  1.00  0.00    -0.460 OA
BRANCH   5   6
ATOM      6  C   UNL     1       1.741   0.346   1.250  1.00  0.00     0.338 C 
ATOM      7  O   UNL     1       0.544   0.551   1.148  1.00  0.00    -0.246 OA
BRANCH   6   8
ATOM      8  C   UNL     1       2.649   1.452   1.679  1.00  0.00     0.060 A 
ATOM      9  C   UNL     1       3.902   1.719   1.117  1.00  0.00     0.016 A 
ATOM     10  C   UNL     1       2.159   2.306   2.676  1.00  0.00     0.016 A 
ATOM     11  C   UNL     1       4.681   2.766   1.568  1.00  0.00     0.010 A 
ATOM     12  C   UNL     1       2.926   3.383   3.120  1.00  0.00     0.010 A 
ATOM     13  C   UNL     1       4.196   3.597   2.572  1.00  0.00    -0.014 A 
BRANCH  13  14
ATOM     14  C   UNL     1       5.121   4.600   3.110  1.00  0.00     0.031 A 
ATOM     15  C   UNL     1       5.805   4.295   4.402  1.00  0.00     0.074 A 
ATOM     16  C   UNL     1       5.444   5.662   2.354  1.00  0.00     0.049 A 
ATOM     17  N   UNL     1       6.627   5.029   5.098  1.00  0.00    -0.248 NA
ATOM     18  C   UNL     1       5.536   2.968   4.983  1.00  0.00     0.031 C 
ATOM     19  C   UNL     1       4.926   5.926   1.009  1.00  0.00     0.029 A 
ATOM     20  N   UNL     1       6.316   6.688   2.584  1.00  0.00    -0.354 N 
ATOM     21  C   UNL     1       6.932   4.276   6.223  1.00  0.00     0.074 A 
ATOM     22  C   UNL     1       6.227   3.021   6.110  1.00  0.00     0.031 C 
ATOM     23  C   UNL     1       5.521   7.024   0.518  1.00  0.00     0.029 A 
ATOM     24  C   UNL     1       6.395   7.580   1.543  1.00  0.00     0.049 A 
ATOM     25  H   UNL     1       6.837   6.779   3.414  1.00  0.00     0.167 HD
ATOM     26  C   UNL     1       7.718   4.632   7.264  1.00  0.00     0.037 A 
ATOM     27  C   UNL     1       7.079   8.735   1.462  1.00  0.00     0.037 A 
ATOM     28  C   UNL     1       8.406   5.893   7.321  1.00  0.00     0.049 A 
ATOM     29  C   UNL     1       7.888   9.142   2.664  1.00  0.00     0.074 A 
ATOM     30  C   UNL     1       9.169   6.426   8.341  1.00  0.00     0.029 A 
ATOM     31  N   UNL     1       8.410   6.822   6.284  1.00  0.00    -0.354 N 
ATOM     32  N   UNL     1       8.094   8.486   3.783  1.00  0.00    -0.248 NA
ATOM     33  C   UNL     1       8.538  10.455   2.608  1.00  0.00     0.031 C 
ATOM     34  C   UNL     1       9.601   7.695   7.936  1.00  0.00     0.029 A 
ATOM     35  C   UNL     1       9.153   7.931   6.643  1.00  0.00     0.049 A 
ATOM     36  H   UNL     1       7.949   6.707   5.422  1.00  0.00     0.167 HD
ATOM     37  C   UNL     1       8.912   9.292   4.558  1.00  0.00     0.074 A 
ATOM     38  C   UNL     1       9.178  10.482   3.769  1.00  0.00     0.031 C 
ATOM     39  C   UNL     1       9.398   9.081   5.807  1.00  0.00     0.037 A 
BRANCH  26  40
ATOM     40  C   UNL     1       7.762   3.692   8.431  1.00  0.00     0.064 A 
ATOM     41  C   UNL     1       8.406   2.446   8.369  1.00  0.00     0.173 A 
ATOM     42  C   UNL     1       7.075   4.014   9.611  1.00  0.00     0.173 A 
ATOM     43  F   UNL     1       9.048   2.073   7.252  1.00  0.00    -0.203 F 
ATOM     44  C   UNL     1       8.325   1.544   9.429  1.00  0.00     0.198 A 
ATOM     45  C   UNL     1       7.019   3.122  10.679  1.00  0.00     0.198 A 
ATOM     46  F   UNL     1       6.432   5.186   9.720  1.00  0.00    -0.203 F 
ATOM     47  F   UNL     1       8.883   0.331   9.319  1.00  0.00    -0.200 F 
ATOM     48  C   UNL     1       7.633   1.883  10.582  1.00  0.00     0.200 A 
ATOM     49  F   UNL     1       6.350   3.452  11.792  1.00  0.00    -0.200 F 
ATOM     50  F   UNL     1       7.540   1.007  11.592  1.00  0.00    -0.200 F 
ENDBRANCH  26  40
BRANCH  27  51
ATOM     51  C   UNL     1       6.991   9.582   0.244  1.00  0.00     0.064 A 
ATOM     52  C   UNL     1       8.115   9.821  -0.559  1.00  0.00     0.173 A 
ATOM     53  C   UNL     1       5.778  10.170  -0.151  1.00  0.00     0.173 A 
ATOM     54  F   UNL     1       9.303   9.300  -0.219  1.00  0.00    -0.203 F 
ATOM     55  C   UNL     1       8.032  10.622  -1.698  1.00  0.00     0.198 A 
ATOM     56  C   UNL     1       5.689  10.944  -1.306  1.00  0.00     0.198 A 
ATOM     57  F   UNL     1       4.669   9.979   0.579  1.00  0.00    -0.203 F 
ATOM     58  F   UNL     1       9.132  10.867  -2.423  1.00  0.00    -0.200 F 
ATOM     59  C   UNL     1       6.818  11.177  -2.074  1.00  0.00     0.200 A 
ATOM     60  F   UNL     1       4.510  11.464  -1.673  1.00  0.00    -0.200 F 
ATOM     61  F   UNL     1       6.739  11.941  -3.172  1.00  0.00    -0.200 F 
ENDBRANCH  27  51
BRANCH  39  62
ATOM     62  C   UNL     1      10.305  10.137   6.357  1.00  0.00     0.064 A 
ATOM     63  C   UNL     1       9.814  11.375   6.794  1.00  0.00     0.173 A 
ATOM     64  C   UNL     1      11.678   9.884   6.484  1.00  0.00     0.173 A 
ATOM     65  F   UNL     1       8.509  11.664   6.676  1.00  0.00    -0.203 F 
ATOM     66  C   UNL     1      10.674  12.335   7.316  1.00  0.00     0.198 A 
ATOM     67  C   UNL     1      12.530  10.835   7.035  1.00  0.00     0.198 A 
ATOM     68  F   UNL     1      12.190   8.710   6.084  1.00  0.00    -0.203 F 
ATOM     69  F   UNL     1      10.194  13.531   7.684  1.00  0.00    -0.200 F 
ATOM     70  C   UNL     1      12.028  12.062   7.443  1.00  0.00     0.200 A 
ATOM     71  F   UNL     1      13.835  10.565   7.169  1.00  0.00    -0.200 F 
ATOM     72  F   UNL     1      12.853  12.986   7.953  1.00  0.00    -0.200 F 
ENDBRANCH  39  62
ENDBRANCH  13  14
ENDBRANCH   6   8
ENDBRANCH   5   6
ENDBRANCH   4   5
ENDBRANCH   3   4
ENDBRANCH   2   3
ENDBRANCH   1   2
BRANCH   1  73
ATOM     73  C   UNL     1       2.998   0.783  -3.624  1.00  0.00     0.261 C 
BRANCH  73  74
ATOM     74  O   UNL     1       3.741  -0.425  -3.861  1.00  0.00    -0.463 OA
BRANCH  74  75
ATOM     75  C   UNL     1       5.092  -0.378  -3.701  1.00  0.00     0.311 C 
ATOM     76  O   UNL     1       5.718   0.587  -3.283  1.00  0.00    -0.252 OA
BRANCH  75  77
ATOM     77  C   UNL     1       5.747  -1.688  -4.095  1.00  0.00     0.128 C 
ATOM     78  C   UNL     1       5.179  -2.109  -5.443  1.00  0.00     0.135 C 
ATOM     79  C   UNL     1       5.481  -2.872  -3.133  1.00  0.00     0.055 C 
ATOM     80  N   UNL     1       4.961  -3.532  -5.381  1.00  0.00    -0.341 N 
ATOM     81  C   UNL     1       5.321  -4.072  -4.088  1.00  0.00     0.128 C 
BRANCH  79  82
ATOM     82  C   UNL     1       6.518  -3.066  -2.020  1.00  0.00    -0.038 A 
ATOM     83  C   UNL     1       7.032  -1.957  -1.297  1.00  0.00     0.008 A 
ATOM     84  C   UNL     1       6.958  -4.351  -1.641  1.00  0.00     0.054 A 
ATOM     85  C   UNL     1       7.971  -2.112  -0.265  1.00  0.00     0.051 A 
ATOM     86  C   UNL     1       7.910  -4.473  -0.645  1.00  0.00     0.166 A 
ATOM     87  C   UNL     1       8.403  -3.384   0.025  1.00  0.00     0.165 A 
ATOM     88  O   UNL     1       8.469  -5.638  -0.220  1.00  0.00    -0.454 OA
ATOM     89  O   UNL     1       9.329  -3.723   0.961  1.00  0.00    -0.454 OA
ATOM     90  C   UNL     1       9.441  -5.142   0.725  1.00  0.00     0.468 C 
ENDBRANCH  79  82
BRANCH  80  91
ATOM     91  C   UNL     1       4.446  -4.328  -6.377  1.00  0.00     0.222 C 
ATOM     92  O   UNL     1       4.200  -5.521  -6.202  1.00  0.00    -0.275 OA
BRANCH  91  93
ATOM     93  C   UNL     1       4.191  -3.687  -7.730  1.00  0.00     0.109 C 
BRANCH  93  94
ATOM     94  C   UNL     1       2.709  -3.494  -8.031  1.00  0.00     0.125 C 
BRANCH  94  95
ATOM     95  C   UNL     1       2.044  -2.445  -7.170  1.00  0.00     0.389 C 
ATOM     96  F   UNL     1       2.685  -1.258  -7.271  1.00  0.00    -0.171 F 
ATOM     97  F   UNL     1       0.768  -2.243  -7.565  1.00  0.00    -0.171 F 
ATOM     98  F   UNL     1       2.018  -2.793  -5.869  1.00  0.00    -0.171 F 
ENDBRANCH  94  95
ENDBRANCH  93  94
ENDBRANCH  91  93
ENDBRANCH  80  91
ENDBRANCH  75  77
ENDBRANCH  74  75
ENDBRANCH  73  74
ENDBRANCH   1  73
TORSDOF 19
