REMARK SMILES C[C@@H]1[C@H](C(=O)OCCOCCOC(=O)c2ccc(-c3c4nc(c(-c5c(F)c(F)c(F)c(F)c5F)c5ccc([nH]5)c(-c5c(F)c(F)c(F)c(F)c5F)c5nc(c(-c6c(F)c(F)c(F)c(F)c6F)c6ccc3[nH]6)C=C5)C=C4)cc2)CCN1C(=O)N1CCc2ccccc21
REMARK SMILES IDX 9 1 8 2 7 3 6 4 4 5 5 6 3 7 1 8 2 9 80 10 78 11 79 12 81 13
REMARK SMILES IDX 82 14 83 15 84 16 91 17 85 18 86 19 90 20 87 21 89 22 88 23
REMARK SMILES IDX 10 24 11 25 12 26 13 27 14 28 15 29 16 30 77 31 17 32 76 33
REMARK SMILES IDX 18 34 19 35 20 36 70 37 21 38 75 39 69 40 71 41 22 42 74 43
REMARK SMILES IDX 68 44 67 45 23 47 55 48 35 49 54 50 36 51 39 52 53 53 72 54
REMARK SMILES IDX 37 55 38 56 52 58 73 59 40 60 24 61 25 62 33 63 26 64 27 65
REMARK SMILES IDX 31 66 34 67 28 68 29 69 32 70 30 71 56 72 57 73 65 74 58 75
REMARK SMILES IDX 59 76 63 77 66 78 60 79 61 80 64 81 62 82 41 83 42 84 50 85
REMARK SMILES IDX 43 86 44 87 48 88 51 89 45 90 46 91 49 92 47 93
REMARK H PARENT 71 46 39 57
REMARK Flexibility Score: inf
ROOT
ATOM      1  O   UNL     1       2.484   4.174  -1.214  1.00  0.00    -0.374 OA
ENDROOT
BRANCH   1   2
ATOM      2  C   UNL     1       2.468   4.275   0.204  1.00  0.00     0.202 C 
BRANCH   2   3
ATOM      3  C   UNL     1       1.248   3.739   0.958  1.00  0.00     0.261 C 
BRANCH   3   4
ATOM      4  O   UNL     1       0.916   2.378   0.635  1.00  0.00    -0.463 OA
BRANCH   4   5
ATOM      5  C   UNL     1      -0.217   2.234  -0.092  1.00  0.00     0.311 C 
ATOM      6  O   UNL     1      -0.937   3.164  -0.443  1.00  0.00    -0.252 OA
BRANCH   5   7
ATOM      7  C   UNL     1      -0.598   0.814  -0.407  1.00  0.00     0.123 C 
ATOM      8  C   UNL     1       1.378  -0.479   0.709  1.00  0.00     0.032 C 
ATOM      9  C   UNL     1       0.372  -0.372  -0.440  1.00  0.00     0.098 C 
ATOM     10  N   UNL     1      -0.550  -1.524  -0.376  1.00  0.00    -0.321 N 
ATOM     11  C   UNL     1      -1.671   0.340   0.561  1.00  0.00     0.039 C 
ATOM     12  C   UNL     1      -1.848  -1.103   0.139  1.00  0.00     0.122 C 
BRANCH  10  13
ATOM     13  C   UNL     1      -0.534  -2.499  -1.386  1.00  0.00     0.324 C 
ATOM     14  O   UNL     1      -0.834  -2.255  -2.549  1.00  0.00    -0.248 OA
BRANCH  13  15
ATOM     15  N   UNL     1      -0.014  -3.721  -0.947  1.00  0.00    -0.294 N 
ATOM     16  C   UNL     1       1.448  -3.882  -0.924  1.00  0.00     0.132 C 
ATOM     17  C   UNL     1      -0.516  -4.250   0.255  1.00  0.00     0.049 A 
ATOM     18  C   UNL     1       1.835  -4.358   0.491  1.00  0.00     0.060 C 
ATOM     19  C   UNL     1       0.509  -4.403   1.177  1.00  0.00    -0.022 A 
ATOM     20  C   UNL     1      -1.855  -4.340   0.598  1.00  0.00     0.027 A 
ATOM     21  C   UNL     1       0.208  -4.444   2.525  1.00  0.00     0.006 A 
ATOM     22  C   UNL     1      -2.167  -4.430   1.950  1.00  0.00     0.002 A 
ATOM     23  C   UNL     1      -1.141  -4.424   2.909  1.00  0.00     0.000 A 
ENDBRANCH  13  15
ENDBRANCH  10  13
ENDBRANCH   5   7
ENDBRANCH   4   5
ENDBRANCH   3   4
ENDBRANCH   2   3
ENDBRANCH   1   2
BRANCH   1  24
ATOM     24  C   UNL     1       2.617   2.886  -1.809  1.00  0.00     0.202 C 
BRANCH  24  25
ATOM     25  C   UNL     1       3.949   2.142  -1.640  1.00  0.00     0.261 C 
BRANCH  25  26
ATOM     26  O   UNL     1       4.293   1.884  -0.267  1.00  0.00    -0.460 OA
BRANCH  26  27
ATOM     27  C   UNL     1       5.396   2.546   0.167  1.00  0.00     0.338 C 
ATOM     28  O   UNL     1       6.126   3.273  -0.482  1.00  0.00    -0.246 OA
BRANCH  27  29
ATOM     29  C   UNL     1       5.536   2.411   1.630  1.00  0.00     0.060 A 
ATOM     30  C   UNL     1       5.635   3.590   2.381  1.00  0.00     0.016 A 
ATOM     31  C   UNL     1       5.684   1.166   2.241  1.00  0.00     0.016 A 
ATOM     32  C   UNL     1       5.936   3.529   3.740  1.00  0.00     0.010 A 
ATOM     33  C   UNL     1       5.992   1.107   3.606  1.00  0.00     0.010 A 
ATOM     34  C   UNL     1       6.158   2.289   4.353  1.00  0.00    -0.014 A 
BRANCH  34  35
ATOM     35  C   UNL     1       6.704   2.243   5.732  1.00  0.00     0.031 A 
ATOM     36  C   UNL     1       8.172   1.977   5.933  1.00  0.00     0.074 A 
ATOM     37  C   UNL     1       5.912   2.474   6.794  1.00  0.00     0.049 A 
ATOM     38  N   UNL     1       8.854   1.872   7.045  1.00  0.00    -0.248 NA
ATOM     39  C   UNL     1       8.978   1.807   4.714  1.00  0.00     0.031 C 
ATOM     40  C   UNL     1       4.486   2.784   6.730  1.00  0.00     0.029 A 
ATOM     41  N   UNL     1       6.199   2.480   8.137  1.00  0.00    -0.354 N 
ATOM     42  C   UNL     1      10.165   1.618   6.662  1.00  0.00     0.074 A 
ATOM     43  C   UNL     1      10.178   1.551   5.216  1.00  0.00     0.031 C 
ATOM     44  C   UNL     1       4.019   2.943   7.980  1.00  0.00     0.029 A 
ATOM     45  C   UNL     1       5.105   2.714   8.932  1.00  0.00     0.049 A 
ATOM     46  H   UNL     1       7.104   2.330   8.495  1.00  0.00     0.167 HD
ATOM     47  C   UNL     1      11.261   1.466   7.444  1.00  0.00     0.037 A 
ATOM     48  C   UNL     1       4.991   2.723  10.274  1.00  0.00     0.037 A 
ATOM     49  C   UNL     1      11.249   1.538   8.882  1.00  0.00     0.049 A 
ATOM     50  C   UNL     1       6.212   2.478  11.123  1.00  0.00     0.074 A 
ATOM     51  C   UNL     1      12.312   1.419   9.761  1.00  0.00     0.029 A 
ATOM     52  N   UNL     1      10.114   1.742   9.653  1.00  0.00    -0.354 N 
ATOM     53  N   UNL     1       7.452   2.265  10.753  1.00  0.00    -0.248 NA
ATOM     54  C   UNL     1       6.017   2.479  12.581  1.00  0.00     0.031 C 
ATOM     55  C   UNL     1      11.812   1.494  11.065  1.00  0.00     0.029 A 
ATOM     56  C   UNL     1      10.447   1.722  10.998  1.00  0.00     0.049 A 
ATOM     57  H   UNL     1       9.207   1.880   9.297  1.00  0.00     0.167 HD
ATOM     58  C   UNL     1       8.187   2.140  11.925  1.00  0.00     0.074 A 
ATOM     59  C   UNL     1       7.256   2.314  13.021  1.00  0.00     0.031 C 
ATOM     60  C   UNL     1       9.513   1.905  12.080  1.00  0.00     0.037 A 
BRANCH  47  61
ATOM     61  C   UNL     1      12.568   1.181   6.761  1.00  0.00     0.064 A 
ATOM     62  C   UNL     1      13.238   2.157   6.008  1.00  0.00     0.173 A 
ATOM     63  C   UNL     1      13.178  -0.076   6.896  1.00  0.00     0.173 A 
ATOM     64  F   UNL     1      12.692   3.370   5.838  1.00  0.00    -0.203 F 
ATOM     65  C   UNL     1      14.457   1.878   5.396  1.00  0.00     0.198 A 
ATOM     66  C   UNL     1      14.412  -0.342   6.308  1.00  0.00     0.198 A 
ATOM     67  F   UNL     1      12.583  -1.044   7.609  1.00  0.00    -0.203 F 
ATOM     68  F   UNL     1      15.057   2.811   4.643  1.00  0.00    -0.200 F 
ATOM     69  C   UNL     1      15.047   0.632   5.552  1.00  0.00     0.200 A 
ATOM     70  F   UNL     1      14.986  -1.541   6.472  1.00  0.00    -0.200 F 
ATOM     71  F   UNL     1      16.224   0.368   4.969  1.00  0.00    -0.200 F 
ENDBRANCH  47  61
BRANCH  48  72
ATOM     72  C   UNL     1       3.666   2.960  10.906  1.00  0.00     0.064 A 
ATOM     73  C   UNL     1       3.415   4.120  11.651  1.00  0.00     0.173 A 
ATOM     74  C   UNL     1       2.631   2.018  10.797  1.00  0.00     0.173 A 
ATOM     75  F   UNL     1       4.380   5.038  11.806  1.00  0.00    -0.203 F 
ATOM     76  C   UNL     1       2.188   4.320  12.281  1.00  0.00     0.198 A 
ATOM     77  C   UNL     1       1.395   2.233  11.401  1.00  0.00     0.198 A 
ATOM     78  F   UNL     1       2.820   0.890  10.097  1.00  0.00    -0.203 F 
ATOM     79  F   UNL     1       1.992   5.414  13.030  1.00  0.00    -0.200 F 
ATOM     80  C   UNL     1       1.177   3.380  12.150  1.00  0.00     0.200 A 
ATOM     81  F   UNL     1       0.417   1.328  11.261  1.00  0.00    -0.200 F 
ATOM     82  F   UNL     1      -0.004   3.573  12.754  1.00  0.00    -0.200 F 
ENDBRANCH  48  72
BRANCH  60  83
ATOM     83  C   UNL     1      10.050   1.861  13.483  1.00  0.00     0.064 A 
ATOM     84  C   UNL     1       9.760   0.800  14.354  1.00  0.00     0.173 A 
ATOM     85  C   UNL     1      10.900   2.877  13.949  1.00  0.00     0.173 A 
ATOM     86  F   UNL     1       8.942  -0.189  13.963  1.00  0.00    -0.203 F 
ATOM     87  C   UNL     1      10.278   0.772  15.647  1.00  0.00     0.198 A 
ATOM     88  C   UNL     1      11.442   2.829  15.230  1.00  0.00     0.198 A 
ATOM     89  F   UNL     1      11.217   3.911  13.155  1.00  0.00    -0.203 F 
ATOM     90  F   UNL     1       9.945  -0.225  16.478  1.00  0.00    -0.200 F 
ATOM     91  C   UNL     1      11.124   1.782  16.081  1.00  0.00     0.200 A 
ATOM     92  F   UNL     1      12.272   3.797  15.642  1.00  0.00    -0.200 F 
ATOM     93  F   UNL     1      11.627   1.749  17.323  1.00  0.00    -0.200 F 
ENDBRANCH  60  83
ENDBRANCH  34  35
ENDBRANCH  27  29
ENDBRANCH  26  27
ENDBRANCH  25  26
ENDBRANCH  24  25
ENDBRANCH   1  24
TORSDOF 16
