REMARK SMILES CC[NH2+][C@@]1(C(=O)OCCOCCOC(=O)c2ccc(-c3c4nc(c(-c5c(F)c(F)c(F)c(F)c5F)c5ccc([nH]5)c(-c5c(F)c(F)c(F)c(F)c5F)c5nc(c(-c6c(F)c(F)c(F)c(F)c6F)c6ccc3[nH]6)C=C5)C=C4)cc2)CCC[C@@H]([N@@H+](C)[C@@H](C)C2CC2)C1
REMARK SMILES IDX 9 1 8 2 7 3 5 4 6 5 4 6 79 7 90 8 80 9 82 10 81 11 3 12 2 15
REMARK SMILES IDX 1 16 83 17 84 18 85 20 86 21 87 22 88 23 89 24 10 25 11 26
REMARK SMILES IDX 12 27 13 28 14 29 15 30 16 31 17 32 78 33 18 34 77 35 19 36
REMARK SMILES IDX 20 37 21 38 71 39 22 40 76 41 70 42 72 43 23 44 75 45 69 46
REMARK SMILES IDX 68 47 24 49 56 50 36 51 55 52 37 53 40 54 54 55 73 56 38 57
REMARK SMILES IDX 39 58 53 60 74 61 41 62 25 63 26 64 34 65 27 66 28 67 32 68
REMARK SMILES IDX 35 69 29 70 30 71 33 72 31 73 57 74 58 75 66 76 59 77 60 78
REMARK SMILES IDX 64 79 67 80 61 81 62 82 65 83 63 84 42 85 43 86 51 87 44 88
REMARK SMILES IDX 45 89 49 90 52 91 46 92 47 93 50 94 48 95
REMARK H PARENT 3 13 3 14 83 19 72 48 40 59
REMARK Flexibility Score: inf
ROOT
ATOM      1  C   UNL     1      -2.267  -3.811  -2.843  1.00  0.00     0.202 C 
ENDROOT
BRANCH   1   2
ATOM      2  C   UNL     1      -0.922  -4.516  -2.674  1.00  0.00     0.261 C 
BRANCH   2   3
ATOM      3  O   UNL     1      -0.490  -4.529  -1.301  1.00  0.00    -0.459 OA
BRANCH   3   4
ATOM      4  C   UNL     1       0.760  -4.041  -1.105  1.00  0.00     0.368 C 
ATOM      5  O   UNL     1       1.533  -3.743  -2.016  1.00  0.00    -0.245 OA
BRANCH   4   6
ATOM      6  C   UNL     1       1.177  -3.909   0.386  1.00  0.00     0.200 C 
ATOM      7  C   UNL     1       2.179  -5.058   0.626  1.00  0.00     0.081 C 
ATOM      8  C   UNL     1       0.139  -3.969   1.518  1.00  0.00     0.146 C 
ATOM      9  C   UNL     1       1.461  -6.413   0.637  1.00  0.00     0.013 C 
ATOM     10  C   UNL     1      -0.514  -5.313   1.858  1.00  0.00     0.190 C 
ATOM     11  C   UNL     1       0.450  -6.507   1.778  1.00  0.00     0.065 C 
BRANCH   6  12
ATOM     12  N   UNL     1       1.888  -2.580   0.530  1.00  0.00    -0.332 N 
ATOM     13  H   UNL     1       2.186  -2.475   1.500  1.00  0.00     0.347 HD
ATOM     14  H   UNL     1       2.678  -2.587  -0.115  1.00  0.00     0.347 HD
BRANCH  12  15
ATOM     15  C   UNL     1       1.040  -1.427   0.173  1.00  0.00     0.257 C 
ATOM     16  C   UNL     1       1.718  -0.110   0.514  1.00  0.00     0.071 C 
ENDBRANCH  12  15
ENDBRANCH   6  12
BRANCH  10  17
ATOM     17  N   UNL     1      -1.351  -5.194   3.090  1.00  0.00    -0.332 N 
ATOM     18  C   UNL     1      -2.398  -6.226   3.104  1.00  0.00     0.333 C 
ATOM     19  H   UNL     1      -1.690  -4.242   2.952  1.00  0.00     0.348 HD
BRANCH  17  20
ATOM     20  C   UNL     1      -0.765  -5.045   4.448  1.00  0.00     0.184 C 
ATOM     21  C   UNL     1       0.065  -6.230   4.981  1.00  0.00     0.075 C 
BRANCH  20  22
ATOM     22  C   UNL     1      -0.049  -3.744   4.788  1.00  0.00     0.047 C 
ATOM     23  C   UNL     1      -0.293  -2.367   4.198  1.00  0.00     0.010 C 
ATOM     24  C   UNL     1      -0.822  -2.681   5.554  1.00  0.00     0.010 C 
ENDBRANCH  20  22
ENDBRANCH  17  20
ENDBRANCH  10  17
ENDBRANCH   4   6
ENDBRANCH   3   4
ENDBRANCH   2   3
ENDBRANCH   1   2
BRANCH   1  25
ATOM     25  O   UNL     1      -2.335  -2.449  -2.427  1.00  0.00    -0.374 OA
BRANCH  25  26
ATOM     26  C   UNL     1      -2.348  -2.191  -1.023  1.00  0.00     0.202 C 
BRANCH  26  27
ATOM     27  C   UNL     1      -3.638  -2.521  -0.262  1.00  0.00     0.261 C 
BRANCH  27  28
ATOM     28  O   UNL     1      -3.905  -3.935  -0.228  1.00  0.00    -0.460 OA
BRANCH  28  29
ATOM     29  C   UNL     1      -5.015  -4.322  -0.894  1.00  0.00     0.338 C 
ATOM     30  O   UNL     1      -5.844  -3.608  -1.447  1.00  0.00    -0.246 OA
BRANCH  29  31
ATOM     31  C   UNL     1      -5.017  -5.784  -1.054  1.00  0.00     0.060 A 
ATOM     32  C   UNL     1      -5.045  -6.296  -2.358  1.00  0.00     0.016 A 
ATOM     33  C   UNL     1      -5.082  -6.638   0.048  1.00  0.00     0.016 A 
ATOM     34  C   UNL     1      -5.186  -7.665  -2.566  1.00  0.00     0.010 A 
ATOM     35  C   UNL     1      -5.233  -8.011  -0.161  1.00  0.00     0.010 A 
ATOM     36  C   UNL     1      -5.329  -8.523  -1.468  1.00  0.00    -0.014 A 
BRANCH  36  37
ATOM     37  C   UNL     1      -5.780  -9.914  -1.699  1.00  0.00     0.031 A 
ATOM     38  C   UNL     1      -7.243 -10.227  -1.551  1.00  0.00     0.074 A 
ATOM     39  C   UNL     1      -4.915 -10.867  -2.086  1.00  0.00     0.049 A 
ATOM     40  N   UNL     1      -7.869 -11.368  -1.685  1.00  0.00    -0.248 NA
ATOM     41  C   UNL     1      -8.121  -9.097  -1.204  1.00  0.00     0.031 C 
ATOM     42  C   UNL     1      -3.486 -10.668  -2.312  1.00  0.00     0.029 A 
ATOM     43  N   UNL     1      -5.119 -12.197  -2.355  1.00  0.00    -0.354 N 
ATOM     44  C   UNL     1      -9.208 -11.094  -1.436  1.00  0.00     0.074 A 
ATOM     45  C   UNL     1      -9.302  -9.688  -1.112  1.00  0.00     0.031 C 
ATOM     46  C   UNL     1      -2.937 -11.838  -2.680  1.00  0.00     0.029 A 
ATOM     47  C   UNL     1      -3.971 -12.872  -2.684  1.00  0.00     0.049 A 
ATOM     48  H   UNL     1      -6.005 -12.625  -2.317  1.00  0.00     0.167 HD
ATOM     49  C   UNL     1     -10.264 -11.939  -1.484  1.00  0.00     0.037 A 
ATOM     50  C   UNL     1      -3.779 -14.181  -2.939  1.00  0.00     0.037 A 
ATOM     51  C   UNL     1     -10.165 -13.336  -1.810  1.00  0.00     0.049 A 
ATOM     52  C   UNL     1      -4.961 -15.116  -2.913  1.00  0.00     0.074 A 
ATOM     53  C   UNL     1     -11.176 -14.277  -1.896  1.00  0.00     0.029 A 
ATOM     54  N   UNL     1      -8.979 -13.994  -2.100  1.00  0.00    -0.354 N 
ATOM     55  N   UNL     1      -6.226 -14.848  -2.692  1.00  0.00    -0.248 NA
ATOM     56  C   UNL     1      -4.688 -16.536  -3.175  1.00  0.00     0.031 C 
ATOM     57  C   UNL     1     -10.594 -15.515  -2.189  1.00  0.00     0.029 A 
ATOM     58  C   UNL     1      -9.228 -15.335  -2.339  1.00  0.00     0.049 A 
ATOM     59  H   UNL     1      -8.091 -13.570  -2.130  1.00  0.00     0.167 HD
ATOM     60  C   UNL     1      -6.901 -16.055  -2.816  1.00  0.00     0.074 A 
ATOM     61  C   UNL     1      -5.907 -17.056  -3.144  1.00  0.00     0.031 C 
ATOM     62  C   UNL     1      -8.225 -16.314  -2.673  1.00  0.00     0.037 A 
BRANCH  49  63
ATOM     63  C   UNL     1     -11.615 -11.377  -1.147  1.00  0.00     0.064 A 
ATOM     64  C   UNL     1     -12.287 -10.500  -2.011  1.00  0.00     0.173 A 
ATOM     65  C   UNL     1     -12.255 -11.742   0.047  1.00  0.00     0.173 A 
ATOM     66  F   UNL     1     -11.710 -10.107  -3.157  1.00  0.00    -0.203 F 
ATOM     67  C   UNL     1     -13.539  -9.988  -1.680  1.00  0.00     0.198 A 
ATOM     68  C   UNL     1     -13.519 -11.251   0.362  1.00  0.00     0.198 A 
ATOM     69  F   UNL     1     -11.656 -12.579   0.908  1.00  0.00    -0.203 F 
ATOM     70  F   UNL     1     -14.142  -9.114  -2.498  1.00  0.00    -0.200 F 
ATOM     71  C   UNL     1     -14.157 -10.369  -0.498  1.00  0.00     0.200 A 
ATOM     72  F   UNL     1     -14.119 -11.628   1.499  1.00  0.00    -0.200 F 
ATOM     73  F   UNL     1     -15.364  -9.880  -0.183  1.00  0.00    -0.200 F 
ENDBRANCH  49  63
BRANCH  50  74
ATOM     74  C   UNL     1      -2.413 -14.689  -3.228  1.00  0.00     0.064 A 
ATOM     75  C   UNL     1      -2.073 -15.174  -4.498  1.00  0.00     0.173 A 
ATOM     76  C   UNL     1      -1.424 -14.717  -2.233  1.00  0.00     0.173 A 
ATOM     77  F   UNL     1      -2.991 -15.192  -5.475  1.00  0.00    -0.203 F 
ATOM     78  C   UNL     1      -0.801 -15.682  -4.758  1.00  0.00     0.198 A 
ATOM     79  C   UNL     1      -0.145 -15.198  -2.502  1.00  0.00     0.198 A 
ATOM     80  F   UNL     1      -1.699 -14.267  -1.000  1.00  0.00    -0.203 F 
ATOM     81  F   UNL     1      -0.517 -16.181  -5.969  1.00  0.00    -0.200 F 
ATOM     82  C   UNL     1       0.163 -15.688  -3.762  1.00  0.00     0.200 A 
ATOM     83  F   UNL     1       0.787 -15.192  -1.539  1.00  0.00    -0.200 F 
ATOM     84  F   UNL     1       1.386 -16.174  -4.013  1.00  0.00    -0.200 F 
ENDBRANCH  50  74
BRANCH  62  85
ATOM     85  C   UNL     1      -8.682 -17.724  -2.907  1.00  0.00     0.064 A 
ATOM     86  C   UNL     1      -8.405 -18.750  -1.993  1.00  0.00     0.173 A 
ATOM     87  C   UNL     1      -9.447 -18.042  -4.040  1.00  0.00     0.173 A 
ATOM     88  F   UNL     1      -7.665 -18.500  -0.902  1.00  0.00    -0.203 F 
ATOM     89  C   UNL     1      -8.856 -20.048  -2.216  1.00  0.00     0.198 A 
ATOM     90  C   UNL     1      -9.923 -19.334  -4.244  1.00  0.00     0.198 A 
ATOM     91  F   UNL     1      -9.748 -17.095  -4.941  1.00  0.00    -0.203 F 
ATOM     92  F   UNL     1      -8.540 -21.023  -1.352  1.00  0.00    -0.200 F 
ATOM     93  C   UNL     1      -9.621 -20.337  -3.336  1.00  0.00     0.200 A 
ATOM     94  F   UNL     1     -10.674 -19.608  -5.320  1.00  0.00    -0.200 F 
ATOM     95  F   UNL     1     -10.061 -21.586  -3.545  1.00  0.00    -0.200 F 
ENDBRANCH  62  85
ENDBRANCH  36  37
ENDBRANCH  29  31
ENDBRANCH  28  29
ENDBRANCH  27  28
ENDBRANCH  26  27
ENDBRANCH  25  26
ENDBRANCH   1  25
TORSDOF 19
