REMARK SMILES O=C(OCCOCCOC(=O)[C@]1(CCc2cccnc2)CCC[NH2+]C1)c1ccc(-c2c3nc(c(-c4c(F)c(F)c(F)c(F)c4F)c4ccc([nH]4)c(-c4c(F)c(F)c(F)c(F)c4F)c4nc(c(-c5c(F)c(F)c(F)c(F)c5F)c5ccc2[nH]5)C=C4)C=C3)cc1
REMARK SMILES IDX 7 1 6 2 5 3 4 4 3 5 2 6 1 7 26 8 27 9 88 10 28 11 87 12
REMARK SMILES IDX 29 13 30 14 31 15 81 16 32 17 86 18 80 19 82 20 33 21 85 22
REMARK SMILES IDX 79 23 78 24 34 26 66 27 46 28 65 29 47 30 50 31 64 32 83 33
REMARK SMILES IDX 48 34 49 35 63 37 84 38 51 39 35 40 36 41 44 42 37 43 38 44
REMARK SMILES IDX 42 45 45 46 39 47 40 48 43 49 41 50 67 51 68 52 76 53 69 54
REMARK SMILES IDX 70 55 74 56 77 57 71 58 72 59 75 60 73 61 52 62 53 63 61 64
REMARK SMILES IDX 54 65 55 66 59 67 62 68 56 69 57 70 60 71 58 72 8 73 9 74
REMARK SMILES IDX 10 75 11 76 12 77 21 78 25 79 22 80 24 81 23 82 13 85 14 86
REMARK SMILES IDX 15 87 16 88 20 89 17 90 19 91 18 92
REMARK H PARENT 82 25 50 36 24 83 24 84
REMARK Flexibility Score: inf
ROOT
ATOM      1  C   UNL     1       3.295   2.261  -0.732  1.00  0.00     0.202 C 
ENDROOT
BRANCH   1   2
ATOM      2  O   UNL     1       4.443   1.459  -0.453  1.00  0.00    -0.374 OA
BRANCH   2   3
ATOM      3  C   UNL     1       4.450   0.153  -1.033  1.00  0.00     0.202 C 
BRANCH   3   4
ATOM      4  C   UNL     1       3.889  -1.013  -0.203  1.00  0.00     0.261 C 
BRANCH   4   5
ATOM      5  O   UNL     1       2.472  -0.850   0.039  1.00  0.00    -0.460 OA
BRANCH   5   6
ATOM      6  C   UNL     1       1.866  -0.783   1.254  1.00  0.00     0.338 C 
ATOM      7  O   UNL     1       0.705  -1.169   1.380  1.00  0.00    -0.246 OA
BRANCH   6   8
ATOM      8  C   UNL     1       2.553  -0.160   2.421  1.00  0.00     0.060 A 
ATOM      9  C   UNL     1       3.710   0.576   2.259  1.00  0.00     0.016 A 
ATOM     10  C   UNL     1       2.032  -0.247   3.716  1.00  0.00     0.016 A 
ATOM     11  C   UNL     1       4.407   1.145   3.285  1.00  0.00     0.010 A 
ATOM     12  C   UNL     1       2.699   0.374   4.790  1.00  0.00     0.010 A 
ATOM     13  C   UNL     1       3.900   1.064   4.565  1.00  0.00    -0.014 A 
BRANCH  13  14
ATOM     14  C   UNL     1       4.825   1.561   5.590  1.00  0.00     0.031 A 
ATOM     15  C   UNL     1       5.637   0.545   6.327  1.00  0.00     0.074 A 
ATOM     16  C   UNL     1       5.168   2.865   5.582  1.00  0.00     0.049 A 
ATOM     17  N   UNL     1       6.526   0.717   7.264  1.00  0.00    -0.248 NA
ATOM     18  C   UNL     1       5.446  -0.862   5.926  1.00  0.00     0.031 C 
ATOM     19  C   UNL     1       4.617   3.876   4.668  1.00  0.00     0.029 A 
ATOM     20  N   UNL     1       6.123   3.544   6.284  1.00  0.00    -0.354 N 
ATOM     21  C   UNL     1       6.945  -0.557   7.612  1.00  0.00     0.074 A 
ATOM     22  C   UNL     1       6.253  -1.495   6.761  1.00  0.00     0.031 C 
ATOM     23  C   UNL     1       5.285   5.028   4.832  1.00  0.00     0.029 A 
ATOM     24  C   UNL     1       6.222   4.869   5.934  1.00  0.00     0.049 A 
ATOM     25  H   UNL     1       6.686   3.125   6.974  1.00  0.00     0.167 HD
ATOM     26  C   UNL     1       7.811  -0.896   8.593  1.00  0.00     0.037 A 
ATOM     27  C   UNL     1       6.959   5.847   6.491  1.00  0.00     0.037 A 
ATOM     28  C   UNL     1       8.491   0.082   9.394  1.00  0.00     0.049 A 
ATOM     29  C   UNL     1       7.810   5.467   7.671  1.00  0.00     0.074 A 
ATOM     30  C   UNL     1       9.284  -0.098  10.508  1.00  0.00     0.029 A 
ATOM     31  N   UNL     1       8.457   1.449   9.136  1.00  0.00    -0.354 N 
ATOM     32  N   UNL     1       8.064   4.272   8.153  1.00  0.00    -0.248 NA
ATOM     33  C   UNL     1       8.438   6.563   8.415  1.00  0.00     0.031 C 
ATOM     34  C   UNL     1       9.697   1.166  10.949  1.00  0.00     0.029 A 
ATOM     35  C   UNL     1       9.202   2.129  10.080  1.00  0.00     0.049 A 
ATOM     36  H   UNL     1       7.973   1.870   8.389  1.00  0.00     0.167 HD
ATOM     37  C   UNL     1       8.884   4.468   9.252  1.00  0.00     0.074 A 
ATOM     38  C   UNL     1       9.105   5.900   9.348  1.00  0.00     0.031 C 
ATOM     39  C   UNL     1       9.398   3.557  10.116  1.00  0.00     0.037 A 
BRANCH  26  40
ATOM     40  C   UNL     1       7.924  -2.355   8.912  1.00  0.00     0.064 A 
ATOM     41  C   UNL     1       8.592  -3.261   8.076  1.00  0.00     0.173 A 
ATOM     42  C   UNL     1       7.256  -2.867  10.035  1.00  0.00     0.173 A 
ATOM     43  F   UNL     1       9.206  -2.829   6.965  1.00  0.00    -0.203 F 
ATOM     44  C   UNL     1       8.557  -4.631   8.336  1.00  0.00     0.198 A 
ATOM     45  C   UNL     1       7.244  -4.232  10.305  1.00  0.00     0.198 A 
ATOM     46  F   UNL     1       6.584  -2.044  10.855  1.00  0.00    -0.203 F 
ATOM     47  F   UNL     1       9.139  -5.488   7.484  1.00  0.00    -0.200 F 
ATOM     48  C   UNL     1       7.884  -5.114   9.449  1.00  0.00     0.200 A 
ATOM     49  F   UNL     1       6.587  -4.696  11.377  1.00  0.00    -0.200 F 
ATOM     50  F   UNL     1       7.832  -6.433   9.683  1.00  0.00    -0.200 F 
ENDBRANCH  26  40
BRANCH  27  51
ATOM     51  C   UNL     1       6.841   7.256   6.023  1.00  0.00     0.064 A 
ATOM     52  C   UNL     1       7.944   7.955   5.516  1.00  0.00     0.173 A 
ATOM     53  C   UNL     1       5.619   7.947   6.096  1.00  0.00     0.173 A 
ATOM     54  F   UNL     1       9.143   7.357   5.448  1.00  0.00    -0.203 F 
ATOM     55  C   UNL     1       7.834   9.286   5.112  1.00  0.00     0.198 A 
ATOM     56  C   UNL     1       5.501   9.265   5.661  1.00  0.00     0.198 A 
ATOM     57  F   UNL     1       4.529   7.338   6.587  1.00  0.00    -0.203 F 
ATOM     58  F   UNL     1       8.917   9.945   4.676  1.00  0.00    -0.200 F 
ATOM     59  C   UNL     1       6.611   9.938   5.177  1.00  0.00     0.200 A 
ATOM     60  F   UNL     1       4.314   9.884   5.718  1.00  0.00    -0.200 F 
ATOM     61  F   UNL     1       6.505  11.216   4.788  1.00  0.00    -0.200 F 
ENDBRANCH  27  51
BRANCH  39  62
ATOM     62  C   UNL     1      10.274   4.092  11.204  1.00  0.00     0.064 A 
ATOM     63  C   UNL     1       9.737   4.764  12.310  1.00  0.00     0.173 A 
ATOM     64  C   UNL     1      11.659   3.885  11.156  1.00  0.00     0.173 A 
ATOM     65  F   UNL     1       8.418   4.998  12.384  1.00  0.00    -0.203 F 
ATOM     66  C   UNL     1      10.564   5.232  13.325  1.00  0.00     0.198 A 
ATOM     67  C   UNL     1      12.479   4.329  12.186  1.00  0.00     0.198 A 
ATOM     68  F   UNL     1      12.212   3.241  10.117  1.00  0.00    -0.203 F 
ATOM     69  F   UNL     1      10.040   5.910  14.354  1.00  0.00    -0.200 F 
ATOM     70  C   UNL     1      11.932   5.006  13.266  1.00  0.00     0.200 A 
ATOM     71  F   UNL     1      13.799   4.101  12.135  1.00  0.00    -0.200 F 
ATOM     72  F   UNL     1      12.727   5.449  14.250  1.00  0.00    -0.200 F 
ENDBRANCH  39  62
ENDBRANCH  13  14
ENDBRANCH   6   8
ENDBRANCH   5   6
ENDBRANCH   4   5
ENDBRANCH   3   4
ENDBRANCH   2   3
ENDBRANCH   1   2
BRANCH   1  73
ATOM     73  C   UNL     1       3.606   3.317  -1.790  1.00  0.00     0.261 C 
BRANCH  73  74
ATOM     74  O   UNL     1       3.828   2.694  -3.066  1.00  0.00    -0.463 OA
BRANCH  74  75
ATOM     75  C   UNL     1       5.064   2.190  -3.294  1.00  0.00     0.317 C 
ATOM     76  O   UNL     1       6.016   2.388  -2.541  1.00  0.00    -0.251 OA
BRANCH  75  77
ATOM     77  C   UNL     1       5.106   1.323  -4.571  1.00  0.00     0.117 C 
ATOM     78  C   UNL     1       5.397  -0.175  -4.306  1.00  0.00     0.030 C 
ATOM     79  C   UNL     1       6.302   1.874  -5.402  1.00  0.00     0.279 C 
ATOM     80  C   UNL     1       6.787  -0.447  -3.731  1.00  0.00     0.063 C 
ATOM     81  N   UNL     1       7.614   1.629  -4.797  1.00  0.00    -0.345 N 
ATOM     82  C   UNL     1       7.893   0.226  -4.530  1.00  0.00     0.260 C 
ATOM     83  H   UNL     1       8.330   1.984  -5.430  1.00  0.00     0.346 HD
ATOM     84  H   UNL     1       7.615   2.106  -3.895  1.00  0.00     0.346 HD
BRANCH  77  85
ATOM     85  C   UNL     1       3.781   1.472  -5.416  1.00  0.00     0.029 C 
BRANCH  85  86
ATOM     86  C   UNL     1       2.520   0.641  -5.025  1.00  0.00     0.038 C 
BRANCH  86  87
ATOM     87  C   UNL     1       1.552   1.146  -3.981  1.00  0.00    -0.030 A 
ATOM     88  C   UNL     1       1.049   0.296  -2.987  1.00  0.00     0.007 A 
ATOM     89  C   UNL     1       1.033   2.439  -4.005  1.00  0.00     0.114 A 
ATOM     90  C   UNL     1       0.116   0.765  -2.060  1.00  0.00     0.020 A 
ATOM     91  N   UNL     1       0.143   2.931  -3.107  1.00  0.00    -0.264 NA
ATOM     92  C   UNL     1      -0.297   2.082  -2.155  1.00  0.00     0.111 A 
ENDBRANCH  86  87
ENDBRANCH  85  86
ENDBRANCH  77  85
ENDBRANCH  75  77
ENDBRANCH  74  75
ENDBRANCH  73  74
ENDBRANCH   1  73
TORSDOF 17
