REMARK SMILES O=C(OCCOCCOC(=O)c1ccccc1/N=C/c1coc2ccccc2c1=O)c1ccc(-c2c3nc(c(-c4c(F)c(F)c(F)c(F)c4F)c4ccc([nH]4)c(-c4c(F)c(F)c(F)c(F)c4F)c4nc(c(-c5c(F)c(F)c(F)c(F)c5F)c5ccc2[nH]5)C=C4)C=C3)cc1
REMARK SMILES IDX 6 1 5 2 4 3 3 4 2 5 1 6 31 7 32 8 93 9 33 10 92 11 34 12
REMARK SMILES IDX 35 13 36 14 86 15 37 16 91 17 85 18 87 19 38 20 90 21 84 22
REMARK SMILES IDX 83 23 39 25 71 26 51 27 70 28 52 29 55 30 69 31 88 32 53 33
REMARK SMILES IDX 54 34 68 36 89 37 56 38 40 39 41 40 49 41 42 42 43 43 47 44
REMARK SMILES IDX 50 45 44 46 45 47 48 48 46 49 72 50 73 51 81 52 74 53 75 54
REMARK SMILES IDX 79 55 82 56 76 57 77 58 80 59 78 60 57 61 58 62 66 63 59 64
REMARK SMILES IDX 60 65 64 66 67 67 61 68 62 69 65 70 63 71 7 72 8 73 9 74
REMARK SMILES IDX 10 75 11 76 12 77 13 78 17 79 14 80 16 81 15 82 18 83 19 84
REMARK SMILES IDX 20 85 21 86 29 87 22 88 28 89 30 90 23 91 27 92 24 93 26 94
REMARK SMILES IDX 25 95
REMARK H PARENT 87 24 55 35
REMARK Flexibility Score: inf
ROOT
ATOM      1  O   UNL     1       4.270   1.041  -0.787  1.00  0.00    -0.374 OA
ENDROOT
BRANCH   1   2
ATOM      2  C   UNL     1       4.219   0.013  -1.770  1.00  0.00     0.202 C 
BRANCH   2   3
ATOM      3  C   UNL     1       3.844  -1.352  -1.186  1.00  0.00     0.261 C 
BRANCH   3   4
ATOM      4  O   UNL     1       2.464  -1.345  -0.768  1.00  0.00    -0.460 OA
BRANCH   4   5
ATOM      5  C   UNL     1       1.953  -1.513   0.473  1.00  0.00     0.338 C 
ATOM      6  O   UNL     1       0.751  -1.736   0.600  1.00  0.00    -0.246 OA
BRANCH   5   7
ATOM      7  C   UNL     1       2.777  -1.416   1.713  1.00  0.00     0.060 A 
ATOM      8  C   UNL     1       3.938  -0.653   1.828  1.00  0.00     0.016 A 
ATOM      9  C   UNL     1       2.292  -2.057   2.865  1.00  0.00     0.016 A 
ATOM     10  C   UNL     1       4.647  -0.579   3.017  1.00  0.00     0.010 A 
ATOM     11  C   UNL     1       2.978  -1.961   4.080  1.00  0.00     0.010 A 
ATOM     12  C   UNL     1       4.173  -1.236   4.148  1.00  0.00    -0.014 A 
BRANCH  12  13
ATOM     13  C   UNL     1       5.030  -1.248   5.346  1.00  0.00     0.031 A 
ATOM     14  C   UNL     1       5.816  -2.489   5.635  1.00  0.00     0.074 A 
ATOM     15  C   UNL     1       5.206  -0.120   6.054  1.00  0.00     0.049 A 
ATOM     16  N   UNL     1       6.588  -2.766   6.650  1.00  0.00    -0.248 NA
ATOM     17  C   UNL     1       5.731  -3.561   4.628  1.00  0.00     0.031 C 
ATOM     18  C   UNL     1       4.590   1.172   5.745  1.00  0.00     0.029 A 
ATOM     19  N   UNL     1       5.980   0.134   7.154  1.00  0.00    -0.354 N 
ATOM     20  C   UNL     1       7.055  -4.052   6.420  1.00  0.00     0.074 A 
ATOM     21  C   UNL     1       6.485  -4.504   5.171  1.00  0.00     0.031 C 
ATOM     22  C   UNL     1       5.033   2.090   6.620  1.00  0.00     0.029 A 
ATOM     23  C   UNL     1       5.901   1.434   7.592  1.00  0.00     0.049 A 
ATOM     24  H   UNL     1       6.540  -0.549   7.590  1.00  0.00     0.167 HD
ATOM     25  C   UNL     1       7.882  -4.787   7.198  1.00  0.00     0.037 A 
ATOM     26  C   UNL     1       6.445   2.006   8.682  1.00  0.00     0.037 A 
ATOM     27  C   UNL     1       8.427  -4.304   8.437  1.00  0.00     0.049 A 
ATOM     28  C   UNL     1       7.281   1.137   9.585  1.00  0.00     0.074 A 
ATOM     29  C   UNL     1       9.184  -4.975   9.377  1.00  0.00     0.029 A 
ATOM     30  N   UNL     1       8.268  -3.002   8.899  1.00  0.00    -0.354 N 
ATOM     31  N   UNL     1       7.633  -0.118   9.429  1.00  0.00    -0.248 NA
ATOM     32  C   UNL     1       7.775   1.750  10.823  1.00  0.00     0.031 C 
ATOM     33  C   UNL     1       9.456  -4.087  10.425  1.00  0.00     0.029 A 
ATOM     34  C   UNL     1       8.907  -2.850  10.116  1.00  0.00     0.049 A 
ATOM     35  H   UNL     1       7.773  -2.293   8.429  1.00  0.00     0.167 HD
ATOM     36  C   UNL     1       8.396  -0.444  10.541  1.00  0.00     0.074 A 
ATOM     37  C   UNL     1       8.477   0.757  11.350  1.00  0.00     0.031 C 
ATOM     38  C   UNL     1       8.968  -1.627  10.876  1.00  0.00     0.037 A 
BRANCH  25  39
ATOM     39  C   UNL     1       8.157  -6.193   6.757  1.00  0.00     0.064 A 
ATOM     40  C   UNL     1       8.972  -6.478   5.651  1.00  0.00     0.173 A 
ATOM     41  C   UNL     1       7.543  -7.270   7.414  1.00  0.00     0.173 A 
ATOM     42  F   UNL     1       9.556  -5.482   4.967  1.00  0.00    -0.203 F 
ATOM     43  C   UNL     1       9.133  -7.786   5.198  1.00  0.00     0.198 A 
ATOM     44  C   UNL     1       7.726  -8.578   6.974  1.00  0.00     0.198 A 
ATOM     45  F   UNL     1       6.746  -7.051   8.470  1.00  0.00    -0.203 F 
ATOM     46  F   UNL     1       9.861  -8.029   4.099  1.00  0.00    -0.200 F 
ATOM     47  C   UNL     1       8.511  -8.835   5.860  1.00  0.00     0.200 A 
ATOM     48  F   UNL     1       7.124  -9.589   7.615  1.00  0.00    -0.200 F 
ATOM     49  F   UNL     1       8.653 -10.090   5.414  1.00  0.00    -0.200 F 
ENDBRANCH  25  39
BRANCH  26  50
ATOM     50  C   UNL     1       6.170   3.433   9.006  1.00  0.00     0.064 A 
ATOM     51  C   UNL     1       7.198   4.386   9.043  1.00  0.00     0.173 A 
ATOM     52  C   UNL     1       4.871   3.873   9.309  1.00  0.00     0.173 A 
ATOM     53  F   UNL     1       8.462   4.018   8.788  1.00  0.00    -0.203 F 
ATOM     54  C   UNL     1       6.941   5.713   9.386  1.00  0.00     0.198 A 
ATOM     55  C   UNL     1       4.610   5.206   9.619  1.00  0.00     0.198 A 
ATOM     56  F   UNL     1       3.847   3.006   9.298  1.00  0.00    -0.203 F 
ATOM     57  F   UNL     1       7.951   6.591   9.464  1.00  0.00    -0.200 F 
ATOM     58  C   UNL     1       5.646   6.124   9.667  1.00  0.00     0.200 A 
ATOM     59  F   UNL     1       3.355   5.598   9.877  1.00  0.00    -0.200 F 
ATOM     60  F   UNL     1       5.400   7.399   9.996  1.00  0.00    -0.200 F 
ENDBRANCH  26  50
BRANCH  38  61
ATOM     61  C   UNL     1       9.749  -1.658  12.153  1.00  0.00     0.064 A 
ATOM     62  C   UNL     1       9.109  -1.666  13.401  1.00  0.00     0.173 A 
ATOM     63  C   UNL     1      11.149  -1.731  12.123  1.00  0.00     0.173 A 
ATOM     64  F   UNL     1       7.772  -1.581  13.475  1.00  0.00    -0.203 F 
ATOM     65  C   UNL     1       9.848  -1.725  14.578  1.00  0.00     0.198 A 
ATOM     66  C   UNL     1      11.882  -1.817  13.301  1.00  0.00     0.198 A 
ATOM     67  F   UNL     1      11.801  -1.732  10.951  1.00  0.00    -0.203 F 
ATOM     68  F   UNL     1       9.222  -1.689  15.762  1.00  0.00    -0.200 F 
ATOM     69  C   UNL     1      11.232  -1.808  14.527  1.00  0.00     0.200 A 
ATOM     70  F   UNL     1      13.218  -1.910  13.251  1.00  0.00    -0.200 F 
ATOM     71  F   UNL     1      11.942  -1.875  15.662  1.00  0.00    -0.200 F 
ENDBRANCH  38  61
ENDBRANCH  12  13
ENDBRANCH   5   7
ENDBRANCH   4   5
ENDBRANCH   3   4
ENDBRANCH   2   3
ENDBRANCH   1   2
BRANCH   1  72
ATOM     72  C   UNL     1       3.046   1.751  -0.560  1.00  0.00     0.202 C 
BRANCH  72  73
ATOM     73  C   UNL     1       3.347   2.940   0.365  1.00  0.00     0.261 C 
BRANCH  73  74
ATOM     74  O   UNL     1       4.200   3.883  -0.300  1.00  0.00    -0.460 OA
BRANCH  74  75
ATOM     75  C   UNL     1       5.477   3.471  -0.484  1.00  0.00     0.340 C 
ATOM     76  O   UNL     1       6.211   3.125   0.420  1.00  0.00    -0.246 OA
BRANCH  75  77
ATOM     77  C   UNL     1       5.851   3.423  -1.937  1.00  0.00     0.085 A 
ATOM     78  C   UNL     1       7.049   2.734  -2.222  1.00  0.00     0.018 A 
ATOM     79  C   UNL     1       5.044   3.865  -3.007  1.00  0.00     0.077 A 
ATOM     80  C   UNL     1       7.444   2.479  -3.537  1.00  0.00     0.001 A 
ATOM     81  C   UNL     1       5.488   3.638  -4.324  1.00  0.00     0.029 A 
ATOM     82  C   UNL     1       6.670   2.946  -4.590  1.00  0.00     0.002 A 
BRANCH  79  83
ATOM     83  N   UNL     1       3.709   4.277  -2.896  1.00  0.00    -0.255 NA
ATOM     84  C   UNL     1       3.364   5.333  -2.232  1.00  0.00     0.127 C 
BRANCH  84  85
ATOM     85  C   UNL     1       1.901   5.631  -2.030  1.00  0.00     0.076 A 
ATOM     86  C   UNL     1       1.650   6.948  -1.908  1.00  0.00     0.209 A 
ATOM     87  C   UNL     1       1.065   5.108  -3.156  1.00  0.00     0.201 A 
ATOM     88  O   UNL     1       1.640   7.792  -3.043  1.00  0.00    -0.463 OA
ATOM     89  C   UNL     1       1.435   5.800  -4.407  1.00  0.00     0.065 A 
ATOM     90  O   UNL     1       0.266   4.194  -3.060  1.00  0.00    -0.288 OA
ATOM     91  C   UNL     1       1.800   7.147  -4.257  1.00  0.00     0.137 A 
ATOM     92  C   UNL     1       1.748   5.085  -5.557  1.00  0.00     0.016 A 
ATOM     93  C   UNL     1       2.451   7.812  -5.282  1.00  0.00     0.048 A 
ATOM     94  C   UNL     1       2.462   5.739  -6.561  1.00  0.00     0.001 A 
ATOM     95  C   UNL     1       2.807   7.093  -6.426  1.00  0.00     0.004 A 
ENDBRANCH  84  85
ENDBRANCH  79  83
ENDBRANCH  75  77
ENDBRANCH  74  75
ENDBRANCH  73  74
ENDBRANCH  72  73
ENDBRANCH   1  72
TORSDOF 16
