REMARK SMILES Cc1cc(Br)cc2c1O[C@H](C(F)(F)F)C(C(=O)OCCOCCOC(=O)c1ccc(-c3c4nc(c(-c5c(F)c(F)c(F)c(F)c5F)c5ccc([nH]5)c(-c5c(F)c(F)c(F)c(F)c5F)c5nc(c(-c6c(F)c(F)c(F)c(F)c6F)c6ccc3[nH]6)C=C5)C=C4)cc1)=C2
REMARK SMILES IDX 22 1 21 2 20 3 19 4 18 5 16 6 17 7 15 8 1 9 2 10 3 11 8 12
REMARK SMILES IDX 4 13 7 14 9 15 5 16 6 17 90 18 10 19 11 20 12 21 13 22 14 23
REMARK SMILES IDX 23 24 24 25 25 26 26 27 27 28 28 29 89 30 29 31 88 32 30 33
REMARK SMILES IDX 31 34 32 35 82 36 33 37 87 38 81 39 83 40 34 41 86 42 80 43
REMARK SMILES IDX 79 44 35 46 67 47 47 48 66 49 48 50 51 51 65 52 84 53 49 54
REMARK SMILES IDX 50 55 64 57 85 58 52 59 36 60 37 61 45 62 38 63 39 64 43 65
REMARK SMILES IDX 46 66 40 67 41 68 44 69 42 70 68 71 69 72 77 73 70 74 71 75
REMARK SMILES IDX 75 76 78 77 72 78 73 79 76 80 74 81 53 82 54 83 62 84 55 85
REMARK SMILES IDX 56 86 60 87 63 88 57 89 58 90 61 91 59 92
REMARK H PARENT 83 45 51 56
REMARK Flexibility Score: inf
ROOT
ATOM      1  C   UNL     1      -2.146   2.581   6.899  1.00  0.00     0.202 C 
ENDROOT
BRANCH   1   2
ATOM      2  O   UNL     1      -3.480   2.874   7.321  1.00  0.00    -0.374 OA
BRANCH   2   3
ATOM      3  C   UNL     1      -4.433   1.814   7.296  1.00  0.00     0.202 C 
BRANCH   3   4
ATOM      4  C   UNL     1      -5.040   1.474   5.932  1.00  0.00     0.261 C 
BRANCH   4   5
ATOM      5  O   UNL     1      -4.027   1.155   4.964  1.00  0.00    -0.460 OA
BRANCH   5   6
ATOM      6  C   UNL     1      -3.925   2.040   3.946  1.00  0.00     0.338 C 
ATOM      7  O   UNL     1      -4.676   2.977   3.711  1.00  0.00    -0.246 OA
BRANCH   6   8
ATOM      8  C   UNL     1      -2.685   1.796   3.188  1.00  0.00     0.087 C 
ATOM      9  C   UNL     1       1.070  -0.072   0.204  1.00  0.00     0.048 C 
ATOM     10  C   UNL     1       0.660   1.276   0.729  1.00  0.00    -0.007 A 
ATOM     11  C   UNL     1       1.325   2.416   0.249  1.00  0.00     0.023 A 
ATOM     12  C   UNL     1      -0.422   1.435   1.611  1.00  0.00     0.130 A 
ATOM     13  C   UNL     1       0.936   3.687   0.667  1.00  0.00     0.019 A 
ATOM     14  C   UNL     1      -0.824   2.718   2.002  1.00  0.00     0.019 A 
ATOM     15  O   UNL     1      -1.040   0.299   2.057  1.00  0.00    -0.475 OA
ATOM     16  Br  UNL     1       1.842   5.212   0.013  1.00  0.00    -0.051 Br
ATOM     17  C   UNL     1      -0.133   3.844   1.543  1.00  0.00     0.027 A 
ATOM     18  C   UNL     1      -1.999   2.890   2.836  1.00  0.00     0.027 C 
ATOM     19  C   UNL     1      -2.266   0.398   2.834  1.00  0.00     0.316 C 
BRANCH  19  20
ATOM     20  C   UNL     1      -3.363  -0.381   2.093  1.00  0.00     0.430 C 
ATOM     21  F   UNL     1      -2.938  -1.622   1.753  1.00  0.00    -0.167 F 
ATOM     22  F   UNL     1      -4.466  -0.550   2.860  1.00  0.00    -0.167 F 
ATOM     23  F   UNL     1      -3.750   0.241   0.957  1.00  0.00    -0.167 F 
ENDBRANCH  19  20
ENDBRANCH   6   8
ENDBRANCH   5   6
ENDBRANCH   4   5
ENDBRANCH   3   4
ENDBRANCH   2   3
ENDBRANCH   1   2
BRANCH   1  24
ATOM     24  C   UNL     1      -1.296   1.720   7.842  1.00  0.00     0.261 C 
BRANCH  24  25
ATOM     25  O   UNL     1      -1.759   0.356   7.882  1.00  0.00    -0.460 OA
BRANCH  25  26
ATOM     26  C   UNL     1      -2.154  -0.076   9.101  1.00  0.00     0.338 C 
ATOM     27  O   UNL     1      -2.081   0.525  10.167  1.00  0.00    -0.246 OA
BRANCH  26  28
ATOM     28  C   UNL     1      -2.884  -1.347   8.972  1.00  0.00     0.060 A 
ATOM     29  C   UNL     1      -4.218  -1.377   9.399  1.00  0.00     0.016 A 
ATOM     30  C   UNL     1      -2.249  -2.510   8.534  1.00  0.00     0.016 A 
ATOM     31  C   UNL     1      -4.910  -2.584   9.431  1.00  0.00     0.010 A 
ATOM     32  C   UNL     1      -2.942  -3.725   8.581  1.00  0.00     0.010 A 
ATOM     33  C   UNL     1      -4.262  -3.771   9.064  1.00  0.00    -0.014 A 
BRANCH  33  34
ATOM     34  C   UNL     1      -4.920  -5.068   9.347  1.00  0.00     0.031 A 
ATOM     35  C   UNL     1      -4.584  -5.789  10.623  1.00  0.00     0.074 A 
ATOM     36  C   UNL     1      -5.849  -5.567   8.512  1.00  0.00     0.049 A 
ATOM     37  N   UNL     1      -5.047  -6.923  11.083  1.00  0.00    -0.248 NA
ATOM     38  C   UNL     1      -3.598  -5.140  11.502  1.00  0.00     0.031 C 
ATOM     39  C   UNL     1      -6.296  -4.932   7.275  1.00  0.00     0.029 A 
ATOM     40  N   UNL     1      -6.588  -6.721   8.588  1.00  0.00    -0.354 N 
ATOM     41  C   UNL     1      -4.420  -7.117  12.306  1.00  0.00     0.074 A 
ATOM     42  C   UNL     1      -3.514  -6.006  12.502  1.00  0.00     0.031 C 
ATOM     43  C   UNL     1      -7.238  -5.705   6.706  1.00  0.00     0.029 A 
ATOM     44  C   UNL     1      -7.438  -6.900   7.526  1.00  0.00     0.049 A 
ATOM     45  H   UNL     1      -6.514  -7.359   9.334  1.00  0.00     0.167 HD
ATOM     46  C   UNL     1      -4.596  -8.123  13.194  1.00  0.00     0.037 A 
ATOM     47  C   UNL     1      -8.273  -7.919   7.244  1.00  0.00     0.037 A 
ATOM     48  C   UNL     1      -5.494  -9.229  12.998  1.00  0.00     0.049 A 
ATOM     49  C   UNL     1      -8.372  -9.080   8.199  1.00  0.00     0.074 A 
ATOM     50  C   UNL     1      -5.748 -10.293  13.844  1.00  0.00     0.029 A 
ATOM     51  N   UNL     1      -6.279  -9.416  11.870  1.00  0.00    -0.354 N 
ATOM     52  N   UNL     1      -7.787  -9.249   9.360  1.00  0.00    -0.248 NA
ATOM     53  C   UNL     1      -9.243 -10.196   7.801  1.00  0.00     0.031 C 
ATOM     54  C   UNL     1      -6.652 -11.149  13.209  1.00  0.00     0.029 A 
ATOM     55  C   UNL     1      -6.996 -10.596  11.986  1.00  0.00     0.049 A 
ATOM     56  H   UNL     1      -6.322  -8.802  11.102  1.00  0.00     0.167 HD
ATOM     57  C   UNL     1      -8.228 -10.476   9.837  1.00  0.00     0.074 A 
ATOM     58  C   UNL     1      -9.145 -11.004   8.848  1.00  0.00     0.031 C 
ATOM     59  C   UNL     1      -7.901 -11.110  10.989  1.00  0.00     0.037 A 
BRANCH  46  60
ATOM     60  C   UNL     1      -3.795  -8.081  14.460  1.00  0.00     0.064 A 
ATOM     61  C   UNL     1      -4.096  -7.175  15.486  1.00  0.00     0.173 A 
ATOM     62  C   UNL     1      -2.750  -8.993  14.672  1.00  0.00     0.173 A 
ATOM     63  F   UNL     1      -5.078  -6.274  15.325  1.00  0.00    -0.203 F 
ATOM     64  C   UNL     1      -3.371  -7.173  16.675  1.00  0.00     0.198 A 
ATOM     65  C   UNL     1      -2.043  -9.004  15.871  1.00  0.00     0.198 A 
ATOM     66  F   UNL     1      -2.424  -9.882  13.722  1.00  0.00    -0.203 F 
ATOM     67  F   UNL     1      -3.655  -6.276  17.630  1.00  0.00    -0.200 F 
ATOM     68  C   UNL     1      -2.351  -8.092  16.870  1.00  0.00     0.200 A 
ATOM     69  F   UNL     1      -1.065  -9.900  16.062  1.00  0.00    -0.200 F 
ATOM     70  F   UNL     1      -1.662  -8.097  18.019  1.00  0.00    -0.200 F 
ENDBRANCH  46  60
BRANCH  47  71
ATOM     71  C   UNL     1      -9.082  -7.888   5.999  1.00  0.00     0.064 A 
ATOM     72  C   UNL     1     -10.473  -7.726   6.048  1.00  0.00     0.173 A 
ATOM     73  C   UNL     1      -8.483  -8.019   4.737  1.00  0.00     0.173 A 
ATOM     74  F   UNL     1     -11.094  -7.625   7.232  1.00  0.00    -0.203 F 
ATOM     75  C   UNL     1     -11.236  -7.702   4.881  1.00  0.00     0.198 A 
ATOM     76  C   UNL     1      -9.243  -7.970   3.571  1.00  0.00     0.198 A 
ATOM     77  F   UNL     1      -7.156  -8.182   4.638  1.00  0.00    -0.203 F 
ATOM     78  F   UNL     1     -12.568  -7.581   4.957  1.00  0.00    -0.200 F 
ATOM     79  C   UNL     1     -10.620  -7.817   3.644  1.00  0.00     0.200 A 
ATOM     80  F   UNL     1      -8.643  -8.073   2.378  1.00  0.00    -0.200 F 
ATOM     81  F   UNL     1     -11.352  -7.786   2.522  1.00  0.00    -0.200 F 
ENDBRANCH  47  71
BRANCH  59  82
ATOM     82  C   UNL     1      -8.530 -12.446  11.254  1.00  0.00     0.064 A 
ATOM     83  C   UNL     1      -8.116 -13.595  10.564  1.00  0.00     0.173 A 
ATOM     84  C   UNL     1      -9.492 -12.596  12.265  1.00  0.00     0.173 A 
ATOM     85  F   UNL     1      -7.208 -13.501   9.582  1.00  0.00    -0.203 F 
ATOM     86  C   UNL     1      -8.649 -14.844  10.871  1.00  0.00     0.198 A 
ATOM     87  C   UNL     1     -10.003 -13.850  12.587  1.00  0.00     0.198 A 
ATOM     88  F   UNL     1      -9.914 -11.529  12.960  1.00  0.00    -0.203 F 
ATOM     89  F   UNL     1      -8.259 -15.924  10.181  1.00  0.00    -0.200 F 
ATOM     90  C   UNL     1      -9.583 -14.972  11.889  1.00  0.00     0.200 A 
ATOM     91  F   UNL     1     -10.894 -13.974  13.580  1.00  0.00    -0.200 F 
ATOM     92  F   UNL     1     -10.080 -16.178  12.195  1.00  0.00    -0.200 F 
ENDBRANCH  59  82
ENDBRANCH  33  34
ENDBRANCH  26  28
ENDBRANCH  25  26
ENDBRANCH  24  25
ENDBRANCH   1  24
TORSDOF 15
