REMARK SMILES Cc1cc(SC[C@H]([NH3+])C(=O)OCCOCCOC(=O)c2ccc(-c3c4nc(c(-c5c(F)c(F)c(F)c(F)c5F)c5ccc([nH]5)c(-c5c(F)c(F)c(F)c(F)c5F)c5nc(c(-c6c(F)c(F)c(F)c(F)c6F)c6ccc3[nH]6)C=C5)C=C4)cc2)ccc1N
REMARK SMILES IDX 13 1 12 2 11 3 9 4 10 5 7 6 6 7 5 8 4 9 1 10 2 11 3 12 85 13
REMARK SMILES IDX 84 14 83 15 86 16 8 19 14 23 15 24 16 25 17 26 18 27 19 28
REMARK SMILES IDX 20 29 21 30 82 31 22 32 81 33 23 34 24 35 25 36 75 37 26 38
REMARK SMILES IDX 80 39 74 40 76 41 27 42 79 43 73 44 72 45 28 47 60 48 40 49
REMARK SMILES IDX 59 50 41 51 44 52 58 53 77 54 42 55 43 56 57 58 78 59 45 60
REMARK SMILES IDX 29 61 30 62 38 63 31 64 32 65 36 66 39 67 33 68 34 69 37 70
REMARK SMILES IDX 35 71 61 72 62 73 70 74 63 75 64 76 68 77 71 78 65 79 66 80
REMARK SMILES IDX 69 81 67 82 46 83 47 84 55 85 48 86 49 87 53 88 56 89 50 90
REMARK SMILES IDX 51 91 54 92 52 93
REMARK H PARENT 86 17 86 18 8 20 8 21 8 22 76 46 44 57
REMARK Flexibility Score: inf
ROOT
ATOM      1  C   UNL     1      -3.064   7.480   0.795  1.00  0.00     0.202 C 
ENDROOT
BRANCH   1   2
ATOM      2  C   UNL     1      -2.311   6.488  -0.093  1.00  0.00     0.261 C 
BRANCH   2   3
ATOM      3  O   UNL     1      -2.076   5.144   0.337  1.00  0.00    -0.459 OA
BRANCH   3   4
ATOM      4  C   UNL     1      -2.119   4.740   1.628  1.00  0.00     0.365 C 
ATOM      5  O   UNL     1      -2.497   5.389   2.590  1.00  0.00    -0.245 OA
BRANCH   4   6
ATOM      6  C   UNL     1      -1.609   3.305   1.711  1.00  0.00     0.302 C 
BRANCH   6   7
ATOM      7  C   UNL     1      -0.102   3.293   1.396  1.00  0.00     0.152 C 
BRANCH   7   8
ATOM      8  S   UNL     1       1.000   4.012   2.686  1.00  0.00    -0.119 SA
BRANCH   8   9
ATOM      9  C   UNL     1       0.820   5.790   2.546  1.00  0.00     0.008 A 
ATOM     10  C   UNL     1       0.540   8.659   0.023  1.00  0.00     0.046 C 
ATOM     11  C   UNL     1       0.622   7.917   1.333  1.00  0.00    -0.027 A 
ATOM     12  C   UNL     1       0.774   6.506   1.345  1.00  0.00     0.020 A 
ATOM     13  C   UNL     1       0.517   8.616   2.547  1.00  0.00     0.034 A 
ATOM     14  C   UNL     1       0.671   7.907   3.739  1.00  0.00     0.027 A 
ATOM     15  C   UNL     1       0.806   6.514   3.740  1.00  0.00     0.017 A 
BRANCH  13  16
ATOM     16  N   UNL     1       0.398  10.000   2.595  1.00  0.00    -0.399 N 
ATOM     17  H   UNL     1       0.288  10.514   1.762  1.00  0.00     0.156 HD
ATOM     18  H   UNL     1       0.424  10.467   3.461  1.00  0.00     0.156 HD
ENDBRANCH  13  16
ENDBRANCH   8   9
ENDBRANCH   7   8
ENDBRANCH   6   7
BRANCH   6  19
ATOM     19  N   UNL     1      -2.352   2.453   0.732  1.00  0.00    -0.345 N 
ATOM     20  H   UNL     1      -2.209   2.816  -0.211  1.00  0.00     0.345 HD
ATOM     21  H   UNL     1      -3.347   2.468   0.955  1.00  0.00     0.345 HD
ATOM     22  H   UNL     1      -2.006   1.495   0.784  1.00  0.00     0.345 HD
ENDBRANCH   6  19
ENDBRANCH   4   6
ENDBRANCH   3   4
ENDBRANCH   2   3
ENDBRANCH   1   2
BRANCH   1  23
ATOM     23  O   UNL     1      -4.467   7.331   0.999  1.00  0.00    -0.374 OA
BRANCH  23  24
ATOM     24  C   UNL     1      -5.144   6.208   0.461  1.00  0.00     0.202 C 
BRANCH  24  25
ATOM     25  C   UNL     1      -5.804   6.493  -0.895  1.00  0.00     0.261 C 
BRANCH  25  26
ATOM     26  O   UNL     1      -4.853   6.699  -1.958  1.00  0.00    -0.460 OA
BRANCH  26  27
ATOM     27  C   UNL     1      -4.488   7.984  -2.191  1.00  0.00     0.338 C 
ATOM     28  O   UNL     1      -4.925   8.982  -1.639  1.00  0.00    -0.246 OA
BRANCH  27  29
ATOM     29  C   UNL     1      -3.357   8.040  -3.155  1.00  0.00     0.060 A 
ATOM     30  C   UNL     1      -2.409   9.064  -3.008  1.00  0.00     0.016 A 
ATOM     31  C   UNL     1      -3.244   7.140  -4.219  1.00  0.00     0.016 A 
ATOM     32  C   UNL     1      -1.400   9.239  -3.961  1.00  0.00     0.010 A 
ATOM     33  C   UNL     1      -2.234   7.316  -5.174  1.00  0.00     0.010 A 
ATOM     34  C   UNL     1      -1.335   8.395  -5.077  1.00  0.00    -0.014 A 
BRANCH  34  35
ATOM     35  C   UNL     1      -0.471   8.742  -6.238  1.00  0.00     0.031 A 
ATOM     36  C   UNL     1      -1.104   9.410  -7.431  1.00  0.00     0.074 A 
ATOM     37  C   UNL     1       0.849   8.481  -6.244  1.00  0.00     0.049 A 
ATOM     38  N   UNL     1      -0.580   9.726  -8.589  1.00  0.00    -0.248 NA
ATOM     39  C   UNL     1      -2.525   9.769  -7.298  1.00  0.00     0.031 C 
ATOM     40  C   UNL     1       1.599   7.890  -5.141  1.00  0.00     0.029 A 
ATOM     41  N   UNL     1       1.789   8.671  -7.229  1.00  0.00    -0.354 N 
ATOM     42  C   UNL     1      -1.605  10.313  -9.321  1.00  0.00     0.074 A 
ATOM     43  C   UNL     1      -2.790  10.281  -8.490  1.00  0.00     0.031 C 
ATOM     44  C   UNL     1       2.885   7.752  -5.513  1.00  0.00     0.029 A 
ATOM     45  C   UNL     1       3.039   8.207  -6.895  1.00  0.00     0.049 A 
ATOM     46  H   UNL     1       1.587   9.099  -8.092  1.00  0.00     0.167 HD
ATOM     47  C   UNL     1      -1.564  10.838 -10.569  1.00  0.00     0.037 A 
ATOM     48  C   UNL     1       4.167   8.133  -7.631  1.00  0.00     0.037 A 
ATOM     49  C   UNL     1      -0.390  10.865 -11.401  1.00  0.00     0.049 A 
ATOM     50  C   UNL     1       4.162   8.634  -9.056  1.00  0.00     0.074 A 
ATOM     51  C   UNL     1      -0.251  11.376 -12.681  1.00  0.00     0.029 A 
ATOM     52  N   UNL     1       0.846  10.352 -11.039  1.00  0.00    -0.354 N 
ATOM     53  N   UNL     1       3.193   9.198  -9.735  1.00  0.00    -0.248 NA
ATOM     54  C   UNL     1       5.412   8.485  -9.817  1.00  0.00     0.031 C 
ATOM     55  C   UNL     1       1.054  11.119 -13.115  1.00  0.00     0.029 A 
ATOM     56  C   UNL     1       1.746  10.508 -12.082  1.00  0.00     0.049 A 
ATOM     57  H   UNL     1       1.054   9.937 -10.171  1.00  0.00     0.167 HD
ATOM     58  C   UNL     1       3.726   9.504 -10.983  1.00  0.00     0.074 A 
ATOM     59  C   UNL     1       5.106   9.072 -10.966  1.00  0.00     0.031 C 
ATOM     60  C   UNL     1       3.124  10.091 -12.047  1.00  0.00     0.037 A 
BRANCH  47  61
ATOM     61  C   UNL     1      -2.840  11.403 -11.126  1.00  0.00     0.064 A 
ATOM     62  C   UNL     1      -3.398  12.592 -10.635  1.00  0.00     0.173 A 
ATOM     63  C   UNL     1      -3.494  10.763 -12.190  1.00  0.00     0.173 A 
ATOM     64  F   UNL     1      -2.819  13.237  -9.610  1.00  0.00    -0.203 F 
ATOM     65  C   UNL     1      -4.578  13.105 -11.169  1.00  0.00     0.198 A 
ATOM     66  C   UNL     1      -4.656  11.295 -12.743  1.00  0.00     0.198 A 
ATOM     67  F   UNL     1      -3.000   9.625 -12.702  1.00  0.00    -0.203 F 
ATOM     68  F   UNL     1      -5.119  14.216 -10.650  1.00  0.00    -0.200 F 
ATOM     69  C   UNL     1      -5.201  12.460 -12.226  1.00  0.00     0.200 A 
ATOM     70  F   UNL     1      -5.249  10.678 -13.774  1.00  0.00    -0.200 F 
ATOM     71  F   UNL     1      -6.333  12.958 -12.744  1.00  0.00    -0.200 F 
ENDBRANCH  47  61
BRANCH  48  72
ATOM     72  C   UNL     1       5.403   7.539  -7.051  1.00  0.00     0.064 A 
ATOM     73  C   UNL     1       6.551   8.317  -6.841  1.00  0.00     0.173 A 
ATOM     74  C   UNL     1       5.479   6.173  -6.739  1.00  0.00     0.173 A 
ATOM     75  F   UNL     1       6.542   9.621  -7.152  1.00  0.00    -0.203 F 
ATOM     76  C   UNL     1       7.732   7.747  -6.366  1.00  0.00     0.198 A 
ATOM     77  C   UNL     1       6.649   5.611  -6.233  1.00  0.00     0.198 A 
ATOM     78  F   UNL     1       4.413   5.381  -6.928  1.00  0.00    -0.203 F 
ATOM     79  F   UNL     1       8.831   8.503  -6.233  1.00  0.00    -0.200 F 
ATOM     80  C   UNL     1       7.778   6.397  -6.057  1.00  0.00     0.200 A 
ATOM     81  F   UNL     1       6.686   4.307  -5.928  1.00  0.00    -0.200 F 
ATOM     82  F   UNL     1       8.914   5.849  -5.604  1.00  0.00    -0.200 F 
ENDBRANCH  48  72
BRANCH  60  83
ATOM     83  C   UNL     1       3.962  10.354 -13.268  1.00  0.00     0.064 A 
ATOM     84  C   UNL     1       4.403   9.317 -14.103  1.00  0.00     0.173 A 
ATOM     85  C   UNL     1       4.280  11.671 -13.637  1.00  0.00     0.173 A 
ATOM     86  F   UNL     1       4.138   8.040 -13.791  1.00  0.00    -0.203 F 
ATOM     87  C   UNL     1       5.150   9.587 -15.248  1.00  0.00     0.198 A 
ATOM     88  C   UNL     1       4.998  11.939 -14.799  1.00  0.00     0.198 A 
ATOM     89  F   UNL     1       3.876  12.702 -12.880  1.00  0.00    -0.203 F 
ATOM     90  F   UNL     1       5.599   8.577 -16.006  1.00  0.00    -0.200 F 
ATOM     91  C   UNL     1       5.439  10.897 -15.600  1.00  0.00     0.200 A 
ATOM     92  F   UNL     1       5.260  13.207 -15.146  1.00  0.00    -0.200 F 
ATOM     93  F   UNL     1       6.146  11.155 -16.709  1.00  0.00    -0.200 F 
ENDBRANCH  60  83
ENDBRANCH  34  35
ENDBRANCH  27  29
ENDBRANCH  26  27
ENDBRANCH  25  26
ENDBRANCH  24  25
ENDBRANCH  23  24
ENDBRANCH   1  23
TORSDOF 19
