REMARK SMILES C=C(C)CN(CC)c1ccc(F)cc1C(=O)OCCOCCOC(=O)c1ccc(-c2c3nc(c(-c4c(F)c(F)c(F)c(F)c4F)c4ccc([nH]4)c(-c4c(F)c(F)c(F)c(F)c4F)c4nc(c(-c5c(F)c(F)c(F)c(F)c5F)c5ccc2[nH]5)C=C4)C=C3)cc1
REMARK SMILES IDX 19 1 18 2 17 3 15 4 16 5 14 6 8 7 9 8 10 9 13 10 11 11 12 12
REMARK SMILES IDX 5 13 4 14 2 15 1 16 3 17 6 18 7 19 20 20 21 21 22 22 23 23
REMARK SMILES IDX 24 24 25 25 26 26 27 27 88 28 28 29 87 30 29 31 30 32 31 33
REMARK SMILES IDX 81 34 32 35 86 36 80 37 82 38 33 39 85 40 79 41 78 42 34 44
REMARK SMILES IDX 66 45 46 46 65 47 47 48 50 49 64 50 83 51 48 52 49 53 63 55
REMARK SMILES IDX 84 56 51 57 35 58 36 59 44 60 37 61 38 62 42 63 45 64 39 65
REMARK SMILES IDX 40 66 43 67 41 68 67 69 68 70 76 71 69 72 70 73 74 74 77 75
REMARK SMILES IDX 71 76 72 77 75 78 73 79 52 80 53 81 61 82 54 83 55 84 59 85
REMARK SMILES IDX 62 86 56 87 57 88 60 89 58 90
REMARK H PARENT 82 43 50 54
REMARK Flexibility Score: inf
ROOT
ATOM      1  C   UNL     1       3.907  -6.935   3.483  1.00  0.00     0.202 C 
ENDROOT
BRANCH   1   2
ATOM      2  C   UNL     1       4.308  -6.389   2.113  1.00  0.00     0.261 C 
BRANCH   2   3
ATOM      3  O   UNL     1       3.305  -5.490   1.611  1.00  0.00    -0.460 OA
BRANCH   3   4
ATOM      4  C   UNL     1       3.413  -5.250   0.284  1.00  0.00     0.340 C 
ATOM      5  O   UNL     1       4.352  -5.560  -0.436  1.00  0.00    -0.246 OA
BRANCH   4   6
ATOM      6  C   UNL     1       2.129  -4.778  -0.249  1.00  0.00     0.086 A 
ATOM      7  C   UNL     1       1.605  -3.480  -0.068  1.00  0.00     0.052 A 
ATOM      8  C   UNL     1       0.395  -3.218  -0.748  1.00  0.00     0.030 A 
ATOM      9  C   UNL     1      -0.287  -4.182  -1.498  1.00  0.00     0.041 A 
ATOM     10  C   UNL     1       1.443  -5.760  -0.993  1.00  0.00     0.057 A 
ATOM     11  C   UNL     1       0.237  -5.455  -1.596  1.00  0.00     0.124 A 
ATOM     12  F   UNL     1      -0.416  -6.392  -2.294  1.00  0.00    -0.207 F 
BRANCH   7  13
ATOM     13  N   UNL     1       2.181  -2.473   0.700  1.00  0.00    -0.367 N 
BRANCH  13  14
ATOM     14  C   UNL     1       1.372  -1.766   1.709  1.00  0.00     0.146 C 
BRANCH  14  15
ATOM     15  C   UNL     1       0.538  -0.629   1.140  1.00  0.00    -0.061 C 
ATOM     16  C   UNL     1       1.021   0.366   0.375  1.00  0.00     0.009 C 
ATOM     17  C   UNL     1      -0.930  -0.665   1.483  1.00  0.00     0.041 C 
ENDBRANCH  14  15
ENDBRANCH  13  14
BRANCH  13  18
ATOM     18  C   UNL     1       3.571  -2.054   0.495  1.00  0.00     0.113 C 
ATOM     19  C   UNL     1       4.522  -2.554   1.573  1.00  0.00     0.027 C 
ENDBRANCH  13  18
ENDBRANCH   7  13
ENDBRANCH   4   6
ENDBRANCH   3   4
ENDBRANCH   2   3
ENDBRANCH   1   2
BRANCH   1  20
ATOM     20  O   UNL     1       2.784  -7.818   3.503  1.00  0.00    -0.374 OA
BRANCH  20  21
ATOM     21  C   UNL     1       1.533  -7.309   3.048  1.00  0.00     0.202 C 
BRANCH  21  22
ATOM     22  C   UNL     1       0.780  -6.365   3.996  1.00  0.00     0.261 C 
BRANCH  22  23
ATOM     23  O   UNL     1       1.534  -5.215   4.424  1.00  0.00    -0.460 OA
BRANCH  23  24
ATOM     24  C   UNL     1       1.945  -5.272   5.713  1.00  0.00     0.338 C 
ATOM     25  O   UNL     1       1.753  -6.175   6.514  1.00  0.00    -0.246 OA
BRANCH  24  26
ATOM     26  C   UNL     1       2.772  -4.105   6.069  1.00  0.00     0.060 A 
ATOM     27  C   UNL     1       4.037  -4.352   6.615  1.00  0.00     0.016 A 
ATOM     28  C   UNL     1       2.242  -2.812   6.062  1.00  0.00     0.016 A 
ATOM     29  C   UNL     1       4.745  -3.319   7.227  1.00  0.00     0.010 A 
ATOM     30  C   UNL     1       2.953  -1.777   6.683  1.00  0.00     0.010 A 
ATOM     31  C   UNL     1       4.182  -2.039   7.316  1.00  0.00    -0.014 A 
BRANCH  31  32
ATOM     32  C   UNL     1       4.799  -1.046   8.232  1.00  0.00     0.031 A 
ATOM     33  C   UNL     1       4.255  -0.900   9.628  1.00  0.00     0.074 A 
ATOM     34  C   UNL     1       5.875  -0.332   7.856  1.00  0.00     0.049 A 
ATOM     35  N   UNL     1       4.670  -0.135  10.607  1.00  0.00    -0.248 NA
ATOM     36  C   UNL     1       3.090  -1.731   9.970  1.00  0.00     0.031 C 
ATOM     37  C   UNL     1       6.520  -0.406   6.549  1.00  0.00     0.029 A 
ATOM     38  N   UNL     1       6.620   0.587   8.552  1.00  0.00    -0.354 N 
ATOM     39  C   UNL     1       3.822  -0.394  11.676  1.00  0.00     0.074 A 
ATOM     40  C   UNL     1       2.848  -1.362  11.219  1.00  0.00     0.031 C 
ATOM     41  C   UNL     1       7.572   0.431   6.536  1.00  0.00     0.029 A 
ATOM     42  C   UNL     1       7.664   1.108   7.830  1.00  0.00     0.049 A 
ATOM     43  H   UNL     1       6.424   0.848   9.481  1.00  0.00     0.167 HD
ATOM     44  C   UNL     1       3.857   0.117  12.929  1.00  0.00     0.037 A 
ATOM     45  C   UNL     1       8.590   2.025   8.174  1.00  0.00     0.037 A 
ATOM     46  C   UNL     1       4.825   1.075  13.394  1.00  0.00     0.049 A 
ATOM     47  C   UNL     1       8.590   2.605   9.564  1.00  0.00     0.074 A 
ATOM     48  C   UNL     1       4.935   1.653  14.647  1.00  0.00     0.029 A 
ATOM     49  N   UNL     1       5.854   1.593  12.623  1.00  0.00    -0.354 N 
ATOM     50  N   UNL     1       7.789   2.346  10.568  1.00  0.00    -0.248 NA
ATOM     51  C   UNL     1       9.632   3.596   9.870  1.00  0.00     0.031 C 
ATOM     52  C   UNL     1       6.011   2.546  14.625  1.00  0.00     0.029 A 
ATOM     53  C   UNL     1       6.597   2.491  13.371  1.00  0.00     0.049 A 
ATOM     54  H   UNL     1       6.030   1.358  11.683  1.00  0.00     0.167 HD
ATOM     55  C   UNL     1       8.245   3.117  11.630  1.00  0.00     0.074 A 
ATOM     56  C   UNL     1       9.397   3.851  11.150  1.00  0.00     0.031 C 
ATOM     57  C   UNL     1       7.752   3.204  12.889  1.00  0.00     0.037 A 
BRANCH  44  58
ATOM     58  C   UNL     1       2.807  -0.343  13.895  1.00  0.00     0.064 A 
ATOM     59  C   UNL     1       1.769   0.517  14.281  1.00  0.00     0.173 A 
ATOM     60  C   UNL     1       2.857  -1.618  14.476  1.00  0.00     0.173 A 
ATOM     61  F   UNL     1       1.681   1.749  13.756  1.00  0.00    -0.203 F 
ATOM     62  C   UNL     1       0.823   0.120  15.221  1.00  0.00     0.198 A 
ATOM     63  C   UNL     1       1.895  -2.021  15.399  1.00  0.00     0.198 A 
ATOM     64  F   UNL     1       3.823  -2.481  14.128  1.00  0.00    -0.203 F 
ATOM     65  F   UNL     1      -0.148   0.966  15.592  1.00  0.00    -0.200 F 
ATOM     66  C   UNL     1       0.884  -1.149  15.777  1.00  0.00     0.200 A 
ATOM     67  F   UNL     1       1.943  -3.255  15.919  1.00  0.00    -0.200 F 
ATOM     68  F   UNL     1      -0.035  -1.535  16.673  1.00  0.00    -0.200 F 
ENDBRANCH  44  58
BRANCH  45  69
ATOM     69  C   UNL     1       9.617   2.430   7.183  1.00  0.00     0.064 A 
ATOM     70  C   UNL     1       9.285   3.228   6.080  1.00  0.00     0.173 A 
ATOM     71  C   UNL     1      10.949   2.013   7.314  1.00  0.00     0.173 A 
ATOM     72  F   UNL     1       8.024   3.653   5.914  1.00  0.00    -0.203 F 
ATOM     73  C   UNL     1      10.245   3.580   5.133  1.00  0.00     0.198 A 
ATOM     74  C   UNL     1      11.912   2.383   6.378  1.00  0.00     0.198 A 
ATOM     75  F   UNL     1      11.316   1.268   8.367  1.00  0.00    -0.203 F 
ATOM     76  F   UNL     1       9.897   4.323   4.074  1.00  0.00    -0.200 F 
ATOM     77  C   UNL     1      11.558   3.160   5.285  1.00  0.00     0.200 A 
ATOM     78  F   UNL     1      13.184   1.995   6.540  1.00  0.00    -0.200 F 
ATOM     79  F   UNL     1      12.483   3.508   4.380  1.00  0.00    -0.200 F 
ENDBRANCH  45  69
BRANCH  57  80
ATOM     80  C   UNL     1       8.470   4.093  13.860  1.00  0.00     0.064 A 
ATOM     81  C   UNL     1       9.220   3.537  14.908  1.00  0.00     0.173 A 
ATOM     82  C   UNL     1       8.361   5.489  13.797  1.00  0.00     0.173 A 
ATOM     83  F   UNL     1       9.347   2.206  15.017  1.00  0.00    -0.203 F 
ATOM     84  C   UNL     1       9.827   4.348  15.863  1.00  0.00     0.198 A 
ATOM     85  C   UNL     1       8.989   6.298  14.741  1.00  0.00     0.198 A 
ATOM     86  F   UNL     1       7.664   6.068  12.808  1.00  0.00    -0.203 F 
ATOM     87  F   UNL     1      10.517   3.794  16.870  1.00  0.00    -0.200 F 
ATOM     88  C   UNL     1       9.715   5.727  15.777  1.00  0.00     0.200 A 
ATOM     89  F   UNL     1       8.897   7.632  14.646  1.00  0.00    -0.200 F 
ATOM     90  F   UNL     1      10.309   6.507  16.691  1.00  0.00    -0.200 F 
ENDBRANCH  57  80
ENDBRANCH  31  32
ENDBRANCH  24  26
ENDBRANCH  23  24
ENDBRANCH  22  23
ENDBRANCH  21  22
ENDBRANCH  20  21
ENDBRANCH   1  20
TORSDOF 18
