REMARK SMILES NS(=O)(=O)c1ccc(N2N=C(C(=O)OCCOCCOC(=O)c3ccc(-c4c5nc(c(-c6c(F)c(F)c(F)c(F)c6F)c6ccc([nH]6)c(-c6c(F)c(F)c(F)c(F)c6F)c6nc(c(-c7c(F)c(F)c(F)c(F)c7F)c7ccc4[nH]7)C=C6)C=C5)cc3)C[C@H]2c2cccs2)cc1
REMARK SMILES IDX 16 1 15 2 14 3 12 4 13 5 11 6 9 7 10 8 87 9 86 10 8 11 5 12
REMARK SMILES IDX 6 13 94 14 7 15 93 16 2 17 3 18 4 19 1 20 88 23 89 24 92 25
REMARK SMILES IDX 90 26 91 27 17 28 18 29 19 30 20 31 21 32 22 33 23 34 24 35
REMARK SMILES IDX 85 36 25 37 84 38 26 39 27 40 28 41 78 42 29 43 83 44 77 45
REMARK SMILES IDX 79 46 30 47 82 48 76 49 75 50 31 52 63 53 43 54 62 55 44 56
REMARK SMILES IDX 47 57 61 58 80 59 45 60 46 61 60 63 81 64 48 65 32 66 33 67
REMARK SMILES IDX 41 68 34 69 35 70 39 71 42 72 36 73 37 74 40 75 38 76 64 77
REMARK SMILES IDX 65 78 73 79 66 80 67 81 71 82 74 83 68 84 69 85 72 86 70 87
REMARK SMILES IDX 49 88 50 89 58 90 51 91 52 92 56 93 59 94 53 95 54 96 57 97
REMARK SMILES IDX 55 98
REMARK H PARENT 1 21 1 22 79 51 47 62
REMARK Flexibility Score: inf
ROOT
ATOM      1  C   UNL     1       1.955   6.389 -11.083  1.00  0.00     0.202 C 
ENDROOT
BRANCH   1   2
ATOM      2  C   UNL     1       1.107   7.096 -10.024  1.00  0.00     0.261 C 
BRANCH   2   3
ATOM      3  O   UNL     1       1.583   6.804  -8.704  1.00  0.00    -0.459 OA
BRANCH   3   4
ATOM      4  C   UNL     1       0.685   6.178  -7.916  1.00  0.00     0.354 C 
ATOM      5  O   UNL     1      -0.503   6.017  -8.119  1.00  0.00    -0.245 OA
BRANCH   4   6
ATOM      6  C   UNL     1       1.394   5.559  -6.740  1.00  0.00     0.148 C 
ATOM      7  N   UNL     1       1.860   4.214  -5.176  1.00  0.00    -0.256 N 
ATOM      8  N   UNL     1       1.038   4.414  -6.246  1.00  0.00    -0.169 NA
ATOM      9  C   UNL     1       2.530   5.465  -4.762  1.00  0.00     0.154 C 
ATOM     10  C   UNL     1       2.607   6.183  -6.122  1.00  0.00     0.099 C 
BRANCH   7  11
ATOM     11  C   UNL     1       1.565   3.154  -4.334  1.00  0.00     0.060 A 
ATOM     12  C   UNL     1       0.945   0.953  -2.707  1.00  0.00     0.082 A 
ATOM     13  C   UNL     1       1.994   0.861  -3.623  1.00  0.00     0.024 A 
ATOM     14  C   UNL     1       0.180   2.116  -2.619  1.00  0.00     0.024 A 
ATOM     15  C   UNL     1       2.302   1.964  -4.426  1.00  0.00     0.029 A 
ATOM     16  C   UNL     1       0.485   3.201  -3.443  1.00  0.00     0.029 A 
BRANCH  12  17
ATOM     17  S   UNL     1       0.533  -0.427  -1.685  1.00  0.00     0.238 S 
ATOM     18  O   UNL     1       1.287  -1.585  -2.107  1.00  0.00    -0.207 OA
ATOM     19  O   UNL     1      -0.895  -0.461  -1.482  1.00  0.00    -0.207 OA
BRANCH  17  20
ATOM     20  N   UNL     1       1.199   0.030  -0.211  1.00  0.00    -0.225 NA
ATOM     21  H   UNL     1       1.026  -0.699   0.481  1.00  0.00     0.137 HD
ATOM     22  H   UNL     1       0.771   0.902   0.100  1.00  0.00     0.137 HD
ENDBRANCH  17  20
ENDBRANCH  12  17
ENDBRANCH   7  11
BRANCH   9  23
ATOM     23  C   UNL     1       1.837   6.278  -3.667  1.00  0.00     0.030 A 
ATOM     24  C   UNL     1       1.819   5.995  -2.309  1.00  0.00     0.017 A 
ATOM     25  S   UNL     1       0.926   7.704  -3.987  1.00  0.00    -0.147 S 
ATOM     26  C   UNL     1       1.033   6.916  -1.557  1.00  0.00     0.012 A 
ATOM     27  C   UNL     1       0.515   7.913  -2.348  1.00  0.00     0.065 A 
ENDBRANCH   9  23
ENDBRANCH   4   6
ENDBRANCH   3   4
ENDBRANCH   2   3
ENDBRANCH   1   2
BRANCH   1  28
ATOM     28  O   UNL     1       2.058   4.971 -10.998  1.00  0.00    -0.374 OA
BRANCH  28  29
ATOM     29  C   UNL     1       2.885   4.405  -9.982  1.00  0.00     0.202 C 
BRANCH  29  30
ATOM     30  C   UNL     1       4.407   4.528 -10.141  1.00  0.00     0.261 C 
BRANCH  30  31
ATOM     31  O   UNL     1       4.871   5.890 -10.163  1.00  0.00    -0.460 OA
BRANCH  31  32
ATOM     32  C   UNL     1       5.303   6.315 -11.378  1.00  0.00     0.338 C 
ATOM     33  O   UNL     1       5.370   5.670 -12.410  1.00  0.00    -0.246 OA
BRANCH  32  34
ATOM     34  C   UNL     1       5.539   7.771 -11.348  1.00  0.00     0.060 A 
ATOM     35  C   UNL     1       4.849   8.563 -12.275  1.00  0.00     0.016 A 
ATOM     36  C   UNL     1       6.487   8.336 -10.495  1.00  0.00     0.016 A 
ATOM     37  C   UNL     1       5.138   9.922 -12.384  1.00  0.00     0.010 A 
ATOM     38  C   UNL     1       6.779   9.699 -10.610  1.00  0.00     0.010 A 
ATOM     39  C   UNL     1       6.132  10.491 -11.577  1.00  0.00    -0.014 A 
BRANCH  39  40
ATOM     40  C   UNL     1       6.596  11.876 -11.840  1.00  0.00     0.031 A 
ATOM     41  C   UNL     1       7.900  12.084 -12.561  1.00  0.00     0.074 A 
ATOM     42  C   UNL     1       5.861  12.934 -11.456  1.00  0.00     0.049 A 
ATOM     43  N   UNL     1       8.534  13.198 -12.831  1.00  0.00    -0.248 NA
ATOM     44  C   UNL     1       8.584  10.872 -13.039  1.00  0.00     0.031 C 
ATOM     45  C   UNL     1       4.561  12.861 -10.792  1.00  0.00     0.029 A 
ATOM     46  N   UNL     1       6.111  14.279 -11.561  1.00  0.00    -0.354 N 
ATOM     47  C   UNL     1       9.691  12.820 -13.499  1.00  0.00     0.074 A 
ATOM     48  C   UNL     1       9.691  11.375 -13.564  1.00  0.00     0.031 C 
ATOM     49  C   UNL     1       4.132  14.109 -10.539  1.00  0.00     0.029 A 
ATOM     50  C   UNL     1       5.144  15.065 -10.986  1.00  0.00     0.049 A 
ATOM     51  H   UNL     1       6.909  14.646 -12.007  1.00  0.00     0.167 HD
ATOM     52  C   UNL     1      10.660  13.610 -14.022  1.00  0.00     0.037 A 
ATOM     53  C   UNL     1       5.096  16.401 -10.816  1.00  0.00     0.037 A 
ATOM     54  C   UNL     1      10.655  15.048 -13.957  1.00  0.00     0.049 A 
ATOM     55  C   UNL     1       6.230  17.251 -11.332  1.00  0.00     0.074 A 
ATOM     56  C   UNL     1      11.585  15.939 -14.466  1.00  0.00     0.029 A 
ATOM     57  N   UNL     1       9.672  15.807 -13.339  1.00  0.00    -0.354 N 
ATOM     58  N   UNL     1       7.311  16.890 -11.979  1.00  0.00    -0.248 NA
ATOM     59  C   UNL     1       6.132  18.699 -11.096  1.00  0.00     0.031 C 
ATOM     60  C   UNL     1      11.195  17.232 -14.105  1.00  0.00     0.029 A 
ATOM     61  C   UNL     1       9.987  17.154 -13.431  1.00  0.00     0.049 A 
ATOM     62  H   UNL     1       8.869  15.444 -12.901  1.00  0.00     0.167 HD
ATOM     63  C   UNL     1       8.000  18.064 -12.260  1.00  0.00     0.074 A 
ATOM     64  C   UNL     1       7.209  19.150 -11.723  1.00  0.00     0.031 C 
ATOM     65  C   UNL     1       9.181  18.227 -12.907  1.00  0.00     0.037 A 
BRANCH  52  66
ATOM     66  C   UNL     1      11.824  12.935 -14.690  1.00  0.00     0.064 A 
ATOM     67  C   UNL     1      11.687  12.266 -15.916  1.00  0.00     0.173 A 
ATOM     68  C   UNL     1      13.104  12.995 -14.117  1.00  0.00     0.173 A 
ATOM     69  F   UNL     1      10.484  12.168 -16.501  1.00  0.00    -0.203 F 
ATOM     70  C   UNL     1      12.782  11.662 -16.529  1.00  0.00     0.198 A 
ATOM     71  C   UNL     1      14.202  12.419 -14.749  1.00  0.00     0.198 A 
ATOM     72  F   UNL     1      13.293  13.626 -12.948  1.00  0.00    -0.203 F 
ATOM     73  F   UNL     1      12.617  10.987 -17.676  1.00  0.00    -0.200 F 
ATOM     74  C   UNL     1      14.039  11.746 -15.950  1.00  0.00     0.200 A 
ATOM     75  F   UNL     1      15.419  12.514 -14.196  1.00  0.00    -0.200 F 
ATOM     76  F   UNL     1      15.093  11.173 -16.547  1.00  0.00    -0.200 F 
ENDBRANCH  52  66
BRANCH  53  77
ATOM     77  C   UNL     1       3.943  17.025 -10.114  1.00  0.00     0.064 A 
ATOM     78  C   UNL     1       3.059  17.878 -10.791  1.00  0.00     0.173 A 
ATOM     79  C   UNL     1       3.720  16.810  -8.746  1.00  0.00     0.173 A 
ATOM     80  F   UNL     1       3.244  18.135 -12.094  1.00  0.00    -0.203 F 
ATOM     81  C   UNL     1       2.016  18.513 -10.120  1.00  0.00     0.198 A 
ATOM     82  C   UNL     1       2.656  17.419  -8.084  1.00  0.00     0.198 A 
ATOM     83  F   UNL     1       4.535  16.004  -8.050  1.00  0.00    -0.203 F 
ATOM     84  F   UNL     1       1.224  19.370 -10.779  1.00  0.00    -0.200 F 
ATOM     85  C   UNL     1       1.812  18.280  -8.769  1.00  0.00     0.200 A 
ATOM     86  F   UNL     1       2.454  17.179  -6.781  1.00  0.00    -0.200 F 
ATOM     87  F   UNL     1       0.809  18.892  -8.125  1.00  0.00    -0.200 F 
ENDBRANCH  53  77
BRANCH  65  88
ATOM     88  C   UNL     1       9.665  19.634 -13.124  1.00  0.00     0.064 A 
ATOM     89  C   UNL     1      10.126  20.432 -12.066  1.00  0.00     0.173 A 
ATOM     90  C   UNL     1       9.707  20.175 -14.419  1.00  0.00     0.173 A 
ATOM     91  F   UNL     1      10.095  19.969 -10.808  1.00  0.00    -0.203 F 
ATOM     92  C   UNL     1      10.584  21.728 -12.294  1.00  0.00     0.198 A 
ATOM     93  C   UNL     1      10.198  21.457 -14.647  1.00  0.00     0.198 A 
ATOM     94  F   UNL     1       9.287  19.452 -15.468  1.00  0.00    -0.203 F 
ATOM     95  F   UNL     1      10.969  22.491 -11.261  1.00  0.00    -0.200 F 
ATOM     96  C   UNL     1      10.627  22.236 -13.583  1.00  0.00     0.200 A 
ATOM     97  F   UNL     1      10.256  21.939 -15.896  1.00  0.00    -0.200 F 
ATOM     98  F   UNL     1      11.077  23.480 -13.801  1.00  0.00    -0.200 F 
ENDBRANCH  65  88
ENDBRANCH  39  40
ENDBRANCH  32  34
ENDBRANCH  31  32
ENDBRANCH  30  31
ENDBRANCH  29  30
ENDBRANCH  28  29
ENDBRANCH   1  28
TORSDOF 18
