REMARK SMILES O=C(CCCCCN1C(=O)/C(=C2\C(=O)Nc3ccccc32)SC1=S)OCCOCCOC(=O)c1ccc(-c2c3nc(c(-c4c(F)c(F)c(F)c(F)c4F)c4ccc([nH]4)c(-c4c(F)c(F)c(F)c(F)c4F)c4nc(c(-c5c(F)c(F)c(F)c(F)c5F)c5ccc2[nH]5)C=C4)C=C3)cc1
REMARK SMILES IDX 26 1 25 2 2 3 1 4 3 5 4 6 5 7 6 8 7 9 8 10 9 11 23 12 10 13
REMARK SMILES IDX 11 14 22 15 24 16 12 17 13 18 21 19 14 20 15 21 16 22 20 23
REMARK SMILES IDX 17 25 19 26 18 27 27 28 28 29 29 30 30 31 31 32 32 33 33 34
REMARK SMILES IDX 34 35 35 36 96 37 36 38 95 39 37 40 38 41 39 42 89 43 40 44
REMARK SMILES IDX 94 45 88 46 90 47 41 48 93 49 87 50 86 51 42 53 74 54 54 55
REMARK SMILES IDX 73 56 55 57 58 58 72 59 91 60 56 61 57 62 71 64 92 65 59 66
REMARK SMILES IDX 43 67 44 68 52 69 45 70 46 71 50 72 53 73 47 74 48 75 51 76
REMARK SMILES IDX 49 77 75 78 76 79 84 80 77 81 78 82 82 83 85 84 79 85 80 86
REMARK SMILES IDX 83 87 81 88 60 89 61 90 69 91 62 92 63 93 67 94 70 95 64 96
REMARK SMILES IDX 65 97 68 98 66 99
REMARK H PARENT 15 24 90 52 58 63
REMARK Flexibility Score: inf
ROOT
ATOM      1  C   UNL     1       3.308   1.453   0.162  1.00  0.00     0.261 C 
ENDROOT
BRANCH   1   2
ATOM      2  O   UNL     1       1.996   1.069  -0.268  1.00  0.00    -0.463 OA
BRANCH   2   3
ATOM      3  C   UNL     1       1.789   0.123  -1.213  1.00  0.00     0.305 C 
ATOM      4  O   UNL     1       0.786   0.180  -1.923  1.00  0.00    -0.252 OA
BRANCH   3   5
ATOM      5  C   UNL     1       2.718  -1.071  -1.289  1.00  0.00     0.123 C 
BRANCH   5   6
ATOM      6  C   UNL     1       3.712  -1.106  -2.445  1.00  0.00     0.012 C 
BRANCH   6   7
ATOM      7  C   UNL     1       5.066  -0.407  -2.267  1.00  0.00     0.002 C 
BRANCH   7   8
ATOM      8  C   UNL     1       5.847  -0.662  -0.957  1.00  0.00     0.022 C 
BRANCH   8   9
ATOM      9  C   UNL     1       7.053  -1.609  -1.034  1.00  0.00     0.127 C 
BRANCH   9  10
ATOM     10  N   UNL     1       7.917  -1.365  -2.180  1.00  0.00    -0.293 N 
ATOM     11  C   UNL     1       8.280  -0.067  -2.509  1.00  0.00     0.267 C 
ATOM     12  C   UNL     1       8.473  -2.344  -2.972  1.00  0.00     0.148 C 
ATOM     13  O   UNL     1       8.417   0.866  -1.738  1.00  0.00    -0.268 OA
ATOM     14  C   UNL     1       8.539  -0.050  -3.972  1.00  0.00     0.093 C 
ATOM     15  S   UNL     1       9.255  -1.579  -4.352  1.00  0.00    -0.053 SA
ATOM     16  S   UNL     1       8.431  -3.997  -2.776  1.00  0.00    -0.052 S 
ATOM     17  C   UNL     1       7.953   0.804  -4.825  1.00  0.00     0.069 C 
ATOM     18  C   UNL     1       7.158   2.025  -4.407  1.00  0.00     0.257 C 
ATOM     19  C   UNL     1       7.780   0.685  -6.290  1.00  0.00     0.012 A 
ATOM     20  O   UNL     1       6.933   2.457  -3.296  1.00  0.00    -0.269 OA
ATOM     21  N   UNL     1       6.650   2.550  -5.581  1.00  0.00    -0.321 N 
ATOM     22  C   UNL     1       6.980   1.765  -6.677  1.00  0.00     0.049 A 
ATOM     23  C   UNL     1       8.129  -0.268  -7.234  1.00  0.00     0.011 A 
ATOM     24  H   UNL     1       6.120   3.378  -5.633  1.00  0.00     0.170 HD
ATOM     25  C   UNL     1       6.534   1.952  -7.971  1.00  0.00     0.027 A 
ATOM     26  C   UNL     1       7.672  -0.115  -8.548  1.00  0.00     0.001 A 
ATOM     27  C   UNL     1       6.886   0.988  -8.915  1.00  0.00     0.002 A 
ENDBRANCH   9  10
ENDBRANCH   8   9
ENDBRANCH   7   8
ENDBRANCH   6   7
ENDBRANCH   5   6
ENDBRANCH   3   5
ENDBRANCH   2   3
ENDBRANCH   1   2
BRANCH   1  28
ATOM     28  C   UNL     1       3.619   0.975   1.571  1.00  0.00     0.202 C 
BRANCH  28  29
ATOM     29  O   UNL     1       3.563  -0.446   1.698  1.00  0.00    -0.374 OA
BRANCH  29  30
ATOM     30  C   UNL     1       2.405  -0.927   2.388  1.00  0.00     0.202 C 
BRANCH  30  31
ATOM     31  C   UNL     1       2.689  -1.144   3.877  1.00  0.00     0.261 C 
BRANCH  31  32
ATOM     32  O   UNL     1       3.087   0.099   4.477  1.00  0.00    -0.460 OA
BRANCH  32  33
ATOM     33  C   UNL     1       4.426   0.295   4.584  1.00  0.00     0.338 C 
ATOM     34  O   UNL     1       5.302  -0.548   4.490  1.00  0.00    -0.246 OA
BRANCH  33  35
ATOM     35  C   UNL     1       4.692   1.756   4.631  1.00  0.00     0.060 A 
ATOM     36  C   UNL     1       3.713   2.668   5.038  1.00  0.00     0.016 A 
ATOM     37  C   UNL     1       5.931   2.222   4.166  1.00  0.00     0.016 A 
ATOM     38  C   UNL     1       3.980   4.036   4.995  1.00  0.00     0.010 A 
ATOM     39  C   UNL     1       6.204   3.591   4.136  1.00  0.00     0.010 A 
ATOM     40  C   UNL     1       5.235   4.505   4.570  1.00  0.00    -0.014 A 
BRANCH  40  41
ATOM     41  C   UNL     1       5.576   5.927   4.795  1.00  0.00     0.031 A 
ATOM     42  C   UNL     1       5.551   6.944   3.701  1.00  0.00     0.074 A 
ATOM     43  C   UNL     1       5.879   6.289   6.056  1.00  0.00     0.049 A 
ATOM     44  N   UNL     1       5.644   8.246   3.795  1.00  0.00    -0.248 NA
ATOM     45  C   UNL     1       5.413   6.444   2.327  1.00  0.00     0.031 C 
ATOM     46  C   UNL     1       5.973   5.364   7.186  1.00  0.00     0.029 A 
ATOM     47  N   UNL     1       6.135   7.518   6.603  1.00  0.00    -0.354 N 
ATOM     48  C   UNL     1       5.548   8.728   2.498  1.00  0.00     0.074 A 
ATOM     49  C   UNL     1       5.440   7.573   1.629  1.00  0.00     0.031 C 
ATOM     50  C   UNL     1       6.218   6.062   8.303  1.00  0.00     0.029 A 
ATOM     51  C   UNL     1       6.317   7.478   7.963  1.00  0.00     0.049 A 
ATOM     52  H   UNL     1       6.184   8.347   6.075  1.00  0.00     0.167 HD
ATOM     53  C   UNL     1       5.535  10.019   2.085  1.00  0.00     0.037 A 
ATOM     54  C   UNL     1       6.518   8.474   8.845  1.00  0.00     0.037 A 
ATOM     55  C   UNL     1       5.669  11.155   2.963  1.00  0.00     0.049 A 
ATOM     56  C   UNL     1       6.532   9.891   8.355  1.00  0.00     0.074 A 
ATOM     57  C   UNL     1       5.607  12.502   2.648  1.00  0.00     0.029 A 
ATOM     58  N   UNL     1       5.916  11.078   4.327  1.00  0.00    -0.354 N 
ATOM     59  N   UNL     1       6.331  10.345   7.142  1.00  0.00    -0.248 NA
ATOM     60  C   UNL     1       6.795  10.934   9.354  1.00  0.00     0.031 C 
ATOM     61  C   UNL     1       5.871  13.238   3.809  1.00  0.00     0.029 A 
ATOM     62  C   UNL     1       6.050  12.352   4.859  1.00  0.00     0.049 A 
ATOM     63  H   UNL     1       5.986  10.242   4.842  1.00  0.00     0.167 HD
ATOM     64  C   UNL     1       6.437  11.724   7.230  1.00  0.00     0.074 A 
ATOM     65  C   UNL     1       6.697  12.035   8.621  1.00  0.00     0.031 C 
ATOM     66  C   UNL     1       6.331  12.647   6.243  1.00  0.00     0.037 A 
BRANCH  53  67
ATOM     67  C   UNL     1       5.359  10.283   0.618  1.00  0.00     0.064 A 
ATOM     68  C   UNL     1       4.124  10.077  -0.016  1.00  0.00     0.173 A 
ATOM     69  C   UNL     1       6.406  10.822  -0.145  1.00  0.00     0.173 A 
ATOM     70  F   UNL     1       3.091   9.564   0.670  1.00  0.00    -0.203 F 
ATOM     71  C   UNL     1       3.949  10.384  -1.363  1.00  0.00     0.198 A 
ATOM     72  C   UNL     1       6.220  11.150  -1.486  1.00  0.00     0.198 A 
ATOM     73  F   UNL     1       7.603  11.053   0.415  1.00  0.00    -0.203 F 
ATOM     74  F   UNL     1       2.768  10.153  -1.953  1.00  0.00    -0.200 F 
ATOM     75  C   UNL     1       4.994  10.927  -2.095  1.00  0.00     0.200 A 
ATOM     76  F   UNL     1       7.226  11.691  -2.188  1.00  0.00    -0.200 F 
ATOM     77  F   UNL     1       4.820  11.235  -3.387  1.00  0.00    -0.200 F 
ENDBRANCH  53  67
BRANCH  54  78
ATOM     78  C   UNL     1       6.661   8.142  10.283  1.00  0.00     0.064 A 
ATOM     79  C   UNL     1       5.628   8.420  11.187  1.00  0.00     0.173 A 
ATOM     80  C   UNL     1       7.795   7.474  10.766  1.00  0.00     0.173 A 
ATOM     81  F   UNL     1       4.529   9.065  10.771  1.00  0.00    -0.203 F 
ATOM     82  C   UNL     1       5.724   8.039  12.523  1.00  0.00     0.198 A 
ATOM     83  C   UNL     1       7.880   7.073  12.096  1.00  0.00     0.198 A 
ATOM     84  F   UNL     1       8.804   7.176   9.933  1.00  0.00    -0.203 F 
ATOM     85  F   UNL     1       4.729   8.328  13.373  1.00  0.00    -0.200 F 
ATOM     86  C   UNL     1       6.845   7.357  12.974  1.00  0.00     0.200 A 
ATOM     87  F   UNL     1       8.955   6.398  12.523  1.00  0.00    -0.200 F 
ATOM     88  F   UNL     1       6.926   6.972  14.255  1.00  0.00    -0.200 F 
ENDBRANCH  54  78
BRANCH  66  89
ATOM     89  C   UNL     1       6.517  14.086   6.624  1.00  0.00     0.064 A 
ATOM     90  C   UNL     1       7.788  14.599   6.923  1.00  0.00     0.173 A 
ATOM     91  C   UNL     1       5.431  14.974   6.626  1.00  0.00     0.173 A 
ATOM     92  F   UNL     1       8.855  13.786   6.950  1.00  0.00    -0.203 F 
ATOM     93  C   UNL     1       7.963  15.948   7.218  1.00  0.00     0.198 A 
ATOM     94  C   UNL     1       5.615  16.327   6.897  1.00  0.00     0.198 A 
ATOM     95  F   UNL     1       4.197  14.533   6.344  1.00  0.00    -0.203 F 
ATOM     96  F   UNL     1       9.182  16.411   7.530  1.00  0.00    -0.200 F 
ATOM     97  C   UNL     1       6.879  16.812   7.195  1.00  0.00     0.200 A 
ATOM     98  F   UNL     1       4.568  17.163   6.863  1.00  0.00    -0.200 F 
ATOM     99  F   UNL     1       7.053  18.114   7.463  1.00  0.00    -0.200 F 
ENDBRANCH  66  89
ENDBRANCH  40  41
ENDBRANCH  33  35
ENDBRANCH  32  33
ENDBRANCH  31  32
ENDBRANCH  30  31
ENDBRANCH  29  30
ENDBRANCH  28  29
ENDBRANCH   1  28
TORSDOF 19
