REMARK SMILES C[C@H](C(=O)OCCOCCOC(=O)c1ccc(-c2c3nc(c(-c4c(F)c(F)c(F)c(F)c4F)c4ccc([nH]4)c(-c4c(F)c(F)c(F)c(F)c4F)c4nc(c(-c5c(F)c(F)c(F)c(F)c5F)c5ccc2[nH]5)C=C4)C=C3)cc1)c1cccc(C(=O)c2ccccc2)c1
REMARK SMILES IDX 7 1 6 2 5 3 3 4 4 5 2 6 1 7 77 8 78 9 90 10 79 11 81 12
REMARK SMILES IDX 80 13 82 14 83 15 84 16 85 17 89 18 86 19 88 20 87 21 8 22
REMARK SMILES IDX 9 23 10 24 11 25 12 26 13 27 14 28 15 29 76 30 16 31 75 32
REMARK SMILES IDX 17 33 18 34 19 35 69 36 20 37 74 38 68 39 70 40 21 41 73 42
REMARK SMILES IDX 67 43 66 44 22 46 54 47 34 48 53 49 35 50 38 51 52 52 71 53
REMARK SMILES IDX 36 54 37 55 51 57 72 58 39 59 23 60 24 61 32 62 25 63 26 64
REMARK SMILES IDX 30 65 33 66 27 67 28 68 31 69 29 70 55 71 56 72 64 73 57 74
REMARK SMILES IDX 58 75 62 76 65 77 59 78 60 79 63 80 61 81 40 82 41 83 49 84
REMARK SMILES IDX 42 85 43 86 47 87 50 88 44 89 45 90 48 91 46 92
REMARK H PARENT 70 45 38 56
REMARK Flexibility Score: inf
ROOT
ATOM      1  C   UNL     1       1.270  -0.594  -2.511  1.00  0.00     0.202 C 
ENDROOT
BRANCH   1   2
ATOM      2  C   UNL     1       2.094  -0.925  -1.264  1.00  0.00     0.261 C 
BRANCH   2   3
ATOM      3  O   UNL     1       1.353  -0.771  -0.041  1.00  0.00    -0.463 OA
BRANCH   3   4
ATOM      4  C   UNL     1       1.738   0.280   0.741  1.00  0.00     0.313 C 
ATOM      5  O   UNL     1       2.682   1.018   0.480  1.00  0.00    -0.252 OA
BRANCH   4   6
ATOM      6  C   UNL     1       0.917   0.382   2.026  1.00  0.00     0.126 C 
ATOM      7  C   UNL     1       1.394   1.620   2.805  1.00  0.00     0.025 C 
BRANCH   6   8
ATOM      8  C   UNL     1      -0.603   0.348   1.849  1.00  0.00    -0.033 A 
ATOM      9  C   UNL     1      -1.384   1.516   1.825  1.00  0.00     0.004 A 
ATOM     10  C   UNL     1      -1.266  -0.893   1.746  1.00  0.00     0.016 A 
ATOM     11  C   UNL     1      -2.777   1.448   1.761  1.00  0.00     0.001 A 
ATOM     12  C   UNL     1      -2.668  -0.974   1.714  1.00  0.00     0.023 A 
ATOM     13  C   UNL     1      -3.415   0.211   1.719  1.00  0.00     0.012 A 
BRANCH  12  14
ATOM     14  C   UNL     1      -3.424  -2.261   1.631  1.00  0.00     0.193 C 
ATOM     15  O   UNL     1      -4.611  -2.238   1.307  1.00  0.00    -0.289 OA
BRANCH  14  16
ATOM     16  C   UNL     1      -2.802  -3.587   1.870  1.00  0.00     0.022 A 
ATOM     17  C   UNL     1      -3.211  -4.654   1.060  1.00  0.00     0.012 A 
ATOM     18  C   UNL     1      -1.863  -3.810   2.882  1.00  0.00     0.012 A 
ATOM     19  C   UNL     1      -2.623  -5.911   1.201  1.00  0.00     0.001 A 
ATOM     20  C   UNL     1      -1.269  -5.068   3.014  1.00  0.00     0.001 A 
ATOM     21  C   UNL     1      -1.637  -6.111   2.164  1.00  0.00     0.000 A 
ENDBRANCH  14  16
ENDBRANCH  12  14
ENDBRANCH   6   8
ENDBRANCH   4   6
ENDBRANCH   3   4
ENDBRANCH   2   3
ENDBRANCH   1   2
BRANCH   1  22
ATOM     22  O   UNL     1       0.715   0.715  -2.597  1.00  0.00    -0.374 OA
BRANCH  22  23
ATOM     23  C   UNL     1      -0.448   0.985  -1.813  1.00  0.00     0.202 C 
BRANCH  23  24
ATOM     24  C   UNL     1      -1.772   0.387  -2.304  1.00  0.00     0.261 C 
BRANCH  24  25
ATOM     25  O   UNL     1      -1.770  -1.052  -2.251  1.00  0.00    -0.460 OA
BRANCH  25  26
ATOM     26  C   UNL     1      -1.858  -1.664  -3.455  1.00  0.00     0.338 C 
ATOM     27  O   UNL     1      -2.025  -1.137  -4.548  1.00  0.00    -0.246 OA
BRANCH  26  28
ATOM     28  C   UNL     1      -1.542  -3.097  -3.323  1.00  0.00     0.060 A 
ATOM     29  C   UNL     1      -0.555  -3.625  -4.166  1.00  0.00     0.016 A 
ATOM     30  C   UNL     1      -2.252  -3.928  -2.457  1.00  0.00     0.016 A 
ATOM     31  C   UNL     1      -0.312  -4.997  -4.185  1.00  0.00     0.010 A 
ATOM     32  C   UNL     1      -2.011  -5.307  -2.483  1.00  0.00     0.010 A 
ATOM     33  C   UNL     1      -1.067  -5.853  -3.372  1.00  0.00    -0.014 A 
BRANCH  33  34
ATOM     34  C   UNL     1      -0.984  -7.320  -3.578  1.00  0.00     0.031 A 
ATOM     35  C   UNL     1      -2.061  -8.004  -4.377  1.00  0.00     0.074 A 
ATOM     36  C   UNL     1       0.051  -8.032  -3.097  1.00  0.00     0.049 A 
ATOM     37  N   UNL     1      -2.194  -9.270  -4.682  1.00  0.00    -0.248 NA
ATOM     38  C   UNL     1      -3.134  -7.144  -4.900  1.00  0.00     0.031 C 
ATOM     39  C   UNL     1       1.170  -7.484  -2.334  1.00  0.00     0.029 A 
ATOM     40  N   UNL     1       0.327  -9.374  -3.185  1.00  0.00    -0.354 N 
ATOM     41  C   UNL     1      -3.365  -9.358  -5.423  1.00  0.00     0.074 A 
ATOM     42  C   UNL     1      -3.923  -8.026  -5.495  1.00  0.00     0.031 C 
ATOM     43  C   UNL     1       2.016  -8.482  -2.025  1.00  0.00     0.029 A 
ATOM     44  C   UNL     1       1.485  -9.741  -2.545  1.00  0.00     0.049 A 
ATOM     45  H   UNL     1      -0.251 -10.013  -3.662  1.00  0.00     0.167 HD
ATOM     46  C   UNL     1      -3.919 -10.449  -6.004  1.00  0.00     0.037 A 
ATOM     47  C   UNL     1       2.043 -10.958  -2.389  1.00  0.00     0.037 A 
ATOM     48  C   UNL     1      -3.358 -11.772  -5.949  1.00  0.00     0.049 A 
ATOM     49  C   UNL     1       1.378 -12.164  -3.000  1.00  0.00     0.074 A 
ATOM     50  C   UNL     1      -3.829 -12.934  -6.534  1.00  0.00     0.029 A 
ATOM     51  N   UNL     1      -2.201 -12.109  -5.264  1.00  0.00    -0.354 N 
ATOM     52  N   UNL     1       0.290 -12.231  -3.728  1.00  0.00    -0.248 NA
ATOM     53  C   UNL     1       2.023 -13.466  -2.769  1.00  0.00     0.031 C 
ATOM     54  C   UNL     1      -2.981 -13.984  -6.166  1.00  0.00     0.029 A 
ATOM     55  C   UNL     1      -1.956 -13.467  -5.390  1.00  0.00     0.049 A 
ATOM     56  H   UNL     1      -1.637 -11.477  -4.762  1.00  0.00     0.167 HD
ATOM     57  C   UNL     1       0.136 -13.570  -4.064  1.00  0.00     0.074 A 
ATOM     58  C   UNL     1       1.248 -14.281  -3.470  1.00  0.00     0.031 C 
ATOM     59  C   UNL     1      -0.839 -14.158  -4.801  1.00  0.00     0.037 A 
BRANCH  46  60
ATOM     60  C   UNL     1      -5.214 -10.260  -6.737  1.00  0.00     0.064 A 
ATOM     61  C   UNL     1      -5.269  -9.606  -7.977  1.00  0.00     0.173 A 
ATOM     62  C   UNL     1      -6.409 -10.770  -6.208  1.00  0.00     0.173 A 
ATOM     63  F   UNL     1      -4.156  -9.089  -8.518  1.00  0.00    -0.203 F 
ATOM     64  C   UNL     1      -6.479  -9.451  -8.650  1.00  0.00     0.198 A 
ATOM     65  C   UNL     1      -7.612 -10.635  -6.895  1.00  0.00     0.198 A 
ATOM     66  F   UNL     1      -6.408 -11.406  -5.027  1.00  0.00    -0.203 F 
ATOM     67  F   UNL     1      -6.515  -8.787  -9.814  1.00  0.00    -0.200 F 
ATOM     68  C   UNL     1      -7.647  -9.971  -8.112  1.00  0.00     0.200 A 
ATOM     69  F   UNL     1      -8.737 -11.148  -6.380  1.00  0.00    -0.200 F 
ATOM     70  F   UNL     1      -8.809  -9.826  -8.764  1.00  0.00    -0.200 F 
ENDBRANCH  46  60
BRANCH  47  71
ATOM     71  C   UNL     1       3.305 -11.103  -1.618  1.00  0.00     0.064 A 
ATOM     72  C   UNL     1       4.504 -11.457  -2.253  1.00  0.00     0.173 A 
ATOM     73  C   UNL     1       3.333 -10.917  -0.228  1.00  0.00     0.173 A 
ATOM     74  F   UNL     1       4.521 -11.674  -3.576  1.00  0.00    -0.203 F 
ATOM     75  C   UNL     1       5.679 -11.636  -1.524  1.00  0.00     0.198 A 
ATOM     76  C   UNL     1       4.514 -11.070   0.495  1.00  0.00     0.198 A 
ATOM     77  F   UNL     1       2.212 -10.580   0.427  1.00  0.00    -0.203 F 
ATOM     78  F   UNL     1       6.800 -12.019  -2.150  1.00  0.00    -0.200 F 
ATOM     79  C   UNL     1       5.684 -11.437  -0.152  1.00  0.00     0.200 A 
ATOM     80  F   UNL     1       4.516 -10.867   1.820  1.00  0.00    -0.200 F 
ATOM     81  F   UNL     1       6.814 -11.608   0.548  1.00  0.00    -0.200 F 
ENDBRANCH  47  71
BRANCH  59  82
ATOM     82  C   UNL     1      -0.732 -15.637  -5.036  1.00  0.00     0.064 A 
ATOM     83  C   UNL     1      -0.993 -16.564  -4.017  1.00  0.00     0.173 A 
ATOM     84  C   UNL     1      -0.409 -16.131  -6.309  1.00  0.00     0.173 A 
ATOM     85  F   UNL     1      -1.292 -16.140  -2.779  1.00  0.00    -0.203 F 
ATOM     86  C   UNL     1      -0.915 -17.933  -4.259  1.00  0.00     0.198 A 
ATOM     87  C   UNL     1      -0.358 -17.500  -6.554  1.00  0.00     0.198 A 
ATOM     88  F   UNL     1      -0.157 -15.285  -7.319  1.00  0.00    -0.203 F 
ATOM     89  F   UNL     1      -1.128 -18.801  -3.260  1.00  0.00    -0.200 F 
ATOM     90  C   UNL     1      -0.605 -18.400  -5.527  1.00  0.00     0.200 A 
ATOM     91  F   UNL     1      -0.070 -17.950  -7.783  1.00  0.00    -0.200 F 
ATOM     92  F   UNL     1      -0.537 -19.718  -5.760  1.00  0.00    -0.200 F 
ENDBRANCH  59  82
ENDBRANCH  33  34
ENDBRANCH  26  28
ENDBRANCH  25  26
ENDBRANCH  24  25
ENDBRANCH  23  24
ENDBRANCH  22  23
ENDBRANCH   1  22
TORSDOF 17
