REMARK SMILES C[C@](C(=O)OCCOCCOC(=O)c1ccc(-c2c3nc(c(-c4c(F)c(F)c(F)c(F)c4F)c4ccc([nH]4)c(-c4c(F)c(F)c(F)c(F)c4F)c4nc(c(-c5c(F)c(F)c(F)c(F)c5F)c5ccc2[nH]5)C=C4)C=C3)cc1)(c1cc(F)cc(F)c1)[NH+]1CCCC1
REMARK SMILES IDX 9 1 8 2 7 3 6 4 5 5 3 6 4 7 2 8 1 9 77 10 78 11 84 12 79 13
REMARK SMILES IDX 82 14 80 15 81 16 83 17 85 18 86 19 89 20 87 22 88 23 10 24
REMARK SMILES IDX 11 25 12 26 13 27 14 28 15 29 76 30 16 31 75 32 17 33 18 34
REMARK SMILES IDX 19 35 69 36 20 37 74 38 68 39 70 40 21 41 73 42 67 43 66 44
REMARK SMILES IDX 22 46 54 47 34 48 53 49 35 50 38 51 52 52 71 53 36 54 37 55
REMARK SMILES IDX 51 57 72 58 39 59 23 60 24 61 32 62 25 63 26 64 30 65 33 66
REMARK SMILES IDX 27 67 28 68 31 69 29 70 55 71 56 72 64 73 57 74 58 75 62 76
REMARK SMILES IDX 65 77 59 78 60 79 63 80 61 81 40 82 41 83 49 84 42 85 43 86
REMARK SMILES IDX 47 87 50 88 44 89 45 90 48 91 46 92
REMARK H PARENT 85 21 70 45 38 56
REMARK Flexibility Score: inf
ROOT
ATOM      1  C   UNL     1      -0.579   1.436  -1.941  1.00  0.00     0.202 C 
ENDROOT
BRANCH   1   2
ATOM      2  O   UNL     1       0.529   1.345  -2.834  1.00  0.00    -0.374 OA
BRANCH   2   3
ATOM      3  C   UNL     1       1.205   0.093  -2.918  1.00  0.00     0.202 C 
BRANCH   3   4
ATOM      4  C   UNL     1       2.103  -0.269  -1.736  1.00  0.00     0.261 C 
BRANCH   4   5
ATOM      5  O   UNL     1       1.359  -0.502  -0.526  1.00  0.00    -0.458 OA
BRANCH   5   6
ATOM      6  C   UNL     1       1.649   0.339   0.518  1.00  0.00     0.372 C 
ATOM      7  O   UNL     1       2.418   1.291   0.426  1.00  0.00    -0.244 OA
BRANCH   6   8
ATOM      8  C   UNL     1       0.917  -0.080   1.841  1.00  0.00     0.218 C 
ATOM      9  C   UNL     1       1.389   0.940   2.917  1.00  0.00     0.098 C 
BRANCH   8  10
ATOM     10  C   UNL     1      -0.622   0.004   1.638  1.00  0.00     0.029 A 
ATOM     11  C   UNL     1      -1.367   1.138   2.023  1.00  0.00     0.050 A 
ATOM     12  C   UNL     1      -1.349  -1.044   1.039  1.00  0.00     0.050 A 
ATOM     13  C   UNL     1      -2.758   1.173   1.897  1.00  0.00     0.126 A 
ATOM     14  C   UNL     1      -2.743  -1.003   0.949  1.00  0.00     0.126 A 
ATOM     15  F   UNL     1      -3.422   2.269   2.285  1.00  0.00    -0.207 F 
ATOM     16  C   UNL     1      -3.460   0.098   1.384  1.00  0.00     0.078 A 
ATOM     17  F   UNL     1      -3.398  -2.052   0.434  1.00  0.00    -0.207 F 
ENDBRANCH   8  10
BRANCH   8  18
ATOM     18  N   UNL     1       1.438  -1.362   2.391  1.00  0.00    -0.317 N 
ATOM     19  C   UNL     1       2.489  -2.122   1.738  1.00  0.00     0.263 C 
ATOM     20  C   UNL     1       0.611  -2.296   3.133  1.00  0.00     0.263 C 
ATOM     21  H   UNL     1       1.858  -0.706   3.050  1.00  0.00     0.349 HD
ATOM     22  C   UNL     1       1.752  -3.355   1.259  1.00  0.00     0.067 C 
ATOM     23  C   UNL     1       0.708  -3.605   2.344  1.00  0.00     0.067 C 
ENDBRANCH   8  18
ENDBRANCH   6   8
ENDBRANCH   5   6
ENDBRANCH   4   5
ENDBRANCH   3   4
ENDBRANCH   2   3
ENDBRANCH   1   2
BRANCH   1  24
ATOM     24  C   UNL     1      -1.872   0.752  -2.400  1.00  0.00     0.261 C 
BRANCH  24  25
ATOM     25  O   UNL     1      -1.751  -0.684  -2.437  1.00  0.00    -0.460 OA
BRANCH  25  26
ATOM     26  C   UNL     1      -1.897  -1.231  -3.666  1.00  0.00     0.338 C 
ATOM     27  O   UNL     1      -2.168  -0.651  -4.709  1.00  0.00    -0.246 OA
BRANCH  26  28
ATOM     28  C   UNL     1      -1.535  -2.659  -3.654  1.00  0.00     0.060 A 
ATOM     29  C   UNL     1      -0.576  -3.085  -4.582  1.00  0.00     0.016 A 
ATOM     30  C   UNL     1      -2.218  -3.586  -2.864  1.00  0.00     0.016 A 
ATOM     31  C   UNL     1      -0.346  -4.446  -4.776  1.00  0.00     0.010 A 
ATOM     32  C   UNL     1      -1.992  -4.954  -3.067  1.00  0.00     0.010 A 
ATOM     33  C   UNL     1      -1.090  -5.389  -4.055  1.00  0.00    -0.014 A 
BRANCH  33  34
ATOM     34  C   UNL     1      -1.038  -6.814  -4.466  1.00  0.00     0.031 A 
ATOM     35  C   UNL     1      -2.106  -7.351  -5.381  1.00  0.00     0.074 A 
ATOM     36  C   UNL     1      -0.025  -7.609  -4.078  1.00  0.00     0.049 A 
ATOM     37  N   UNL     1      -2.253  -8.556  -5.873  1.00  0.00    -0.248 NA
ATOM     38  C   UNL     1      -3.146  -6.399  -5.803  1.00  0.00     0.031 C 
ATOM     39  C   UNL     1       1.092  -7.197  -3.232  1.00  0.00     0.029 A 
ATOM     40  N   UNL     1       0.224  -8.931  -4.350  1.00  0.00    -0.354 N 
ATOM     41  C   UNL     1      -3.400  -8.507  -6.655  1.00  0.00     0.074 A 
ATOM     42  C   UNL     1      -3.926  -7.163  -6.555  1.00  0.00     0.031 C 
ATOM     43  C   UNL     1       1.909  -8.249  -3.049  1.00  0.00     0.029 A 
ATOM     44  C   UNL     1       1.357  -9.413  -3.743  1.00  0.00     0.049 A 
ATOM     45  H   UNL     1      -0.354  -9.482  -4.926  1.00  0.00     0.167 HD
ATOM     46  C   UNL     1      -3.960  -9.492  -7.398  1.00  0.00     0.037 A 
ATOM     47  C   UNL     1       1.878 -10.655  -3.736  1.00  0.00     0.037 A 
ATOM     48  C   UNL     1      -3.435 -10.828  -7.507  1.00  0.00     0.049 A 
ATOM     49  C   UNL     1       1.198 -11.750  -4.515  1.00  0.00     0.074 A 
ATOM     50  C   UNL     1      -3.918 -11.887  -8.256  1.00  0.00     0.029 A 
ATOM     51  N   UNL     1      -2.310 -11.289  -6.840  1.00  0.00    -0.354 N 
ATOM     52  N   UNL     1       0.130 -11.688  -5.273  1.00  0.00    -0.248 NA
ATOM     53  C   UNL     1       1.798 -13.090  -4.438  1.00  0.00     0.031 C 
ATOM     54  C   UNL     1      -3.110 -13.002  -8.008  1.00  0.00     0.029 A 
ATOM     55  C   UNL     1      -2.099 -12.625  -7.139  1.00  0.00     0.049 A 
ATOM     56  H   UNL     1      -1.745 -10.747  -6.243  1.00  0.00     0.167 HD
ATOM     57  C   UNL     1      -0.053 -12.967  -5.783  1.00  0.00     0.074 A 
ATOM     58  C   UNL     1       1.020 -13.784  -5.256  1.00  0.00     0.031 C 
ATOM     59  C   UNL     1      -1.022 -13.423  -6.614  1.00  0.00     0.037 A 
BRANCH  46  60
ATOM     60  C   UNL     1      -5.224  -9.169  -8.137  1.00  0.00     0.064 A 
ATOM     61  C   UNL     1      -5.220  -8.368  -9.288  1.00  0.00     0.173 A 
ATOM     62  C   UNL     1      -6.450  -9.703  -7.711  1.00  0.00     0.173 A 
ATOM     63  F   UNL     1      -4.075  -7.824  -9.728  1.00  0.00    -0.203 F 
ATOM     64  C   UNL     1      -6.401  -8.097  -9.974  1.00  0.00     0.198 A 
ATOM     65  C   UNL     1      -7.624  -9.450  -8.413  1.00  0.00     0.198 A 
ATOM     66  F   UNL     1      -6.505 -10.479  -6.618  1.00  0.00    -0.203 F 
ATOM     67  F   UNL     1      -6.381  -7.299 -11.051  1.00  0.00    -0.200 F 
ATOM     68  C   UNL     1      -7.600  -8.643  -9.541  1.00  0.00     0.200 A 
ATOM     69  F   UNL     1      -8.780  -9.986  -7.999  1.00  0.00    -0.200 F 
ATOM     70  F   UNL     1      -8.735  -8.387 -10.207  1.00  0.00    -0.200 F 
ENDBRANCH  46  60
BRANCH  47  71
ATOM     71  C   UNL     1       3.111 -10.937  -2.958  1.00  0.00     0.064 A 
ATOM     72  C   UNL     1       4.322 -11.231  -3.600  1.00  0.00     0.173 A 
ATOM     73  C   UNL     1       3.099 -10.936  -1.555  1.00  0.00     0.173 A 
ATOM     74  F   UNL     1       4.376 -11.270  -4.939  1.00  0.00    -0.203 F 
ATOM     75  C   UNL     1       5.470 -11.528  -2.869  1.00  0.00     0.198 A 
ATOM     76  C   UNL     1       4.253 -11.208  -0.825  1.00  0.00     0.198 A 
ATOM     77  F   UNL     1       1.964 -10.665  -0.893  1.00  0.00    -0.203 F 
ATOM     78  F   UNL     1       6.604 -11.848  -3.507  1.00  0.00    -0.200 F 
ATOM     79  C   UNL     1       5.436 -11.511  -1.482  1.00  0.00     0.200 A 
ATOM     80  F   UNL     1       4.219 -11.181   0.514  1.00  0.00    -0.200 F 
ATOM     81  F   UNL     1       6.541 -11.794  -0.780  1.00  0.00    -0.200 F 
ENDBRANCH  47  71
BRANCH  59  82
ATOM     82  C   UNL     1      -0.951 -14.863  -7.032  1.00  0.00     0.064 A 
ATOM     83  C   UNL     1      -1.279 -15.901  -6.149  1.00  0.00     0.173 A 
ATOM     84  C   UNL     1      -0.593 -15.204  -8.345  1.00  0.00     0.173 A 
ATOM     85  F   UNL     1      -1.613 -15.627  -4.879  1.00  0.00    -0.203 F 
ATOM     86  C   UNL     1      -1.230 -17.231  -6.560  1.00  0.00     0.198 A 
ATOM     87  C   UNL     1      -0.570 -16.532  -8.760  1.00  0.00     0.198 A 
ATOM     88  F   UNL     1      -0.277 -14.246  -9.230  1.00  0.00    -0.203 F 
ATOM     89  F   UNL     1      -1.507 -18.210  -5.687  1.00  0.00    -0.200 F 
ATOM     90  C   UNL     1      -0.883 -17.545  -7.865  1.00  0.00     0.200 A 
ATOM     91  F   UNL     1      -0.245 -16.833 -10.025  1.00  0.00    -0.200 F 
ATOM     92  F   UNL     1      -0.842 -18.825  -8.260  1.00  0.00    -0.200 F 
ENDBRANCH  59  82
ENDBRANCH  33  34
ENDBRANCH  26  28
ENDBRANCH  25  26
ENDBRANCH  24  25
ENDBRANCH   1  24
TORSDOF 16
