REMARK SMILES COc1cc2ccccc2cc1C(=O)Nc1cc(C(=O)OCCOCCOC(=O)c2ccc(-c3c4nc(c(-c5c(F)c(F)c(F)c(F)c5F)c5ccc([nH]5)c(-c5c(F)c(F)c(F)c(F)c5F)c5nc(c(-c6c(F)c(F)c(F)c(F)c6F)c6ccc3[nH]6)C=C5)C=C4)cc2)ccc1C
REMARK SMILES IDX 23 1 22 2 21 3 19 4 20 5 18 6 16 7 17 8 95 9 94 10 96 11
REMARK SMILES IDX 93 12 15 13 13 14 14 15 12 17 3 18 4 19 5 20 11 21 6 22
REMARK SMILES IDX 10 23 7 24 9 25 8 26 2 27 1 28 24 29 25 30 26 31 27 32 28 33
REMARK SMILES IDX 29 34 30 35 31 36 92 37 32 38 91 39 33 40 34 41 35 42 85 43
REMARK SMILES IDX 36 44 90 45 84 46 86 47 37 48 89 49 83 50 82 51 38 53 70 54
REMARK SMILES IDX 50 55 69 56 51 57 54 58 68 59 87 60 52 61 53 62 67 64 88 65
REMARK SMILES IDX 55 66 39 67 40 68 48 69 41 70 42 71 46 72 49 73 43 74 44 75
REMARK SMILES IDX 47 76 45 77 71 78 72 79 80 80 73 81 74 82 78 83 81 84 75 85
REMARK SMILES IDX 76 86 79 87 77 88 56 89 57 90 65 91 58 92 59 93 63 94 66 95
REMARK SMILES IDX 60 96 61 97 64 98 62 99
REMARK H PARENT 15 16 86 52 54 63
REMARK Flexibility Score: inf
ROOT
ATOM      1  C   UNL     1      -0.251   5.292   2.699  1.00  0.00     0.202 C 
ENDROOT
BRANCH   1   2
ATOM      2  C   UNL     1      -0.083   3.852   3.016  1.00  0.00     0.261 C 
BRANCH   2   3
ATOM      3  O   UNL     1       0.156   3.179   1.791  1.00  0.00    -0.460 OA
BRANCH   3   4
ATOM      4  C   UNL     1      -0.882   2.712   1.056  1.00  0.00     0.338 C 
ATOM      5  O   UNL     1      -2.083   2.858   1.161  1.00  0.00    -0.246 OA
BRANCH   4   6
ATOM      6  C   UNL     1      -0.216   1.893   0.054  1.00  0.00     0.062 A 
ATOM      7  C   UNL     1       1.644   0.453  -0.445  1.00  0.00     0.045 A 
ATOM      8  C   UNL     1       0.941   1.210   0.444  1.00  0.00     0.042 A 
ATOM      9  C   UNL     1       1.343   0.611  -1.806  1.00  0.00    -0.027 A 
ATOM     10  C   UNL     1       0.131   1.240  -2.187  1.00  0.00     0.006 A 
ATOM     11  C   UNL     1       2.202   0.057  -2.898  1.00  0.00     0.046 C 
ATOM     12  C   UNL     1      -0.693   1.834  -1.242  1.00  0.00     0.016 A 
BRANCH   7  13
ATOM     13  N   UNL     1       2.651  -0.391   0.039  1.00  0.00    -0.322 N 
ATOM     14  C   UNL     1       2.735  -1.241   1.147  1.00  0.00     0.259 C 
ATOM     15  O   UNL     1       3.878  -1.667   1.368  1.00  0.00    -0.269 OA
ATOM     16  H   UNL     1       3.467  -0.385  -0.513  1.00  0.00     0.170 HD
BRANCH  14  17
ATOM     17  C   UNL     1       1.625  -1.703   2.102  1.00  0.00     0.082 A 
ATOM     18  C   UNL     1       0.221  -1.737   1.881  1.00  0.00     0.132 A 
ATOM     19  C   UNL     1      -0.732  -1.767   2.960  1.00  0.00     0.056 A 
ATOM     20  C   UNL     1      -0.373  -1.570   4.329  1.00  0.00    -0.015 A 
ATOM     21  C   UNL     1       2.128  -2.012   3.414  1.00  0.00     0.026 A 
ATOM     22  C   UNL     1      -1.400  -1.029   5.805  1.00  0.00     0.009 A 
ATOM     23  C   UNL     1       1.353  -1.903   4.586  1.00  0.00    -0.017 A 
ATOM     24  C   UNL     1      -0.672  -0.910   7.472  1.00  0.00     0.001 A 
ATOM     25  C   UNL     1       2.050  -1.828   6.249  1.00  0.00     0.009 A 
ATOM     26  C   UNL     1       1.082  -1.304   7.691  1.00  0.00     0.001 A 
BRANCH  18  27
ATOM     27  O   UNL     1      -0.415  -1.449   0.694  1.00  0.00    -0.496 OA
ATOM     28  C   UNL     1      -0.042  -2.197  -0.451  1.00  0.00     0.278 C 
ENDBRANCH  18  27
ENDBRANCH  14  17
ENDBRANCH   7  13
ENDBRANCH   4   6
ENDBRANCH   3   4
ENDBRANCH   2   3
ENDBRANCH   1   2
BRANCH   1  29
ATOM     29  O   UNL     1      -1.491   5.305   2.014  1.00  0.00    -0.374 OA
BRANCH  29  30
ATOM     30  C   UNL     1      -1.583   6.133   0.882  1.00  0.00     0.202 C 
BRANCH  30  31
ATOM     31  C   UNL     1      -1.492   7.577   1.355  1.00  0.00     0.261 C 
BRANCH  31  32
ATOM     32  O   UNL     1      -2.526   7.804   2.358  1.00  0.00    -0.460 OA
BRANCH  32  33
ATOM     33  C   UNL     1      -2.157   7.653   3.669  1.00  0.00     0.338 C 
ATOM     34  O   UNL     1      -1.181   8.182   4.179  1.00  0.00    -0.246 OA
BRANCH  33  35
ATOM     35  C   UNL     1      -2.902   6.513   4.325  1.00  0.00     0.060 A 
ATOM     36  C   UNL     1      -2.431   5.972   5.544  1.00  0.00     0.016 A 
ATOM     37  C   UNL     1      -3.727   5.740   3.519  1.00  0.00     0.016 A 
ATOM     38  C   UNL     1      -2.616   4.609   5.846  1.00  0.00     0.010 A 
ATOM     39  C   UNL     1      -3.751   4.373   3.737  1.00  0.00     0.010 A 
ATOM     40  C   UNL     1      -3.200   3.782   4.891  1.00  0.00    -0.014 A 
BRANCH  40  41
ATOM     41  C   UNL     1      -3.206   2.303   4.918  1.00  0.00     0.031 A 
ATOM     42  C   UNL     1      -4.454   1.572   4.552  1.00  0.00     0.074 A 
ATOM     43  C   UNL     1      -2.040   1.640   4.806  1.00  0.00     0.049 A 
ATOM     44  N   UNL     1      -4.617   0.299   4.379  1.00  0.00    -0.248 NA
ATOM     45  C   UNL     1      -5.703   2.321   4.485  1.00  0.00     0.031 C 
ATOM     46  C   UNL     1      -1.583   1.049   3.554  1.00  0.00     0.029 A 
ATOM     47  N   UNL     1      -0.861   1.747   5.544  1.00  0.00    -0.354 N 
ATOM     48  C   UNL     1      -5.966   0.081   4.099  1.00  0.00     0.074 A 
ATOM     49  C   UNL     1      -6.574   1.381   4.142  1.00  0.00     0.031 C 
ATOM     50  C   UNL     1      -0.261   0.825   3.679  1.00  0.00     0.029 A 
ATOM     51  C   UNL     1       0.127   0.822   5.064  1.00  0.00     0.049 A 
ATOM     52  H   UNL     1      -0.725   2.372   6.292  1.00  0.00     0.167 HD
ATOM     53  C   UNL     1      -6.457  -1.172   3.867  1.00  0.00     0.037 A 
ATOM     54  C   UNL     1       0.571  -0.309   5.864  1.00  0.00     0.037 A 
ATOM     55  C   UNL     1      -5.405  -2.169   4.061  1.00  0.00     0.049 A 
ATOM     56  C   UNL     1       0.039  -2.380   6.221  1.00  0.00     0.074 A 
ATOM     57  C   UNL     1      -4.561  -2.825   3.188  1.00  0.00     0.029 A 
ATOM     58  N   UNL     1      -4.929  -2.440   5.341  1.00  0.00    -0.354 N 
ATOM     59  N   UNL     1      -0.927  -3.215   5.600  1.00  0.00    -0.248 NA
ATOM     60  C   UNL     1       0.288  -3.477   7.458  1.00  0.00     0.031 C 
ATOM     61  C   UNL     1      -3.571  -3.494   3.957  1.00  0.00     0.029 A 
ATOM     62  C   UNL     1      -3.805  -3.262   5.303  1.00  0.00     0.049 A 
ATOM     63  H   UNL     1      -5.335  -2.093   6.168  1.00  0.00     0.167 HD
ATOM     64  C   UNL     1      -1.757  -3.790   6.548  1.00  0.00     0.074 A 
ATOM     65  C   UNL     1      -0.844  -4.185   7.571  1.00  0.00     0.031 C 
ATOM     66  C   UNL     1      -3.137  -3.704   6.534  1.00  0.00     0.037 A 
BRANCH  53  67
ATOM     67  C   UNL     1      -7.855  -1.542   3.334  1.00  0.00     0.064 A 
ATOM     68  C   UNL     1      -8.102  -2.861   2.878  1.00  0.00     0.173 A 
ATOM     69  C   UNL     1      -8.975  -0.690   3.184  1.00  0.00     0.173 A 
ATOM     70  F   UNL     1      -7.185  -3.827   3.016  1.00  0.00    -0.203 F 
ATOM     71  C   UNL     1      -9.303  -3.253   2.263  1.00  0.00     0.198 A 
ATOM     72  C   UNL     1     -10.168  -1.074   2.552  1.00  0.00     0.198 A 
ATOM     73  F   UNL     1      -9.019   0.543   3.683  1.00  0.00    -0.203 F 
ATOM     74  F   UNL     1      -9.452  -4.516   1.841  1.00  0.00    -0.200 F 
ATOM     75  C   UNL     1     -10.329  -2.353   2.080  1.00  0.00     0.200 A 
ATOM     76  F   UNL     1     -11.162  -0.182   2.417  1.00  0.00    -0.200 F 
ATOM     77  F   UNL     1     -11.468  -2.718   1.477  1.00  0.00    -0.200 F 
ENDBRANCH  53  67
BRANCH  54  78
ATOM     78  C   UNL     1       1.569   0.831   6.732  1.00  0.00     0.064 A 
ATOM     79  C   UNL     1       2.680   1.314   5.993  1.00  0.00     0.173 A 
ATOM     80  C   UNL     1       0.939   1.791   7.587  1.00  0.00     0.173 A 
ATOM     81  F   UNL     1       3.428   0.473   5.265  1.00  0.00    -0.203 F 
ATOM     82  C   UNL     1       2.886   2.687   5.825  1.00  0.00     0.198 A 
ATOM     83  C   UNL     1       1.142   3.163   7.392  1.00  0.00     0.198 A 
ATOM     84  F   UNL     1      -0.081   1.455   8.391  1.00  0.00    -0.203 F 
ATOM     85  F   UNL     1       3.777   3.121   4.922  1.00  0.00    -0.200 F 
ATOM     86  C   UNL     1       2.059   3.603   6.455  1.00  0.00     0.200 A 
ATOM     87  F   UNL     1       0.278   4.039   7.929  1.00  0.00    -0.200 F 
ATOM     88  F   UNL     1       2.060   4.889   6.073  1.00  0.00    -0.200 F 
ENDBRANCH  54  78
BRANCH  66  89
ATOM     89  C   UNL     1      -3.956  -4.099   7.746  1.00  0.00     0.064 A 
ATOM     90  C   UNL     1      -3.515  -3.917   9.067  1.00  0.00     0.173 A 
ATOM     91  C   UNL     1      -5.225  -4.699   7.608  1.00  0.00     0.173 A 
ATOM     92  F   UNL     1      -2.476  -3.116   9.347  1.00  0.00    -0.203 F 
ATOM     93  C   UNL     1      -4.139  -4.552  10.140  1.00  0.00     0.198 A 
ATOM     94  C   UNL     1      -5.896  -5.259   8.694  1.00  0.00     0.198 A 
ATOM     95  F   UNL     1      -5.846  -4.756   6.421  1.00  0.00    -0.203 F 
ATOM     96  F   UNL     1      -3.583  -4.498  11.358  1.00  0.00    -0.200 F 
ATOM     97  C   UNL     1      -5.312  -5.255   9.945  1.00  0.00     0.200 A 
ATOM     98  F   UNL     1      -7.098  -5.824   8.517  1.00  0.00    -0.200 F 
ATOM     99  F   UNL     1      -5.886  -5.910  10.963  1.00  0.00    -0.200 F 
ENDBRANCH  66  89
ENDBRANCH  40  41
ENDBRANCH  33  35
ENDBRANCH  32  33
ENDBRANCH  31  32
ENDBRANCH  30  31
ENDBRANCH  29  30
ENDBRANCH   1  29
TORSDOF 17
