REMARK SMILES CC[C@@H](C)c1nc2cc(C(=O)OCCOCCOC(=O)c3ccc(-c4c5nc(c(-c6c(F)c(F)c(F)c(F)c6F)c6ccc([nH]6)c(-c6c(F)c(F)c(F)c(F)c6F)c6nc(c(-c7c(F)c(F)c(F)c(F)c7F)c7ccc4[nH]7)C=C6)C=C5)cc3)ccc2n1[C@@H](C)CC
REMARK SMILES IDX 15 1 14 2 13 3 12 4 10 5 11 6 9 7 5 8 6 9 87 10 7 11 86 12
REMARK SMILES IDX 8 13 85 14 84 15 3 16 4 17 2 18 1 19 88 20 89 21 90 22 91 23
REMARK SMILES IDX 16 24 17 25 18 26 19 27 20 28 21 29 22 30 83 31 23 32 82 33
REMARK SMILES IDX 24 34 25 35 26 36 76 37 27 38 81 39 75 40 77 41 28 42 80 43
REMARK SMILES IDX 74 44 73 45 29 47 61 48 41 49 60 50 42 51 45 52 59 53 78 54
REMARK SMILES IDX 43 55 44 56 58 58 79 59 46 60 30 61 31 62 39 63 32 64 33 65
REMARK SMILES IDX 37 66 40 67 34 68 35 69 38 70 36 71 62 72 63 73 71 74 64 75
REMARK SMILES IDX 65 76 69 77 72 78 66 79 67 80 70 81 68 82 47 83 48 84 56 85
REMARK SMILES IDX 49 86 50 87 54 88 57 89 51 90 52 91 55 92 53 93
REMARK H PARENT 77 46 45 57
REMARK Flexibility Score: inf
ROOT
ATOM      1  O   UNL     1      -5.131   8.651  -1.094  1.00  0.00    -0.374 OA
ENDROOT
BRANCH   1   2
ATOM      2  C   UNL     1      -4.904   9.868  -0.397  1.00  0.00     0.202 C 
BRANCH   2   3
ATOM      3  C   UNL     1      -3.781   9.940   0.644  1.00  0.00     0.261 C 
BRANCH   3   4
ATOM      4  O   UNL     1      -2.573   9.316   0.216  1.00  0.00    -0.460 OA
BRANCH   4   5
ATOM      5  C   UNL     1      -2.367   8.129   0.831  1.00  0.00     0.338 C 
ATOM      6  O   UNL     1      -3.007   7.660   1.759  1.00  0.00    -0.246 OA
BRANCH   5   7
ATOM      7  C   UNL     1      -1.343   7.354   0.119  1.00  0.00     0.062 A 
ATOM      8  C   UNL     1       0.540   3.472  -1.095  1.00  0.00     0.112 A 
ATOM      9  N   UNL     1      -0.667   3.824  -0.705  1.00  0.00    -0.233 NA
ATOM     10  N   UNL     1       1.345   4.588  -1.259  1.00  0.00    -0.325 N 
ATOM     11  C   UNL     1      -0.631   5.169  -0.538  1.00  0.00     0.090 A 
ATOM     12  C   UNL     1       0.585   5.703  -0.942  1.00  0.00     0.068 A 
ATOM     13  C   UNL     1      -1.617   5.990  -0.005  1.00  0.00     0.046 A 
ATOM     14  C   UNL     1       0.837   7.086  -0.921  1.00  0.00     0.029 A 
ATOM     15  C   UNL     1      -0.160   7.910  -0.377  1.00  0.00     0.018 A 
BRANCH   8  16
ATOM     16  C   UNL     1       0.931   2.029  -1.265  1.00  0.00     0.052 C 
ATOM     17  C   UNL     1       0.313   1.481  -2.554  1.00  0.00     0.016 C 
BRANCH  16  18
ATOM     18  C   UNL     1       0.467   1.236  -0.022  1.00  0.00     0.008 C 
ATOM     19  C   UNL     1       0.991  -0.190   0.019  1.00  0.00     0.004 C 
ENDBRANCH  16  18
ENDBRANCH   8  16
BRANCH  10  20
ATOM     20  C   UNL     1       2.768   4.643  -1.586  1.00  0.00     0.085 C 
ATOM     21  C   UNL     1       3.629   4.092  -0.444  1.00  0.00     0.031 C 
BRANCH  20  22
ATOM     22  C   UNL     1       3.126   4.036  -2.953  1.00  0.00     0.022 C 
ATOM     23  C   UNL     1       2.374   4.698  -4.102  1.00  0.00     0.006 C 
ENDBRANCH  20  22
ENDBRANCH  10  20
ENDBRANCH   5   7
ENDBRANCH   4   5
ENDBRANCH   3   4
ENDBRANCH   2   3
ENDBRANCH   1   2
BRANCH   1  24
ATOM     24  C   UNL     1      -4.194   8.261  -2.106  1.00  0.00     0.202 C 
BRANCH  24  25
ATOM     25  C   UNL     1      -3.942   9.197  -3.306  1.00  0.00     0.261 C 
BRANCH  25  26
ATOM     26  O   UNL     1      -3.294  10.411  -2.898  1.00  0.00    -0.460 OA
BRANCH  26  27
ATOM     27  C   UNL     1      -3.801  11.556  -3.442  1.00  0.00     0.338 C 
ATOM     28  O   UNL     1      -4.438  11.677  -4.461  1.00  0.00    -0.246 OA
BRANCH  27  29
ATOM     29  C   UNL     1      -3.785  12.536  -2.333  1.00  0.00     0.060 A 
ATOM     30  C   UNL     1      -2.636  12.715  -1.562  1.00  0.00     0.016 A 
ATOM     31  C   UNL     1      -5.043  12.975  -1.882  1.00  0.00     0.016 A 
ATOM     32  C   UNL     1      -2.766  13.256  -0.289  1.00  0.00     0.010 A 
ATOM     33  C   UNL     1      -5.177  13.458  -0.585  1.00  0.00     0.010 A 
ATOM     34  C   UNL     1      -4.043  13.570   0.222  1.00  0.00    -0.014 A 
BRANCH  34  35
ATOM     35  C   UNL     1      -4.098  14.310   1.486  1.00  0.00     0.031 A 
ATOM     36  C   UNL     1      -3.551  15.679   1.284  1.00  0.00     0.074 A 
ATOM     37  C   UNL     1      -4.665  13.923   2.650  1.00  0.00     0.049 A 
ATOM     38  N   UNL     1      -2.495  16.195   1.819  1.00  0.00    -0.248 NA
ATOM     39  C   UNL     1      -4.141  16.495   0.205  1.00  0.00     0.031 C 
ATOM     40  C   UNL     1      -5.470  12.725   2.897  1.00  0.00     0.029 A 
ATOM     41  N   UNL     1      -4.722  14.575   3.858  1.00  0.00    -0.354 N 
ATOM     42  C   UNL     1      -2.413  17.479   1.288  1.00  0.00     0.074 A 
ATOM     43  C   UNL     1      -3.312  17.536   0.171  1.00  0.00     0.031 C 
ATOM     44  C   UNL     1      -6.112  12.848   4.083  1.00  0.00     0.029 A 
ATOM     45  C   UNL     1      -5.687  14.076   4.735  1.00  0.00     0.049 A 
ATOM     46  H   UNL     1      -4.133  15.330   4.086  1.00  0.00     0.167 HD
ATOM     47  C   UNL     1      -1.878  18.488   2.021  1.00  0.00     0.037 A 
ATOM     48  C   UNL     1      -6.146  14.663   5.874  1.00  0.00     0.037 A 
ATOM     49  C   UNL     1      -1.036  17.980   3.068  1.00  0.00     0.049 A 
ATOM     50  C   UNL     1      -5.133  15.653   6.301  1.00  0.00     0.074 A 
ATOM     51  C   UNL     1       0.160  17.301   3.141  1.00  0.00     0.029 A 
ATOM     52  N   UNL     1      -1.667  17.827   4.270  1.00  0.00    -0.354 N 
ATOM     53  N   UNL     1      -3.962  15.344   6.779  1.00  0.00    -0.248 NA
ATOM     54  C   UNL     1      -5.307  17.048   5.915  1.00  0.00     0.031 C 
ATOM     55  C   UNL     1       0.098  16.532   4.340  1.00  0.00     0.029 A 
ATOM     56  C   UNL     1      -1.111  16.802   4.980  1.00  0.00     0.049 A 
ATOM     57  H   UNL     1      -2.418  18.381   4.582  1.00  0.00     0.167 HD
ATOM     58  C   UNL     1      -3.141  16.365   6.344  1.00  0.00     0.074 A 
ATOM     59  C   UNL     1      -4.039  17.454   5.986  1.00  0.00     0.031 C 
ATOM     60  C   UNL     1      -1.847  16.104   6.010  1.00  0.00     0.037 A 
BRANCH  47  61
ATOM     61  C   UNL     1      -2.547  19.842   2.129  1.00  0.00     0.064 A 
ATOM     62  C   UNL     1      -1.880  20.887   2.794  1.00  0.00     0.173 A 
ATOM     63  C   UNL     1      -3.927  20.055   1.896  1.00  0.00     0.173 A 
ATOM     64  F   UNL     1      -0.588  20.761   3.134  1.00  0.00    -0.203 F 
ATOM     65  C   UNL     1      -2.550  22.041   3.212  1.00  0.00     0.198 A 
ATOM     66  C   UNL     1      -4.577  21.231   2.257  1.00  0.00     0.198 A 
ATOM     67  F   UNL     1      -4.731  19.092   1.431  1.00  0.00    -0.203 F 
ATOM     68  F   UNL     1      -1.904  22.957   3.946  1.00  0.00    -0.200 F 
ATOM     69  C   UNL     1      -3.895  22.216   2.937  1.00  0.00     0.200 A 
ATOM     70  F   UNL     1      -5.890  21.357   2.018  1.00  0.00    -0.200 F 
ATOM     71  F   UNL     1      -4.548  23.299   3.375  1.00  0.00    -0.200 F 
ENDBRANCH  47  61
BRANCH  48  72
ATOM     72  C   UNL     1      -7.497  14.646   6.505  1.00  0.00     0.064 A 
ATOM     73  C   UNL     1      -7.703  15.185   7.794  1.00  0.00     0.173 A 
ATOM     74  C   UNL     1      -8.658  14.403   5.750  1.00  0.00     0.173 A 
ATOM     75  F   UNL     1      -6.657  15.480   8.581  1.00  0.00    -0.203 F 
ATOM     76  C   UNL     1      -8.979  15.518   8.264  1.00  0.00     0.198 A 
ATOM     77  C   UNL     1      -9.933  14.727   6.226  1.00  0.00     0.198 A 
ATOM     78  F   UNL     1      -8.578  13.944   4.495  1.00  0.00    -0.203 F 
ATOM     79  F   UNL     1      -9.120  16.112   9.458  1.00  0.00    -0.200 F 
ATOM     80  C   UNL     1     -10.092  15.304   7.472  1.00  0.00     0.200 A 
ATOM     81  F   UNL     1     -11.001  14.544   5.436  1.00  0.00    -0.200 F 
ATOM     82  F   UNL     1     -11.306  15.695   7.886  1.00  0.00    -0.200 F 
ENDBRANCH  48  72
BRANCH  60  83
ATOM     83  C   UNL     1      -1.197  14.900   6.614  1.00  0.00     0.064 A 
ATOM     84  C   UNL     1      -1.558  13.571   6.343  1.00  0.00     0.173 A 
ATOM     85  C   UNL     1      -0.060  15.121   7.406  1.00  0.00     0.173 A 
ATOM     86  F   UNL     1      -2.590  13.285   5.536  1.00  0.00    -0.203 F 
ATOM     87  C   UNL     1      -0.812  12.512   6.858  1.00  0.00     0.198 A 
ATOM     88  C   UNL     1       0.703  14.064   7.883  1.00  0.00     0.198 A 
ATOM     89  F   UNL     1       0.343  16.375   7.667  1.00  0.00    -0.203 F 
ATOM     90  F   UNL     1      -1.169  11.247   6.592  1.00  0.00    -0.200 F 
ATOM     91  C   UNL     1       0.325  12.759   7.613  1.00  0.00     0.200 A 
ATOM     92  F   UNL     1       1.825  14.312   8.572  1.00  0.00    -0.200 F 
ATOM     93  F   UNL     1       1.074  11.741   8.057  1.00  0.00    -0.200 F 
ENDBRANCH  60  83
ENDBRANCH  34  35
ENDBRANCH  27  29
ENDBRANCH  26  27
ENDBRANCH  25  26
ENDBRANCH  24  25
ENDBRANCH   1  24
TORSDOF 18
