REMARK SMILES C=C[C@@H]1[C@@H](O)C[C@@H]2[C@@]3(CC[C@@]4(C)[C@@H]([C@H](C)CCC=C(C)C)CC[C@@]24C)C[C@@]13CCC(=O)OCCOCCOC(=O)c1ccc(-c2c3nc(c(-c4c(F)c(F)c(F)c(F)c4F)c4ccc([nH]4)c(-c4c(F)c(F)c(F)c(F)c4F)c4nc(c(-c5c(F)c(F)c(F)c(F)c5F)c5ccc2[nH]5)C=C4)C=C3)cc1
REMARK SMILES IDX 33 1 32 2 30 3 31 4 29 5 28 6 27 7 3 8 4 9 6 10 8 11 26 12
REMARK SMILES IDX 7 13 9 14 24 15 10 16 11 17 23 18 25 19 12 20 13 21 22 22
REMARK SMILES IDX 2 23 1 24 5 25 14 27 15 28 16 29 17 30 18 31 19 32 20 33
REMARK SMILES IDX 21 34 34 35 35 36 36 37 37 38 38 39 39 40 40 41 41 42 42 43
REMARK SMILES IDX 103 44 43 45 102 46 44 47 45 48 46 49 96 50 47 51 101 52
REMARK SMILES IDX 95 53 97 54 48 55 100 56 94 57 93 58 49 60 81 61 61 62 80 63
REMARK SMILES IDX 62 64 65 65 79 66 98 67 63 68 64 69 78 71 99 72 66 73 50 74
REMARK SMILES IDX 51 75 59 76 52 77 53 78 57 79 60 80 54 81 55 82 58 83 56 84
REMARK SMILES IDX 82 85 83 86 91 87 84 88 85 89 89 90 92 91 86 92 87 93 90 94
REMARK SMILES IDX 88 95 67 96 68 97 76 98 69 99 70 100 74 101 77 102 71 103
REMARK SMILES IDX 72 104 75 105 73 106
REMARK H PARENT 5 26 97 59 65 70
REMARK Flexibility Score: inf
ROOT
ATOM      1  C   UNL     1      -0.981  -4.295   5.378  1.00  0.00     0.261 C 
ENDROOT
BRANCH   1   2
ATOM      2  O   UNL     1      -0.720  -5.339   6.292  1.00  0.00    -0.463 OA
BRANCH   2   3
ATOM      3  C   UNL     1      -1.733  -6.266   6.226  1.00  0.00     0.305 C 
ATOM      4  O   UNL     1      -2.511  -6.437   5.294  1.00  0.00    -0.252 OA
BRANCH   3   5
ATOM      5  C   UNL     1      -1.886  -6.970   7.520  1.00  0.00     0.123 C 
BRANCH   5   6
ATOM      6  C   UNL     1      -2.226  -5.951   8.612  1.00  0.00     0.020 C 
BRANCH   6   7
ATOM      7  C   UNL     1      -3.517  -5.137   8.382  1.00  0.00    -0.014 C 
ATOM      8  C   UNL     1      -4.867  -5.919   8.472  1.00  0.00     0.047 C 
ATOM      9  C   UNL     1      -5.868  -5.519   7.351  1.00  0.00     0.122 C 
ATOM     10  C   UNL     1      -5.844  -4.036   7.002  1.00  0.00     0.037 C 
ATOM     11  C   UNL     1      -3.426  -3.724   7.642  1.00  0.00    -0.019 C 
ATOM     12  C   UNL     1      -3.681  -3.857   9.137  1.00  0.00     0.016 C 
ATOM     13  C   UNL     1      -4.460  -3.656   6.457  1.00  0.00     0.005 C 
ATOM     14  C   UNL     1      -2.217  -2.809   7.524  1.00  0.00     0.008 C 
ATOM     15  C   UNL     1      -4.480  -2.308   5.640  1.00  0.00    -0.023 C 
ATOM     16  C   UNL     1      -2.238  -1.831   6.350  1.00  0.00     0.008 C 
ATOM     17  C   UNL     1      -3.061  -2.003   5.026  1.00  0.00    -0.024 C 
ATOM     18  C   UNL     1      -5.340  -2.288   4.364  1.00  0.00     0.008 C 
ATOM     19  C   UNL     1      -5.021  -1.260   6.644  1.00  0.00     0.012 C 
ATOM     20  C   UNL     1      -2.935  -0.541   4.402  1.00  0.00     0.012 C 
ATOM     21  C   UNL     1      -2.975  -2.885   3.574  1.00  0.00    -0.002 C 
ATOM     22  C   UNL     1      -4.470  -2.629   3.140  1.00  0.00     0.005 C 
BRANCH   8  23
ATOM     23  C   UNL     1      -4.827  -7.428   8.595  1.00  0.00    -0.028 C 
ATOM     24  C   UNL     1      -4.473  -8.101   9.699  1.00  0.00     0.004 C 
ENDBRANCH   8  23
BRANCH   9  25
ATOM     25  O   UNL     1      -7.210  -5.837   7.742  1.00  0.00    -0.392 OA
ATOM     26  H   UNL     1      -7.452  -5.313   8.522  1.00  0.00     0.210 HD
ENDBRANCH   9  25
BRANCH  21  27
ATOM     27  C   UNL     1      -2.452  -4.267   2.730  1.00  0.00    -0.010 C 
ATOM     28  C   UNL     1      -3.478  -5.401   2.625  1.00  0.00     0.008 C 
BRANCH  27  29
ATOM     29  C   UNL     1      -0.934  -4.798   2.332  1.00  0.00     0.008 C 
BRANCH  29  30
ATOM     30  C   UNL     1       0.139  -5.684   3.119  1.00  0.00     0.027 C 
BRANCH  30  31
ATOM     31  C   UNL     1       0.384  -7.151   2.923  1.00  0.00    -0.028 C 
ATOM     32  C   UNL     1       1.316  -7.818   3.654  1.00  0.00    -0.080 C 
ATOM     33  C   UNL     1       2.048  -8.966   3.018  1.00  0.00     0.039 C 
ATOM     34  C   UNL     1       1.898  -7.394   4.993  1.00  0.00     0.039 C 
ENDBRANCH  30  31
ENDBRANCH  29  30
ENDBRANCH  27  29
ENDBRANCH  21  27
ENDBRANCH   6   7
ENDBRANCH   5   6
ENDBRANCH   3   5
ENDBRANCH   2   3
ENDBRANCH   1   2
BRANCH   1  35
ATOM     35  C   UNL     1       0.087  -3.249   5.003  1.00  0.00     0.202 C 
BRANCH  35  36
ATOM     36  O   UNL     1       1.230  -3.252   5.826  1.00  0.00    -0.374 OA
BRANCH  36  37
ATOM     37  C   UNL     1       1.921  -1.991   5.771  1.00  0.00     0.202 C 
BRANCH  37  38
ATOM     38  C   UNL     1       1.640  -1.178   7.051  1.00  0.00     0.261 C 
BRANCH  38  39
ATOM     39  O   UNL     1       0.404  -0.400   7.148  1.00  0.00    -0.460 OA
BRANCH  39  40
ATOM     40  C   UNL     1       0.247   0.777   6.484  1.00  0.00     0.338 C 
ATOM     41  O   UNL     1       1.052   1.227   5.673  1.00  0.00    -0.246 OA
BRANCH  40  42
ATOM     42  C   UNL     1      -1.118   1.407   6.751  1.00  0.00     0.060 A 
ATOM     43  C   UNL     1      -1.737   2.167   5.738  1.00  0.00     0.016 A 
ATOM     44  C   UNL     1      -1.884   1.132   7.894  1.00  0.00     0.016 A 
ATOM     45  C   UNL     1      -3.123   2.493   5.786  1.00  0.00     0.010 A 
ATOM     46  C   UNL     1      -3.266   1.487   7.954  1.00  0.00     0.010 A 
ATOM     47  C   UNL     1      -3.927   2.138   6.880  1.00  0.00    -0.014 A 
BRANCH  47  48
ATOM     48  C   UNL     1      -5.305   2.769   7.040  1.00  0.00     0.031 A 
ATOM     49  C   UNL     1      -5.282   4.088   7.769  1.00  0.00     0.074 A 
ATOM     50  C   UNL     1      -6.506   2.358   6.543  1.00  0.00     0.049 A 
ATOM     51  N   UNL     1      -6.244   4.942   8.001  1.00  0.00    -0.248 NA
ATOM     52  C   UNL     1      -3.961   4.523   8.258  1.00  0.00     0.031 C 
ATOM     53  C   UNL     1      -6.739   1.214   5.675  1.00  0.00     0.029 A 
ATOM     54  N   UNL     1      -7.793   2.868   6.693  1.00  0.00    -0.354 N 
ATOM     55  C   UNL     1      -5.633   6.019   8.623  1.00  0.00     0.074 A 
ATOM     56  C   UNL     1      -4.239   5.694   8.793  1.00  0.00     0.031 C 
ATOM     57  C   UNL     1      -8.056   1.018   5.477  1.00  0.00     0.029 A 
ATOM     58  C   UNL     1      -8.793   2.107   6.102  1.00  0.00     0.049 A 
ATOM     59  H   UNL     1      -7.980   3.702   7.181  1.00  0.00     0.167 HD
ATOM     60  C   UNL     1      -6.167   7.203   8.994  1.00  0.00     0.037 A 
ATOM     61  C   UNL     1     -10.135   2.279   6.011  1.00  0.00     0.037 A 
ATOM     62  C   UNL     1      -7.549   7.544   8.857  1.00  0.00     0.049 A 
ATOM     63  C   UNL     1     -10.731   3.566   6.536  1.00  0.00     0.074 A 
ATOM     64  C   UNL     1      -8.187   8.703   9.253  1.00  0.00     0.029 A 
ATOM     65  N   UNL     1      -8.511   6.718   8.296  1.00  0.00    -0.354 N 
ATOM     66  N   UNL     1     -10.120   4.589   7.082  1.00  0.00    -0.248 NA
ATOM     67  C   UNL     1     -12.187   3.750   6.396  1.00  0.00     0.031 C 
ATOM     68  C   UNL     1      -9.550   8.555   8.989  1.00  0.00     0.029 A 
ATOM     69  C   UNL     1      -9.748   7.333   8.365  1.00  0.00     0.049 A 
ATOM     70  H   UNL     1      -8.339   5.830   7.909  1.00  0.00     0.167 HD
ATOM     71  C   UNL     1     -11.100   5.545   7.309  1.00  0.00     0.074 A 
ATOM     72  C   UNL     1     -12.348   4.993   6.827  1.00  0.00     0.031 C 
ATOM     73  C   UNL     1     -10.976   6.774   7.865  1.00  0.00     0.037 A 
BRANCH  60  74
ATOM     74  C   UNL     1      -5.227   8.166   9.647  1.00  0.00     0.064 A 
ATOM     75  C   UNL     1      -4.212   8.815   8.925  1.00  0.00     0.173 A 
ATOM     76  C   UNL     1      -5.283   8.360  11.033  1.00  0.00     0.173 A 
ATOM     77  F   UNL     1      -4.090   8.616   7.603  1.00  0.00    -0.203 F 
ATOM     78  C   UNL     1      -3.258   9.587   9.579  1.00  0.00     0.198 A 
ATOM     79  C   UNL     1      -4.348   9.161  11.678  1.00  0.00     0.198 A 
ATOM     80  F   UNL     1      -6.221   7.741  11.765  1.00  0.00    -0.203 F 
ATOM     81  F   UNL     1      -2.242  10.121   8.887  1.00  0.00    -0.200 F 
ATOM     82  C   UNL     1      -3.329   9.762  10.953  1.00  0.00     0.200 A 
ATOM     83  F   UNL     1      -4.413   9.325  13.006  1.00  0.00    -0.200 F 
ATOM     84  F   UNL     1      -2.398  10.490  11.585  1.00  0.00    -0.200 F 
ENDBRANCH  60  74
BRANCH  61  85
ATOM     85  C   UNL     1     -11.040   1.256   5.377  1.00  0.00     0.064 A 
ATOM     86  C   UNL     1     -11.789   1.534   4.219  1.00  0.00     0.173 A 
ATOM     87  C   UNL     1     -11.270   0.014   5.992  1.00  0.00     0.173 A 
ATOM     88  F   UNL     1     -11.650   2.716   3.600  1.00  0.00    -0.203 F 
ATOM     89  C   UNL     1     -12.751   0.640   3.733  1.00  0.00     0.198 A 
ATOM     90  C   UNL     1     -12.209  -0.892   5.488  1.00  0.00     0.198 A 
ATOM     91  F   UNL     1     -10.605  -0.313   7.110  1.00  0.00    -0.203 F 
ATOM     92  F   UNL     1     -13.504   0.976   2.676  1.00  0.00    -0.200 F 
ATOM     93  C   UNL     1     -12.960  -0.573   4.368  1.00  0.00     0.200 A 
ATOM     94  F   UNL     1     -12.409  -2.064   6.108  1.00  0.00    -0.200 F 
ATOM     95  F   UNL     1     -13.896  -1.420   3.916  1.00  0.00    -0.200 F 
ENDBRANCH  61  85
BRANCH  73  96
ATOM     96  C   UNL     1     -12.205   7.626   7.962  1.00  0.00     0.064 A 
ATOM     97  C   UNL     1     -13.235   7.333   8.867  1.00  0.00     0.173 A 
ATOM     98  C   UNL     1     -12.306   8.803   7.204  1.00  0.00     0.173 A 
ATOM     99  F   UNL     1     -13.187   6.215   9.606  1.00  0.00    -0.203 F 
ATOM    100  C   UNL     1     -14.331   8.181   8.998  1.00  0.00     0.198 A 
ATOM    101  C   UNL     1     -13.385   9.665   7.364  1.00  0.00     0.198 A 
ATOM    102  F   UNL     1     -11.341   9.131   6.332  1.00  0.00    -0.203 F 
ATOM    103  F   UNL     1     -15.322   7.864   9.843  1.00  0.00    -0.200 F 
ATOM    104  C   UNL     1     -14.399   9.351   8.257  1.00  0.00     0.200 A 
ATOM    105  F   UNL     1     -13.438  10.806   6.663  1.00  0.00    -0.200 F 
ATOM    106  F   UNL     1     -15.443  10.178   8.403  1.00  0.00    -0.200 F 
ENDBRANCH  73  96
ENDBRANCH  47  48
ENDBRANCH  40  42
ENDBRANCH  39  40
ENDBRANCH  38  39
ENDBRANCH  37  38
ENDBRANCH  36  37
ENDBRANCH  35  36
ENDBRANCH   1  35
TORSDOF 22
