REMARK SMILES CC1(C)[C@H](O)CC[C@@]2(C)[C@H]3Cc4c(oc(C(=O)OCCOCCOC(=O)c5ccc(-c6c7nc(c(-c8c(F)c(F)c(F)c(F)c8F)c8ccc([nH]8)c(-c8c(F)c(F)c(F)c(F)c8F)c8nc(c(-c9c(F)c(F)c(F)c(F)c9F)c9ccc6[nH]9)C=C8)C=C7)cc5)cc4=O)O[C@@]3(C)CC[C@@H]12
REMARK SMILES IDX 22 1 21 2 20 3 19 4 18 5 16 6 17 7 15 8 1 9 2 10 3 11 4 12
REMARK SMILES IDX 98 13 6 14 8 15 97 16 7 17 9 18 10 19 96 20 94 21 11 22
REMARK SMILES IDX 95 23 93 24 12 25 13 26 91 27 14 28 90 29 92 30 5 31 23 33
REMARK SMILES IDX 24 34 25 35 26 36 27 37 28 38 89 39 29 40 88 41 30 42 31 43
REMARK SMILES IDX 32 44 82 45 33 46 87 47 81 48 83 49 34 50 86 51 80 52 79 53
REMARK SMILES IDX 35 55 67 56 47 57 66 58 48 59 51 60 65 61 84 62 49 63 50 64
REMARK SMILES IDX 64 66 85 67 52 68 36 69 37 70 45 71 38 72 39 73 43 74 46 75
REMARK SMILES IDX 40 76 41 77 44 78 42 79 68 80 69 81 77 82 70 83 71 84 75 85
REMARK SMILES IDX 78 86 72 87 73 88 76 89 74 90 53 91 54 92 62 93 55 94 56 95
REMARK SMILES IDX 60 96 63 97 57 98 58 99 61 100 59 101
REMARK H PARENT 5 32 83 54 51 65
REMARK Flexibility Score: inf
ROOT
ATOM      1  C   UNL     1       2.027  10.220   2.326  1.00  0.00     0.202 C 
ENDROOT
BRANCH   1   2
ATOM      2  O   UNL     1       1.064  11.192   2.739  1.00  0.00    -0.374 OA
BRANCH   2   3
ATOM      3  C   UNL     1       0.096  10.767   3.697  1.00  0.00     0.202 C 
BRANCH   3   4
ATOM      4  C   UNL     1      -1.157  10.085   3.129  1.00  0.00     0.261 C 
BRANCH   4   5
ATOM      5  O   UNL     1      -0.801   8.904   2.404  1.00  0.00    -0.457 OA
BRANCH   5   6
ATOM      6  C   UNL     1      -0.748   8.942   1.034  1.00  0.00     0.374 C 
ATOM      7  O   UNL     1      -1.254   9.781   0.321  1.00  0.00    -0.242 OA
BRANCH   6   8
ATOM      8  C   UNL     1       0.187   7.854   0.581  1.00  0.00     0.219 A 
ATOM      9  C   UNL     1       2.387  -0.631  -1.938  1.00  0.00     0.014 C 
ATOM     10  C   UNL     1       1.532   0.669  -2.039  1.00  0.00    -0.006 C 
ATOM     11  C   UNL     1       0.153   0.148  -2.581  1.00  0.00     0.014 C 
ATOM     12  C   UNL     1       1.155   1.048  -0.473  1.00  0.00     0.120 C 
ATOM     13  C   UNL     1       2.356   2.009  -3.104  1.00  0.00     0.004 C 
ATOM     14  C   UNL     1       2.391   1.550   0.194  1.00  0.00     0.033 C 
ATOM     15  C   UNL     1       1.991   2.987  -2.027  1.00  0.00    -0.022 C 
ATOM     16  C   UNL     1       3.669   2.997  -3.540  1.00  0.00     0.009 C 
ATOM     17  C   UNL     1       3.033   2.299  -0.928  1.00  0.00     0.010 C 
ATOM     18  C   UNL     1       0.535   3.032  -2.762  1.00  0.00     0.012 C 
ATOM     19  C   UNL     1       2.010   4.480  -1.716  1.00  0.00     0.044 C 
ATOM     20  C   UNL     1       3.857   4.615  -3.172  1.00  0.00     0.049 C 
ATOM     21  C   UNL     1       2.559   5.413  -2.769  1.00  0.00     0.113 C 
ATOM     22  C   UNL     1       2.721   4.808  -0.380  1.00  0.00     0.055 C 
ATOM     23  C   UNL     1       1.823   5.676  -4.097  1.00  0.00     0.057 C 
ATOM     24  O   UNL     1       2.576   6.798  -2.159  1.00  0.00    -0.458 OA
ATOM     25  C   UNL     1       2.144   6.056   0.052  1.00  0.00     0.081 A 
ATOM     26  C   UNL     1       1.920   6.976  -0.882  1.00  0.00     0.292 A 
ATOM     27  C   UNL     1       1.496   6.015   1.357  1.00  0.00     0.192 A 
ATOM     28  O   UNL     1       0.979   7.999  -0.599  1.00  0.00    -0.418 OA
ATOM     29  C   UNL     1       0.349   6.875   1.488  1.00  0.00     0.107 A 
ATOM     30  O   UNL     1       1.857   5.297   2.279  1.00  0.00    -0.289 OA
BRANCH  12  31
ATOM     31  O   UNL     1       0.185   2.081  -0.273  1.00  0.00    -0.393 OA
ATOM     32  H   UNL     1       0.529   2.919  -0.620  1.00  0.00     0.210 HD
ENDBRANCH  12  31
ENDBRANCH   6   8
ENDBRANCH   5   6
ENDBRANCH   4   5
ENDBRANCH   3   4
ENDBRANCH   2   3
ENDBRANCH   1   2
BRANCH   1  33
ATOM     33  C   UNL     1       3.236  10.009   3.240  1.00  0.00     0.261 C 
BRANCH  33  34
ATOM     34  O   UNL     1       2.863   9.334   4.455  1.00  0.00    -0.460 OA
BRANCH  34  35
ATOM     35  C   UNL     1       2.875  10.109   5.565  1.00  0.00     0.338 C 
ATOM     36  O   UNL     1       3.200  11.274   5.660  1.00  0.00    -0.246 OA
BRANCH  35  37
ATOM     37  C   UNL     1       2.262   9.361   6.676  1.00  0.00     0.060 A 
ATOM     38  C   UNL     1       1.071   9.856   7.220  1.00  0.00     0.016 A 
ATOM     39  C   UNL     1       2.899   8.253   7.237  1.00  0.00     0.016 A 
ATOM     40  C   UNL     1       0.528   9.263   8.355  1.00  0.00     0.010 A 
ATOM     41  C   UNL     1       2.361   7.668   8.387  1.00  0.00     0.010 A 
ATOM     42  C   UNL     1       1.193   8.193   8.969  1.00  0.00    -0.014 A 
BRANCH  42  43
ATOM     43  C   UNL     1       0.757   7.748  10.313  1.00  0.00     0.031 A 
ATOM     44  C   UNL     1       1.468   8.294  11.519  1.00  0.00     0.074 A 
ATOM     45  C   UNL     1      -0.289   6.916  10.457  1.00  0.00     0.049 A 
ATOM     46  N   UNL     1       1.245   8.067  12.788  1.00  0.00    -0.248 NA
ATOM     47  C   UNL     1       2.576   9.229  11.261  1.00  0.00     0.031 C 
ATOM     48  C   UNL     1      -1.081   6.361   9.363  1.00  0.00     0.029 A 
ATOM     49  N   UNL     1      -0.868   6.400  11.590  1.00  0.00    -0.354 N 
ATOM     50  C   UNL     1       2.170   8.839  13.476  1.00  0.00     0.074 A 
ATOM     51  C   UNL     1       2.993   9.502  12.488  1.00  0.00     0.031 C 
ATOM     52  C   UNL     1      -2.050   5.583   9.878  1.00  0.00     0.029 A 
ATOM     53  C   UNL     1      -1.928   5.566  11.336  1.00  0.00     0.049 A 
ATOM     54  H   UNL     1      -0.553   6.609  12.499  1.00  0.00     0.167 HD
ATOM     55  C   UNL     1       2.304   9.001  14.812  1.00  0.00     0.037 A 
ATOM     56  C   UNL     1      -2.703   4.864  12.186  1.00  0.00     0.037 A 
ATOM     57  C   UNL     1       1.489   8.333  15.792  1.00  0.00     0.049 A 
ATOM     58  C   UNL     1      -2.457   4.973  13.670  1.00  0.00     0.074 A 
ATOM     59  C   UNL     1       1.549   8.430  17.170  1.00  0.00     0.029 A 
ATOM     60  N   UNL     1       0.470   7.441  15.495  1.00  0.00    -0.354 N 
ATOM     61  N   UNL     1      -1.603   5.731  14.315  1.00  0.00    -0.248 NA
ATOM     62  C   UNL     1      -3.283   4.128  14.546  1.00  0.00     0.031 C 
ATOM     63  C   UNL     1       0.603   7.556  17.709  1.00  0.00     0.029 A 
ATOM     64  C   UNL     1      -0.087   6.957  16.667  1.00  0.00     0.049 A 
ATOM     65  H   UNL     1       0.184   7.190  14.587  1.00  0.00     0.167 HD
ATOM     66  C   UNL     1      -1.808   5.479  15.665  1.00  0.00     0.074 A 
ATOM     67  C   UNL     1      -2.878   4.508  15.751  1.00  0.00     0.031 C 
ATOM     68  C   UNL     1      -1.164   6.003  16.737  1.00  0.00     0.037 A 
BRANCH  55  69
ATOM     69  C   UNL     1       3.365   9.941  15.302  1.00  0.00     0.064 A 
ATOM     70  C   UNL     1       3.233  11.329  15.152  1.00  0.00     0.173 A 
ATOM     71  C   UNL     1       4.484   9.458  15.997  1.00  0.00     0.173 A 
ATOM     72  F   UNL     1       2.188  11.840  14.485  1.00  0.00    -0.203 F 
ATOM     73  C   UNL     1       4.188  12.199  15.671  1.00  0.00     0.198 A 
ATOM     74  C   UNL     1       5.421  10.332  16.541  1.00  0.00     0.198 A 
ATOM     75  F   UNL     1       4.654   8.139  16.173  1.00  0.00    -0.203 F 
ATOM     76  F   UNL     1       4.057  13.521  15.490  1.00  0.00    -0.200 F 
ATOM     77  C   UNL     1       5.274  11.701  16.375  1.00  0.00     0.200 A 
ATOM     78  F   UNL     1       6.461   9.850  17.235  1.00  0.00    -0.200 F 
ATOM     79  F   UNL     1       6.180  12.541  16.894  1.00  0.00    -0.200 F 
ENDBRANCH  55  69
BRANCH  56  80
ATOM     80  C   UNL     1      -3.801   4.010  11.660  1.00  0.00     0.064 A 
ATOM     81  C   UNL     1      -5.142   4.327  11.915  1.00  0.00     0.173 A 
ATOM     82  C   UNL     1      -3.536   2.858  10.905  1.00  0.00     0.173 A 
ATOM     83  F   UNL     1      -5.447   5.404  12.653  1.00  0.00    -0.203 F 
ATOM     84  C   UNL     1      -6.176   3.518  11.445  1.00  0.00     0.198 A 
ATOM     85  C   UNL     1      -4.571   2.066  10.411  1.00  0.00     0.198 A 
ATOM     86  F   UNL     1      -2.270   2.506  10.636  1.00  0.00    -0.203 F 
ATOM     87  F   UNL     1      -7.447   3.821  11.741  1.00  0.00    -0.200 F 
ATOM     88  C   UNL     1      -5.890   2.392  10.688  1.00  0.00     0.200 A 
ATOM     89  F   UNL     1      -4.291   0.986   9.669  1.00  0.00    -0.200 F 
ATOM     90  F   UNL     1      -6.884   1.619  10.231  1.00  0.00    -0.200 F 
ENDBRANCH  56  80
BRANCH  68  91
ATOM     91  C   UNL     1      -1.599   5.564  18.107  1.00  0.00     0.064 A 
ATOM     92  C   UNL     1      -1.297   4.285  18.594  1.00  0.00     0.173 A 
ATOM     93  C   UNL     1      -2.222   6.471  18.979  1.00  0.00     0.173 A 
ATOM     94  F   UNL     1      -0.712   3.379  17.796  1.00  0.00    -0.203 F 
ATOM     95  C   UNL     1      -1.606   3.928  19.904  1.00  0.00     0.198 A 
ATOM     96  C   UNL     1      -2.500   6.121  20.297  1.00  0.00     0.198 A 
ATOM     97  F   UNL     1      -2.522   7.711  18.565  1.00  0.00    -0.203 F 
ATOM     98  F   UNL     1      -1.330   2.692  20.342  1.00  0.00    -0.200 F 
ATOM     99  C   UNL     1      -2.194   4.849  20.758  1.00  0.00     0.200 A 
ATOM    100  F   UNL     1      -3.048   7.019  21.127  1.00  0.00    -0.200 F 
ATOM    101  F   UNL     1      -2.463   4.513  22.027  1.00  0.00    -0.200 F 
ENDBRANCH  68  91
ENDBRANCH  42  43
ENDBRANCH  35  37
ENDBRANCH  34  35
ENDBRANCH  33  34
ENDBRANCH   1  33
TORSDOF 15
