REMARK SMILES CC[C@@H](Oc1ccccc1/C=C1\S/C(=[NH+]\c2cccc(O)c2)N(CC)C1=O)C(=O)OCCOCCOC(=O)c1ccc(-c2c3nc(c(-c4c(F)c(F)c(F)c(F)c4F)c4ccc([nH]4)c(-c4c(F)c(F)c(F)c(F)c4F)c4nc(c(-c5c(F)c(F)c(F)c(F)c5F)c5ccc2[nH]5)C=C4)C=C3)cc1
REMARK SMILES IDX 31 1 30 2 28 3 29 4 3 5 2 6 1 7 4 8 5 9 6 10 10 11 7 12 9 13
REMARK SMILES IDX 8 14 11 15 12 16 13 17 26 18 14 19 23 20 27 21 15 22 24 24
REMARK SMILES IDX 25 25 16 26 17 27 22 28 18 29 20 30 19 31 21 32 32 34 33 35
REMARK SMILES IDX 34 36 35 37 36 38 37 39 38 40 39 41 40 42 101 43 41 44
REMARK SMILES IDX 100 45 42 46 43 47 44 48 94 49 45 50 99 51 93 52 95 53 46 54
REMARK SMILES IDX 98 55 92 56 91 57 47 59 79 60 59 61 78 62 60 63 63 64 77 65
REMARK SMILES IDX 96 66 61 67 62 68 76 70 97 71 64 72 48 73 49 74 57 75 50 76
REMARK SMILES IDX 51 77 55 78 58 79 52 80 53 81 56 82 54 83 80 84 81 85 89 86
REMARK SMILES IDX 82 87 83 88 87 89 90 90 84 91 85 92 88 93 86 94 65 95 66 96
REMARK SMILES IDX 74 97 67 98 68 99 72 100 75 101 69 102 70 103 73 104 71 105
REMARK H PARENT 15 23 21 33 95 58 63 69
REMARK Flexibility Score: inf
ROOT
ATOM      1  C   UNL     1      -0.498   2.494   4.810  1.00  0.00     0.261 C 
ENDROOT
BRANCH   1   2
ATOM      2  O   UNL     1      -0.109   2.139   3.466  1.00  0.00    -0.461 OA
BRANCH   2   3
ATOM      3  C   UNL     1       1.104   2.593   3.031  1.00  0.00     0.347 C 
ATOM      4  O   UNL     1       1.863   3.299   3.685  1.00  0.00    -0.248 OA
BRANCH   3   5
ATOM      5  C   UNL     1       1.451   2.065   1.631  1.00  0.00     0.282 C 
BRANCH   5   6
ATOM      6  C   UNL     1       1.675   0.546   1.714  1.00  0.00     0.054 C 
ATOM      7  C   UNL     1       2.541  -0.042   0.608  1.00  0.00     0.008 C 
ENDBRANCH   5   6
BRANCH   5   8
ATOM      8  O   UNL     1       0.348   2.368   0.768  1.00  0.00    -0.478 OA
BRANCH   8   9
ATOM      9  C   UNL     1       0.712   2.692  -0.514  1.00  0.00     0.127 A 
ATOM     10  C   UNL     1       1.282   3.938  -0.772  1.00  0.00     0.047 A 
ATOM     11  C   UNL     1       0.426   1.798  -1.567  1.00  0.00     0.018 A 
ATOM     12  C   UNL     1       1.634   4.276  -2.078  1.00  0.00     0.004 A 
ATOM     13  C   UNL     1       0.797   2.144  -2.869  1.00  0.00     0.012 A 
ATOM     14  C   UNL     1       1.399   3.379  -3.122  1.00  0.00     0.001 A 
BRANCH  11  15
ATOM     15  C   UNL     1      -0.139   0.466  -1.305  1.00  0.00     0.036 C 
ATOM     16  C   UNL     1      -1.306   0.235  -0.693  1.00  0.00     0.110 C 
ATOM     17  S   UNL     1      -2.522   1.370  -0.302  1.00  0.00     0.007 SA
ATOM     18  C   UNL     1      -1.646  -1.098  -0.137  1.00  0.00     0.348 C 
ATOM     19  C   UNL     1      -3.471   0.191   0.575  1.00  0.00     0.324 C 
ATOM     20  N   UNL     1      -2.846  -1.034   0.543  1.00  0.00    -0.186 N 
ATOM     21  O   UNL     1      -0.906  -2.070  -0.215  1.00  0.00    -0.240 OA
ATOM     22  N   UNL     1      -4.596   0.402   1.181  1.00  0.00    -0.234 N 
ATOM     23  H   UNL     1      -5.047  -0.330   1.662  1.00  0.00     0.313 HD
BRANCH  20  24
ATOM     24  C   UNL     1      -3.311  -2.175   1.311  1.00  0.00     0.244 C 
ATOM     25  C   UNL     1      -3.625  -3.405   0.475  1.00  0.00     0.055 C 
ENDBRANCH  20  24
BRANCH  22  26
ATOM     26  C   UNL     1      -5.169   1.687   1.147  1.00  0.00     0.129 A 
ATOM     27  C   UNL     1      -5.242   2.444   2.318  1.00  0.00     0.052 A 
ATOM     28  C   UNL     1      -5.654   2.236  -0.046  1.00  0.00     0.097 A 
ATOM     29  C   UNL     1      -5.773   3.738   2.300  1.00  0.00     0.008 A 
ATOM     30  C   UNL     1      -6.122   3.545  -0.069  1.00  0.00     0.119 A 
ATOM     31  C   UNL     1      -6.207   4.293   1.098  1.00  0.00     0.046 A 
BRANCH  30  32
ATOM     32  O   UNL     1      -6.473   4.147  -1.241  1.00  0.00    -0.508 OA
ATOM     33  H   UNL     1      -6.786   5.030  -1.239  1.00  0.00     0.293 HD
ENDBRANCH  30  32
ENDBRANCH  22  26
ENDBRANCH  11  15
ENDBRANCH   8   9
ENDBRANCH   5   8
ENDBRANCH   3   5
ENDBRANCH   2   3
ENDBRANCH   1   2
BRANCH   1  34
ATOM     34  C   UNL     1      -0.814   1.246   5.645  1.00  0.00     0.202 C 
BRANCH  34  35
ATOM     35  O   UNL     1       0.335   0.474   6.013  1.00  0.00    -0.374 OA
BRANCH  35  36
ATOM     36  C   UNL     1       0.809  -0.413   5.002  1.00  0.00     0.202 C 
BRANCH  36  37
ATOM     37  C   UNL     1       0.268  -1.841   5.091  1.00  0.00     0.261 C 
BRANCH  37  38
ATOM     38  O   UNL     1      -1.158  -1.856   4.909  1.00  0.00    -0.460 OA
BRANCH  38  39
ATOM     39  C   UNL     1      -1.871  -1.973   6.050  1.00  0.00     0.338 C 
ATOM     40  O   UNL     1      -1.445  -2.192   7.179  1.00  0.00    -0.246 OA
BRANCH  39  41
ATOM     41  C   UNL     1      -3.282  -1.655   5.782  1.00  0.00     0.060 A 
ATOM     42  C   UNL     1      -3.933  -0.764   6.642  1.00  0.00     0.016 A 
ATOM     43  C   UNL     1      -3.977  -2.255   4.733  1.00  0.00     0.016 A 
ATOM     44  C   UNL     1      -5.296  -0.511   6.483  1.00  0.00     0.010 A 
ATOM     45  C   UNL     1      -5.332  -1.964   4.547  1.00  0.00     0.010 A 
ATOM     46  C   UNL     1      -6.015  -1.130   5.451  1.00  0.00    -0.014 A 
BRANCH  46  47
ATOM     47  C   UNL     1      -7.500  -1.043   5.401  1.00  0.00     0.031 A 
ATOM     48  C   UNL     1      -8.315  -2.281   5.669  1.00  0.00     0.074 A 
ATOM     49  C   UNL     1      -8.129   0.115   5.125  1.00  0.00     0.049 A 
ATOM     50  N   UNL     1      -9.612  -2.454   5.614  1.00  0.00    -0.248 NA
ATOM     51  C   UNL     1      -7.566  -3.491   6.045  1.00  0.00     0.031 C 
ATOM     52  C   UNL     1      -7.471   1.394   4.880  1.00  0.00     0.029 A 
ATOM     53  N   UNL     1      -9.466   0.396   4.982  1.00  0.00    -0.354 N 
ATOM     54  C   UNL     1      -9.828  -3.784   5.946  1.00  0.00     0.074 A 
ATOM     55  C   UNL     1      -8.530  -4.394   6.128  1.00  0.00     0.031 C 
ATOM     56  C   UNL     1      -8.399   2.314   4.570  1.00  0.00     0.029 A 
ATOM     57  C   UNL     1      -9.716   1.687   4.587  1.00  0.00     0.049 A 
ATOM     58  H   UNL     1     -10.177  -0.266   5.147  1.00  0.00     0.167 HD
ATOM     59  C   UNL     1     -11.003  -4.433   6.127  1.00  0.00     0.037 A 
ATOM     60  C   UNL     1     -10.873   2.295   4.263  1.00  0.00     0.037 A 
ATOM     61  C   UNL     1     -12.297  -3.822   5.980  1.00  0.00     0.049 A 
ATOM     62  C   UNL     1     -12.166   1.539   4.401  1.00  0.00     0.074 A 
ATOM     63  C   UNL     1     -13.544  -4.380   6.197  1.00  0.00     0.029 A 
ATOM     64  N   UNL     1     -12.508  -2.512   5.576  1.00  0.00    -0.354 N 
ATOM     65  N   UNL     1     -12.363   0.298   4.772  1.00  0.00    -0.248 NA
ATOM     66  C   UNL     1     -13.402   2.279   4.106  1.00  0.00     0.031 C 
ATOM     67  C   UNL     1     -14.513  -3.420   5.883  1.00  0.00     0.029 A 
ATOM     68  C   UNL     1     -13.868  -2.250   5.517  1.00  0.00     0.049 A 
ATOM     69  H   UNL     1     -11.798  -1.865   5.363  1.00  0.00     0.167 HD
ATOM     70  C   UNL     1     -13.739   0.120   4.801  1.00  0.00     0.074 A 
ATOM     71  C   UNL     1     -14.331   1.382   4.408  1.00  0.00     0.031 C 
ATOM     72  C   UNL     1     -14.446  -0.986   5.137  1.00  0.00     0.037 A 
BRANCH  59  73
ATOM     73  C   UNL     1     -10.936  -5.880   6.519  1.00  0.00     0.064 A 
ATOM     74  C   UNL     1     -10.479  -6.277   7.786  1.00  0.00     0.173 A 
ATOM     75  C   UNL     1     -11.347  -6.880   5.627  1.00  0.00     0.173 A 
ATOM     76  F   UNL     1     -10.060  -5.360   8.671  1.00  0.00    -0.203 F 
ATOM     77  C   UNL     1     -10.402  -7.624   8.131  1.00  0.00     0.198 A 
ATOM     78  C   UNL     1     -11.299  -8.225   5.987  1.00  0.00     0.198 A 
ATOM     79  F   UNL     1     -11.796  -6.555   4.405  1.00  0.00    -0.203 F 
ATOM     80  F   UNL     1      -9.907  -7.981   9.324  1.00  0.00    -0.200 F 
ATOM     81  C   UNL     1     -10.818  -8.596   7.234  1.00  0.00     0.200 A 
ATOM     82  F   UNL     1     -11.712  -9.163   5.124  1.00  0.00    -0.200 F 
ATOM     83  F   UNL     1     -10.746  -9.892   7.568  1.00  0.00    -0.200 F 
ENDBRANCH  59  73
BRANCH  60  84
ATOM     84  C   UNL     1     -10.860   3.705   3.796  1.00  0.00     0.064 A 
ATOM     85  C   UNL     1     -11.348   4.740   4.604  1.00  0.00     0.173 A 
ATOM     86  C   UNL     1     -10.362   4.044   2.529  1.00  0.00     0.173 A 
ATOM     87  F   UNL     1     -11.854   4.462   5.815  1.00  0.00    -0.203 F 
ATOM     88  C   UNL     1     -11.356   6.060   4.157  1.00  0.00     0.198 A 
ATOM     89  C   UNL     1     -10.347   5.367   2.092  1.00  0.00     0.198 A 
ATOM     90  F   UNL     1      -9.889   3.088   1.716  1.00  0.00    -0.203 F 
ATOM     91  F   UNL     1     -11.867   7.025   4.933  1.00  0.00    -0.200 F 
ATOM     92  C   UNL     1     -10.850   6.373   2.904  1.00  0.00     0.200 A 
ATOM     93  F   UNL     1      -9.851   5.669   0.885  1.00  0.00    -0.200 F 
ATOM     94  F   UNL     1     -10.856   7.643   2.476  1.00  0.00    -0.200 F 
ENDBRANCH  60  84
BRANCH  72  95
ATOM     95  C   UNL     1     -15.942  -0.872   5.146  1.00  0.00     0.064 A 
ATOM     96  C   UNL     1     -16.684  -0.783   3.960  1.00  0.00     0.173 A 
ATOM     97  C   UNL     1     -16.645  -0.891   6.362  1.00  0.00     0.173 A 
ATOM     98  F   UNL     1     -16.058  -0.745   2.774  1.00  0.00    -0.203 F 
ATOM     99  C   UNL     1     -18.073  -0.692   3.991  1.00  0.00     0.198 A 
ATOM    100  C   UNL     1     -18.035  -0.831   6.387  1.00  0.00     0.198 A 
ATOM    101  F   UNL     1     -15.982  -0.981   7.525  1.00  0.00    -0.203 F 
ATOM    102  F   UNL     1     -18.759  -0.561   2.847  1.00  0.00    -0.200 F 
ATOM    103  C   UNL     1     -18.747  -0.724   5.203  1.00  0.00     0.200 A 
ATOM    104  F   UNL     1     -18.685  -0.876   7.558  1.00  0.00    -0.200 F 
ATOM    105  F   UNL     1     -20.085  -0.645   5.229  1.00  0.00    -0.200 F 
ENDBRANCH  72  95
ENDBRANCH  46  47
ENDBRANCH  39  41
ENDBRANCH  38  39
ENDBRANCH  37  38
ENDBRANCH  36  37
ENDBRANCH  35  36
ENDBRANCH  34  35
ENDBRANCH   1  34
TORSDOF 21
