REMARK SMILES CC(C)N(CCCC(=O)OCCOCCOC(=O)c1ccc(-c2c3nc(c(-c4c(F)c(F)c(F)c(F)c4F)c4ccc([nH]4)c(-c4c(F)c(F)c(F)c(F)c4F)c4nc(c(-c5c(F)c(F)c(F)c(F)c5F)c5ccc2[nH]5)C=C4)C=C3)cc1)C(=O)[C@H]1CCCCC[C@H]1[NH3+]
REMARK SMILES IDX 10 1 8 2 9 3 7 4 6 5 5 6 4 7 2 8 1 9 3 10 82 11 83 12 84 13
REMARK SMILES IDX 85 14 86 15 87 16 90 18 89 19 88 20 91 22 11 26 12 27 13 28
REMARK SMILES IDX 14 29 15 30 16 31 17 32 18 33 19 34 20 35 81 36 21 37 80 38
REMARK SMILES IDX 22 39 23 40 24 41 74 42 25 43 79 44 73 45 75 46 26 47 78 48
REMARK SMILES IDX 72 49 71 50 27 52 59 53 39 54 58 55 40 56 43 57 57 58 76 59
REMARK SMILES IDX 41 60 42 61 56 63 77 64 44 65 28 66 29 67 37 68 30 69 31 70
REMARK SMILES IDX 35 71 38 72 32 73 33 74 36 75 34 76 60 77 61 78 69 79 62 80
REMARK SMILES IDX 63 81 67 82 70 83 64 84 65 85 68 86 66 87 45 88 46 89 54 90
REMARK SMILES IDX 47 91 48 92 52 93 55 94 49 95 50 96 53 97 51 98
REMARK H PARENT 91 23 91 24 91 25 75 51 43 62
REMARK Flexibility Score: 90.00
ROOT
ATOM      1  O   UNL     1      -1.951  -3.479  -2.351  1.00  0.00    -0.463 OA
ENDROOT
BRANCH   1   2
ATOM      2  C   UNL     1      -3.198  -3.113  -2.738  1.00  0.00     0.305 C 
ATOM      3  O   UNL     1      -3.454  -2.319  -3.633  1.00  0.00    -0.252 OA
BRANCH   2   4
ATOM      4  C   UNL     1      -4.251  -3.916  -2.010  1.00  0.00     0.124 C 
BRANCH   4   5
ATOM      5  C   UNL     1      -4.189  -3.936  -0.475  1.00  0.00     0.033 C 
BRANCH   5   6
ATOM      6  C   UNL     1      -3.422  -2.811   0.253  1.00  0.00     0.120 C 
BRANCH   6   7
ATOM      7  N   UNL     1      -4.254  -1.861   1.022  1.00  0.00    -0.340 N 
BRANCH   7   8
ATOM      8  C   UNL     1      -4.778  -2.362   2.315  1.00  0.00     0.078 C 
ATOM      9  C   UNL     1      -3.776  -2.186   3.457  1.00  0.00     0.031 C 
ATOM     10  C   UNL     1      -6.152  -1.794   2.689  1.00  0.00     0.031 C 
ENDBRANCH   7   8
BRANCH   7  11
ATOM     11  C   UNL     1      -4.279  -0.474   0.761  1.00  0.00     0.231 C 
ATOM     12  O   UNL     1      -4.510   0.351   1.649  1.00  0.00    -0.274 OA
BRANCH  11  13
ATOM     13  C   UNL     1      -4.094  -0.008  -0.703  1.00  0.00     0.136 C 
BRANCH  13  14
ATOM     14  C   UNL     1      -5.145  -0.690  -1.583  1.00  0.00     0.020 C 
BRANCH  14  15
ATOM     15  C   UNL     1      -6.596  -0.418  -1.223  1.00  0.00     0.001 C 
BRANCH  15  16
ATOM     16  C   UNL     1      -7.185   0.693  -2.067  1.00  0.00     0.000 CG0
ATOM     17  G   UNL     1      -6.271   1.903  -2.235  1.00  0.00     0.000 G0
ENDBRANCH  15  16
ENDBRANCH  14  15
ENDBRANCH  13  14
BRANCH  13  18
ATOM     18  C   UNL     1      -4.062   1.527  -0.946  1.00  0.00     0.193 C 
BRANCH  18  19
ATOM     19  C   UNL     1      -5.426   2.257  -1.002  1.00  0.00     0.066 C 
BRANCH  19  20
ATOM     20  C   UNL     1      -6.271   1.903  -2.235  1.00  0.00     0.006 CG0
ATOM     21  G   UNL     1      -7.185   0.693  -2.067  1.00  0.00     0.000 G0
ENDBRANCH  19  20
ENDBRANCH  18  19
BRANCH  18  22
ATOM     22  N   UNL     1      -3.161   2.203   0.000  1.00  0.00    -0.354 N 
ATOM     23  H   UNL     1      -3.537   2.122   0.945  1.00  0.00     0.344 HD
ATOM     24  H   UNL     1      -3.081   3.189  -0.251  1.00  0.00     0.344 HD
ATOM     25  H   UNL     1      -2.240   1.767  -0.037  1.00  0.00     0.344 HD
ENDBRANCH  18  22
ENDBRANCH  13  18
ENDBRANCH  11  13
ENDBRANCH   7  11
ENDBRANCH   6   7
ENDBRANCH   5   6
ENDBRANCH   4   5
ENDBRANCH   2   4
ENDBRANCH   1   2
BRANCH   1  26
ATOM     26  C   UNL     1      -0.855  -2.970  -3.138  1.00  0.00     0.261 C 
BRANCH  26  27
ATOM     27  C   UNL     1       0.005  -4.146  -3.605  1.00  0.00     0.202 C 
BRANCH  27  28
ATOM     28  O   UNL     1      -0.457  -4.885  -4.738  1.00  0.00    -0.374 OA
BRANCH  28  29
ATOM     29  C   UNL     1      -1.811  -5.325  -4.764  1.00  0.00     0.202 C 
BRANCH  29  30
ATOM     30  C   UNL     1      -2.176  -6.513  -3.863  1.00  0.00     0.261 C 
BRANCH  30  31
ATOM     31  O   UNL     1      -1.800  -6.328  -2.487  1.00  0.00    -0.460 OA
BRANCH  31  32
ATOM     32  C   UNL     1      -0.834  -7.176  -2.062  1.00  0.00     0.338 C 
ATOM     33  O   UNL     1      -0.340  -8.107  -2.677  1.00  0.00    -0.246 OA
BRANCH  32  34
ATOM     34  C   UNL     1      -0.307  -6.769  -0.748  1.00  0.00     0.060 A 
ATOM     35  C   UNL     1       1.060  -6.480  -0.684  1.00  0.00     0.016 A 
ATOM     36  C   UNL     1      -1.073  -6.864   0.417  1.00  0.00     0.016 A 
ATOM     37  C   UNL     1       1.690  -6.367   0.549  1.00  0.00     0.010 A 
ATOM     38  C   UNL     1      -0.435  -6.760   1.661  1.00  0.00     0.010 A 
ATOM     39  C   UNL     1       0.958  -6.574   1.726  1.00  0.00    -0.014 A 
BRANCH  39  40
ATOM     40  C   UNL     1       1.722  -6.838   2.971  1.00  0.00     0.031 A 
ATOM     41  C   UNL     1       2.037  -8.267   3.329  1.00  0.00     0.074 A 
ATOM     42  C   UNL     1       2.236  -5.829   3.695  1.00  0.00     0.049 A 
ATOM     43  N   UNL     1       2.778  -8.738   4.299  1.00  0.00    -0.248 NA
ATOM     44  C   UNL     1       1.446  -9.304   2.467  1.00  0.00     0.031 C 
ATOM     45  C   UNL     1       2.045  -4.409   3.417  1.00  0.00     0.029 A 
ATOM     46  N   UNL     1       3.045  -5.854   4.803  1.00  0.00    -0.354 N 
ATOM     47  C   UNL     1       2.753 -10.120   4.155  1.00  0.00     0.074 A 
ATOM     48  C   UNL     1       1.894 -10.416   3.030  1.00  0.00     0.031 C 
ATOM     49  C   UNL     1       2.722  -3.693   4.332  1.00  0.00     0.029 A 
ATOM     50  C   UNL     1       3.382  -4.606   5.264  1.00  0.00     0.049 A 
ATOM     51  H   UNL     1       3.355  -6.687   5.226  1.00  0.00     0.167 HD
ATOM     52  C   UNL     1       3.402 -11.059   4.883  1.00  0.00     0.037 A 
ATOM     53  C   UNL     1       4.136  -4.247   6.320  1.00  0.00     0.037 A 
ATOM     54  C   UNL     1       4.254 -10.770   6.004  1.00  0.00     0.049 A 
ATOM     55  C   UNL     1       4.798  -5.313   7.155  1.00  0.00     0.074 A 
ATOM     56  C   UNL     1       4.942 -11.651   6.819  1.00  0.00     0.029 A 
ATOM     57  N   UNL     1       4.530  -9.493   6.470  1.00  0.00    -0.354 N 
ATOM     58  N   UNL     1       4.776  -6.615   7.003  1.00  0.00    -0.248 NA
ATOM     59  C   UNL     1       5.596  -4.857   8.302  1.00  0.00     0.031 C 
ATOM     60  C   UNL     1       5.608 -10.909   7.801  1.00  0.00     0.029 A 
ATOM     61  C   UNL     1       5.366  -9.564   7.572  1.00  0.00     0.049 A 
ATOM     62  H   UNL     1       4.184  -8.660   6.076  1.00  0.00     0.167 HD
ATOM     63  C   UNL     1       5.572  -7.132   8.018  1.00  0.00     0.074 A 
ATOM     64  C   UNL     1       6.075  -6.002   8.770  1.00  0.00     0.031 C 
ATOM     65  C   UNL     1       5.860  -8.426   8.303  1.00  0.00     0.037 A 
BRANCH  52  66
ATOM     66  C   UNL     1       3.197 -12.492   4.494  1.00  0.00     0.064 A 
ATOM     67  C   UNL     1       3.794 -13.033   3.345  1.00  0.00     0.173 A 
ATOM     68  C   UNL     1       2.413 -13.340   5.289  1.00  0.00     0.173 A 
ATOM     69  F   UNL     1       4.538 -12.257   2.543  1.00  0.00    -0.203 F 
ATOM     70  C   UNL     1       3.594 -14.366   2.995  1.00  0.00     0.198 A 
ATOM     71  C   UNL     1       2.234 -14.678   4.949  1.00  0.00     0.198 A 
ATOM     72  F   UNL     1       1.821 -12.871   6.398  1.00  0.00    -0.203 F 
ATOM     73  F   UNL     1       4.139 -14.851   1.871  1.00  0.00    -0.200 F 
ATOM     74  C   UNL     1       2.819 -15.188   3.799  1.00  0.00     0.200 A 
ATOM     75  F   UNL     1       1.491 -15.473   5.730  1.00  0.00    -0.200 F 
ATOM     76  F   UNL     1       2.630 -16.471   3.462  1.00  0.00    -0.200 F 
ENDBRANCH  52  66
BRANCH  53  77
ATOM     77  C   UNL     1       4.305  -2.809   6.654  1.00  0.00     0.064 A 
ATOM     78  C   UNL     1       5.537  -2.162   6.493  1.00  0.00     0.173 A 
ATOM     79  C   UNL     1       3.233  -2.058   7.159  1.00  0.00     0.173 A 
ATOM     80  F   UNL     1       6.598  -2.846   6.038  1.00  0.00    -0.203 F 
ATOM     81  C   UNL     1       5.696  -0.822   6.839  1.00  0.00     0.198 A 
ATOM     82  C   UNL     1       3.386  -0.712   7.482  1.00  0.00     0.198 A 
ATOM     83  F   UNL     1       2.035  -2.634   7.336  1.00  0.00    -0.203 F 
ATOM     84  F   UNL     1       6.896  -0.238   6.717  1.00  0.00    -0.200 F 
ATOM     85  C   UNL     1       4.619  -0.096   7.328  1.00  0.00     0.200 A 
ATOM     86  F   UNL     1       2.342  -0.014   7.947  1.00  0.00    -0.200 F 
ATOM     87  F   UNL     1       4.773   1.192   7.662  1.00  0.00    -0.200 F 
ENDBRANCH  53  77
BRANCH  65  88
ATOM     88  C   UNL     1       6.777  -8.687   9.460  1.00  0.00     0.064 A 
ATOM     89  C   UNL     1       6.344  -8.538  10.786  1.00  0.00     0.173 A 
ATOM     90  C   UNL     1       8.089  -9.134   9.241  1.00  0.00     0.173 A 
ATOM     91  F   UNL     1       5.102  -8.102  11.045  1.00  0.00    -0.203 F 
ATOM     92  C   UNL     1       7.200  -8.803  11.851  1.00  0.00     0.198 A 
ATOM     93  C   UNL     1       8.934  -9.422  10.309  1.00  0.00     0.198 A 
ATOM     94  F   UNL     1       8.547  -9.300   7.991  1.00  0.00    -0.203 F 
ATOM     95  F   UNL     1       6.779  -8.615  13.109  1.00  0.00    -0.200 F 
ATOM     96  C   UNL     1       8.491  -9.251  11.612  1.00  0.00     0.200 A 
ATOM     97  F   UNL     1      10.177  -9.865  10.077  1.00  0.00    -0.200 F 
ATOM     98  F   UNL     1       9.312  -9.511  12.639  1.00  0.00    -0.200 F 
ENDBRANCH  65  88
ENDBRANCH  39  40
ENDBRANCH  32  34
ENDBRANCH  31  32
ENDBRANCH  30  31
ENDBRANCH  29  30
ENDBRANCH  28  29
ENDBRANCH  27  28
ENDBRANCH  26  27
ENDBRANCH   1  26
TORSDOF 21
