REMARK SMILES Cc1ncccc1C(=O)N1CC[C@H](C(=O)OCCOCCOC(=O)c2ccc(-c3c4nc(c(-c5c(F)c(F)c(F)c(F)c5F)c5ccc([nH]5)c(-c5c(F)c(F)c(F)c(F)c5F)c5nc(c(-c6c(F)c(F)c(F)c(F)c6F)c6ccc3[nH]6)C=C5)C=C4)cc2)C1
REMARK SMILES IDX 19 1 18 2 17 3 16 4 14 5 15 6 13 7 10 8 11 9 88 10 12 11
REMARK SMILES IDX 8 12 9 13 7 14 1 15 2 16 3 17 4 18 6 19 5 20 20 21 21 22
REMARK SMILES IDX 22 23 23 24 24 25 25 26 26 27 87 28 27 29 86 30 28 31 29 32
REMARK SMILES IDX 30 33 80 34 31 35 85 36 79 37 81 38 32 39 84 40 78 41 77 42
REMARK SMILES IDX 33 44 65 45 45 46 64 47 46 48 49 49 63 50 82 51 47 52 48 53
REMARK SMILES IDX 62 55 83 56 50 57 34 58 35 59 43 60 36 61 37 62 41 63 44 64
REMARK SMILES IDX 38 65 39 66 42 67 40 68 66 69 67 70 75 71 68 72 69 73 73 74
REMARK SMILES IDX 76 75 70 76 71 77 74 78 72 79 51 80 52 81 60 82 53 83 54 84
REMARK SMILES IDX 58 85 61 86 55 87 56 88 59 89 57 90
REMARK H PARENT 81 43 49 54
REMARK Flexibility Score: inf
ROOT
ATOM      1  O   UNL     1       7.738  -1.562  -2.983  1.00  0.00    -0.374 OA
ENDROOT
BRANCH   1   2
ATOM      2  C   UNL     1       6.667  -1.192  -3.849  1.00  0.00     0.202 C 
BRANCH   2   3
ATOM      3  C   UNL     1       5.463  -2.138  -3.896  1.00  0.00     0.261 C 
BRANCH   3   4
ATOM      4  O   UNL     1       4.826  -2.268  -2.612  1.00  0.00    -0.463 OA
BRANCH   4   5
ATOM      5  C   UNL     1       4.907  -3.496  -2.032  1.00  0.00     0.310 C 
ATOM      6  O   UNL     1       5.402  -4.487  -2.554  1.00  0.00    -0.252 OA
BRANCH   5   7
ATOM      7  C   UNL     1       4.261  -3.547  -0.665  1.00  0.00     0.120 C 
ATOM      8  N   UNL     1       2.122  -2.722  -0.099  1.00  0.00    -0.338 N 
ATOM      9  C   UNL     1       3.022  -2.227   0.922  1.00  0.00     0.121 C 
ATOM     10  C   UNL     1       2.768  -3.787  -0.846  1.00  0.00     0.135 C 
ATOM     11  C   UNL     1       4.371  -2.291   0.220  1.00  0.00     0.039 C 
BRANCH   8  12
ATOM     12  C   UNL     1       0.823  -2.385  -0.409  1.00  0.00     0.255 C 
ATOM     13  O   UNL     1       0.119  -3.148  -1.076  1.00  0.00    -0.269 OA
BRANCH  12  14
ATOM     14  C   UNL     1       0.215  -1.090  -0.022  1.00  0.00     0.061 A 
ATOM     15  C   UNL     1       2.180   0.398  -0.739  1.00  0.00     0.067 C 
ATOM     16  C   UNL     1       0.789   0.169  -0.234  1.00  0.00     0.050 A 
ATOM     17  N   UNL     1       0.090   1.326  -0.039  1.00  0.00    -0.261 NA
ATOM     18  C   UNL     1      -1.218   1.236   0.282  1.00  0.00     0.111 A 
ATOM     19  C   UNL     1      -1.144  -1.135   0.330  1.00  0.00     0.017 A 
ATOM     20  C   UNL     1      -1.876   0.039   0.472  1.00  0.00     0.021 A 
ENDBRANCH  12  14
ENDBRANCH   8  12
ENDBRANCH   5   7
ENDBRANCH   4   5
ENDBRANCH   3   4
ENDBRANCH   2   3
ENDBRANCH   1   2
BRANCH   1  21
ATOM     21  C   UNL     1       7.563  -1.327  -1.587  1.00  0.00     0.202 C 
BRANCH  21  22
ATOM     22  C   UNL     1       7.720   0.120  -1.104  1.00  0.00     0.261 C 
BRANCH  22  23
ATOM     23  O   UNL     1       6.735   1.004  -1.671  1.00  0.00    -0.460 OA
BRANCH  23  24
ATOM     24  C   UNL     1       7.233   1.944  -2.508  1.00  0.00     0.338 C 
ATOM     25  O   UNL     1       8.412   2.167  -2.759  1.00  0.00    -0.246 OA
BRANCH  24  26
ATOM     26  C   UNL     1       6.142   2.600  -3.249  1.00  0.00     0.060 A 
ATOM     27  C   UNL     1       6.201   2.575  -4.648  1.00  0.00     0.016 A 
ATOM     28  C   UNL     1       5.120   3.291  -2.595  1.00  0.00     0.016 A 
ATOM     29  C   UNL     1       5.253   3.265  -5.401  1.00  0.00     0.010 A 
ATOM     30  C   UNL     1       4.174   3.992  -3.353  1.00  0.00     0.010 A 
ATOM     31  C   UNL     1       4.249   4.002  -4.758  1.00  0.00    -0.014 A 
BRANCH  31  32
ATOM     32  C   UNL     1       3.330   4.849  -5.555  1.00  0.00     0.031 A 
ATOM     33  C   UNL     1       3.591   6.323  -5.672  1.00  0.00     0.074 A 
ATOM     34  C   UNL     1       2.272   4.301  -6.179  1.00  0.00     0.049 A 
ATOM     35  N   UNL     1       2.887   7.247  -6.277  1.00  0.00    -0.248 NA
ATOM     36  C   UNL     1       4.811   6.826  -5.022  1.00  0.00     0.031 C 
ATOM     37  C   UNL     1       1.933   2.879  -6.167  1.00  0.00     0.029 A 
ATOM     38  N   UNL     1       1.282   4.879  -6.932  1.00  0.00    -0.354 N 
ATOM     39  C   UNL     1       3.573   8.437  -6.077  1.00  0.00     0.074 A 
ATOM     40  C   UNL     1       4.737   8.125  -5.275  1.00  0.00     0.031 C 
ATOM     41  C   UNL     1       0.799   2.697  -6.865  1.00  0.00     0.029 A 
ATOM     42  C   UNL     1       0.318   3.992  -7.343  1.00  0.00     0.049 A 
ATOM     43  H   UNL     1       1.264   5.838  -7.157  1.00  0.00     0.167 HD
ATOM     44  C   UNL     1       3.260   9.676  -6.527  1.00  0.00     0.037 A 
ATOM     45  C   UNL     1      -0.837   4.207  -8.002  1.00  0.00     0.037 A 
ATOM     46  C   UNL     1       2.101   9.984  -7.324  1.00  0.00     0.049 A 
ATOM     47  C   UNL     1      -1.202   5.606  -8.422  1.00  0.00     0.074 A 
ATOM     48  C   UNL     1       1.722  11.201  -7.863  1.00  0.00     0.029 A 
ATOM     49  N   UNL     1       1.126   9.067  -7.686  1.00  0.00    -0.354 N 
ATOM     50  N   UNL     1      -0.530   6.720  -8.262  1.00  0.00    -0.248 NA
ATOM     51  C   UNL     1      -2.488   5.777  -9.114  1.00  0.00     0.031 C 
ATOM     52  C   UNL     1       0.490  11.033  -8.503  1.00  0.00     0.029 A 
ATOM     53  C   UNL     1       0.126   9.699  -8.408  1.00  0.00     0.049 A 
ATOM     54  H   UNL     1       1.141   8.108  -7.463  1.00  0.00     0.167 HD
ATOM     55  C   UNL     1      -1.300   7.719  -8.844  1.00  0.00     0.074 A 
ATOM     56  C   UNL     1      -2.483   7.076  -9.379  1.00  0.00     0.031 C 
ATOM     57  C   UNL     1      -1.051   9.049  -8.927  1.00  0.00     0.037 A 
BRANCH  44  58
ATOM     58  C   UNL     1       4.173  10.804  -6.145  1.00  0.00     0.064 A 
ATOM     59  C   UNL     1       5.447  10.947  -6.713  1.00  0.00     0.173 A 
ATOM     60  C   UNL     1       3.747  11.781  -5.232  1.00  0.00     0.173 A 
ATOM     61  F   UNL     1       5.905  10.034  -7.583  1.00  0.00    -0.203 F 
ATOM     62  C   UNL     1       6.271  12.015  -6.364  1.00  0.00     0.198 A 
ATOM     63  C   UNL     1       4.563  12.861  -4.905  1.00  0.00     0.198 A 
ATOM     64  F   UNL     1       2.535  11.694  -4.665  1.00  0.00    -0.203 F 
ATOM     65  F   UNL     1       7.500  12.110  -6.889  1.00  0.00    -0.200 F 
ATOM     66  C   UNL     1       5.826  12.974  -5.466  1.00  0.00     0.200 A 
ATOM     67  F   UNL     1       4.127  13.793  -4.047  1.00  0.00    -0.200 F 
ATOM     68  F   UNL     1       6.617  14.005  -5.138  1.00  0.00    -0.200 F 
ENDBRANCH  44  58
BRANCH  45  69
ATOM     69  C   UNL     1      -1.750   3.068  -8.280  1.00  0.00     0.064 A 
ATOM     70  C   UNL     1      -1.956   2.607  -9.586  1.00  0.00     0.173 A 
ATOM     71  C   UNL     1      -2.443   2.425  -7.243  1.00  0.00     0.173 A 
ATOM     72  F   UNL     1      -1.338   3.208 -10.614  1.00  0.00    -0.203 F 
ATOM     73  C   UNL     1      -2.830   1.553  -9.847  1.00  0.00     0.198 A 
ATOM     74  C   UNL     1      -3.295   1.355  -7.502  1.00  0.00     0.198 A 
ATOM     75  F   UNL     1      -2.285   2.834  -5.975  1.00  0.00    -0.203 F 
ATOM     76  F   UNL     1      -3.043   1.160 -11.110  1.00  0.00    -0.200 F 
ATOM     77  C   UNL     1      -3.493   0.924  -8.805  1.00  0.00     0.200 A 
ATOM     78  F   UNL     1      -3.928   0.745  -6.490  1.00  0.00    -0.200 F 
ATOM     79  F   UNL     1      -4.331  -0.091  -9.056  1.00  0.00    -0.200 F 
ENDBRANCH  45  69
BRANCH  57  80
ATOM     80  C   UNL     1      -2.069   9.899  -9.630  1.00  0.00     0.064 A 
ATOM     81  C   UNL     1      -3.310  10.191  -9.044  1.00  0.00     0.173 A 
ATOM     82  C   UNL     1      -1.786  10.463 -10.883  1.00  0.00     0.173 A 
ATOM     83  F   UNL     1      -3.635   9.662  -7.854  1.00  0.00    -0.203 F 
ATOM     84  C   UNL     1      -4.237  10.999  -9.696  1.00  0.00     0.198 A 
ATOM     85  C   UNL     1      -2.704  11.294 -11.519  1.00  0.00     0.198 A 
ATOM     86  F   UNL     1      -0.611  10.220 -11.484  1.00  0.00    -0.203 F 
ATOM     87  F   UNL     1      -5.433  11.230  -9.137  1.00  0.00    -0.200 F 
ATOM     88  C   UNL     1      -3.931  11.556 -10.929  1.00  0.00     0.200 A 
ATOM     89  F   UNL     1      -2.401  11.842 -12.704  1.00  0.00    -0.200 F 
ATOM     90  F   UNL     1      -4.821  12.341 -11.551  1.00  0.00    -0.200 F 
ENDBRANCH  57  80
ENDBRANCH  31  32
ENDBRANCH  24  26
ENDBRANCH  23  24
ENDBRANCH  22  23
ENDBRANCH  21  22
ENDBRANCH   1  21
TORSDOF 16
