REMARK SMILES O=C(OCCOCCOC(=O)c1ccc(S(=O)(=O)N[C@@H]2CC[N@@H+]3CCC[C@H]23)cc1)c1ccc(-c2c3nc(c(-c4c(F)c(F)c(F)c(F)c4F)c4ccc([nH]4)c(-c4c(F)c(F)c(F)c(F)c4F)c4nc(c(-c5c(F)c(F)c(F)c(F)c5F)c5ccc2[nH]5)C=C4)C=C3)cc1
REMARK SMILES IDX 7 1 6 2 5 3 4 4 3 5 2 6 1 7 30 8 31 9 92 10 32 11 91 12
REMARK SMILES IDX 33 13 34 14 35 15 85 16 36 17 90 18 84 19 86 20 37 21 89 22
REMARK SMILES IDX 83 23 82 24 38 26 70 27 50 28 69 29 51 30 54 31 68 32 87 33
REMARK SMILES IDX 52 34 53 35 67 37 88 38 55 39 39 40 40 41 48 42 41 43 42 44
REMARK SMILES IDX 46 45 49 46 43 47 44 48 47 49 45 50 71 51 72 52 80 53 73 54
REMARK SMILES IDX 74 55 78 56 81 57 75 58 76 59 79 60 77 61 56 62 57 63 65 64
REMARK SMILES IDX 58 65 59 66 63 67 66 68 60 69 61 70 64 71 62 72 8 73 9 74
REMARK SMILES IDX 10 75 11 76 12 77 13 78 29 79 14 80 28 81 15 82 16 83 17 84
REMARK SMILES IDX 18 85 19 86 20 88 21 89 27 90 22 91 23 92 26 93 24 94 25 96
REMARK H PARENT 86 25 54 36 19 87 23 95
REMARK Flexibility Score: inf
ROOT
ATOM      1  C   UNL     1       2.547   2.092   0.384  1.00  0.00     0.202 C 
ENDROOT
BRANCH   1   2
ATOM      2  O   UNL     1       3.862   1.696  -0.033  1.00  0.00    -0.374 OA
BRANCH   2   3
ATOM      3  C   UNL     1       3.957   1.193  -1.368  1.00  0.00     0.202 C 
BRANCH   3   4
ATOM      4  C   UNL     1       3.646  -0.301  -1.501  1.00  0.00     0.261 C 
BRANCH   4   5
ATOM      5  O   UNL     1       2.307  -0.572  -1.051  1.00  0.00    -0.460 OA
BRANCH   5   6
ATOM      6  C   UNL     1       1.897  -1.202   0.073  1.00  0.00     0.338 C 
ATOM      7  O   UNL     1       0.697  -1.438   0.206  1.00  0.00    -0.246 OA
BRANCH   6   8
ATOM      8  C   UNL     1       2.811  -1.618   1.182  1.00  0.00     0.060 A 
ATOM      9  C   UNL     1       4.051  -1.042   1.463  1.00  0.00     0.016 A 
ATOM     10  C   UNL     1       2.332  -2.602   2.067  1.00  0.00     0.016 A 
ATOM     11  C   UNL     1       4.826  -1.475   2.533  1.00  0.00     0.010 A 
ATOM     12  C   UNL     1       3.081  -3.007   3.178  1.00  0.00     0.010 A 
ATOM     13  C   UNL     1       4.345  -2.454   3.401  1.00  0.00    -0.014 A 
BRANCH  13  14
ATOM     14  C   UNL     1       5.224  -2.904   4.497  1.00  0.00     0.031 A 
ATOM     15  C   UNL     1       5.941  -4.212   4.365  1.00  0.00     0.074 A 
ATOM     16  C   UNL     1       5.477  -2.069   5.522  1.00  0.00     0.049 A 
ATOM     17  N   UNL     1       6.804  -4.767   5.173  1.00  0.00    -0.248 NA
ATOM     18  C   UNL     1       5.661  -4.993   3.149  1.00  0.00     0.031 C 
ATOM     19  C   UNL     1       4.884  -0.740   5.688  1.00  0.00     0.029 A 
ATOM     20  N   UNL     1       6.327  -2.191   6.589  1.00  0.00    -0.354 N 
ATOM     21  C   UNL     1       7.172  -5.958   4.566  1.00  0.00     0.074 A 
ATOM     22  C   UNL     1       6.424  -6.060   3.332  1.00  0.00     0.031 C 
ATOM     23  C   UNL     1       5.417  -0.155   6.772  1.00  0.00     0.029 A 
ATOM     24  C   UNL     1       6.349  -1.084   7.402  1.00  0.00     0.049 A 
ATOM     25  H   UNL     1       6.869  -2.996   6.758  1.00  0.00     0.167 HD
ATOM     26  C   UNL     1       8.060  -6.881   5.002  1.00  0.00     0.037 A 
ATOM     27  C   UNL     1       7.042  -0.857   8.534  1.00  0.00     0.037 A 
ATOM     28  C   UNL     1       8.777  -6.775   6.244  1.00  0.00     0.049 A 
ATOM     29  C   UNL     1       7.971  -1.931   9.029  1.00  0.00     0.074 A 
ATOM     30  C   UNL     1       9.618  -7.694   6.843  1.00  0.00     0.029 A 
ATOM     31  N   UNL     1       8.735  -5.664   7.076  1.00  0.00    -0.354 N 
ATOM     32  N   UNL     1       8.264  -3.088   8.482  1.00  0.00    -0.248 NA
ATOM     33  C   UNL     1       8.660  -1.677  10.301  1.00  0.00     0.031 C 
ATOM     34  C   UNL     1      10.066  -7.148   8.053  1.00  0.00     0.029 A 
ATOM     35  C   UNL     1       9.532  -5.875   8.188  1.00  0.00     0.049 A 
ATOM     36  H   UNL     1       8.214  -4.847   6.902  1.00  0.00     0.167 HD
ATOM     37  C   UNL     1       9.167  -3.698   9.338  1.00  0.00     0.074 A 
ATOM     38  C   UNL     1       9.403  -2.768  10.425  1.00  0.00     0.031 C 
ATOM     39  C   UNL     1       9.740  -4.924   9.248  1.00  0.00     0.037 A 
BRANCH  26  40
ATOM     40  C   UNL     1       8.254  -8.094   4.145  1.00  0.00     0.064 A 
ATOM     41  C   UNL     1       8.981  -8.035   2.946  1.00  0.00     0.173 A 
ATOM     42  C   UNL     1       7.681  -9.321   4.508  1.00  0.00     0.173 A 
ATOM     43  F   UNL     1       9.523  -6.876   2.542  1.00  0.00    -0.203 F 
ATOM     44  C   UNL     1       9.106  -9.156   2.130  1.00  0.00     0.198 A 
ATOM     45  C   UNL     1       7.826 -10.445   3.700  1.00  0.00     0.198 A 
ATOM     46  F   UNL     1       6.969  -9.426   5.640  1.00  0.00    -0.203 F 
ATOM     47  F   UNL     1       9.761  -9.066   0.964  1.00  0.00    -0.200 F 
ATOM     48  C   UNL     1       8.531 -10.361   2.508  1.00  0.00     0.200 A 
ATOM     49  F   UNL     1       7.268 -11.608   4.066  1.00  0.00    -0.200 F 
ATOM     50  F   UNL     1       8.643 -11.436   1.717  1.00  0.00    -0.200 F 
ENDBRANCH  26  40
BRANCH  27  51
ATOM     51  C   UNL     1       6.860   0.416   9.281  1.00  0.00     0.064 A 
ATOM     52  C   UNL     1       7.902   1.345   9.406  1.00  0.00     0.173 A 
ATOM     53  C   UNL     1       5.637   0.724   9.897  1.00  0.00     0.173 A 
ATOM     54  F   UNL     1       9.098   1.088   8.857  1.00  0.00    -0.203 F 
ATOM     55  C   UNL     1       7.733   2.523  10.133  1.00  0.00     0.198 A 
ATOM     56  C   UNL     1       5.460   1.915  10.597  1.00  0.00     0.198 A 
ATOM     57  F   UNL     1       4.607  -0.131   9.811  1.00  0.00    -0.203 F 
ATOM     58  F   UNL     1       8.760   3.371  10.278  1.00  0.00    -0.200 F 
ATOM     59  C   UNL     1       6.511   2.810  10.722  1.00  0.00     0.200 A 
ATOM     60  F   UNL     1       4.273   2.193  11.153  1.00  0.00    -0.200 F 
ATOM     61  F   UNL     1       6.348   3.943  11.418  1.00  0.00    -0.200 F 
ENDBRANCH  27  51
BRANCH  39  62
ATOM     62  C   UNL     1      10.672  -5.314  10.354  1.00  0.00     0.064 A 
ATOM     63  C   UNL     1      10.186  -5.685  11.616  1.00  0.00     0.173 A 
ATOM     64  C   UNL     1      12.056  -5.348  10.140  1.00  0.00     0.173 A 
ATOM     65  F   UNL     1       8.868  -5.651  11.869  1.00  0.00    -0.203 F 
ATOM     66  C   UNL     1      11.058  -6.056  12.634  1.00  0.00     0.198 A 
ATOM     67  C   UNL     1      12.924  -5.742  11.154  1.00  0.00     0.198 A 
ATOM     68  F   UNL     1      12.565  -5.006   8.947  1.00  0.00    -0.203 F 
ATOM     69  F   UNL     1      10.577  -6.367  13.846  1.00  0.00    -0.200 F 
ATOM     70  C   UNL     1      12.425  -6.090  12.401  1.00  0.00     0.200 A 
ATOM     71  F   UNL     1      14.244  -5.782  10.926  1.00  0.00    -0.200 F 
ATOM     72  F   UNL     1      13.264  -6.449  13.382  1.00  0.00    -0.200 F 
ENDBRANCH  39  62
ENDBRANCH  13  14
ENDBRANCH   6   8
ENDBRANCH   5   6
ENDBRANCH   4   5
ENDBRANCH   3   4
ENDBRANCH   2   3
ENDBRANCH   1   2
BRANCH   1  73
ATOM     73  C   UNL     1       2.634   3.405   1.169  1.00  0.00     0.261 C 
BRANCH  73  74
ATOM     74  O   UNL     1       3.055   4.428   0.256  1.00  0.00    -0.460 OA
BRANCH  74  75
ATOM     75  C   UNL     1       4.401   4.518   0.120  1.00  0.00     0.338 C 
ATOM     76  O   UNL     1       5.237   4.325   0.986  1.00  0.00    -0.246 OA
BRANCH  75  77
ATOM     77  C   UNL     1       4.715   4.675  -1.322  1.00  0.00     0.060 A 
ATOM     78  C   UNL     1       5.977   4.257  -1.764  1.00  0.00     0.017 A 
ATOM     79  C   UNL     1       3.764   5.142  -2.242  1.00  0.00     0.017 A 
ATOM     80  C   UNL     1       6.307   4.343  -3.114  1.00  0.00     0.022 A 
ATOM     81  C   UNL     1       4.084   5.216  -3.596  1.00  0.00     0.022 A 
ATOM     82  C   UNL     1       5.367   4.846  -4.016  1.00  0.00     0.082 A 
BRANCH  82  83
ATOM     83  S   UNL     1       5.885   5.235  -5.668  1.00  0.00     0.241 S 
ATOM     84  O   UNL     1       7.330   5.274  -5.683  1.00  0.00    -0.207 OA
ATOM     85  O   UNL     1       5.125   4.406  -6.572  1.00  0.00    -0.207 OA
BRANCH  83  86
ATOM     86  N   UNL     1       5.336   6.800  -5.867  1.00  0.00    -0.202 NA
ATOM     87  H   UNL     1       4.318   6.746  -5.891  1.00  0.00     0.141 HD
BRANCH  86  88
ATOM     88  C   UNL     1       5.670   7.862  -4.911  1.00  0.00     0.133 C 
ATOM     89  C   UNL     1       4.668   9.015  -5.030  1.00  0.00     0.087 C 
ATOM     90  C   UNL     1       7.051   8.503  -5.090  1.00  0.00     0.202 C 
ATOM     91  C   UNL     1       5.493  10.201  -5.498  1.00  0.00     0.264 C 
ATOM     92  N   UNL     1       6.802   9.947  -4.892  1.00  0.00    -0.331 N 
ATOM     93  C   UNL     1       7.713   8.399  -6.458  1.00  0.00     0.072 C 
ATOM     94  C   UNL     1       7.891  10.653  -5.565  1.00  0.00     0.262 C 
ATOM     95  H   UNL     1       6.782  10.256  -3.920  1.00  0.00     0.348 HD
ATOM     96  C   UNL     1       8.432   9.725  -6.643  1.00  0.00     0.068 C 
ENDBRANCH  86  88
ENDBRANCH  83  86
ENDBRANCH  82  83
ENDBRANCH  75  77
ENDBRANCH  74  75
ENDBRANCH  73  74
ENDBRANCH   1  73
TORSDOF 17
